MODEL 1
REMARK minimizedAffinity -9.88378239
REMARK  9 active torsions:
REMARK  status: ('A' for Active; 'I' for Inactive)
REMARK    1  A    between atoms: C3_3  and  O1_4 
REMARK    2  A    between atoms: N1_14  and  O2_16 
REMARK    3  A    between atoms: O2_16  and  C13_17 
REMARK    4  A    between atoms: C13_17  and  C14_18 
REMARK       I    between atoms: C14_18  and  N2_20 
REMARK    5  A    between atoms: N2_20  and  C15_21 
REMARK    6  A    between atoms: C15_21  and  C16_22 
REMARK    7  A    between atoms: C15_21  and  C17_25 
REMARK    8  A    between atoms: C16_22  and  O5_24 
REMARK    9  A    between atoms: C17_25  and  C19_27 
ROOT
HETATM    1  C1  UNL     1       4.615   8.933   9.624  1.00  0.00     0.015 C 
HETATM    2  C2  UNL     1       3.758   8.090   9.651  1.00  0.00    -0.078 C 
HETATM    3  C3  UNL     1       2.702   7.068   9.673  1.00  0.00     0.128 C 
HETATM    4  C4  UNL     1       3.268   5.632   9.553  1.00  0.00     0.052 C 
HETATM    5  C5  UNL     1       2.315   4.719  10.362  1.00  0.00     0.010 C 
HETATM    6  C6  UNL     1       1.170   5.636  10.782  1.00  0.00     0.002 C 
HETATM    7  C7  UNL     1       0.277   5.255  11.971  1.00  0.00    -0.004 C 
HETATM    8  C8  UNL     1      -0.275   3.818  11.926  1.00  0.00     0.010 C 
HETATM    9  C9  UNL     1      -1.769   3.734  11.639  1.00  0.00     0.035 C 
HETATM   10  C10 UNL     1      -2.622   4.643  12.500  1.00  0.00    -0.069 C 
HETATM   11  C11 UNL     1      -3.932   4.359  12.624  1.00  0.00     0.030 C 
HETATM   12  C12 UNL     1      -4.885   5.286  13.303  1.00  0.00     0.032 C 
HETATM   13  N1  UNL     1      -6.163   5.091  13.438  1.00  0.00    -0.271 N 
ATOM     14  H1  UNL     1      -6.793   5.738  13.912  1.00  0.00     0.194 HD
HETATM   15  C21 UNL     1      -4.325   6.569  13.884  1.00  0.00     0.060 C 
HETATM   16  C22 UNL     1      -3.072   7.021  13.142  1.00  0.00     0.020 C 
HETATM   17  C23 UNL     1      -1.981   5.919  13.058  1.00  0.00    -0.016 C 
HETATM   18  C24 UNL     1      -1.429   5.659  14.479  1.00  0.00     0.020 C 
HETATM   19  C25 UNL     1      -0.853   6.336  12.060  1.00  0.00     0.002 C 
HETATM   20  C26 UNL     1      -0.234   7.738  12.270  1.00  0.00     0.007 C 
HETATM   21  C27 UNL     1       0.775   8.090  11.154  1.00  0.00     0.014 C 
HETATM   22  C28 UNL     1       1.866   7.013  10.985  1.00  0.00     0.003 C 
HETATM   23  C29 UNL     1       2.802   7.053  12.231  1.00  0.00     0.020 C 
ENDROOT
BRANCH   3  24
HETATM   24  O1  UNL     1       1.849   7.284   8.545  1.00  0.00    -0.377 OA
HETATM   25  H2  UNL     1       1.741   8.244   8.445  1.00  0.00     0.211 HD
ENDBRANCH   3  24
BRANCH  13  26
HETATM   26  O2  UNL     1      -6.571   3.880  12.852  1.00  0.00    -0.271 OA
BRANCH  26  27
HETATM   27  C13 UNL     1      -7.992   3.840  12.755  1.00  0.00     0.303 C 
BRANCH  27  28
HETATM   28  C14 UNL     1      -8.643   5.217  12.644  1.00  0.00     0.244 C 
HETATM   29  O3  UNL     1      -8.484   5.943  11.663  1.00  0.00    -0.271 OA
HETATM   30  N2  UNL     1      -9.397   5.582  13.737  1.00  0.00    -0.344 N 
HETATM   31  H16 UNL     1      -9.228   5.010  14.564  1.00  0.00     0.163 HD
BRANCH  30  32
HETATM   32  C15 UNL     1      -9.938   6.932  13.903  1.00  0.00     0.186 C 
BRANCH  32  33
HETATM   33  C16 UNL     1      -9.795   7.277  15.391  1.00  0.00     0.163 C 
HETATM   34  O4  UNL     1     -10.052   8.353  15.914  1.00  0.00    -0.648 OA
BRANCH  33  35
HETATM   35  O5  UNL     1      -9.326   6.262  16.142  1.00  0.00    -0.775 OA
HETATM   36  H18 UNL     1      -9.344   6.614  17.057  1.00  0.00     0.167 HD
ENDBRANCH  33  35
ENDBRANCH  32  33
BRANCH  32  37
HETATM   37  C17 UNL     1     -11.389   6.976  13.368  1.00  0.00     0.014 C 
HETATM   38  C18 UNL     1     -12.454   6.668  14.426  1.00  0.00     0.012 C 
BRANCH  37  39
HETATM   39  C19 UNL     1     -11.720   8.264  12.582  1.00  0.00     0.002 C 
HETATM   40  C20 UNL     1     -11.591   9.575  13.341  1.00  0.00     0.005 C 
ENDBRANCH  37  39
ENDBRANCH  32  37
ENDBRANCH  30  32
ENDBRANCH  27  28
ENDBRANCH  26  27
ENDBRANCH  13  26
TORSDOF 9
ENDMDL
MODEL 2
REMARK minimizedAffinity -9.51627445
REMARK  9 active torsions:
REMARK  status: ('A' for Active; 'I' for Inactive)
REMARK    1  A    between atoms: C3_3  and  O1_4 
REMARK    2  A    between atoms: N1_14  and  O2_16 
REMARK    3  A    between atoms: O2_16  and  C13_17 
REMARK    4  A    between atoms: C13_17  and  C14_18 
REMARK       I    between atoms: C14_18  and  N2_20 
REMARK    5  A    between atoms: N2_20  and  C15_21 
REMARK    6  A    between atoms: C15_21  and  C16_22 
REMARK    7  A    between atoms: C15_21  and  C17_25 
REMARK    8  A    between atoms: C16_22  and  O5_24 
REMARK    9  A    between atoms: C17_25  and  C19_27 
ROOT
HETATM    1  C1  UNL     1       5.002   8.937  10.040  1.00  0.00     0.015 C 
HETATM    2  C2  UNL     1       4.088   8.157   9.997  1.00  0.00    -0.078 C 
HETATM    3  C3  UNL     1       2.963   7.213   9.933  1.00  0.00     0.128 C 
HETATM    4  C4  UNL     1       3.432   5.748   9.759  1.00  0.00     0.052 C 
HETATM    5  C5  UNL     1       2.389   4.868  10.490  1.00  0.00     0.010 C 
HETATM    6  C6  UNL     1       1.296   5.843  10.918  1.00  0.00     0.002 C 
HETATM    7  C7  UNL     1       0.336   5.470  12.057  1.00  0.00    -0.004 C 
HETATM    8  C8  UNL     1      -0.312   4.080  11.922  1.00  0.00     0.010 C 
HETATM    9  C9  UNL     1      -1.797   4.116  11.582  1.00  0.00     0.035 C 
HETATM   10  C10 UNL     1      -2.615   5.042  12.459  1.00  0.00    -0.069 C 
HETATM   11  C11 UNL     1      -3.945   4.847  12.526  1.00  0.00     0.030 C 
HETATM   12  C12 UNL     1      -4.855   5.806  13.220  1.00  0.00     0.032 C 
HETATM   13  N1  UNL     1      -6.148   5.696  13.304  1.00  0.00    -0.271 N 
ATOM     14  H1  UNL     1      -6.748   6.363  13.788  1.00  0.00     0.194 HD
HETATM   15  C21 UNL     1      -4.228   7.016  13.883  1.00  0.00     0.060 C 
HETATM   16  C22 UNL     1      -2.921   7.412  13.205  1.00  0.00     0.020 C 
HETATM   17  C23 UNL     1      -1.908   6.241  13.102  1.00  0.00    -0.016 C 
HETATM   18  C24 UNL     1      -1.427   5.875  14.525  1.00  0.00     0.020 C 
HETATM   19  C25 UNL     1      -0.718   6.623  12.163  1.00  0.00     0.002 C 
HETATM   20  C26 UNL     1      -0.011   7.966  12.464  1.00  0.00     0.007 C 
HETATM   21  C27 UNL     1       1.060   8.299  11.400  1.00  0.00     0.014 C 
HETATM   22  C28 UNL     1       2.079   7.156  11.213  1.00  0.00     0.003 C 
HETATM   23  C29 UNL     1       2.970   7.069  12.489  1.00  0.00     0.020 C 
ENDROOT
BRANCH   3  24
HETATM   24  O1  UNL     1       2.168   7.543   8.790  1.00  0.00    -0.377 OA
HETATM   25  H2  UNL     1       2.131   8.512   8.735  1.00  0.00     0.211 HD
ENDBRANCH   3  24
BRANCH  13  26
HETATM   26  O2  UNL     1      -6.618   4.547  12.644  1.00  0.00    -0.271 OA
BRANCH  26  27
HETATM   27  C13 UNL     1      -7.993   4.336  12.952  1.00  0.00     0.303 C 
BRANCH  27  28
HETATM   28  C14 UNL     1      -8.764   5.622  13.246  1.00  0.00     0.244 C 
HETATM   29  O3  UNL     1      -9.003   6.459  12.378  1.00  0.00    -0.271 OA
HETATM   30  N2  UNL     1      -9.144   5.771  14.561  1.00  0.00    -0.344 N 
HETATM   31  H16 UNL     1      -8.662   5.143  15.204  1.00  0.00     0.163 HD
BRANCH  30  32
HETATM   32  C15 UNL     1      -9.717   7.014  15.077  1.00  0.00     0.186 C 
BRANCH  32  33
HETATM   33  C16 UNL     1     -11.053   7.213  14.349  1.00  0.00     0.163 C 
HETATM   34  O4  UNL     1     -11.321   8.103  13.554  1.00  0.00    -0.648 OA
BRANCH  33  35
HETATM   35  O5  UNL     1     -11.987   6.295  14.667  1.00  0.00    -0.775 OA
HETATM   36  H18 UNL     1     -12.748   6.520  14.091  1.00  0.00     0.167 HD
ENDBRANCH  33  35
ENDBRANCH  32  33
BRANCH  32  37
HETATM   37  C17 UNL     1      -8.703   8.168  14.888  1.00  0.00     0.014 C 
HETATM   38  C18 UNL     1      -9.278   9.559  15.177  1.00  0.00     0.012 C 
BRANCH  37  39
HETATM   39  C19 UNL     1      -7.363   7.940  15.620  1.00  0.00     0.002 C 
HETATM   40  C20 UNL     1      -7.389   6.989  16.806  1.00  0.00     0.005 C 
ENDBRANCH  37  39
ENDBRANCH  32  37
ENDBRANCH  30  32
ENDBRANCH  27  28
ENDBRANCH  26  27
ENDBRANCH  13  26
TORSDOF 9
ENDMDL
MODEL 3
REMARK minimizedAffinity -9.32840824
REMARK  9 active torsions:
REMARK  status: ('A' for Active; 'I' for Inactive)
REMARK    1  A    between atoms: C3_3  and  O1_4 
REMARK    2  A    between atoms: N1_14  and  O2_16 
REMARK    3  A    between atoms: O2_16  and  C13_17 
REMARK    4  A    between atoms: C13_17  and  C14_18 
REMARK       I    between atoms: C14_18  and  N2_20 
REMARK    5  A    between atoms: N2_20  and  C15_21 
REMARK    6  A    between atoms: C15_21  and  C16_22 
REMARK    7  A    between atoms: C15_21  and  C17_25 
REMARK    8  A    between atoms: C16_22  and  O5_24 
REMARK    9  A    between atoms: C17_25  and  C19_27 
ROOT
HETATM    1  C1  UNL     1       4.607   8.422   9.873  1.00  0.00     0.015 C 
HETATM    2  C2  UNL     1       3.613   7.761  10.013  1.00  0.00    -0.078 C 
HETATM    3  C3  UNL     1       2.389   6.962  10.169  1.00  0.00     0.128 C 
HETATM    4  C4  UNL     1       2.689   5.454  10.349  1.00  0.00     0.052 C 
HETATM    5  C5  UNL     1       1.573   4.894  11.264  1.00  0.00     0.010 C 
HETATM    6  C6  UNL     1       0.604   6.059  11.444  1.00  0.00     0.002 C 
HETATM    7  C7  UNL     1      -0.365   6.076  12.634  1.00  0.00    -0.004 C 
HETATM    8  C8  UNL     1      -1.166   4.775  12.830  1.00  0.00     0.010 C 
HETATM    9  C9  UNL     1      -2.645   4.897  12.485  1.00  0.00     0.035 C 
HETATM   10  C10 UNL     1      -3.336   6.089  13.115  1.00  0.00    -0.069 C 
HETATM   11  C11 UNL     1      -4.678   6.066  13.220  1.00  0.00     0.030 C 
HETATM   12  C12 UNL     1      -5.460   7.258  13.664  1.00  0.00     0.032 C 
HETATM   13  N1  UNL     1      -6.755   7.317  13.765  1.00  0.00    -0.271 N 
ATOM     14  H1  UNL     1      -7.267   8.143  14.075  1.00  0.00     0.194 HD
HETATM   15  C21 UNL     1      -4.689   8.512  14.023  1.00  0.00     0.060 C 
HETATM   16  C22 UNL     1      -3.362   8.587  13.276  1.00  0.00     0.020 C 
HETATM   17  C23 UNL     1      -2.486   7.318  13.458  1.00  0.00    -0.016 C 
HETATM   18  C24 UNL     1      -2.017   7.246  14.929  1.00  0.00     0.020 C 
HETATM   19  C25 UNL     1      -1.283   7.332  12.460  1.00  0.00     0.002 C 
HETATM   20  C26 UNL     1      -0.426   8.620  12.437  1.00  0.00     0.007 C 
HETATM   21  C27 UNL     1       0.651   8.570  11.329  1.00  0.00     0.014 C 
HETATM   22  C28 UNL     1       1.533   7.308  11.423  1.00  0.00     0.003 C 
HETATM   23  C29 UNL     1       2.437   7.424  12.687  1.00  0.00     0.020 C 
ENDROOT
BRANCH   3  24
HETATM   24  O1  UNL     1       1.610   7.100   8.978  1.00  0.00    -0.377 OA
HETATM   25  H2  UNL     1       1.679   8.027   8.694  1.00  0.00     0.211 HD
ENDBRANCH   3  24
BRANCH  13  26
HETATM   26  O2  UNL     1      -7.364   6.105  13.394  1.00  0.00    -0.271 OA
BRANCH  26  27
HETATM   27  C13 UNL     1      -8.686   6.043  13.920  1.00  0.00     0.303 C 
BRANCH  27  28
HETATM   28  C14 UNL     1      -9.772   6.404  12.908  1.00  0.00     0.244 C 
HETATM   29  O3  UNL     1      -9.650   6.180  11.704  1.00  0.00    -0.271 OA
HETATM   30  N2  UNL     1     -10.878   7.018  13.452  1.00  0.00    -0.344 N 
HETATM   31  H16 UNL     1     -10.731   7.370  14.397  1.00  0.00     0.163 HD
BRANCH  30  32
HETATM   32  C15 UNL     1     -11.932   7.611  12.628  1.00  0.00     0.186 C 
BRANCH  32  33
HETATM   33  C16 UNL     1     -11.731   9.131  12.691  1.00  0.00     0.163 C 
HETATM   34  O4  UNL     1     -11.274   9.764  13.633  1.00  0.00    -0.648 OA
BRANCH  33  35
HETATM   35  O5  UNL     1     -12.125   9.778  11.578  1.00  0.00    -0.775 OA
HETATM   36  H18 UNL     1     -11.886  10.714  11.748  1.00  0.00     0.167 HD
ENDBRANCH  33  35
ENDBRANCH  32  33
BRANCH  32  37
HETATM   37  C17 UNL     1     -13.313   7.123  13.127  1.00  0.00     0.014 C 
HETATM   38  C18 UNL     1     -13.257   6.319  14.430  1.00  0.00     0.012 C 
BRANCH  37  39
HETATM   39  C19 UNL     1     -14.378   8.240  13.189  1.00  0.00     0.002 C 
HETATM   40  C20 UNL     1     -15.411   8.258  12.074  1.00  0.00     0.005 C 
ENDBRANCH  37  39
ENDBRANCH  32  37
ENDBRANCH  30  32
ENDBRANCH  27  28
ENDBRANCH  26  27
ENDBRANCH  13  26
TORSDOF 9
ENDMDL
MODEL 4
REMARK minimizedAffinity -9.20564938
REMARK  9 active torsions:
REMARK  status: ('A' for Active; 'I' for Inactive)
REMARK    1  A    between atoms: C3_3  and  O1_4 
REMARK    2  A    between atoms: N1_14  and  O2_16 
REMARK    3  A    between atoms: O2_16  and  C13_17 
REMARK    4  A    between atoms: C13_17  and  C14_18 
REMARK       I    between atoms: C14_18  and  N2_20 
REMARK    5  A    between atoms: N2_20  and  C15_21 
REMARK    6  A    between atoms: C15_21  and  C16_22 
REMARK    7  A    between atoms: C15_21  and  C17_25 
REMARK    8  A    between atoms: C16_22  and  O5_24 
REMARK    9  A    between atoms: C17_25  and  C19_27 
ROOT
HETATM    1  C1  UNL     1     -14.613   8.707  12.913  1.00  0.00     0.015 C 
HETATM    2  C2  UNL     1     -13.437   8.903  13.068  1.00  0.00    -0.078 C 
HETATM    3  C3  UNL     1     -11.997   9.144  13.239  1.00  0.00     0.128 C 
HETATM    4  C4  UNL     1     -11.703  10.206  14.327  1.00  0.00     0.052 C 
HETATM    5  C5  UNL     1     -10.353   9.805  14.972  1.00  0.00     0.010 C 
HETATM    6  C6  UNL     1      -9.860   8.631  14.132  1.00  0.00     0.002 C 
HETATM    7  C7  UNL     1      -8.822   7.657  14.707  1.00  0.00    -0.004 C 
HETATM    8  C8  UNL     1      -7.585   8.330  15.330  1.00  0.00     0.010 C 
HETATM    9  C9  UNL     1      -6.308   8.159  14.517  1.00  0.00     0.035 C 
HETATM   10  C10 UNL     1      -6.025   6.733  14.093  1.00  0.00    -0.069 C 
HETATM   11  C11 UNL     1      -4.765   6.408  13.747  1.00  0.00     0.030 C 
HETATM   12  C12 UNL     1      -4.421   5.083  13.152  1.00  0.00     0.032 C 
HETATM   13  N1  UNL     1      -3.234   4.709  12.773  1.00  0.00    -0.271 N 
ATOM     14  H1  UNL     1      -3.023   3.795  12.373  1.00  0.00     0.194 HD
HETATM   15  C21 UNL     1      -5.543   4.082  12.967  1.00  0.00     0.060 C 
HETATM   16  C22 UNL     1      -6.890   4.776  12.792  1.00  0.00     0.020 C 
HETATM   17  C23 UNL     1      -7.213   5.777  13.934  1.00  0.00    -0.016 C 
HETATM   18  C24 UNL     1      -7.435   4.983  15.242  1.00  0.00     0.020 C 
HETATM   19  C25 UNL     1      -8.454   6.652  13.564  1.00  0.00     0.002 C 
HETATM   20  C26 UNL     1      -9.717   5.889  13.097  1.00  0.00     0.007 C 
HETATM   21  C27 UNL     1     -10.832   6.857  12.639  1.00  0.00     0.014 C 
HETATM   22  C28 UNL     1     -11.175   7.910  13.713  1.00  0.00     0.003 C 
HETATM   23  C29 UNL     1     -11.893   7.198  14.898  1.00  0.00     0.020 C 
ENDROOT
BRANCH   3  24
HETATM   24  O1  UNL     1     -11.479   9.648  12.005  1.00  0.00    -0.377 OA
HETATM   25  H2  UNL     1     -11.915   9.158  11.288  1.00  0.00     0.211 HD
ENDBRANCH   3  24
BRANCH  13  26
HETATM   26  O2  UNL     1      -2.278   5.719  12.980  1.00  0.00    -0.271 OA
BRANCH  26  27
HETATM   27  C13 UNL     1      -1.245   5.619  12.004  1.00  0.00     0.303 C 
BRANCH  27  28
HETATM   28  C14 UNL     1      -0.511   6.933  11.745  1.00  0.00     0.244 C 
HETATM   29  O3  UNL     1      -0.689   7.935  12.436  1.00  0.00    -0.271 OA
HETATM   30  N2  UNL     1       0.343   6.906  10.664  1.00  0.00    -0.344 N 
HETATM   31  H16 UNL     1       0.195   6.113  10.041  1.00  0.00     0.163 HD
BRANCH  30  32
HETATM   32  C15 UNL     1       0.985   8.112  10.140  1.00  0.00     0.186 C 
BRANCH  32  33
HETATM   33  C16 UNL     1       0.356   8.378   8.766  1.00  0.00     0.163 C 
HETATM   34  O4  UNL     1       0.712   7.896   7.700  1.00  0.00    -0.648 OA
BRANCH  33  35
HETATM   35  O5  UNL     1      -0.675   9.244   8.799  1.00  0.00    -0.775 OA
HETATM   36  H18 UNL     1      -0.998   9.266   7.873  1.00  0.00     0.167 HD
ENDBRANCH  33  35
ENDBRANCH  32  33
BRANCH  32  37
HETATM   37  C17 UNL     1       2.520   7.912  10.117  1.00  0.00     0.014 C 
HETATM   38  C18 UNL     1       3.122   7.552  11.480  1.00  0.00     0.012 C 
BRANCH  37  39
HETATM   39  C19 UNL     1       3.002   6.952   9.008  1.00  0.00     0.002 C 
HETATM   40  C20 UNL     1       3.201   5.498   9.405  1.00  0.00     0.005 C 
ENDBRANCH  37  39
ENDBRANCH  32  37
ENDBRANCH  30  32
ENDBRANCH  27  28
ENDBRANCH  26  27
ENDBRANCH  13  26
TORSDOF 9
ENDMDL
MODEL 5
REMARK minimizedAffinity -9.19699955
REMARK  9 active torsions:
REMARK  status: ('A' for Active; 'I' for Inactive)
REMARK    1  A    between atoms: C3_3  and  O1_4 
REMARK    2  A    between atoms: N1_14  and  O2_16 
REMARK    3  A    between atoms: O2_16  and  C13_17 
REMARK    4  A    between atoms: C13_17  and  C14_18 
REMARK       I    between atoms: C14_18  and  N2_20 
REMARK    5  A    between atoms: N2_20  and  C15_21 
REMARK    6  A    between atoms: C15_21  and  C16_22 
REMARK    7  A    between atoms: C15_21  and  C17_25 
REMARK    8  A    between atoms: C16_22  and  O5_24 
REMARK    9  A    between atoms: C17_25  and  C19_27 
ROOT
HETATM    1  C1  UNL     1       3.138   8.538   8.228  1.00  0.00     0.015 C 
HETATM    2  C2  UNL     1       2.537   7.885   9.039  1.00  0.00    -0.078 C 
HETATM    3  C3  UNL     1       1.790   7.082  10.018  1.00  0.00     0.128 C 
HETATM    4  C4  UNL     1       2.719   6.193  10.881  1.00  0.00     0.052 C 
HETATM    5  C5  UNL     1       2.042   6.077  12.269  1.00  0.00     0.010 C 
HETATM    6  C6  UNL     1       0.694   6.769  12.098  1.00  0.00     0.002 C 
HETATM    7  C7  UNL     1      -0.068   7.283  13.328  1.00  0.00    -0.004 C 
HETATM    8  C8  UNL     1      -0.217   6.258  14.467  1.00  0.00     0.010 C 
HETATM    9  C9  UNL     1      -1.634   5.727  14.645  1.00  0.00     0.035 C 
HETATM   10  C10 UNL     1      -2.700   6.802  14.705  1.00  0.00    -0.069 C 
HETATM   11  C11 UNL     1      -3.887   6.492  15.259  1.00  0.00     0.030 C 
HETATM   12  C12 UNL     1      -5.054   7.423  15.209  1.00  0.00     0.032 C 
HETATM   13  N1  UNL     1      -6.234   7.182  15.698  1.00  0.00    -0.271 N 
ATOM     14  H1  UNL     1      -7.015   7.837  15.656  1.00  0.00     0.194 HD
HETATM   15  C21 UNL     1      -4.856   8.762  14.529  1.00  0.00     0.060 C 
HETATM   16  C22 UNL     1      -3.768   8.695  13.463  1.00  0.00     0.020 C 
HETATM   17  C23 UNL     1      -2.423   8.134  13.999  1.00  0.00    -0.016 C 
HETATM   18  C24 UNL     1      -1.824   9.151  14.998  1.00  0.00     0.020 C 
HETATM   19  C25 UNL     1      -1.445   7.828  12.819  1.00  0.00     0.002 C 
HETATM   20  C26 UNL     1      -1.222   8.970  11.799  1.00  0.00     0.007 C 
HETATM   21  C27 UNL     1      -0.341   8.514  10.614  1.00  0.00     0.014 C 
HETATM   22  C28 UNL     1       0.997   7.903  11.076  1.00  0.00     0.003 C 
HETATM   23  C29 UNL     1       1.887   9.040  11.664  1.00  0.00     0.020 C 
ENDROOT
BRANCH   3  24
HETATM   24  O1  UNL     1       0.913   6.208   9.302  1.00  0.00    -0.377 OA
HETATM   25  H2  UNL     1       0.553   6.712   8.553  1.00  0.00     0.211 HD
ENDBRANCH   3  24
BRANCH  13  26
HETATM   26  O2  UNL     1      -6.304   5.910  16.292  1.00  0.00    -0.271 OA
BRANCH  26  27
HETATM   27  C13 UNL     1      -7.378   5.166  15.724  1.00  0.00     0.303 C 
BRANCH  27  28
HETATM   28  C14 UNL     1      -7.344   5.097  14.198  1.00  0.00     0.244 C 
HETATM   29  O3  UNL     1      -7.933   5.912  13.490  1.00  0.00    -0.271 OA
HETATM   30  N2  UNL     1      -6.624   4.038  13.691  1.00  0.00    -0.344 N 
HETATM   31  H16 UNL     1      -6.417   3.313  14.377  1.00  0.00     0.163 HD
BRANCH  30  32
HETATM   32  C15 UNL     1      -6.634   3.691  12.269  1.00  0.00     0.186 C 
BRANCH  32  33
HETATM   33  C16 UNL     1      -7.030   2.211  12.186  1.00  0.00     0.163 C 
HETATM   34  O4  UNL     1      -6.469   1.346  11.527  1.00  0.00    -0.648 OA
BRANCH  33  35
HETATM   35  O5  UNL     1      -8.114   1.897  12.920  1.00  0.00    -0.775 OA
HETATM   36  H18 UNL     1      -8.205   0.927  12.809  1.00  0.00     0.167 HD
ENDBRANCH  33  35
ENDBRANCH  32  33
BRANCH  32  37
HETATM   37  C17 UNL     1      -5.257   4.025  11.646  1.00  0.00     0.014 C 
HETATM   38  C18 UNL     1      -4.427   5.020  12.465  1.00  0.00     0.012 C 
BRANCH  37  39
HETATM   39  C19 UNL     1      -4.434   2.777  11.258  1.00  0.00     0.002 C 
HETATM   40  C20 UNL     1      -3.181   2.508  12.076  1.00  0.00     0.005 C 
ENDBRANCH  37  39
ENDBRANCH  32  37
ENDBRANCH  30  32
ENDBRANCH  27  28
ENDBRANCH  26  27
ENDBRANCH  13  26
TORSDOF 9
ENDMDL
MODEL 6
REMARK minimizedAffinity -9.04668903
REMARK  9 active torsions:
REMARK  status: ('A' for Active; 'I' for Inactive)
REMARK    1  A    between atoms: C3_3  and  O1_4 
REMARK    2  A    between atoms: N1_14  and  O2_16 
REMARK    3  A    between atoms: O2_16  and  C13_17 
REMARK    4  A    between atoms: C13_17  and  C14_18 
REMARK       I    between atoms: C14_18  and  N2_20 
REMARK    5  A    between atoms: N2_20  and  C15_21 
REMARK    6  A    between atoms: C15_21  and  C16_22 
REMARK    7  A    between atoms: C15_21  and  C17_25 
REMARK    8  A    between atoms: C16_22  and  O5_24 
REMARK    9  A    between atoms: C17_25  and  C19_27 
ROOT
HETATM    1  C1  UNL     1      -7.867   5.283  15.916  1.00  0.00     0.015 C 
HETATM    2  C2  UNL     1      -7.163   5.969  15.224  1.00  0.00    -0.078 C 
HETATM    3  C3  UNL     1      -6.309   6.800  14.363  1.00  0.00     0.128 C 
HETATM    4  C4  UNL     1      -6.329   8.291  14.777  1.00  0.00     0.052 C 
HETATM    5  C5  UNL     1      -4.927   8.855  14.438  1.00  0.00     0.010 C 
HETATM    6  C6  UNL     1      -4.220   7.715  13.710  1.00  0.00     0.002 C 
HETATM    7  C7  UNL     1      -2.688   7.690  13.627  1.00  0.00    -0.004 C 
HETATM    8  C8  UNL     1      -2.047   9.007  13.153  1.00  0.00     0.010 C 
HETATM    9  C9  UNL     1      -1.456   8.941  11.750  1.00  0.00     0.035 C 
HETATM   10  C10 UNL     1      -0.550   7.751  11.511  1.00  0.00    -0.069 C 
HETATM   11  C11 UNL     1       0.326   7.811  10.490  1.00  0.00     0.030 C 
HETATM   12  C12 UNL     1       1.136   6.630  10.068  1.00  0.00     0.032 C 
HETATM   13  N1  UNL     1       1.980   6.607   9.079  1.00  0.00    -0.271 N 
ATOM     14  H1  UNL     1       2.526   5.788   8.812  1.00  0.00     0.194 HD
HETATM   15  C21 UNL     1       0.962   5.342  10.847  1.00  0.00     0.060 C 
HETATM   16  C22 UNL     1      -0.424   5.251  11.476  1.00  0.00     0.020 C 
HETATM   17  C23 UNL     1      -0.783   6.486  12.345  1.00  0.00    -0.016 C 
HETATM   18  C24 UNL     1       0.130   6.496  13.593  1.00  0.00     0.020 C 
HETATM   19  C25 UNL     1      -2.298   6.468  12.729  1.00  0.00     0.002 C 
HETATM   20  C26 UNL     1      -2.832   5.156  13.352  1.00  0.00     0.007 C 
HETATM   21  C27 UNL     1      -4.361   5.209  13.572  1.00  0.00     0.014 C 
HETATM   22  C28 UNL     1      -4.795   6.440  14.394  1.00  0.00     0.003 C 
HETATM   23  C29 UNL     1      -4.308   6.255  15.863  1.00  0.00     0.020 C 
ENDROOT
BRANCH   3  24
HETATM   24  O1  UNL     1      -6.814   6.723  13.027  1.00  0.00    -0.377 OA
HETATM   25  H2  UNL     1      -7.091   5.805  12.875  1.00  0.00     0.211 HD
ENDBRANCH   3  24
BRANCH  13  26
HETATM   26  O2  UNL     1       2.049   7.848   8.422  1.00  0.00    -0.271 OA
BRANCH  26  27
HETATM   27  C13 UNL     1       3.364   8.384   8.532  1.00  0.00     0.303 C 
BRANCH  27  28
HETATM   28  C14 UNL     1       4.169   7.816   9.699  1.00  0.00     0.244 C 
HETATM   29  O3  UNL     1       4.405   6.614   9.813  1.00  0.00    -0.271 OA
HETATM   30  N2  UNL     1       4.582   8.755  10.618  1.00  0.00    -0.344 N 
HETATM   31  H16 UNL     1       4.101   9.651  10.537  1.00  0.00     0.163 HD
BRANCH  30  32
HETATM   32  C15 UNL     1       5.193   8.388  11.896  1.00  0.00     0.186 C 
BRANCH  32  33
HETATM   33  C16 UNL     1       6.211   7.282  11.590  1.00  0.00     0.163 C 
HETATM   34  O4  UNL     1       7.269   7.415  10.992  1.00  0.00    -0.648 OA
BRANCH  33  35
HETATM   35  O5  UNL     1       5.842   6.066  12.037  1.00  0.00    -0.775 OA
HETATM   36  H18 UNL     1       6.605   5.490  11.819  1.00  0.00     0.167 HD
ENDBRANCH  33  35
ENDBRANCH  32  33
BRANCH  32  37
HETATM   37  C17 UNL     1       4.086   7.985  12.900  1.00  0.00     0.014 C 
HETATM   38  C18 UNL     1       4.536   8.000  14.365  1.00  0.00     0.012 C 
BRANCH  37  39
HETATM   39  C19 UNL     1       2.760   8.753  12.701  1.00  0.00     0.002 C 
HETATM   40  C20 UNL     1       2.528   9.953  13.605  1.00  0.00     0.005 C 
ENDBRANCH  37  39
ENDBRANCH  32  37
ENDBRANCH  30  32
ENDBRANCH  27  28
ENDBRANCH  26  27
ENDBRANCH  13  26
TORSDOF 9
ENDMDL
MODEL 7
REMARK minimizedAffinity -8.83149338
REMARK  9 active torsions:
REMARK  status: ('A' for Active; 'I' for Inactive)
REMARK    1  A    between atoms: C3_3  and  O1_4 
REMARK    2  A    between atoms: N1_14  and  O2_16 
REMARK    3  A    between atoms: O2_16  and  C13_17 
REMARK    4  A    between atoms: C13_17  and  C14_18 
REMARK       I    between atoms: C14_18  and  N2_20 
REMARK    5  A    between atoms: N2_20  and  C15_21 
REMARK    6  A    between atoms: C15_21  and  C16_22 
REMARK    7  A    between atoms: C15_21  and  C17_25 
REMARK    8  A    between atoms: C16_22  and  O5_24 
REMARK    9  A    between atoms: C17_25  and  C19_27 
ROOT
HETATM    1  C1  UNL     1       3.215   8.376  11.464  1.00  0.00     0.015 C 
HETATM    2  C2  UNL     1       2.181   7.774  11.348  1.00  0.00    -0.078 C 
HETATM    3  C3  UNL     1       0.910   7.051  11.195  1.00  0.00     0.128 C 
HETATM    4  C4  UNL     1       1.120   5.541  10.927  1.00  0.00     0.052 C 
HETATM    5  C5  UNL     1      -0.083   4.813  11.573  1.00  0.00     0.010 C 
HETATM    6  C6  UNL     1      -1.002   5.935  12.047  1.00  0.00     0.002 C 
HETATM    7  C7  UNL     1      -2.048   5.663  13.138  1.00  0.00    -0.004 C 
HETATM    8  C8  UNL     1      -2.925   4.422  12.892  1.00  0.00     0.010 C 
HETATM    9  C9  UNL     1      -4.369   4.743  12.527  1.00  0.00     0.035 C 
HETATM   10  C10 UNL     1      -5.039   5.739  13.451  1.00  0.00    -0.069 C 
HETATM   11  C11 UNL     1      -6.385   5.778  13.478  1.00  0.00     0.030 C 
HETATM   12  C12 UNL     1      -7.134   6.835  14.221  1.00  0.00     0.032 C 
HETATM   13  N1  UNL     1      -8.428   6.951  14.271  1.00  0.00    -0.271 N 
ATOM     14  H1  UNL     1      -8.917   7.680  14.789  1.00  0.00     0.194 HD
HETATM   15  C21 UNL     1      -6.326   7.868  14.979  1.00  0.00     0.060 C 
HETATM   16  C22 UNL     1      -4.948   8.071  14.357  1.00  0.00     0.020 C 
HETATM   17  C23 UNL     1      -4.154   6.748  14.191  1.00  0.00    -0.016 C 
HETATM   18  C24 UNL     1      -3.790   6.209  15.593  1.00  0.00     0.020 C 
HETATM   19  C25 UNL     1      -2.886   6.975  13.305  1.00  0.00     0.002 C 
HETATM   20  C26 UNL     1      -1.964   8.149  13.714  1.00  0.00     0.007 C 
HETATM   21  C27 UNL     1      -0.819   8.356  12.698  1.00  0.00     0.014 C 
HETATM   22  C28 UNL     1      -0.011   7.066  12.450  1.00  0.00     0.003 C 
HETATM   23  C29 UNL     1       0.810   6.738  13.734  1.00  0.00     0.020 C 
ENDROOT
BRANCH   3  24
HETATM   24  O1  UNL     1       0.223   7.591  10.063  1.00  0.00    -0.377 OA
HETATM   25  H2  UNL     1       0.358   8.554  10.076  1.00  0.00     0.211 HD
ENDBRANCH   3  24
BRANCH  13  26
HETATM   26  O2  UNL     1      -9.071   5.949  13.522  1.00  0.00    -0.271 OA
BRANCH  26  27
HETATM   27  C13 UNL     1     -10.156   6.510  12.789  1.00  0.00     0.303 C 
BRANCH  27  28
HETATM   28  C14 UNL     1     -11.135   7.308  13.647  1.00  0.00     0.244 C 
HETATM   29  O3  UNL     1     -11.618   6.859  14.685  1.00  0.00    -0.271 OA
HETATM   30  N2  UNL     1     -11.447   8.554  13.149  1.00  0.00    -0.344 N 
HETATM   31  H16 UNL     1     -11.187   8.684  12.172  1.00  0.00     0.163 HD
BRANCH  30  32
HETATM   32  C15 UNL     1     -12.508   9.385  13.720  1.00  0.00     0.186 C 
BRANCH  32  33
HETATM   33  C16 UNL     1     -13.225  10.048  12.537  1.00  0.00     0.163 C 
HETATM   34  O4  UNL     1     -14.370  10.477  12.531  1.00  0.00    -0.648 OA
BRANCH  33  35
HETATM   35  O5  UNL     1     -12.475  10.126  11.421  1.00  0.00    -0.775 OA
HETATM   36  H18 UNL     1     -13.041  10.613  10.786  1.00  0.00     0.167 HD
ENDBRANCH  33  35
ENDBRANCH  32  33
BRANCH  32  37
HETATM   37  C17 UNL     1     -11.894  10.376  14.738  1.00  0.00     0.014 C 
HETATM   38  C18 UNL     1     -12.268  10.084  16.195  1.00  0.00     0.012 C 
BRANCH  37  39
HETATM   39  C19 UNL     1     -10.373  10.577  14.567  1.00  0.00     0.002 C 
HETATM   40  C20 UNL     1      -9.662  11.356  15.662  1.00  0.00     0.005 C 
ENDBRANCH  37  39
ENDBRANCH  32  37
ENDBRANCH  30  32
ENDBRANCH  27  28
ENDBRANCH  26  27
ENDBRANCH  13  26
TORSDOF 9
ENDMDL
MODEL 8
REMARK minimizedAffinity -8.69128323
REMARK  9 active torsions:
REMARK  status: ('A' for Active; 'I' for Inactive)
REMARK    1  A    between atoms: C3_3  and  O1_4 
REMARK    2  A    between atoms: N1_14  and  O2_16 
REMARK    3  A    between atoms: O2_16  and  C13_17 
REMARK    4  A    between atoms: C13_17  and  C14_18 
REMARK       I    between atoms: C14_18  and  N2_20 
REMARK    5  A    between atoms: N2_20  and  C15_21 
REMARK    6  A    between atoms: C15_21  and  C16_22 
REMARK    7  A    between atoms: C15_21  and  C17_25 
REMARK    8  A    between atoms: C16_22  and  O5_24 
REMARK    9  A    between atoms: C17_25  and  C19_27 
ROOT
HETATM    1  C1  UNL     1      -7.790   5.315  15.907  1.00  0.00     0.015 C 
HETATM    2  C2  UNL     1      -7.081   5.956  15.179  1.00  0.00    -0.078 C 
HETATM    3  C3  UNL     1      -6.220   6.730  14.273  1.00  0.00     0.128 C 
HETATM    4  C4  UNL     1      -6.277   8.250  14.563  1.00  0.00     0.052 C 
HETATM    5  C5  UNL     1      -4.877   8.812  14.213  1.00  0.00     0.010 C 
HETATM    6  C6  UNL     1      -4.131   7.632  13.600  1.00  0.00     0.002 C 
HETATM    7  C7  UNL     1      -2.597   7.630  13.557  1.00  0.00    -0.004 C 
HETATM    8  C8  UNL     1      -1.968   8.917  12.992  1.00  0.00     0.010 C 
HETATM    9  C9  UNL     1      -1.339   8.749  11.614  1.00  0.00     0.035 C 
HETATM   10  C10 UNL     1      -0.406   7.561  11.496  1.00  0.00    -0.069 C 
HETATM   11  C11 UNL     1       0.495   7.556  10.496  1.00  0.00     0.030 C 
HETATM   12  C12 UNL     1       1.337   6.361  10.191  1.00  0.00     0.032 C 
HETATM   13  N1  UNL     1       2.207   6.274   9.229  1.00  0.00    -0.271 N 
ATOM     14  H1  UNL     1       2.774   5.447   9.044  1.00  0.00     0.194 HD
HETATM   15  C21 UNL     1       1.166   5.138  11.069  1.00  0.00     0.060 C 
HETATM   16  C22 UNL     1      -0.234   5.070  11.670  1.00  0.00     0.020 C 
HETATM   17  C23 UNL     1      -0.638   6.364  12.425  1.00  0.00    -0.016 C 
HETATM   18  C24 UNL     1       0.242   6.495  13.690  1.00  0.00     0.020 C 
HETATM   19  C25 UNL     1      -2.162   6.347  12.772  1.00  0.00     0.002 C 
HETATM   20  C26 UNL     1      -2.688   5.080  13.487  1.00  0.00     0.007 C 
HETATM   21  C27 UNL     1      -4.223   5.120  13.664  1.00  0.00     0.014 C 
HETATM   22  C28 UNL     1      -4.700   6.405  14.371  1.00  0.00     0.003 C 
HETATM   23  C29 UNL     1      -4.249   6.351  15.862  1.00  0.00     0.020 C 
ENDROOT
BRANCH   3  24
HETATM   24  O1  UNL     1      -6.688   6.535  12.936  1.00  0.00    -0.377 OA
HETATM   25  H2  UNL     1      -6.945   5.602  12.854  1.00  0.00     0.211 HD
ENDBRANCH   3  24
BRANCH  13  26
HETATM   26  O2  UNL     1       2.271   7.458   8.474  1.00  0.00    -0.271 OA
BRANCH  26  27
HETATM   27  C13 UNL     1       3.404   8.227   8.868  1.00  0.00     0.303 C 
BRANCH  27  28
HETATM   28  C14 UNL     1       4.203   7.607  10.013  1.00  0.00     0.244 C 
HETATM   29  O3  UNL     1       4.778   6.525   9.904  1.00  0.00    -0.271 OA
HETATM   30  N2  UNL     1       4.204   8.347  11.175  1.00  0.00    -0.344 N 
HETATM   31  H16 UNL     1       3.487   9.071  11.203  1.00  0.00     0.163 HD
BRANCH  30  32
HETATM   32  C15 UNL     1       4.746   7.833  12.433  1.00  0.00     0.186 C 
BRANCH  32  33
HETATM   33  C16 UNL     1       3.792   8.299  13.540  1.00  0.00     0.163 C 
HETATM   34  O4  UNL     1       3.260   9.397  13.626  1.00  0.00    -0.648 OA
BRANCH  33  35
HETATM   35  O5  UNL     1       3.565   7.369  14.489  1.00  0.00    -0.775 OA
HETATM   36  H18 UNL     1       2.907   7.789  15.082  1.00  0.00     0.167 HD
ENDBRANCH  33  35
ENDBRANCH  32  33
BRANCH  32  37
HETATM   37  C17 UNL     1       6.208   8.313  12.600  1.00  0.00     0.014 C 
HETATM   38  C18 UNL     1       7.255   7.219  12.362  1.00  0.00     0.012 C 
BRANCH  37  39
HETATM   39  C19 UNL     1       6.533   9.597  11.804  1.00  0.00     0.002 C 
HETATM   40  C20 UNL     1       6.913  10.823  12.618  1.00  0.00     0.005 C 
ENDBRANCH  37  39
ENDBRANCH  32  37
ENDBRANCH  30  32
ENDBRANCH  27  28
ENDBRANCH  26  27
ENDBRANCH  13  26
TORSDOF 9
ENDMDL
MODEL 9
REMARK minimizedAffinity -8.65670681
REMARK  9 active torsions:
REMARK  status: ('A' for Active; 'I' for Inactive)
REMARK    1  A    between atoms: C3_3  and  O1_4 
REMARK    2  A    between atoms: N1_14  and  O2_16 
REMARK    3  A    between atoms: O2_16  and  C13_17 
REMARK    4  A    between atoms: C13_17  and  C14_18 
REMARK       I    between atoms: C14_18  and  N2_20 
REMARK    5  A    between atoms: N2_20  and  C15_21 
REMARK    6  A    between atoms: C15_21  and  C16_22 
REMARK    7  A    between atoms: C15_21  and  C17_25 
REMARK    8  A    between atoms: C16_22  and  O5_24 
REMARK    9  A    between atoms: C17_25  and  C19_27 
ROOT
HETATM    1  C1  UNL     1      -3.625  15.144  -6.302  1.00  0.00     0.015 C 
HETATM    2  C2  UNL     1      -3.858  14.223  -7.039  1.00  0.00    -0.078 C 
HETATM    3  C3  UNL     1      -4.159  13.099  -7.937  1.00  0.00     0.128 C 
HETATM    4  C4  UNL     1      -3.476  13.248  -9.318  1.00  0.00     0.052 C 
HETATM    5  C5  UNL     1      -3.162  11.812  -9.806  1.00  0.00     0.010 C 
HETATM    6  C6  UNL     1      -3.810  10.904  -8.765  1.00  0.00     0.002 C 
HETATM    7  C7  UNL     1      -3.341   9.450  -8.616  1.00  0.00    -0.004 C 
HETATM    8  C8  UNL     1      -3.265   8.660  -9.935  1.00  0.00     0.010 C 
HETATM    9  C9  UNL     1      -4.342   7.592 -10.083  1.00  0.00     0.035 C 
HETATM   10  C10 UNL     1      -4.485   6.679  -8.883  1.00  0.00    -0.069 C 
HETATM   11  C11 UNL     1      -5.086   5.487  -9.055  1.00  0.00     0.030 C 
HETATM   12  C12 UNL     1      -5.428   4.596  -7.907  1.00  0.00     0.032 C 
HETATM   13  N1  UNL     1      -6.029   3.446  -7.995  1.00  0.00    -0.271 N 
ATOM     14  H1  UNL     1      -6.248   2.853  -7.195  1.00  0.00     0.194 HD
HETATM   15  C21 UNL     1      -5.053   5.066  -6.516  1.00  0.00     0.060 C 
HETATM   16  C22 UNL     1      -4.997   6.587  -6.434  1.00  0.00     0.020 C 
HETATM   17  C23 UNL     1      -4.076   7.224  -7.509  1.00  0.00    -0.016 C 
HETATM   18  C24 UNL     1      -2.611   6.838  -7.198  1.00  0.00     0.020 C 
HETATM   19  C25 UNL     1      -4.275   8.773  -7.556  1.00  0.00     0.002 C 
HETATM   20  C26 UNL     1      -4.176   9.520  -6.205  1.00  0.00     0.007 C 
HETATM   21  C27 UNL     1      -4.514  11.020  -6.355  1.00  0.00     0.014 C 
HETATM   22  C28 UNL     1      -3.663  11.709  -7.441  1.00  0.00     0.003 C 
HETATM   23  C29 UNL     1      -2.191  11.803  -6.937  1.00  0.00     0.020 C 
ENDROOT
BRANCH   3  24
HETATM   24  O1  UNL     1      -5.571  13.075  -8.163  1.00  0.00    -0.377 OA
HETATM   25  H2  UNL     1      -6.002  13.290  -7.319  1.00  0.00     0.211 HD
ENDBRANCH   3  24
BRANCH  13  26
HETATM   26  O2  UNL     1      -6.340   3.121  -9.327  1.00  0.00    -0.271 OA
BRANCH  26  27
HETATM   27  C13 UNL     1      -7.139   1.943  -9.367  1.00  0.00     0.303 C 
BRANCH  27  28
HETATM   28  C14 UNL     1      -7.857   1.638  -8.053  1.00  0.00     0.244 C 
HETATM   29  O3  UNL     1      -8.525   2.482  -7.457  1.00  0.00    -0.271 OA
HETATM   30  N2  UNL     1      -7.672   0.356  -7.586  1.00  0.00    -0.344 N 
HETATM   31  H16 UNL     1      -6.900  -0.139  -8.032  1.00  0.00     0.163 HD
BRANCH  30  32
HETATM   32  C15 UNL     1      -8.114  -0.067  -6.256  1.00  0.00     0.186 C 
BRANCH  32  33
HETATM   33  C16 UNL     1      -7.190  -1.218  -5.837  1.00  0.00     0.163 C 
HETATM   34  O4  UNL     1      -6.343  -1.759  -6.533  1.00  0.00    -0.648 OA
BRANCH  33  35
HETATM   35  O5  UNL     1      -7.387  -1.639  -4.572  1.00  0.00    -0.775 OA
HETATM   36  H18 UNL     1      -6.699  -2.325  -4.439  1.00  0.00     0.167 HD
ENDBRANCH  33  35
ENDBRANCH  32  33
BRANCH  32  37
HETATM   37  C17 UNL     1      -9.617  -0.433  -6.304  1.00  0.00     0.014 C 
HETATM   38  C18 UNL     1      -9.953  -1.566  -7.279  1.00  0.00     0.012 C 
BRANCH  37  39
HETATM   39  C19 UNL     1     -10.240  -0.674  -4.911  1.00  0.00     0.002 C 
HETATM   40  C20 UNL     1     -11.242  -1.811  -4.802  1.00  0.00     0.005 C 
ENDBRANCH  37  39
ENDBRANCH  32  37
ENDBRANCH  30  32
ENDBRANCH  27  28
ENDBRANCH  26  27
ENDBRANCH  13  26
TORSDOF 9
ENDMDL
