MODEL 1
REMARK minimizedAffinity -9.48113537
REMARK CNNscore 0.464182377
REMARK CNNaffinity 7.29952192
REMARK  4 active torsions:
REMARK  status: ('A' for Active; 'I' for Inactive)
REMARK    1  A    between atoms: C2_2  and  C3_3 
REMARK    2  A    between atoms: C6_6  and  O1_7 
REMARK    3  A    between atoms: C7_8  and  C8_9 
REMARK    4  A    between atoms: C26_32  and  O6_33 
ROOT
HETATM    1  C3  UNL     1      -2.780  10.951  15.245  1.00  0.00     0.008 C 
HETATM    2  C4  UNL     1      -1.566  10.094  15.526  1.00  0.00    -0.023 C 
HETATM    3  C5  UNL     1      -0.656   9.588  14.671  1.00  0.00     0.004 C 
HETATM    4  C6  UNL     1      -0.507   9.684  13.165  1.00  0.00     0.174 C 
HETATM    5  C7  UNL     1       0.125   8.410  12.512  1.00  0.00     0.187 C 
HETATM    6  O2  UNL     1      -0.706   7.233  12.654  1.00  0.00    -0.308 OA
HETATM    7  C12 UNL     1      -0.240   6.305  13.543  1.00  0.00     0.276 C 
HETATM    8  O3  UNL     1       0.651   6.523  14.361  1.00  0.00    -0.264 OA
HETATM    9  C13 UNL     1      -0.808   4.877  13.251  1.00  0.00     0.095 C 
HETATM   10  C14 UNL     1      -0.398   3.954  14.422  1.00  0.00     0.036 C 
HETATM   11  C15 UNL     1      -0.011   4.447  12.030  1.00  0.00     0.003 C 
HETATM   12  C16 UNL     1      -0.269   3.500  11.123  1.00  0.00     0.072 C 
HETATM   13  C17 UNL     1      -1.408   2.578  11.059  1.00  0.00     0.245 C 
HETATM   14  O4  UNL     1      -1.301   1.563  10.372  1.00  0.00    -0.268 OA
HETATM   15  N1  UNL     1      -2.581   2.860  11.665  1.00  0.00    -0.320 N 
HETATM   16  C18 UNL     1      -3.049   3.888  12.447  1.00  0.00     0.098 C 
HETATM   17  C19 UNL     1      -2.327   4.815  13.107  1.00  0.00     0.045 C 
HETATM   18  C20 UNL     1      -3.082   5.771  13.975  1.00  0.00     0.194 C 
HETATM   19  O5  UNL     1      -2.546   6.314  14.933  1.00  0.00    -0.287 OA
HETATM   20  C21 UNL     1      -4.522   5.977  13.754  1.00  0.00     0.046 A 
HETATM   21  C22 UNL     1      -5.254   4.956  13.183  1.00  0.00     0.032 A 
HETATM   22  C23 UNL     1      -6.655   5.026  13.130  1.00  0.00     0.026 A 
HETATM   23  C24 UNL     1      -7.339   6.146  13.631  1.00  0.00    -0.027 A 
HETATM   24  C25 UNL     1      -8.839   6.181  13.554  1.00  0.00     0.051 C 
HETATM   25  C26 UNL     1      -6.584   7.215  14.133  1.00  0.00     0.086 A 
HETATM   26  C27 UNL     1      -5.186   7.128  14.192  1.00  0.00     0.059 A 
HETATM   27  C28 UNL     1      -4.395   8.341  14.435  1.00  0.00     0.163 C 
HETATM   28  O7  UNL     1      -3.811   8.791  13.452  1.00  0.00    -0.292 OA
HETATM   29  C29 UNL     1      -4.297   8.883  15.844  1.00  0.00     0.084 C 
HETATM   30  C30 UNL     1      -4.060  10.396  15.921  1.00  0.00     0.016 C 
HETATM   31  C31 UNL     1      -4.548   3.817  12.593  1.00  0.00     0.210 C 
HETATM   32  O8  UNL     1      -5.168   2.839  12.183  1.00  0.00    -0.285 OA
HETATM   33  H24 UNL     1      -3.299   2.184  11.395  1.00  0.00     0.169 HD
ENDROOT
BRANCH   5  34
HETATM   34  C8  UNL     1       0.310   8.577  11.018  1.00  0.00     0.010 C 
HETATM   35  C9  UNL     1       1.184   7.962  10.196  1.00  0.00    -0.089 C 
HETATM   36  C10 UNL     1       2.202   6.932  10.607  1.00  0.00     0.042 C 
HETATM   37  C11 UNL     1       1.202   8.290   8.724  1.00  0.00     0.042 C 
ENDBRANCH   5  34
BRANCH   4  38
HETATM   38  O1  UNL     1      -1.722  10.030  12.514  1.00  0.00    -0.389 OA
HETATM   39  H10 UNL     1      -2.413   9.418  12.851  1.00  0.00     0.210 HD
ENDBRANCH   4  38
BRANCH   1  40
HETATM   40  C2  UNL     1      -2.478  12.395  15.706  1.00  0.00     0.004 C 
HETATM   41  C1  UNL     1      -1.816  13.249  14.633  1.00  0.00     0.006 C 
ENDBRANCH   1  40
BRANCH  25  42
HETATM   42  O6  UNL     1      -7.178   8.375  14.551  1.00  0.00    -0.359 OA
HETATM   43  H29 UNL     1      -8.122   8.376  14.330  1.00  0.00     0.217 HD
ENDBRANCH  25  42
TORSDOF 4
ENDMDL
MODEL 2
REMARK minimizedAffinity -7.85642099
REMARK CNNscore 0.389212549
REMARK CNNaffinity 6.04719925
REMARK  4 active torsions:
REMARK  status: ('A' for Active; 'I' for Inactive)
REMARK    1  A    between atoms: C2_2  and  C3_3 
REMARK    2  A    between atoms: C6_6  and  O1_7 
REMARK    3  A    between atoms: C7_8  and  C8_9 
REMARK    4  A    between atoms: C26_32  and  O6_33 
ROOT
HETATM    1  C3  UNL     1      18.822  -4.769   9.630  1.00  0.00     0.008 C 
HETATM    2  C4  UNL     1      17.903  -3.947   8.752  1.00  0.00    -0.023 C 
HETATM    3  C5  UNL     1      16.559  -3.956   8.672  1.00  0.00     0.004 C 
HETATM    4  C6  UNL     1      15.498  -4.757   9.401  1.00  0.00     0.174 C 
HETATM    5  C7  UNL     1      14.230  -5.059   8.535  1.00  0.00     0.187 C 
HETATM    6  O2  UNL     1      14.514  -5.908   7.397  1.00  0.00    -0.308 OA
HETATM    7  C12 UNL     1      14.483  -5.275   6.187  1.00  0.00     0.276 C 
HETATM    8  O3  UNL     1      14.482  -4.054   6.049  1.00  0.00    -0.264 OA
HETATM    9  C13 UNL     1      14.222  -6.273   5.011  1.00  0.00     0.095 C 
HETATM   10  C14 UNL     1      14.416  -5.503   3.683  1.00  0.00     0.036 C 
HETATM   11  C15 UNL     1      12.738  -6.571   5.153  1.00  0.00     0.003 C 
HETATM   12  C16 UNL     1      12.015  -7.589   4.678  1.00  0.00     0.072 C 
HETATM   13  C17 UNL     1      12.455  -8.720   3.853  1.00  0.00     0.245 C 
HETATM   14  O4  UNL     1      11.606  -9.354   3.228  1.00  0.00    -0.268 OA
HETATM   15  N1  UNL     1      13.744  -9.121   3.833  1.00  0.00    -0.320 N 
HETATM   16  C18 UNL     1      14.907  -8.688   4.424  1.00  0.00     0.098 C 
HETATM   17  C19 UNL     1      15.144  -7.490   4.993  1.00  0.00     0.045 C 
HETATM   18  C20 UNL     1      16.536  -7.233   5.478  1.00  0.00     0.194 C 
HETATM   19  O5  UNL     1      16.973  -6.093   5.570  1.00  0.00    -0.287 OA
HETATM   20  C21 UNL     1      17.440  -8.365   5.737  1.00  0.00     0.046 A 
HETATM   21  C22 UNL     1      17.237  -9.542   5.045  1.00  0.00     0.032 A 
HETATM   22  C23 UNL     1      18.180 -10.578   5.110  1.00  0.00     0.026 A 
HETATM   23  C24 UNL     1      19.335 -10.453   5.900  1.00  0.00    -0.027 A 
HETATM   24  C25 UNL     1      20.319 -11.587   5.942  1.00  0.00     0.051 C 
HETATM   25  C26 UNL     1      19.492  -9.289   6.665  1.00  0.00     0.086 A 
HETATM   26  C27 UNL     1      18.549  -8.255   6.582  1.00  0.00     0.059 A 
HETATM   27  C28 UNL     1      18.557  -7.185   7.588  1.00  0.00     0.163 C 
HETATM   28  O7  UNL     1      17.656  -7.244   8.422  1.00  0.00    -0.292 OA
HETATM   29  C29 UNL     1      19.589  -6.084   7.480  1.00  0.00     0.084 C 
HETATM   30  C30 UNL     1      19.962  -5.440   8.821  1.00  0.00     0.016 C 
HETATM   31  C31 UNL     1      16.003  -9.713   4.275  1.00  0.00     0.210 C 
HETATM   32  O8  UNL     1      15.844 -10.695   3.556  1.00  0.00    -0.285 OA
HETATM   33  H24 UNL     1      13.840 -10.004   3.326  1.00  0.00     0.169 HD
ENDROOT
BRANCH   5  34
HETATM   34  C8  UNL     1      13.176  -5.807   9.325  1.00  0.00     0.010 C 
HETATM   35  C9  UNL     1      11.859  -5.944   9.067  1.00  0.00    -0.089 C 
HETATM   36  C10 UNL     1      11.129  -5.359   7.888  1.00  0.00     0.042 C 
HETATM   37  C11 UNL     1      10.981  -6.734  10.004  1.00  0.00     0.042 C 
ENDBRANCH   5  34
BRANCH   4  38
HETATM   38  O1  UNL     1      16.011  -5.953   9.973  1.00  0.00    -0.389 OA
HETATM   39  H10 UNL     1      16.508  -6.420   9.266  1.00  0.00     0.210 HD
ENDBRANCH   4  38
BRANCH   1  40
HETATM   40  C2  UNL     1      19.381  -3.856  10.744  1.00  0.00     0.004 C 
HETATM   41  C1  UNL     1      19.057  -4.346  12.149  1.00  0.00     0.006 C 
ENDBRANCH   1  40
BRANCH  25  42
HETATM   42  O6  UNL     1      20.542  -9.137   7.529  1.00  0.00    -0.359 OA
HETATM   43  H29 UNL     1      21.043  -9.964   7.609  1.00  0.00     0.217 HD
ENDBRANCH  25  42
TORSDOF 4
ENDMDL
MODEL 3
REMARK minimizedAffinity -6.42364979
REMARK CNNscore 0.386916071
REMARK CNNaffinity 6.0850811
REMARK  4 active torsions:
REMARK  status: ('A' for Active; 'I' for Inactive)
REMARK    1  A    between atoms: C2_2  and  C3_3 
REMARK    2  A    between atoms: C6_6  and  O1_7 
REMARK    3  A    between atoms: C7_8  and  C8_9 
REMARK    4  A    between atoms: C26_32  and  O6_33 
ROOT
HETATM    1  C3  UNL     1       0.375  14.917   4.418  1.00  0.00     0.008 C 
HETATM    2  C4  UNL     1       1.813  14.465   4.546  1.00  0.00    -0.023 C 
HETATM    3  C5  UNL     1       2.947  15.190   4.517  1.00  0.00     0.004 C 
HETATM    4  C6  UNL     1       3.204  16.676   4.357  1.00  0.00     0.174 C 
HETATM    5  C7  UNL     1       4.541  17.007   3.613  1.00  0.00     0.187 C 
HETATM    6  O2  UNL     1       4.548  16.553   2.238  1.00  0.00    -0.308 OA
HETATM    7  C12 UNL     1       5.350  15.474   1.994  1.00  0.00     0.276 C 
HETATM    8  O3  UNL     1       5.829  14.761   2.872  1.00  0.00    -0.264 OA
HETATM    9  C13 UNL     1       5.771  15.386   0.490  1.00  0.00     0.095 C 
HETATM   10  C14 UNL     1       6.489  14.032   0.277  1.00  0.00     0.036 C 
HETATM   11  C15 UNL     1       6.817  16.481   0.374  1.00  0.00     0.003 C 
HETATM   12  C16 UNL     1       7.283  17.116  -0.706  1.00  0.00     0.072 C 
HETATM   13  C17 UNL     1       6.921  16.917  -2.114  1.00  0.00     0.245 C 
HETATM   14  O4  UNL     1       7.690  17.331  -2.980  1.00  0.00    -0.268 OA
HETATM   15  N1  UNL     1       5.740  16.369  -2.470  1.00  0.00    -0.320 N 
HETATM   16  C18 UNL     1       4.662  15.856  -1.789  1.00  0.00     0.098 C 
HETATM   17  C19 UNL     1       4.610  15.468  -0.500  1.00  0.00     0.045 C 
HETATM   18  C20 UNL     1       3.334  14.846  -0.029  1.00  0.00     0.194 C 
HETATM   19  O5  UNL     1       3.321  14.069   0.918  1.00  0.00    -0.287 OA
HETATM   20  C21 UNL     1       2.090  15.072  -0.781  1.00  0.00     0.046 A 
HETATM   21  C22 UNL     1       2.178  15.351  -2.131  1.00  0.00     0.032 A 
HETATM   22  C23 UNL     1       1.023  15.381  -2.928  1.00  0.00     0.026 A 
HETATM   23  C24 UNL     1      -0.246  15.157  -2.367  1.00  0.00    -0.027 A 
HETATM   24  C25 UNL     1      -1.455  15.200  -3.257  1.00  0.00     0.051 C 
HETATM   25  C26 UNL     1      -0.334  14.959  -0.983  1.00  0.00     0.086 A 
HETATM   26  C27 UNL     1       0.828  14.918  -0.199  1.00  0.00     0.059 A 
HETATM   27  C28 UNL     1       0.718  15.006   1.264  1.00  0.00     0.163 C 
HETATM   28  O7  UNL     1       1.048  16.086   1.749  1.00  0.00    -0.292 OA
HETATM   29  C29 UNL     1       0.298  13.780   2.043  1.00  0.00     0.084 C 
HETATM   30  C30 UNL     1      -0.410  14.090   3.367  1.00  0.00     0.016 C 
HETATM   31  C31 UNL     1       3.486  15.656  -2.712  1.00  0.00     0.210 C 
HETATM   32  O8  UNL     1       3.616  15.792  -3.925  1.00  0.00    -0.285 OA
HETATM   33  H24 UNL     1       5.597  16.443  -3.479  1.00  0.00     0.169 HD
ENDROOT
BRANCH   5  34
HETATM   34  C8  UNL     1       4.782  18.500   3.531  1.00  0.00     0.010 C 
HETATM   35  C9  UNL     1       5.373  19.315   4.428  1.00  0.00    -0.089 C 
HETATM   36  C10 UNL     1       5.944  18.895   5.756  1.00  0.00     0.042 C 
HETATM   37  C11 UNL     1       5.502  20.791   4.144  1.00  0.00     0.042 C 
ENDBRANCH   5  34
BRANCH   4  38
HETATM   38  O1  UNL     1       2.113  17.359   3.754  1.00  0.00    -0.389 OA
HETATM   39  H10 UNL     1       1.876  16.862   2.941  1.00  0.00     0.210 HD
ENDBRANCH   4  38
BRANCH   1  40
HETATM   40  C2  UNL     1      -0.289  14.839   5.811  1.00  0.00     0.004 C 
HETATM   41  C1  UNL     1      -1.746  15.284   5.815  1.00  0.00     0.006 C 
ENDBRANCH   1  40
BRANCH  25  42
HETATM   42  O6  UNL     1      -1.542  14.828  -0.354  1.00  0.00    -0.359 OA
HETATM   43  H29 UNL     1      -2.270  15.016  -0.967  1.00  0.00     0.217 HD
ENDBRANCH  25  42
TORSDOF 4
ENDMDL
MODEL 4
REMARK minimizedAffinity -6.75396919
REMARK CNNscore 0.323401481
REMARK CNNaffinity 5.73427391
REMARK  4 active torsions:
REMARK  status: ('A' for Active; 'I' for Inactive)
REMARK    1  A    between atoms: C2_2  and  C3_3 
REMARK    2  A    between atoms: C6_6  and  O1_7 
REMARK    3  A    between atoms: C7_8  and  C8_9 
REMARK    4  A    between atoms: C26_32  and  O6_33 
ROOT
HETATM    1  C3  UNL     1      -0.495  17.762   8.161  1.00  0.00     0.008 C 
HETATM    2  C4  UNL     1      -1.118  19.028   7.616  1.00  0.00    -0.023 C 
HETATM    3  C5  UNL     1      -2.406  19.421   7.618  1.00  0.00     0.004 C 
HETATM    4  C6  UNL     1      -3.670  18.772   8.148  1.00  0.00     0.174 C 
HETATM    5  C7  UNL     1      -4.949  19.107   7.310  1.00  0.00     0.187 C 
HETATM    6  O2  UNL     1      -4.891  18.586   5.961  1.00  0.00    -0.308 OA
HETATM    7  C12 UNL     1      -4.709  19.529   4.989  1.00  0.00     0.276 C 
HETATM    8  O3  UNL     1      -4.357  20.685   5.210  1.00  0.00    -0.264 OA
HETATM    9  C13 UNL     1      -5.215  19.036   3.593  1.00  0.00     0.095 C 
HETATM   10  C14 UNL     1      -4.774  20.076   2.535  1.00  0.00     0.036 C 
HETATM   11  C15 UNL     1      -6.725  19.139   3.733  1.00  0.00     0.003 C 
HETATM   12  C16 UNL     1      -7.696  18.551   3.029  1.00  0.00     0.072 C 
HETATM   13  C17 UNL     1      -7.577  17.636   1.888  1.00  0.00     0.245 C 
HETATM   14  O4  UNL     1      -8.556  17.479   1.160  1.00  0.00    -0.268 OA
HETATM   15  N1  UNL     1      -6.457  16.914   1.675  1.00  0.00    -0.320 N 
HETATM   16  C18 UNL     1      -5.234  16.810   2.294  1.00  0.00     0.098 C 
HETATM   17  C19 UNL     1      -4.678  17.671   3.169  1.00  0.00     0.045 C 
HETATM   18  C20 UNL     1      -3.284  17.373   3.621  1.00  0.00     0.194 C 
HETATM   19  O5  UNL     1      -2.542  18.265   4.012  1.00  0.00    -0.287 OA
HETATM   20  C21 UNL     1      -2.749  16.008   3.487  1.00  0.00     0.046 A 
HETATM   21  C22 UNL     1      -3.262  15.193   2.498  1.00  0.00     0.032 A 
HETATM   22  C23 UNL     1      -2.656  13.962   2.204  1.00  0.00     0.026 A 
HETATM   23  C24 UNL     1      -1.534  13.521   2.925  1.00  0.00    -0.027 A 
HETATM   24  C25 UNL     1      -0.917  12.196   2.578  1.00  0.00     0.051 C 
HETATM   25  C26 UNL     1      -1.071  14.315   3.983  1.00  0.00     0.086 A 
HETATM   26  C27 UNL     1      -1.677  15.549   4.259  1.00  0.00     0.059 A 
HETATM   27  C28 UNL     1      -1.389  16.229   5.529  1.00  0.00     0.163 C 
HETATM   28  O7  UNL     1      -2.289  16.183   6.363  1.00  0.00    -0.292 OA
HETATM   29  C29 UNL     1      -0.082  16.976   5.681  1.00  0.00     0.084 C 
HETATM   30  C30 UNL     1       0.425  17.067   7.125  1.00  0.00     0.016 C 
HETATM   31  C31 UNL     1      -4.474  15.610   1.789  1.00  0.00     0.210 C 
HETATM   32  O8  UNL     1      -4.888  14.969   0.828  1.00  0.00    -0.285 OA
HETATM   33  H24 UNL     1      -6.604  16.230   0.929  1.00  0.00     0.169 HD
ENDROOT
BRANCH   5  34
HETATM   34  C8  UNL     1      -6.193  18.487   7.913  1.00  0.00     0.010 C 
HETATM   35  C9  UNL     1      -7.050  19.008   8.814  1.00  0.00    -0.089 C 
HETATM   36  C10 UNL     1      -6.949  20.375   9.436  1.00  0.00     0.042 C 
HETATM   37  C11 UNL     1      -8.233  18.203   9.291  1.00  0.00     0.042 C 
ENDBRANCH   5  34
BRANCH   4  38
HETATM   38  O1  UNL     1      -3.536  17.367   8.318  1.00  0.00    -0.389 OA
HETATM   39  H10 UNL     1      -3.175  17.010   7.477  1.00  0.00     0.210 HD
ENDBRANCH   4  38
BRANCH   1  40
HETATM   40  C2  UNL     1       0.273  18.112   9.456  1.00  0.00     0.004 C 
HETATM   41  C1  UNL     1       0.807  16.891  10.193  1.00  0.00     0.006 C 
ENDBRANCH   1  40
BRANCH  25  42
HETATM   42  O6  UNL     1      -0.043  13.906   4.787  1.00  0.00    -0.359 OA
HETATM   43  H29 UNL     1       0.198  12.986   4.595  1.00  0.00     0.217 HD
ENDBRANCH  25  42
TORSDOF 4
ENDMDL
MODEL 5
REMARK minimizedAffinity -7.54080153
REMARK CNNscore 0.311483622
REMARK CNNaffinity 5.59855413
REMARK  4 active torsions:
REMARK  status: ('A' for Active; 'I' for Inactive)
REMARK    1  A    between atoms: C2_2  and  C3_3 
REMARK    2  A    between atoms: C6_6  and  O1_7 
REMARK    3  A    between atoms: C7_8  and  C8_9 
REMARK    4  A    between atoms: C26_32  and  O6_33 
ROOT
HETATM    1  C3  UNL     1       1.206  10.450  16.452  1.00  0.00     0.008 C 
HETATM    2  C4  UNL     1       1.958  11.677  15.985  1.00  0.00    -0.023 C 
HETATM    3  C5  UNL     1       3.224  11.791  15.540  1.00  0.00     0.004 C 
HETATM    4  C6  UNL     1       4.332  10.774  15.345  1.00  0.00     0.174 C 
HETATM    5  C7  UNL     1       5.767  11.353  15.582  1.00  0.00     0.187 C 
HETATM    6  O2  UNL     1       5.986  11.772  16.950  1.00  0.00    -0.308 OA
HETATM    7  C12 UNL     1       6.035  13.126  17.135  1.00  0.00     0.276 C 
HETATM    8  O3  UNL     1       5.668  13.948  16.298  1.00  0.00    -0.264 OA
HETATM    9  C13 UNL     1       6.815  13.511  18.434  1.00  0.00     0.095 C 
HETATM   10  C14 UNL     1       6.632  15.030  18.664  1.00  0.00     0.036 C 
HETATM   11  C15 UNL     1       8.263  13.282  18.031  1.00  0.00     0.003 C 
HETATM   12  C16 UNL     1       9.349  13.105  18.788  1.00  0.00     0.072 C 
HETATM   13  C17 UNL     1       9.457  13.099  20.251  1.00  0.00     0.245 C 
HETATM   14  O4  UNL     1      10.565  13.272  20.757  1.00  0.00    -0.268 OA
HETATM   15  N1  UNL     1       8.393  12.831  21.037  1.00  0.00    -0.320 N 
HETATM   16  C18 UNL     1       7.064  12.556  20.815  1.00  0.00     0.098 C 
HETATM   17  C19 UNL     1       6.353  12.782  19.693  1.00  0.00     0.045 C 
HETATM   18  C20 UNL     1       4.888  12.482  19.746  1.00  0.00     0.194 C 
HETATM   19  O5  UNL     1       4.099  13.052  19.004  1.00  0.00    -0.287 OA
HETATM   20  C21 UNL     1       4.366  11.577  20.782  1.00  0.00     0.046 A 
HETATM   21  C22 UNL     1       5.060  11.463  21.970  1.00  0.00     0.032 A 
HETATM   22  C23 UNL     1       4.505  10.770  23.056  1.00  0.00     0.026 A 
HETATM   23  C24 UNL     1       3.246  10.155  22.951  1.00  0.00    -0.027 A 
HETATM   24  C25 UNL     1       2.690   9.422  24.138  1.00  0.00     0.051 C 
HETATM   25  C26 UNL     1       2.585  10.203  21.716  1.00  0.00     0.086 A 
HETATM   26  C27 UNL     1       3.144  10.909  20.642  1.00  0.00     0.059 A 
HETATM   27  C28 UNL     1       2.607  10.714  19.288  1.00  0.00     0.163 C 
HETATM   28  O7  UNL     1       3.308  10.038  18.539  1.00  0.00    -0.292 OA
HETATM   29  C29 UNL     1       1.314  11.401  18.906  1.00  0.00     0.084 C 
HETATM   30  C30 UNL     1       0.513  10.672  17.821  1.00  0.00     0.016 C 
HETATM   31  C31 UNL     1       6.403  12.038  22.067  1.00  0.00     0.210 C 
HETATM   32  O8  UNL     1       7.000  12.057  23.140  1.00  0.00    -0.285 OA
HETATM   33  H24 UNL     1       8.680  12.726  22.013  1.00  0.00     0.169 HD
ENDROOT
BRANCH   5  34
HETATM   34  C8  UNL     1       6.840  10.318  15.315  1.00  0.00     0.010 C 
HETATM   35  C9  UNL     1       7.357   9.914  14.137  1.00  0.00    -0.089 C 
HETATM   36  C10 UNL     1       6.961  10.432  12.780  1.00  0.00     0.042 C 
HETATM   37  C11 UNL     1       8.425   8.850  14.101  1.00  0.00     0.042 C 
ENDBRANCH   5  34
BRANCH   4  38
HETATM   38  O1  UNL     1       4.135   9.594  16.111  1.00  0.00    -0.389 OA
HETATM   39  H10 UNL     1       3.954   9.877  17.034  1.00  0.00     0.210 HD
ENDBRANCH   4  38
BRANCH   1  40
HETATM   40  C2  UNL     1       0.188  10.053  15.360  1.00  0.00     0.004 C 
HETATM   41  C1  UNL     1      -1.091   9.441  15.916  1.00  0.00     0.006 C 
ENDBRANCH   1  40
BRANCH  25  42
HETATM   42  O6  UNL     1       1.401   9.548  21.512  1.00  0.00    -0.359 OA
HETATM   43  H29 UNL     1       1.187   8.982  22.270  1.00  0.00     0.217 HD
ENDBRANCH  25  42
TORSDOF 4
ENDMDL
MODEL 6
REMARK minimizedAffinity -6.74704695
REMARK CNNscore 0.292067796
REMARK CNNaffinity 5.11082506
REMARK  4 active torsions:
REMARK  status: ('A' for Active; 'I' for Inactive)
REMARK    1  A    between atoms: C2_2  and  C3_3 
REMARK    2  A    between atoms: C6_6  and  O1_7 
REMARK    3  A    between atoms: C7_8  and  C8_9 
REMARK    4  A    between atoms: C26_32  and  O6_33 
ROOT
HETATM    1  C3  UNL     1     -22.467   0.569  10.303  1.00  0.00     0.008 C 
HETATM    2  C4  UNL     1     -21.648  -0.617   9.841  1.00  0.00    -0.023 C 
HETATM    3  C5  UNL     1     -21.305  -1.735  10.508  1.00  0.00     0.004 C 
HETATM    4  C6  UNL     1     -21.599  -2.214  11.917  1.00  0.00     0.174 C 
HETATM    5  C7  UNL     1     -20.453  -3.080  12.539  1.00  0.00     0.187 C 
HETATM    6  O2  UNL     1     -19.225  -2.338  12.728  1.00  0.00    -0.308 OA
HETATM    7  C12 UNL     1     -18.218  -2.664  11.863  1.00  0.00     0.276 C 
HETATM    8  O3  UNL     1     -18.378  -3.325  10.840  1.00  0.00    -0.264 OA
HETATM    9  C13 UNL     1     -16.811  -2.296  12.437  1.00  0.00     0.095 C 
HETATM   10  C14 UNL     1     -15.770  -2.504  11.311  1.00  0.00     0.036 C 
HETATM   11  C15 UNL     1     -16.583  -3.382  13.476  1.00  0.00     0.003 C 
HETATM   12  C16 UNL     1     -15.746  -3.415  14.517  1.00  0.00     0.072 C 
HETATM   13  C17 UNL     1     -14.778  -2.400  14.949  1.00  0.00     0.245 C 
HETATM   14  O4  UNL     1     -13.866  -2.743  15.699  1.00  0.00    -0.268 OA
HETATM   15  N1  UNL     1     -14.917  -1.102  14.609  1.00  0.00    -0.320 N 
HETATM   16  C18 UNL     1     -15.812  -0.385  13.849  1.00  0.00     0.098 C 
HETATM   17  C19 UNL     1     -16.685  -0.860  12.940  1.00  0.00     0.045 C 
HETATM   18  C20 UNL     1     -17.481   0.148  12.173  1.00  0.00     0.194 C 
HETATM   19  O5  UNL     1     -17.927  -0.110  11.063  1.00  0.00    -0.287 OA
HETATM   20  C21 UNL     1     -17.636   1.513  12.703  1.00  0.00     0.046 A 
HETATM   21  C22 UNL     1     -16.656   2.009  13.540  1.00  0.00     0.032 A 
HETATM   22  C23 UNL     1     -16.657   3.362  13.912  1.00  0.00     0.026 A 
HETATM   23  C24 UNL     1     -17.666   4.232  13.466  1.00  0.00    -0.027 A 
HETATM   24  C25 UNL     1     -17.629   5.673  13.889  1.00  0.00     0.051 C 
HETATM   25  C26 UNL     1     -18.702   3.701  12.685  1.00  0.00     0.086 A 
HETATM   26  C27 UNL     1     -18.684   2.351  12.309  1.00  0.00     0.059 A 
HETATM   27  C28 UNL     1     -19.897   1.737  11.753  1.00  0.00     0.163 C 
HETATM   28  O7  UNL     1     -20.499   0.985  12.515  1.00  0.00    -0.292 OA
HETATM   29  C29 UNL     1     -20.260   2.007  10.310  1.00  0.00     0.084 C 
HETATM   30  C30 UNL     1     -21.762   1.919  10.013  1.00  0.00     0.016 C 
HETATM   31  C31 UNL     1     -15.641   1.097  14.069  1.00  0.00     0.210 C 
HETATM   32  O8  UNL     1     -14.692   1.525  14.719  1.00  0.00    -0.285 OA
HETATM   33  H24 UNL     1     -14.243  -0.521  15.113  1.00  0.00     0.169 HD
ENDROOT
BRANCH   5  34
HETATM   34  C8  UNL     1     -20.819  -3.584  13.921  1.00  0.00     0.010 C 
HETATM   35  C9  UNL     1     -20.444  -3.107  15.125  1.00  0.00    -0.089 C 
HETATM   36  C10 UNL     1     -19.548  -1.921  15.361  1.00  0.00     0.042 C 
HETATM   37  C11 UNL     1     -20.923  -3.776  16.388  1.00  0.00     0.042 C 
ENDBRANCH   5  34
BRANCH   4  38
HETATM   38  O1  UNL     1     -21.958  -1.153  12.793  1.00  0.00    -0.389 OA
HETATM   39  H10 UNL     1     -21.272  -0.457  12.698  1.00  0.00     0.210 HD
ENDBRANCH   4  38
BRANCH   1  40
HETATM   40  C2  UNL     1     -23.855   0.498   9.626  1.00  0.00     0.004 C 
HETATM   41  C1  UNL     1     -23.786   0.288   8.120  1.00  0.00     0.006 C 
ENDBRANCH   1  40
BRANCH  25  42
HETATM   42  O6  UNL     1     -19.766   4.467  12.293  1.00  0.00    -0.359 OA
HETATM   43  H29 UNL     1     -19.744   5.334  12.727  1.00  0.00     0.217 HD
ENDBRANCH  25  42
TORSDOF 4
ENDMDL
MODEL 7
REMARK minimizedAffinity -6.60878468
REMARK CNNscore 0.279411256
REMARK CNNaffinity 5.53621674
REMARK  4 active torsions:
REMARK  status: ('A' for Active; 'I' for Inactive)
REMARK    1  A    between atoms: C2_2  and  C3_3 
REMARK    2  A    between atoms: C6_6  and  O1_7 
REMARK    3  A    between atoms: C7_8  and  C8_9 
REMARK    4  A    between atoms: C26_32  and  O6_33 
ROOT
HETATM    1  C3  UNL     1      -0.459  17.814   8.465  1.00  0.00     0.008 C 
HETATM    2  C4  UNL     1       0.390  16.621   8.083  1.00  0.00    -0.023 C 
HETATM    3  C5  UNL     1       1.344  16.514   7.138  1.00  0.00     0.004 C 
HETATM    4  C6  UNL     1       1.909  17.507   6.142  1.00  0.00     0.174 C 
HETATM    5  C7  UNL     1       2.364  16.856   4.793  1.00  0.00     0.187 C 
HETATM    6  O2  UNL     1       1.265  16.279   4.047  1.00  0.00    -0.308 OA
HETATM    7  C12 UNL     1       1.236  14.913   4.032  1.00  0.00     0.276 C 
HETATM    8  O3  UNL     1       1.901  14.203   4.783  1.00  0.00    -0.264 OA
HETATM    9  C13 UNL     1       0.438  14.358   2.807  1.00  0.00     0.095 C 
HETATM   10  C14 UNL     1       0.282  12.830   2.994  1.00  0.00     0.036 C 
HETATM   11  C15 UNL     1       1.403  14.581   1.654  1.00  0.00     0.003 C 
HETATM   12  C16 UNL     1       1.175  14.635   0.339  1.00  0.00     0.072 C 
HETATM   13  C17 UNL     1      -0.094  14.473  -0.380  1.00  0.00     0.245 C 
HETATM   14  O4  UNL     1      -0.057  14.207  -1.580  1.00  0.00    -0.268 OA
HETATM   15  N1  UNL     1      -1.281  14.689   0.225  1.00  0.00    -0.320 N 
HETATM   16  C18 UNL     1      -1.677  15.032   1.496  1.00  0.00     0.098 C 
HETATM   17  C19 UNL     1      -0.956  14.959   2.631  1.00  0.00     0.045 C 
HETATM   18  C20 UNL     1      -1.660  15.301   3.906  1.00  0.00     0.194 C 
HETATM   19  O5  UNL     1      -1.284  14.844   4.978  1.00  0.00    -0.287 OA
HETATM   20  C21 UNL     1      -2.893  16.103   3.867  1.00  0.00     0.046 A 
HETATM   21  C22 UNL     1      -3.671  16.059   2.727  1.00  0.00     0.032 A 
HETATM   22  C23 UNL     1      -4.946  16.646   2.712  1.00  0.00     0.026 A 
HETATM   23  C24 UNL     1      -5.445  17.312   3.843  1.00  0.00    -0.027 A 
HETATM   24  C25 UNL     1      -6.815  17.927   3.783  1.00  0.00     0.051 C 
HETATM   25  C26 UNL     1      -4.616  17.424   4.967  1.00  0.00     0.086 A 
HETATM   26  C27 UNL     1      -3.350  16.823   4.975  1.00  0.00     0.059 A 
HETATM   27  C28 UNL     1      -2.382  17.187   6.019  1.00  0.00     0.163 C 
HETATM   28  O7  UNL     1      -1.465  17.917   5.651  1.00  0.00    -0.292 OA
HETATM   29  C29 UNL     1      -2.536  16.592   7.401  1.00  0.00     0.084 C 
HETATM   30  C30 UNL     1      -1.969  17.465   8.527  1.00  0.00     0.016 C 
HETATM   31  C31 UNL     1      -3.131  15.431   1.519  1.00  0.00     0.210 C 
HETATM   32  O8  UNL     1      -3.837  15.271   0.528  1.00  0.00    -0.285 OA
HETATM   33  H24 UNL     1      -2.043  14.674  -0.457  1.00  0.00     0.169 HD
ENDROOT
BRANCH   5  34
HETATM   34  C8  UNL     1       2.976  17.877   3.855  1.00  0.00     0.010 C 
HETATM   35  C9  UNL     1       3.889  17.693   2.880  1.00  0.00    -0.089 C 
HETATM   36  C10 UNL     1       4.517  16.379   2.498  1.00  0.00     0.042 C 
HETATM   37  C11 UNL     1       4.373  18.865   2.064  1.00  0.00     0.042 C 
ENDBRANCH   5  34
BRANCH   4  38
HETATM   38  O1  UNL     1       1.034  18.601   5.901  1.00  0.00    -0.389 OA
HETATM   39  H10 UNL     1       0.152  18.223   5.694  1.00  0.00     0.210 HD
ENDBRANCH   4  38
BRANCH   1  40
HETATM   40  C2  UNL     1       0.050  18.365   9.816  1.00  0.00     0.004 C 
HETATM   41  C1  UNL     1       0.274  17.286  10.866  1.00  0.00     0.006 C 
ENDBRANCH   1  40
BRANCH  25  42
HETATM   42  O6  UNL     1      -4.999  18.138   6.070  1.00  0.00    -0.359 OA
HETATM   43  H29 UNL     1      -5.821  18.624   5.896  1.00  0.00     0.217 HD
ENDBRANCH  25  42
TORSDOF 4
ENDMDL
MODEL 8
REMARK minimizedAffinity -7.25028419
REMARK CNNscore 0.267004967
REMARK CNNaffinity 5.35276222
REMARK  4 active torsions:
REMARK  status: ('A' for Active; 'I' for Inactive)
REMARK    1  A    between atoms: C2_2  and  C3_3 
REMARK    2  A    between atoms: C6_6  and  O1_7 
REMARK    3  A    between atoms: C7_8  and  C8_9 
REMARK    4  A    between atoms: C26_32  and  O6_33 
ROOT
HETATM    1  C3  UNL     1      11.524  11.871   9.847  1.00  0.00     0.008 C 
HETATM    2  C4  UNL     1      11.977  13.051  10.679  1.00  0.00    -0.023 C 
HETATM    3  C5  UNL     1      12.965  13.131  11.590  1.00  0.00     0.004 C 
HETATM    4  C6  UNL     1      13.963  12.111  12.105  1.00  0.00     0.174 C 
HETATM    5  C7  UNL     1      14.363  12.324  13.603  1.00  0.00     0.187 C 
HETATM    6  O2  UNL     1      13.253  12.141  14.514  1.00  0.00    -0.308 OA
HETATM    7  C12 UNL     1      12.777  13.291  15.077  1.00  0.00     0.276 C 
HETATM    8  O3  UNL     1      13.056  14.419  14.677  1.00  0.00    -0.264 OA
HETATM    9  C13 UNL     1      12.022  13.018  16.420  1.00  0.00     0.095 C 
HETATM   10  C14 UNL     1      11.346  14.337  16.861  1.00  0.00     0.036 C 
HETATM   11  C15 UNL     1      13.160  12.742  17.389  1.00  0.00     0.003 C 
HETATM   12  C16 UNL     1      13.152  12.119  18.571  1.00  0.00     0.072 C 
HETATM   13  C17 UNL     1      12.016  11.531  19.290  1.00  0.00     0.245 C 
HETATM   14  O4  UNL     1      12.133  11.320  20.496  1.00  0.00    -0.268 OA
HETATM   15  N1  UNL     1      10.894  11.147  18.645  1.00  0.00    -0.320 N 
HETATM   16  C18 UNL     1      10.458  11.189  17.343  1.00  0.00     0.098 C 
HETATM   17  C19 UNL     1      10.945  11.938  16.335  1.00  0.00     0.045 C 
HETATM   18  C20 UNL     1      10.221  11.872  15.028  1.00  0.00     0.194 C 
HETATM   19  O5  UNL     1      10.269  12.800  14.231  1.00  0.00    -0.287 OA
HETATM   20  C21 UNL     1       9.341  10.729  14.738  1.00  0.00     0.046 A 
HETATM   21  C22 UNL     1       8.762  10.058  15.797  1.00  0.00     0.032 A 
HETATM   22  C23 UNL     1       7.769   9.093  15.572  1.00  0.00     0.026 A 
HETATM   23  C24 UNL     1       7.362   8.769  14.266  1.00  0.00    -0.027 A 
HETATM   24  C25 UNL     1       6.296   7.729  14.070  1.00  0.00     0.051 C 
HETATM   25  C26 UNL     1       8.013   9.394  13.194  1.00  0.00     0.086 A 
HETATM   26  C27 UNL     1       8.995  10.366  13.432  1.00  0.00     0.059 A 
HETATM   27  C28 UNL     1       9.870  10.796  12.333  1.00  0.00     0.163 C 
HETATM   28  O7  UNL     1      11.019  10.363  12.380  1.00  0.00    -0.292 OA
HETATM   29  C29 UNL     1       9.334  11.767  11.306  1.00  0.00     0.084 C 
HETATM   30  C30 UNL     1       9.992  11.650   9.926  1.00  0.00     0.016 C 
HETATM   31  C31 UNL     1       9.229  10.335  17.157  1.00  0.00     0.210 C 
HETATM   32  O8  UNL     1       8.659   9.844  18.127  1.00  0.00    -0.285 OA
HETATM   33  H24 UNL     1      10.275  10.629  19.274  1.00  0.00     0.169 HD
ENDROOT
BRANCH   5  34
HETATM   34  C8  UNL     1      15.405  11.320  14.053  1.00  0.00     0.010 C 
HETATM   35  C9  UNL     1      16.667  11.538  14.475  1.00  0.00    -0.089 C 
HETATM   36  C10 UNL     1      17.335  12.881  14.594  1.00  0.00     0.042 C 
HETATM   37  C11 UNL     1      17.545  10.378  14.871  1.00  0.00     0.042 C 
ENDBRANCH   5  34
BRANCH   4  38
HETATM   38  O1  UNL     1      13.542  10.772  11.884  1.00  0.00    -0.389 OA
HETATM   39  H10 UNL     1      12.623  10.700  12.222  1.00  0.00     0.210 HD
ENDBRANCH   4  38
BRANCH   1  40
HETATM   40  C2  UNL     1      11.990  12.091   8.390  1.00  0.00     0.004 C 
HETATM   41  C1  UNL     1      11.209  11.270   7.373  1.00  0.00     0.006 C 
ENDBRANCH   1  40
BRANCH  25  42
HETATM   42  O6  UNL     1       7.735   9.061  11.897  1.00  0.00    -0.359 OA
HETATM   43  H29 UNL     1       7.153   8.286  11.858  1.00  0.00     0.217 HD
ENDBRANCH  25  42
TORSDOF 4
ENDMDL
MODEL 9
REMARK minimizedAffinity -7.41483927
REMARK CNNscore 0.262033463
REMARK CNNaffinity 5.45190954
REMARK  4 active torsions:
REMARK  status: ('A' for Active; 'I' for Inactive)
REMARK    1  A    between atoms: C2_2  and  C3_3 
REMARK    2  A    between atoms: C6_6  and  O1_7 
REMARK    3  A    between atoms: C7_8  and  C8_9 
REMARK    4  A    between atoms: C26_32  and  O6_33 
ROOT
HETATM    1  C3  UNL     1      16.398  -1.241   2.744  1.00  0.00     0.008 C 
HETATM    2  C4  UNL     1      15.472  -1.411   3.929  1.00  0.00    -0.023 C 
HETATM    3  C5  UNL     1      15.604  -2.196   5.014  1.00  0.00     0.004 C 
HETATM    4  C6  UNL     1      16.687  -3.166   5.448  1.00  0.00     0.174 C 
HETATM    5  C7  UNL     1      16.148  -4.385   6.268  1.00  0.00     0.187 C 
HETATM    6  O2  UNL     1      15.273  -5.242   5.495  1.00  0.00    -0.308 OA
HETATM    7  C12 UNL     1      13.951  -5.167   5.832  1.00  0.00     0.276 C 
HETATM    8  O3  UNL     1      13.470  -4.280   6.533  1.00  0.00    -0.264 OA
HETATM    9  C13 UNL     1      13.167  -6.454   5.416  1.00  0.00     0.095 C 
HETATM   10  C14 UNL     1      11.660  -6.186   5.643  1.00  0.00     0.036 C 
HETATM   11  C15 UNL     1      13.613  -7.466   6.458  1.00  0.00     0.003 C 
HETATM   12  C16 UNL     1      13.567  -8.801   6.437  1.00  0.00     0.072 C 
HETATM   13  C17 UNL     1      13.046  -9.684   5.387  1.00  0.00     0.245 C 
HETATM   14  O4  UNL     1      12.768 -10.845   5.685  1.00  0.00    -0.268 OA
HETATM   15  N1  UNL     1      12.946  -9.276   4.105  1.00  0.00    -0.320 N 
HETATM   16  C18 UNL     1      13.203  -8.103   3.435  1.00  0.00     0.098 C 
HETATM   17  C19 UNL     1      13.359  -6.872   3.959  1.00  0.00     0.045 C 
HETATM   18  C20 UNL     1      13.531  -5.741   2.996  1.00  0.00     0.194 C 
HETATM   19  O5  UNL     1      13.223  -4.596   3.304  1.00  0.00    -0.287 OA
HETATM   20  C21 UNL     1      13.964  -6.016   1.617  1.00  0.00     0.046 A 
HETATM   21  C22 UNL     1      13.680  -7.251   1.071  1.00  0.00     0.032 A 
HETATM   22  C23 UNL     1      13.895  -7.493  -0.295  1.00  0.00     0.026 A 
HETATM   23  C24 UNL     1      14.430  -6.496  -1.127  1.00  0.00    -0.027 A 
HETATM   24  C25 UNL     1      14.646  -6.797  -2.583  1.00  0.00     0.051 C 
HETATM   25  C26 UNL     1      14.795  -5.273  -0.548  1.00  0.00     0.086 A 
HETATM   26  C27 UNL     1      14.563  -5.039   0.815  1.00  0.00     0.059 A 
HETATM   27  C28 UNL     1      15.204  -3.892   1.472  1.00  0.00     0.163 C 
HETATM   28  O7  UNL     1      16.147  -4.172   2.209  1.00  0.00    -0.292 OA
HETATM   29  C29 UNL     1      14.628  -2.510   1.263  1.00  0.00     0.084 C 
HETATM   30  C30 UNL     1      15.652  -1.376   1.391  1.00  0.00     0.016 C 
HETATM   31  C31 UNL     1      13.189  -8.320   1.943  1.00  0.00     0.210 C 
HETATM   32  O8  UNL     1      12.817  -9.391   1.472  1.00  0.00    -0.285 OA
HETATM   33  H24 UNL     1      12.706 -10.059   3.493  1.00  0.00     0.169 HD
ENDROOT
BRANCH   5  34
HETATM   34  C8  UNL     1      17.271  -5.292   6.729  1.00  0.00     0.010 C 
HETATM   35  C9  UNL     1      17.306  -6.131   7.784  1.00  0.00    -0.089 C 
HETATM   36  C10 UNL     1      16.188  -6.357   8.766  1.00  0.00     0.042 C 
HETATM   37  C11 UNL     1      18.545  -6.942   8.067  1.00  0.00     0.042 C 
ENDBRANCH   5  34
BRANCH   4  38
HETATM   38  O1  UNL     1      17.493  -3.607   4.364  1.00  0.00    -0.389 OA
HETATM   39  H10 UNL     1      16.883  -3.914   3.658  1.00  0.00     0.210 HD
ENDBRANCH   4  38
BRANCH   1  40
HETATM   40  C2  UNL     1      17.104   0.129   2.867  1.00  0.00     0.004 C 
HETATM   41  C1  UNL     1      16.251   1.296   2.388  1.00  0.00     0.006 C 
ENDBRANCH   1  40
BRANCH  25  42
HETATM   42  O6  UNL     1      15.407  -4.290  -1.277  1.00  0.00    -0.359 OA
HETATM   43  H29 UNL     1      15.645  -4.615  -2.160  1.00  0.00     0.217 HD
ENDBRANCH  25  42
TORSDOF 4
ENDMDL
