MODEL 1
REMARK minimizedAffinity -7.17722273
REMARK CNNscore 0.438389391
REMARK CNNaffinity 5.72138977
REMARK  8 active torsions:
REMARK  status: ('A' for Active; 'I' for Inactive)
REMARK    1  A    between atoms: C12_14  and  C13_15 
REMARK    2  A    between atoms: C13_15  and  C15_17 
REMARK    3  A    between atoms: C15_17  and  C16_18 
REMARK    4  A    between atoms: C16_18  and  C17_19 
REMARK    5  A    between atoms: C26_28  and  C27_29 
REMARK    6  A    between atoms: C27_29  and  C28_30 
REMARK    7  A    between atoms: C28_30  and  C29_31 
REMARK    8  A    between atoms: C29_31  and  O4_33 
ROOT
HETATM    1  C1  UNL     1     -18.112  43.501 -25.895  1.00  0.00     0.025 C 
HETATM    2  C2  UNL     1     -17.076  43.785 -26.691  1.00  0.00     0.015 C 
HETATM    3  C3  UNL     1     -16.322  42.742 -27.422  1.00  0.00     0.289 C 
HETATM    4  O1  UNL     1     -16.401  41.540 -27.253  1.00  0.00    -0.260 OA
HETATM    5  O2  UNL     1     -15.503  43.368 -28.308  1.00  0.00    -0.311 OA
HETATM    6  C4  UNL     1     -15.835  44.762 -28.366  1.00  0.00     0.142 C 
HETATM    7  C5  UNL     1     -14.609  45.600 -28.701  1.00  0.00     0.039 C 
HETATM    8  C6  UNL     1     -13.521  45.461 -27.626  1.00  0.00     0.006 C 
HETATM    9  C7  UNL     1     -14.057  45.936 -26.255  1.00  0.00    -0.027 A 
HETATM   10  C8  UNL     1     -13.308  47.097 -25.597  1.00  0.00     0.011 C 
HETATM   11  C9  UNL     1     -11.770  47.064 -25.692  1.00  0.00     0.011 C 
HETATM   12  C10 UNL     1     -11.207  46.115 -26.762  1.00  0.00    -0.032 C 
HETATM   13  C11 UNL     1     -11.043  44.705 -26.119  1.00  0.00     0.016 C 
HETATM   14  C12 UNL     1      -9.843  46.527 -27.412  1.00  0.00    -0.002 C 
HETATM   15  C21 UNL     1      -9.885  45.785 -28.780  1.00  0.00     0.006 C 
HETATM   16  C22 UNL     1     -11.342  45.367 -29.044  1.00  0.00     0.011 C 
HETATM   17  C23 UNL     1     -12.173  46.141 -28.003  1.00  0.00    -0.032 C 
HETATM   18  C24 UNL     1     -12.417  47.559 -28.611  1.00  0.00     0.016 C 
HETATM   19  C25 UNL     1     -14.550  44.857 -25.314  1.00  0.00     0.022 A 
HETATM   20  C26 UNL     1     -15.579  45.747 -25.978  1.00  0.00    -0.021 A 
HETATM   21  C30 UNL     1     -16.499  45.116 -27.042  1.00  0.00     0.063 C 
ENDROOT
BRANCH  14  22
HETATM   22  C13 UNL     1      -8.504  46.287 -26.647  1.00  0.00    -0.014 C 
HETATM   23  C14 UNL     1      -8.689  46.373 -25.128  1.00  0.00     0.010 C 
BRANCH  22  24
HETATM   24  C15 UNL     1      -7.425  47.307 -27.119  1.00  0.00     0.008 C 
BRANCH  24  25
HETATM   25  C16 UNL     1      -6.445  47.732 -26.019  1.00  0.00     0.028 C 
BRANCH  25  26
HETATM   26  C17 UNL     1      -5.017  48.056 -26.384  1.00  0.00    -0.025 C 
HETATM   27  C18 UNL     1      -3.961  48.483 -25.663  1.00  0.00    -0.091 C 
HETATM   28  C19 UNL     1      -2.651  48.784 -26.351  1.00  0.00     0.042 C 
HETATM   29  C20 UNL     1      -3.928  48.690 -24.176  1.00  0.00     0.042 C 
ENDBRANCH  25  26
ENDBRANCH  24  25
ENDBRANCH  22  24
ENDBRANCH  14  22
BRANCH  20  30
HETATM   30  C27 UNL     1     -16.321  46.709 -25.043  1.00  0.00     0.021 C 
BRANCH  30  31
HETATM   31  C28 UNL     1     -17.127  45.996 -23.958  1.00  0.00     0.111 C 
BRANCH  31  32
HETATM   32  C29 UNL     1     -18.533  46.525 -23.896  1.00  0.00     0.139 C 
HETATM   33  O3  UNL     1     -19.060  47.319 -24.655  1.00  0.00    -0.650 OA
BRANCH  32  34
HETATM   34  O4  UNL     1     -19.211  46.031 -22.842  1.00  0.00    -0.776 OA
HETATM   35  H43 UNL     1     -20.094  46.452 -22.907  1.00  0.00     0.167 HD
ENDBRANCH  32  34
ENDBRANCH  31  32
ENDBRANCH  30  31
ENDBRANCH  20  30
TORSDOF 8
ENDMDL
MODEL 2
REMARK minimizedAffinity -8.26390839
REMARK CNNscore 0.27999118
REMARK CNNaffinity 6.58948898
REMARK  8 active torsions:
REMARK  status: ('A' for Active; 'I' for Inactive)
REMARK    1  A    between atoms: C12_14  and  C13_15 
REMARK    2  A    between atoms: C13_15  and  C15_17 
REMARK    3  A    between atoms: C15_17  and  C16_18 
REMARK    4  A    between atoms: C16_18  and  C17_19 
REMARK    5  A    between atoms: C26_28  and  C27_29 
REMARK    6  A    between atoms: C27_29  and  C28_30 
REMARK    7  A    between atoms: C28_30  and  C29_31 
REMARK    8  A    between atoms: C29_31  and  O4_33 
ROOT
HETATM    1  C1  UNL     1      -7.775  48.778 -24.289  1.00  0.00     0.025 C 
HETATM    2  C2  UNL     1      -6.922  48.386 -23.336  1.00  0.00     0.015 C 
HETATM    3  C3  UNL     1      -7.333  48.198 -21.927  1.00  0.00     0.289 C 
HETATM    4  O1  UNL     1      -8.385  48.548 -21.427  1.00  0.00    -0.260 OA
HETATM    5  O2  UNL     1      -6.312  47.578 -21.277  1.00  0.00    -0.311 OA
HETATM    6  C4  UNL     1      -5.334  47.139 -22.230  1.00  0.00     0.142 C 
HETATM    7  C5  UNL     1      -3.941  47.132 -21.617  1.00  0.00     0.039 C 
HETATM    8  C6  UNL     1      -3.512  48.540 -21.177  1.00  0.00     0.006 C 
HETATM    9  C7  UNL     1      -3.487  49.497 -22.392  1.00  0.00    -0.027 A 
HETATM   10  C8  UNL     1      -2.144  50.154 -22.712  1.00  0.00     0.011 C 
HETATM   11  C9  UNL     1      -1.314  50.646 -21.510  1.00  0.00     0.011 C 
HETATM   12  C10 UNL     1      -1.733  50.061 -20.152  1.00  0.00    -0.032 C 
HETATM   13  C11 UNL     1      -2.849  50.973 -19.557  1.00  0.00     0.016 C 
HETATM   14  C12 UNL     1      -0.601  49.898 -19.082  1.00  0.00    -0.002 C 
HETATM   15  C21 UNL     1      -1.168  48.779 -18.160  1.00  0.00     0.006 C 
HETATM   16  C22 UNL     1      -2.307  48.077 -18.919  1.00  0.00     0.011 C 
HETATM   17  C23 UNL     1      -2.180  48.569 -20.372  1.00  0.00    -0.032 C 
HETATM   18  C24 UNL     1      -1.104  47.658 -21.045  1.00  0.00     0.016 C 
HETATM   19  C25 UNL     1      -4.707  50.373 -22.583  1.00  0.00     0.022 A 
HETATM   20  C26 UNL     1      -4.502  49.219 -23.542  1.00  0.00    -0.021 A 
HETATM   21  C30 UNL     1      -5.479  48.030 -23.458  1.00  0.00     0.063 C 
ENDROOT
BRANCH  14  22
HETATM   22  C13 UNL     1      -0.100  51.136 -18.274  1.00  0.00    -0.014 C 
HETATM   23  C14 UNL     1      -0.850  51.295 -16.947  1.00  0.00     0.010 C 
BRANCH  22  24
HETATM   24  C15 UNL     1      -0.237  52.430 -19.131  1.00  0.00     0.008 C 
BRANCH  24  25
HETATM   25  C16 UNL     1       1.103  53.050 -19.544  1.00  0.00     0.028 C 
BRANCH  25  26
HETATM   26  C17 UNL     1       1.153  53.979 -20.733  1.00  0.00    -0.025 C 
HETATM   27  C18 UNL     1       1.133  53.765 -22.064  1.00  0.00    -0.091 C 
HETATM   28  C19 UNL     1       1.267  54.929 -23.016  1.00  0.00     0.042 C 
HETATM   29  C20 UNL     1       0.969  52.437 -22.747  1.00  0.00     0.042 C 
ENDBRANCH  25  26
ENDBRANCH  24  25
ENDBRANCH  22  24
ENDBRANCH  14  22
BRANCH  20  30
HETATM   30  C27 UNL     1      -4.163  49.613 -24.984  1.00  0.00     0.021 C 
BRANCH  30  31
HETATM   31  C28 UNL     1      -4.222  48.439 -25.961  1.00  0.00     0.111 C 
BRANCH  31  32
HETATM   32  C29 UNL     1      -3.607  48.806 -27.283  1.00  0.00     0.139 C 
HETATM   33  O3  UNL     1      -2.803  49.695 -27.505  1.00  0.00    -0.650 OA
BRANCH  32  34
HETATM   34  O4  UNL     1      -4.063  48.029 -28.284  1.00  0.00    -0.776 OA
HETATM   35  H43 UNL     1      -3.601  48.370 -29.080  1.00  0.00     0.167 HD
ENDBRANCH  32  34
ENDBRANCH  31  32
ENDBRANCH  30  31
ENDBRANCH  20  30
TORSDOF 8
ENDMDL
MODEL 3
REMARK minimizedAffinity -7.1864953
REMARK CNNscore 0.249150038
REMARK CNNaffinity 6.1206708
REMARK  8 active torsions:
REMARK  status: ('A' for Active; 'I' for Inactive)
REMARK    1  A    between atoms: C12_14  and  C13_15 
REMARK    2  A    between atoms: C13_15  and  C15_17 
REMARK    3  A    between atoms: C15_17  and  C16_18 
REMARK    4  A    between atoms: C16_18  and  C17_19 
REMARK    5  A    between atoms: C26_28  and  C27_29 
REMARK    6  A    between atoms: C27_29  and  C28_30 
REMARK    7  A    between atoms: C28_30  and  C29_31 
REMARK    8  A    between atoms: C29_31  and  O4_33 
ROOT
HETATM    1  C1  UNL     1     -10.803  45.431 -20.442  1.00  0.00     0.025 C 
HETATM    2  C2  UNL     1      -9.902  45.921 -21.301  1.00  0.00     0.015 C 
HETATM    3  C3  UNL     1      -9.186  45.069 -22.277  1.00  0.00     0.289 C 
HETATM    4  O1  UNL     1      -9.162  43.853 -22.296  1.00  0.00    -0.260 OA
HETATM    5  O2  UNL     1      -8.535  45.890 -23.144  1.00  0.00    -0.311 OA
HETATM    6  C4  UNL     1      -8.964  47.243 -22.935  1.00  0.00     0.142 C 
HETATM    7  C5  UNL     1      -7.851  48.225 -23.277  1.00  0.00     0.039 C 
HETATM    8  C6  UNL     1      -6.624  48.019 -22.378  1.00  0.00     0.006 C 
HETATM    9  C7  UNL     1      -7.002  48.234 -20.894  1.00  0.00    -0.027 A 
HETATM   10  C8  UNL     1      -6.251  49.342 -20.154  1.00  0.00     0.011 C 
HETATM   11  C9  UNL     1      -4.741  49.458 -20.438  1.00  0.00     0.011 C 
HETATM   12  C10 UNL     1      -4.264  48.734 -21.707  1.00  0.00    -0.032 C 
HETATM   13  C11 UNL     1      -3.922  47.262 -21.324  1.00  0.00     0.016 C 
HETATM   14  C12 UNL     1      -3.029  49.355 -22.443  1.00  0.00    -0.002 C 
HETATM   15  C21 UNL     1      -3.204  48.828 -23.898  1.00  0.00     0.006 C 
HETATM   16  C22 UNL     1      -4.652  48.330 -24.046  1.00  0.00     0.011 C 
HETATM   17  C23 UNL     1      -5.386  48.863 -22.802  1.00  0.00    -0.032 C 
HETATM   18  C24 UNL     1      -5.802  50.330 -23.140  1.00  0.00     0.016 C 
HETATM   19  C25 UNL     1      -7.293  46.987 -20.087  1.00  0.00     0.022 A 
HETATM   20  C26 UNL     1      -8.458  47.875 -20.469  1.00  0.00    -0.021 A 
HETATM   21  C30 UNL     1      -9.468  47.334 -21.501  1.00  0.00     0.063 C 
ENDROOT
BRANCH  14  22
HETATM   22  C13 UNL     1      -1.587  49.119 -21.895  1.00  0.00    -0.014 C 
HETATM   23  C14 UNL     1      -1.388  47.680 -21.406  1.00  0.00     0.010 C 
BRANCH  22  24
HETATM   24  C15 UNL     1      -1.275  50.127 -20.749  1.00  0.00     0.008 C 
BRANCH  24  25
HETATM   25  C16 UNL     1       0.186  50.593 -20.708  1.00  0.00     0.028 C 
BRANCH  25  26
HETATM   26  C17 UNL     1       0.596  51.812 -21.498  1.00  0.00    -0.025 C 
HETATM   27  C18 UNL     1       0.846  53.090 -21.146  1.00  0.00    -0.091 C 
HETATM   28  C19 UNL     1       1.181  54.111 -22.207  1.00  0.00     0.042 C 
HETATM   29  C20 UNL     1       0.847  53.641 -19.749  1.00  0.00     0.042 C 
ENDBRANCH  25  26
ENDBRANCH  24  25
ENDBRANCH  22  24
ENDBRANCH  14  22
BRANCH  20  30
HETATM   30  C27 UNL     1      -9.130  48.616 -19.308  1.00  0.00     0.021 C 
BRANCH  30  31
HETATM   31  C28 UNL     1      -8.981  47.901 -17.966  1.00  0.00     0.111 C 
BRANCH  31  32
HETATM   32  C29 UNL     1     -10.302  47.810 -17.253  1.00  0.00     0.139 C 
HETATM   33  O3  UNL     1     -11.386  47.530 -17.735  1.00  0.00    -0.650 OA
BRANCH  32  34
HETATM   34  O4  UNL     1     -10.189  48.104 -15.944  1.00  0.00    -0.776 OA
HETATM   35  H43 UNL     1     -11.104  48.020 -15.601  1.00  0.00     0.167 HD
ENDBRANCH  32  34
ENDBRANCH  31  32
ENDBRANCH  30  31
ENDBRANCH  20  30
TORSDOF 8
ENDMDL
MODEL 4
REMARK minimizedAffinity -8.60877132
REMARK CNNscore 0.218517557
REMARK CNNaffinity 6.17249441
REMARK  8 active torsions:
REMARK  status: ('A' for Active; 'I' for Inactive)
REMARK    1  A    between atoms: C12_14  and  C13_15 
REMARK    2  A    between atoms: C13_15  and  C15_17 
REMARK    3  A    between atoms: C15_17  and  C16_18 
REMARK    4  A    between atoms: C16_18  and  C17_19 
REMARK    5  A    between atoms: C26_28  and  C27_29 
REMARK    6  A    between atoms: C27_29  and  C28_30 
REMARK    7  A    between atoms: C28_30  and  C29_31 
REMARK    8  A    between atoms: C29_31  and  O4_33 
ROOT
HETATM    1  C1  UNL     1      -9.261  47.663 -20.512  1.00  0.00     0.025 C 
HETATM    2  C2  UNL     1      -7.943  47.673 -20.286  1.00  0.00     0.015 C 
HETATM    3  C3  UNL     1      -7.353  48.200 -19.035  1.00  0.00     0.289 C 
HETATM    4  O1  UNL     1      -7.928  48.844 -18.178  1.00  0.00    -0.260 OA
HETATM    5  O2  UNL     1      -6.038  47.853 -19.019  1.00  0.00    -0.311 OA
HETATM    6  C4  UNL     1      -5.774  46.929 -20.083  1.00  0.00     0.142 C 
HETATM    7  C5  UNL     1      -4.342  47.068 -20.582  1.00  0.00     0.039 C 
HETATM    8  C6  UNL     1      -4.079  48.469 -21.153  1.00  0.00     0.006 C 
HETATM    9  C7  UNL     1      -5.022  48.749 -22.346  1.00  0.00    -0.027 A 
HETATM   10  C8  UNL     1      -4.352  49.047 -23.688  1.00  0.00     0.011 C 
HETATM   11  C9  UNL     1      -3.106  49.953 -23.649  1.00  0.00     0.011 C 
HETATM   12  C10 UNL     1      -2.461  50.106 -22.262  1.00  0.00    -0.032 C 
HETATM   13  C11 UNL     1      -3.158  51.296 -21.534  1.00  0.00     0.016 C 
HETATM   14  C12 UNL     1      -0.914  50.345 -22.234  1.00  0.00    -0.002 C 
HETATM   15  C21 UNL     1      -0.521  49.841 -20.814  1.00  0.00     0.006 C 
HETATM   16  C22 UNL     1      -1.683  48.985 -20.282  1.00  0.00     0.011 C 
HETATM   17  C23 UNL     1      -2.586  48.734 -21.504  1.00  0.00    -0.032 C 
HETATM   18  C24 UNL     1      -1.966  47.514 -22.256  1.00  0.00     0.016 C 
HETATM   19  C25 UNL     1      -6.269  49.553 -22.043  1.00  0.00     0.022 A 
HETATM   20  C26 UNL     1      -6.426  48.073 -22.320  1.00  0.00    -0.021 A 
HETATM   21  C30 UNL     1      -6.839  47.160 -21.148  1.00  0.00     0.063 C 
ENDROOT
BRANCH  14  22
HETATM   22  C13 UNL     1      -0.331  51.760 -22.544  1.00  0.00    -0.014 C 
HETATM   23  C14 UNL     1      -0.078  52.567 -21.266  1.00  0.00     0.010 C 
BRANCH  22  24
HETATM   24  C15 UNL     1      -1.288  52.540 -23.494  1.00  0.00     0.008 C 
BRANCH  24  25
HETATM   25  C16 UNL     1      -0.793  52.626 -24.944  1.00  0.00     0.028 C 
BRANCH  25  26
HETATM   26  C17 UNL     1       0.582  52.109 -25.289  1.00  0.00    -0.025 C 
HETATM   27  C18 UNL     1       1.177  51.799 -26.458  1.00  0.00    -0.091 C 
HETATM   28  C19 UNL     1       2.576  51.230 -26.464  1.00  0.00     0.042 C 
HETATM   29  C20 UNL     1       0.588  51.977 -27.828  1.00  0.00     0.042 C 
ENDBRANCH  25  26
ENDBRANCH  24  25
ENDBRANCH  22  24
ENDBRANCH  14  22
BRANCH  20  30
HETATM   30  C27 UNL     1      -7.139  47.720 -23.631  1.00  0.00     0.021 C 
BRANCH  30  31
HETATM   31  C28 UNL     1      -8.441  48.492 -23.838  1.00  0.00     0.111 C 
BRANCH  31  32
HETATM   32  C29 UNL     1      -8.710  48.714 -25.301  1.00  0.00     0.139 C 
HETATM   33  O3  UNL     1      -8.463  47.957 -26.223  1.00  0.00    -0.650 OA
BRANCH  32  34
HETATM   34  O4  UNL     1      -9.270  49.917 -25.533  1.00  0.00    -0.776 OA
HETATM   35  H43 UNL     1      -9.383  49.943 -26.507  1.00  0.00     0.167 HD
ENDBRANCH  32  34
ENDBRANCH  31  32
ENDBRANCH  30  31
ENDBRANCH  20  30
TORSDOF 8
ENDMDL
MODEL 5
REMARK minimizedAffinity -7.16884375
REMARK CNNscore 0.200398162
REMARK CNNaffinity 6.31836319
REMARK  8 active torsions:
REMARK  status: ('A' for Active; 'I' for Inactive)
REMARK    1  A    between atoms: C12_14  and  C13_15 
REMARK    2  A    between atoms: C13_15  and  C15_17 
REMARK    3  A    between atoms: C15_17  and  C16_18 
REMARK    4  A    between atoms: C16_18  and  C17_19 
REMARK    5  A    between atoms: C26_28  and  C27_29 
REMARK    6  A    between atoms: C27_29  and  C28_30 
REMARK    7  A    between atoms: C28_30  and  C29_31 
REMARK    8  A    between atoms: C29_31  and  O4_33 
ROOT
HETATM    1  C1  UNL     1      -7.696  45.028 -18.007  1.00  0.00     0.025 C 
HETATM    2  C2  UNL     1      -6.455  45.465 -18.248  1.00  0.00     0.015 C 
HETATM    3  C3  UNL     1      -5.628  46.128 -17.214  1.00  0.00     0.289 C 
HETATM    4  O1  UNL     1      -6.009  46.529 -16.131  1.00  0.00    -0.260 OA
HETATM    5  O2  UNL     1      -4.362  46.231 -17.700  1.00  0.00    -0.311 OA
HETATM    6  C4  UNL     1      -4.250  45.469 -18.909  1.00  0.00     0.142 C 
HETATM    7  C5  UNL     1      -3.216  46.081 -19.844  1.00  0.00     0.039 C 
HETATM    8  C6  UNL     1      -3.612  47.503 -20.267  1.00  0.00     0.006 C 
HETATM    9  C7  UNL     1      -4.967  47.484 -21.011  1.00  0.00    -0.027 A 
HETATM   10  C8  UNL     1      -4.963  48.015 -22.446  1.00  0.00     0.011 C 
HETATM   11  C9  UNL     1      -4.121  49.279 -22.710  1.00  0.00     0.011 C 
HETATM   12  C10 UNL     1      -3.085  49.605 -21.622  1.00  0.00    -0.032 C 
HETATM   13  C11 UNL     1      -3.783  50.483 -20.539  1.00  0.00     0.016 C 
HETATM   14  C12 UNL     1      -1.784  50.337 -22.094  1.00  0.00    -0.002 C 
HETATM   15  C21 UNL     1      -0.762  49.959 -20.981  1.00  0.00     0.006 C 
HETATM   16  C22 UNL     1      -1.334  48.758 -20.208  1.00  0.00     0.011 C 
HETATM   17  C23 UNL     1      -2.507  48.252 -21.068  1.00  0.00    -0.032 C 
HETATM   18  C24 UNL     1      -1.877  47.319 -22.152  1.00  0.00     0.016 C 
HETATM   19  C25 UNL     1      -6.191  47.828 -20.189  1.00  0.00     0.022 A 
HETATM   20  C26 UNL     1      -5.993  46.385 -20.601  1.00  0.00    -0.021 A 
HETATM   21  C30 UNL     1      -5.650  45.362 -19.500  1.00  0.00     0.063 C 
ENDROOT
BRANCH  14  22
HETATM   22  C13 UNL     1      -1.806  51.871 -22.382  1.00  0.00    -0.014 C 
HETATM   23  C14 UNL     1      -2.760  52.224 -23.529  1.00  0.00     0.010 C 
BRANCH  22  24
HETATM   24  C15 UNL     1      -0.369  52.380 -22.699  1.00  0.00     0.008 C 
BRANCH  24  25
HETATM   25  C16 UNL     1      -0.186  52.879 -24.137  1.00  0.00     0.028 C 
BRANCH  25  26
HETATM   26  C17 UNL     1       1.019  52.430 -24.929  1.00  0.00    -0.025 C 
HETATM   27  C18 UNL     1       1.155  51.697 -26.051  1.00  0.00    -0.091 C 
HETATM   28  C19 UNL     1       2.534  51.359 -26.568  1.00  0.00     0.042 C 
HETATM   29  C20 UNL     1       0.039  51.161 -26.903  1.00  0.00     0.042 C 
ENDBRANCH  25  26
ENDBRANCH  24  25
ENDBRANCH  22  24
ENDBRANCH  14  22
BRANCH  20  30
HETATM   30  C27 UNL     1      -7.000  45.846 -21.623  1.00  0.00     0.021 C 
BRANCH  30  31
HETATM   31  C28 UNL     1      -6.865  46.489 -23.003  1.00  0.00     0.111 C 
BRANCH  31  32
HETATM   32  C29 UNL     1      -8.157  46.400 -23.768  1.00  0.00     0.139 C 
HETATM   33  O3  UNL     1      -9.102  47.168 -23.718  1.00  0.00    -0.650 OA
BRANCH  32  34
HETATM   34  O4  UNL     1      -8.199  45.311 -24.560  1.00  0.00    -0.776 OA
HETATM   35  H43 UNL     1      -9.079  45.363 -24.989  1.00  0.00     0.167 HD
ENDBRANCH  32  34
ENDBRANCH  31  32
ENDBRANCH  30  31
ENDBRANCH  20  30
TORSDOF 8
ENDMDL
MODEL 6
REMARK minimizedAffinity -7.32577562
REMARK CNNscore 0.197432339
REMARK CNNaffinity 5.76432943
REMARK  8 active torsions:
REMARK  status: ('A' for Active; 'I' for Inactive)
REMARK    1  A    between atoms: C12_14  and  C13_15 
REMARK    2  A    between atoms: C13_15  and  C15_17 
REMARK    3  A    between atoms: C15_17  and  C16_18 
REMARK    4  A    between atoms: C16_18  and  C17_19 
REMARK    5  A    between atoms: C26_28  and  C27_29 
REMARK    6  A    between atoms: C27_29  and  C28_30 
REMARK    7  A    between atoms: C28_30  and  C29_31 
REMARK    8  A    between atoms: C29_31  and  O4_33 
ROOT
HETATM    1  C1  UNL     1      -3.571  51.230  -9.740  1.00  0.00     0.025 C 
HETATM    2  C2  UNL     1      -2.702  52.221  -9.968  1.00  0.00     0.015 C 
HETATM    3  C3  UNL     1      -2.315  52.643 -11.333  1.00  0.00     0.289 C 
HETATM    4  O1  UNL     1      -2.558  52.053 -12.369  1.00  0.00    -0.260 OA
HETATM    5  O2  UNL     1      -1.617  53.805 -11.225  1.00  0.00    -0.311 OA
HETATM    6  C4  UNL     1      -1.713  54.297  -9.882  1.00  0.00     0.142 C 
HETATM    7  C5  UNL     1      -0.467  55.084  -9.501  1.00  0.00     0.039 C 
HETATM    8  C6  UNL     1       0.791  54.205  -9.547  1.00  0.00     0.006 C 
HETATM    9  C7  UNL     1       0.658  53.025  -8.557  1.00  0.00    -0.027 A 
HETATM   10  C8  UNL     1       1.719  52.936  -7.458  1.00  0.00     0.011 C 
HETATM   11  C9  UNL     1       3.170  53.242  -7.876  1.00  0.00     0.011 C 
HETATM   12  C10 UNL     1       3.315  53.983  -9.215  1.00  0.00    -0.032 C 
HETATM   13  C11 UNL     1       3.375  52.917 -10.352  1.00  0.00     0.016 C 
HETATM   14  C12 UNL     1       4.552  54.932  -9.358  1.00  0.00    -0.002 C 
HETATM   15  C21 UNL     1       4.085  55.930 -10.458  1.00  0.00     0.006 C 
HETATM   16  C22 UNL     1       2.557  55.809 -10.585  1.00  0.00     0.011 C 
HETATM   17  C23 UNL     1       2.119  54.994  -9.353  1.00  0.00    -0.032 C 
HETATM   18  C24 UNL     1       1.991  56.018  -8.181  1.00  0.00     0.016 C 
HETATM   19  C25 UNL     1       0.208  51.703  -9.142  1.00  0.00     0.022 A 
HETATM   20  C26 UNL     1      -0.775  52.475  -8.289  1.00  0.00    -0.021 A 
HETATM   21  C30 UNL     1      -2.000  53.098  -8.987  1.00  0.00     0.063 C 
ENDROOT
BRANCH  14  22
HETATM   22  C13 UNL     1       5.966  54.342  -9.653  1.00  0.00    -0.014 C 
HETATM   23  C14 UNL     1       6.093  52.892  -9.172  1.00  0.00     0.010 C 
BRANCH  22  24
HETATM   24  C15 UNL     1       7.067  55.227  -8.996  1.00  0.00     0.008 C 
BRANCH  24  25
HETATM   25  C16 UNL     1       6.875  55.447  -7.491  1.00  0.00     0.028 C 
BRANCH  25  26
HETATM   26  C17 UNL     1       5.695  56.252  -7.004  1.00  0.00    -0.025 C 
HETATM   27  C18 UNL     1       5.589  57.319  -6.187  1.00  0.00    -0.091 C 
HETATM   28  C19 UNL     1       4.226  57.867  -5.837  1.00  0.00     0.042 C 
HETATM   29  C20 UNL     1       6.727  58.077  -5.565  1.00  0.00     0.042 C 
ENDBRANCH  25  26
ENDBRANCH  24  25
ENDBRANCH  22  24
ENDBRANCH  14  22
BRANCH  20  30
HETATM   30  C27 UNL     1      -1.119  51.837  -6.938  1.00  0.00     0.021 C 
BRANCH  30  31
HETATM   31  C28 UNL     1      -0.581  52.623  -5.743  1.00  0.00     0.111 C 
BRANCH  31  32
HETATM   32  C29 UNL     1      -1.270  53.954  -5.619  1.00  0.00     0.139 C 
HETATM   33  O3  UNL     1      -0.833  55.046  -5.935  1.00  0.00    -0.650 OA
BRANCH  32  34
HETATM   34  O4  UNL     1      -2.494  53.838  -5.069  1.00  0.00    -0.776 OA
HETATM   35  H43 UNL     1      -2.828  54.760  -5.035  1.00  0.00     0.167 HD
ENDBRANCH  32  34
ENDBRANCH  31  32
ENDBRANCH  30  31
ENDBRANCH  20  30
TORSDOF 8
ENDMDL
MODEL 7
REMARK minimizedAffinity -8.31716347
REMARK CNNscore 0.186769128
REMARK CNNaffinity 5.59689713
REMARK  8 active torsions:
REMARK  status: ('A' for Active; 'I' for Inactive)
REMARK    1  A    between atoms: C12_14  and  C13_15 
REMARK    2  A    between atoms: C13_15  and  C15_17 
REMARK    3  A    between atoms: C15_17  and  C16_18 
REMARK    4  A    between atoms: C16_18  and  C17_19 
REMARK    5  A    between atoms: C26_28  and  C27_29 
REMARK    6  A    between atoms: C27_29  and  C28_30 
REMARK    7  A    between atoms: C28_30  and  C29_31 
REMARK    8  A    between atoms: C29_31  and  O4_33 
ROOT
HETATM    1  C1  UNL     1      -9.399  48.094 -20.071  1.00  0.00     0.025 C 
HETATM    2  C2  UNL     1      -8.078  47.929 -20.198  1.00  0.00     0.015 C 
HETATM    3  C3  UNL     1      -7.182  47.743 -19.035  1.00  0.00     0.289 C 
HETATM    4  O1  UNL     1      -7.471  47.911 -17.865  1.00  0.00    -0.260 OA
HETATM    5  O2  UNL     1      -5.963  47.370 -19.507  1.00  0.00    -0.311 OA
HETATM    6  C4  UNL     1      -6.061  47.077 -20.907  1.00  0.00     0.142 C 
HETATM    7  C5  UNL     1      -4.748  47.374 -21.618  1.00  0.00     0.039 C 
HETATM    8  C6  UNL     1      -4.375  48.860 -21.515  1.00  0.00     0.006 C 
HETATM    9  C7  UNL     1      -5.472  49.735 -22.165  1.00  0.00    -0.027 A 
HETATM   10  C8  UNL     1      -5.032  50.621 -23.332  1.00  0.00     0.011 C 
HETATM   11  C9  UNL     1      -3.672  51.330 -23.183  1.00  0.00     0.011 C 
HETATM   12  C10 UNL     1      -2.757  50.752 -22.091  1.00  0.00    -0.032 C 
HETATM   13  C11 UNL     1      -3.100  51.462 -20.747  1.00  0.00     0.016 C 
HETATM   14  C12 UNL     1      -1.215  50.872 -22.337  1.00  0.00    -0.002 C 
HETATM   15  C21 UNL     1      -0.644  49.717 -21.463  1.00  0.00     0.006 C 
HETATM   16  C22 UNL     1      -1.805  48.767 -21.123  1.00  0.00     0.011 C 
HETATM   17  C23 UNL     1      -2.954  49.192 -22.056  1.00  0.00    -0.032 C 
HETATM   18  C24 UNL     1      -2.696  48.471 -23.418  1.00  0.00     0.016 C 
HETATM   19  C25 UNL     1      -6.491  50.346 -21.226  1.00  0.00     0.022 A 
HETATM   20  C26 UNL     1      -6.936  49.202 -22.113  1.00  0.00    -0.021 A 
HETATM   21  C30 UNL     1      -7.258  47.853 -21.442  1.00  0.00     0.063 C 
ENDROOT
BRANCH  14  22
HETATM   22  C13 UNL     1      -0.482  52.226 -22.084  1.00  0.00    -0.014 C 
HETATM   23  C14 UNL     1       0.253  52.721 -23.335  1.00  0.00     0.010 C 
BRANCH  22  24
HETATM   24  C15 UNL     1       0.513  52.085 -20.893  1.00  0.00     0.008 C 
BRANCH  24  25
HETATM   25  C16 UNL     1       0.152  52.944 -19.675  1.00  0.00     0.028 C 
BRANCH  25  26
HETATM   26  C17 UNL     1       0.731  52.594 -18.325  1.00  0.00    -0.025 C 
HETATM   27  C18 UNL     1       0.560  51.541 -17.501  1.00  0.00    -0.091 C 
HETATM   28  C19 UNL     1       1.250  51.516 -16.158  1.00  0.00     0.042 C 
HETATM   29  C20 UNL     1      -0.266  50.318 -17.783  1.00  0.00     0.042 C 
ENDBRANCH  25  26
ENDBRANCH  24  25
ENDBRANCH  22  24
ENDBRANCH  14  22
BRANCH  20  30
HETATM   30  C27 UNL     1      -7.934  49.573 -23.216  1.00  0.00     0.021 C 
BRANCH  30  31
HETATM   31  C28 UNL     1      -8.475  48.362 -23.975  1.00  0.00     0.111 C 
BRANCH  31  32
HETATM   32  C29 UNL     1      -8.806  48.721 -25.397  1.00  0.00     0.139 C 
HETATM   33  O3  UNL     1      -8.653  48.031 -26.390  1.00  0.00    -0.650 OA
BRANCH  32  34
HETATM   34  O4  UNL     1      -9.305  49.968 -25.499  1.00  0.00    -0.776 OA
HETATM   35  H43 UNL     1      -9.468  50.081 -26.459  1.00  0.00     0.167 HD
ENDBRANCH  32  34
ENDBRANCH  31  32
ENDBRANCH  30  31
ENDBRANCH  20  30
TORSDOF 8
ENDMDL
MODEL 8
REMARK minimizedAffinity -7.13177013
REMARK CNNscore 0.167108789
REMARK CNNaffinity 5.86586618
REMARK  8 active torsions:
REMARK  status: ('A' for Active; 'I' for Inactive)
REMARK    1  A    between atoms: C12_14  and  C13_15 
REMARK    2  A    between atoms: C13_15  and  C15_17 
REMARK    3  A    between atoms: C15_17  and  C16_18 
REMARK    4  A    between atoms: C16_18  and  C17_19 
REMARK    5  A    between atoms: C26_28  and  C27_29 
REMARK    6  A    between atoms: C27_29  and  C28_30 
REMARK    7  A    between atoms: C28_30  and  C29_31 
REMARK    8  A    between atoms: C29_31  and  O4_33 
ROOT
HETATM    1  C1  UNL     1      -1.150  51.759 -26.337  1.00  0.00     0.025 C 
HETATM    2  C2  UNL     1      -1.637  51.772 -25.092  1.00  0.00     0.015 C 
HETATM    3  C3  UNL     1      -0.794  52.052 -23.908  1.00  0.00     0.289 C 
HETATM    4  O1  UNL     1       0.421  52.103 -23.881  1.00  0.00    -0.260 OA
HETATM    5  O2  UNL     1      -1.620  52.222 -22.842  1.00  0.00    -0.311 OA
HETATM    6  C4  UNL     1      -2.978  52.296 -23.296  1.00  0.00     0.142 C 
HETATM    7  C5  UNL     1      -3.935  51.761 -22.239  1.00  0.00     0.039 C 
HETATM    8  C6  UNL     1      -3.664  50.282 -21.931  1.00  0.00     0.006 C 
HETATM    9  C7  UNL     1      -3.845  49.426 -23.207  1.00  0.00    -0.027 A 
HETATM   10  C8  UNL     1      -4.906  48.326 -23.143  1.00  0.00     0.011 C 
HETATM   11  C9  UNL     1      -4.982  47.520 -21.832  1.00  0.00     0.011 C 
HETATM   12  C10 UNL     1      -4.283  48.173 -20.629  1.00  0.00    -0.032 C 
HETATM   13  C11 UNL     1      -2.790  47.724 -20.636  1.00  0.00     0.016 C 
HETATM   14  C12 UNL     1      -4.888  47.864 -19.218  1.00  0.00    -0.002 C 
HETATM   15  C21 UNL     1      -4.411  49.082 -18.373  1.00  0.00     0.006 C 
HETATM   16  C22 UNL     1      -3.963  50.184 -19.349  1.00  0.00     0.011 C 
HETATM   17  C23 UNL     1      -4.481  49.729 -20.727  1.00  0.00    -0.032 C 
HETATM   18  C24 UNL     1      -5.970  50.195 -20.805  1.00  0.00     0.016 C 
HETATM   19  C25 UNL     1      -2.583  49.077 -23.967  1.00  0.00     0.022 A 
HETATM   20  C26 UNL     1      -3.519  50.102 -24.573  1.00  0.00    -0.021 A 
HETATM   21  C30 UNL     1      -3.042  51.567 -24.632  1.00  0.00     0.063 C 
ENDROOT
BRANCH  14  22
HETATM   22  C13 UNL     1      -4.590  46.502 -18.516  1.00  0.00    -0.014 C 
HETATM   23  C14 UNL     1      -3.216  45.945 -18.906  1.00  0.00     0.010 C 
BRANCH  22  24
HETATM   24  C15 UNL     1      -5.707  45.469 -18.850  1.00  0.00     0.008 C 
BRANCH  24  25
HETATM   25  C16 UNL     1      -5.257  44.349 -19.798  1.00  0.00     0.028 C 
BRANCH  25  26
HETATM   26  C17 UNL     1      -5.923  44.208 -21.145  1.00  0.00    -0.025 C 
HETATM   27  C18 UNL     1      -6.883  43.382 -21.610  1.00  0.00    -0.091 C 
HETATM   28  C19 UNL     1      -7.296  43.451 -23.061  1.00  0.00     0.042 C 
HETATM   29  C20 UNL     1      -7.639  42.361 -20.809  1.00  0.00     0.042 C 
ENDBRANCH  25  26
ENDBRANCH  24  25
ENDBRANCH  22  24
ENDBRANCH  14  22
BRANCH  20  30
HETATM   30  C27 UNL     1      -4.245  49.659 -25.848  1.00  0.00     0.021 C 
BRANCH  30  31
HETATM   31  C28 UNL     1      -3.319  49.017 -26.880  1.00  0.00     0.111 C 
BRANCH  31  32
HETATM   32  C29 UNL     1      -3.837  49.228 -28.276  1.00  0.00     0.139 C 
HETATM   33  O3  UNL     1      -4.514  48.462 -28.939  1.00  0.00    -0.650 OA
BRANCH  32  34
HETATM   34  O4  UNL     1      -3.447  50.414 -28.783  1.00  0.00    -0.776 OA
HETATM   35  H43 UNL     1      -3.835  50.426 -29.684  1.00  0.00     0.167 HD
ENDBRANCH  32  34
ENDBRANCH  31  32
ENDBRANCH  30  31
ENDBRANCH  20  30
TORSDOF 8
ENDMDL
MODEL 9
REMARK minimizedAffinity -7.17144871
REMARK CNNscore 0.156119317
REMARK CNNaffinity 5.6798687
REMARK  8 active torsions:
REMARK  status: ('A' for Active; 'I' for Inactive)
REMARK    1  A    between atoms: C12_14  and  C13_15 
REMARK    2  A    between atoms: C13_15  and  C15_17 
REMARK    3  A    between atoms: C15_17  and  C16_18 
REMARK    4  A    between atoms: C16_18  and  C17_19 
REMARK    5  A    between atoms: C26_28  and  C27_29 
REMARK    6  A    between atoms: C27_29  and  C28_30 
REMARK    7  A    between atoms: C28_30  and  C29_31 
REMARK    8  A    between atoms: C29_31  and  O4_33 
ROOT
HETATM    1  C1  UNL     1      -4.055  46.137 -31.921  1.00  0.00     0.025 C 
HETATM    2  C2  UNL     1      -5.242  46.705 -31.684  1.00  0.00     0.015 C 
HETATM    3  C3  UNL     1      -5.428  47.775 -30.678  1.00  0.00     0.289 C 
HETATM    4  O1  UNL     1      -4.623  48.123 -29.835  1.00  0.00    -0.260 OA
HETATM    5  O2  UNL     1      -6.674  48.293 -30.848  1.00  0.00    -0.311 OA
HETATM    6  C4  UNL     1      -7.243  47.780 -32.060  1.00  0.00     0.142 C 
HETATM    7  C5  UNL     1      -8.759  47.692 -31.954  1.00  0.00     0.039 C 
HETATM    8  C6  UNL     1      -9.191  46.733 -30.836  1.00  0.00     0.006 C 
HETATM    9  C7  UNL     1      -8.656  45.309 -31.113  1.00  0.00    -0.027 A 
HETATM   10  C8  UNL     1      -9.704  44.203 -31.250  1.00  0.00     0.011 C 
HETATM   11  C9  UNL     1     -10.884  44.247 -30.260  1.00  0.00     0.011 C 
HETATM   12  C10 UNL     1     -11.078  45.593 -29.544  1.00  0.00    -0.032 C 
HETATM   13  C11 UNL     1     -10.199  45.586 -28.256  1.00  0.00     0.016 C 
HETATM   14  C12 UNL     1     -12.545  45.964 -29.142  1.00  0.00    -0.002 C 
HETATM   15  C21 UNL     1     -12.486  47.518 -29.050  1.00  0.00     0.006 C 
HETATM   16  C22 UNL     1     -11.213  47.983 -29.777  1.00  0.00     0.011 C 
HETATM   17  C23 UNL     1     -10.722  46.746 -30.552  1.00  0.00    -0.032 C 
HETATM   18  C24 UNL     1     -11.535  46.721 -31.886  1.00  0.00     0.016 C 
HETATM   19  C25 UNL     1      -7.381  44.918 -30.397  1.00  0.00     0.022 A 
HETATM   20  C26 UNL     1      -7.307  45.191 -31.884  1.00  0.00    -0.021 A 
HETATM   21  C30 UNL     1      -6.554  46.453 -32.350  1.00  0.00     0.063 C 
ENDROOT
BRANCH  14  22
HETATM   22  C13 UNL     1     -13.202  45.320 -27.881  1.00  0.00    -0.014 C 
HETATM   23  C14 UNL     1     -14.030  44.080 -28.237  1.00  0.00     0.010 C 
BRANCH  22  24
HETATM   24  C15 UNL     1     -14.087  46.367 -27.141  1.00  0.00     0.008 C 
BRANCH  24  25
HETATM   25  C16 UNL     1     -14.779  45.822 -25.885  1.00  0.00     0.028 C 
BRANCH  25  26
HETATM   26  C17 UNL     1     -16.205  46.223 -25.593  1.00  0.00    -0.025 C 
HETATM   27  C18 UNL     1     -16.853  46.537 -24.453  1.00  0.00    -0.091 C 
HETATM   28  C19 UNL     1     -18.332  46.838 -24.487  1.00  0.00     0.042 C 
HETATM   29  C20 UNL     1     -16.241  46.644 -23.086  1.00  0.00     0.042 C 
ENDBRANCH  25  26
ENDBRANCH  24  25
ENDBRANCH  22  24
ENDBRANCH  14  22
BRANCH  20  30
HETATM   30  C27 UNL     1      -7.024  43.968 -32.765  1.00  0.00     0.021 C 
BRANCH  30  31
HETATM   31  C28 UNL     1      -6.075  42.962 -32.116  1.00  0.00     0.111 C 
BRANCH  31  32
HETATM   32  C29 UNL     1      -4.909  42.660 -33.017  1.00  0.00     0.139 C 
HETATM   33  O3  UNL     1      -3.730  42.614 -32.714  1.00  0.00    -0.650 OA
BRANCH  32  34
HETATM   34  O4  UNL     1      -5.299  42.449 -34.290  1.00  0.00    -0.776 OA
HETATM   35  H43 UNL     1      -4.461  42.275 -34.769  1.00  0.00     0.167 HD
ENDBRANCH  32  34
ENDBRANCH  31  32
ENDBRANCH  30  31
ENDBRANCH  20  30
TORSDOF 8
ENDMDL
