MODEL 1
REMARK minimizedAffinity -11.4828415
REMARK  5 active torsions:
REMARK  status: ('A' for Active; 'I' for Inactive)
REMARK    1  A    between atoms: N1_2  and  C2_3 
REMARK    2  A    between atoms: C4_5  and  N4_34 
REMARK    3  A    between atoms: C5_7  and  N2_12 
REMARK    4  A    between atoms: C7_9  and  O2_10 
REMARK    5  A    between atoms: C27_35  and  C28_36 
ROOT
HETATM    1  C2  UNL     1      -4.893  48.134 -22.632  1.00  0.00     0.257 C 
HETATM    2  C3  UNL     1      -3.773  48.296 -23.668  1.00  0.00     0.092 C 
HETATM    3  C4  UNL     1      -2.528  48.964 -23.070  1.00  0.00     0.234 C 
HETATM    4  O1  UNL     1      -2.583  49.170 -21.661  1.00  0.00    -0.333 OA
HETATM    5  C5  UNL     1      -3.765  49.808 -21.119  1.00  0.00     0.168 C 
HETATM    6  C6  UNL     1      -3.821  49.122 -19.734  1.00  0.00     0.074 C 
HETATM    7  C7  UNL     1      -5.074  49.497 -21.919  1.00  0.00     0.209 C 
ENDROOT
BRANCH   1   8
HETATM    8  N1  UNL     1      -6.153  47.669 -23.253  1.00  0.00     0.086 N 
HETATM    9  C1  UNL     1      -7.237  47.488 -22.295  1.00  0.00     0.307 C 
HETATM   10  H4  UNL     1      -6.453  48.332 -23.967  1.00  0.00     0.316 HD
ENDBRANCH   1   8
BRANCH   7  11
HETATM   11  O2  UNL     1      -5.303  50.496 -22.934  1.00  0.00    -0.384 OA
HETATM   12  C8  UNL     1      -4.261  50.572 -23.897  1.00  0.00     0.202 C 
ENDBRANCH   7  11
BRANCH   3  13
HETATM   13  N4  UNL     1      -2.055  50.167 -23.747  1.00  0.00    -0.316 N 
HETATM   14  C26 UNL     1      -2.299  50.469 -25.078  1.00  0.00     0.048 A 
HETATM   15  C21 UNL     1      -1.543  51.609 -25.394  1.00  0.00     0.004 A 
HETATM   16  C25 UNL     1      -3.111  49.827 -26.031  1.00  0.00     0.030 A 
HETATM   17  C20 UNL     1      -0.841  52.000 -24.213  1.00  0.00     0.022 A 
HETATM   18  C22 UNL     1      -1.615  52.112 -26.711  1.00  0.00     0.014 A 
HETATM   19  C19 UNL     1       0.059  52.988 -23.795  1.00  0.00     0.062 A 
HETATM   20  C27 UNL     1      -1.204  51.096 -23.229  1.00  0.00     0.077 A 
HETATM   21  C16 UNL     1       0.555  53.103 -22.473  1.00  0.00     0.062 A 
HETATM   22  C18 UNL     1       0.649  54.080 -24.569  1.00  0.00     0.260 A 
HETATM   23  C15 UNL     1       0.198  52.249 -21.420  1.00  0.00     0.022 A 
HETATM   24  C17 UNL     1       1.438  54.270 -22.454  1.00  0.00     0.260 A 
HETATM   25  C14 UNL     1       0.416  52.121 -20.018  1.00  0.00     0.004 A 
HETATM   26  C28 UNL     1      -0.661  51.223 -21.769  1.00  0.00     0.078 A 
HETATM   27  C9  UNL     1      -0.364  51.038 -19.559  1.00  0.00     0.049 A 
HETATM   28  C13 UNL     1       1.161  52.865 -19.077  1.00  0.00     0.014 A 
HETATM   29  N2  UNL     1      -0.945  50.445 -20.677  1.00  0.00    -0.308 N 
HETATM   30  C10 UNL     1      -0.448  50.753 -18.183  1.00  0.00     0.030 A 
HETATM   31  C11 UNL     1       0.299  51.513 -17.277  1.00  0.00     0.002 A 
HETATM   32  C12 UNL     1       1.104  52.550 -17.718  1.00  0.00     0.001 A 
HETATM   33  O3  UNL     1       2.065  54.708 -21.511  1.00  0.00    -0.267 OA
HETATM   34  N3  UNL     1       1.435  54.782 -23.713  1.00  0.00    -0.289 N 
HETATM   35  H20 UNL     1       1.969  55.592 -23.985  1.00  0.00     0.172 HD
HETATM   36  O4  UNL     1       0.483  54.325 -25.747  1.00  0.00    -0.267 OA
HETATM   37  C23 UNL     1      -2.423  51.480 -27.663  1.00  0.00     0.001 A 
HETATM   38  C24 UNL     1      -3.161  50.353 -27.324  1.00  0.00     0.002 A 
ENDBRANCH   3  13
TORSDOF 5
ENDMDL
MODEL 2
REMARK minimizedAffinity -11.3318205
REMARK  5 active torsions:
REMARK  status: ('A' for Active; 'I' for Inactive)
REMARK    1  A    between atoms: N1_2  and  C2_3 
REMARK    2  A    between atoms: C4_5  and  N4_34 
REMARK    3  A    between atoms: C5_7  and  N2_12 
REMARK    4  A    between atoms: C7_9  and  O2_10 
REMARK    5  A    between atoms: C27_35  and  C28_36 
ROOT
HETATM    1  C2  UNL     1      -4.209  49.026 -23.904  1.00  0.00     0.257 C 
HETATM    2  C3  UNL     1      -2.689  48.976 -23.701  1.00  0.00     0.092 C 
HETATM    3  C4  UNL     1      -2.313  48.609 -22.260  1.00  0.00     0.234 C 
HETATM    4  O1  UNL     1      -3.414  48.243 -21.432  1.00  0.00    -0.333 OA
HETATM    5  C5  UNL     1      -4.561  49.128 -21.407  1.00  0.00     0.168 C 
HETATM    6  C6  UNL     1      -5.685  48.093 -21.169  1.00  0.00     0.074 C 
HETATM    7  C7  UNL     1      -4.808  49.880 -22.758  1.00  0.00     0.209 C 
ENDROOT
BRANCH   1   8
HETATM    8  N1  UNL     1      -4.569  49.566 -25.234  1.00  0.00     0.086 N 
HETATM    9  C1  UNL     1      -4.161  48.704 -26.336  1.00  0.00     0.307 C 
HETATM   10  H4  UNL     1      -5.576  49.713 -25.287  1.00  0.00     0.316 HD
ENDBRANCH   1   8
BRANCH   7  11
HETATM   11  O2  UNL     1      -4.136  51.156 -22.763  1.00  0.00    -0.384 OA
HETATM   12  C8  UNL     1      -4.939  52.215 -23.262  1.00  0.00     0.202 C 
ENDBRANCH   7  11
BRANCH   3  13
HETATM   13  N4  UNL     1      -1.436  49.546 -21.564  1.00  0.00    -0.316 N 
HETATM   14  C26 UNL     1      -1.186  49.526 -20.201  1.00  0.00     0.048 A 
HETATM   15  C21 UNL     1      -0.440  50.676 -19.895  1.00  0.00     0.004 A 
HETATM   16  C25 UNL     1      -1.565  48.601 -19.211  1.00  0.00     0.030 A 
HETATM   17  C20 UNL     1      -0.232  51.390 -21.115  1.00  0.00     0.022 A 
HETATM   18  C22 UNL     1      -0.067  50.890 -18.551  1.00  0.00     0.014 A 
HETATM   19  C19 UNL     1       0.387  52.563 -21.562  1.00  0.00     0.062 A 
HETATM   20  C27 UNL     1      -0.844  50.645 -22.109  1.00  0.00     0.077 A 
HETATM   21  C16 UNL     1       0.430  52.973 -22.917  1.00  0.00     0.062 A 
HETATM   22  C18 UNL     1       1.108  53.573 -20.788  1.00  0.00     0.260 A 
HETATM   23  C15 UNL     1      -0.133  52.248 -23.978  1.00  0.00     0.022 A 
HETATM   24  C17 UNL     1       1.184  54.227 -22.956  1.00  0.00     0.260 A 
HETATM   25  C14 UNL     1      -0.206  52.303 -25.400  1.00  0.00     0.004 A 
HETATM   26  C28 UNL     1      -0.796  51.093 -23.606  1.00  0.00     0.078 A 
HETATM   27  C9  UNL     1      -0.877  51.144 -25.841  1.00  0.00     0.049 A 
HETATM   28  C13 UNL     1       0.291  53.207 -26.365  1.00  0.00     0.014 A 
HETATM   29  N2  UNL     1      -1.313  50.462 -24.708  1.00  0.00    -0.308 N 
HETATM   30  C10 UNL     1      -0.987  50.863 -27.217  1.00  0.00     0.030 A 
HETATM   31  C11 UNL     1      -0.478  51.777 -28.146  1.00  0.00     0.002 A 
HETATM   32  C12 UNL     1       0.144  52.941 -27.728  1.00  0.00     0.001 A 
HETATM   33  O3  UNL     1       1.442  54.904 -23.930  1.00  0.00    -0.267 OA
HETATM   34  N3  UNL     1       1.545  54.504 -21.676  1.00  0.00    -0.289 N 
HETATM   35  H20 UNL     1       2.072  55.320 -21.412  1.00  0.00     0.172 HD
HETATM   36  O4  UNL     1       1.291  53.594 -19.588  1.00  0.00    -0.267 OA
HETATM   37  C23 UNL     1      -0.439  49.972 -17.562  1.00  0.00     0.001 A 
HETATM   38  C24 UNL     1      -1.178  48.843 -17.891  1.00  0.00     0.002 A 
ENDBRANCH   3  13
TORSDOF 5
ENDMDL
MODEL 3
REMARK minimizedAffinity -11.0795422
REMARK  5 active torsions:
REMARK  status: ('A' for Active; 'I' for Inactive)
REMARK    1  A    between atoms: N1_2  and  C2_3 
REMARK    2  A    between atoms: C4_5  and  N4_34 
REMARK    3  A    between atoms: C5_7  and  N2_12 
REMARK    4  A    between atoms: C7_9  and  O2_10 
REMARK    5  A    between atoms: C27_35  and  C28_36 
ROOT
HETATM    1  C2  UNL     1      -5.527  47.752 -21.655  1.00  0.00     0.257 C 
HETATM    2  C3  UNL     1      -4.389  47.577 -22.669  1.00  0.00     0.092 C 
HETATM    3  C4  UNL     1      -3.298  48.642 -22.499  1.00  0.00     0.234 C 
HETATM    4  O1  UNL     1      -3.462  49.486 -21.363  1.00  0.00    -0.333 OA
HETATM    5  C5  UNL     1      -4.757  50.105 -21.165  1.00  0.00     0.168 C 
HETATM    6  C6  UNL     1      -4.783  50.167 -19.619  1.00  0.00     0.074 C 
HETATM    7  C7  UNL     1      -5.955  49.241 -21.682  1.00  0.00     0.209 C 
ENDROOT
BRANCH   1   8
HETATM    8  N1  UNL     1      -6.664  46.850 -21.942  1.00  0.00     0.086 N 
HETATM    9  C1  UNL     1      -6.330  45.438 -21.802  1.00  0.00     0.307 C 
HETATM   10  H4  UNL     1      -7.444  47.066 -21.322  1.00  0.00     0.316 HD
ENDBRANCH   1   8
BRANCH   7  11
HETATM   11  O2  UNL     1      -6.279  49.580 -23.046  1.00  0.00    -0.384 OA
HETATM   12  C8  UNL     1      -7.670  49.758 -23.270  1.00  0.00     0.202 C 
ENDBRANCH   7  11
BRANCH   3  13
HETATM   13  N4  UNL     1      -2.979  49.432 -23.684  1.00  0.00    -0.316 N 
HETATM   14  C26 UNL     1      -3.466  49.175 -24.956  1.00  0.00     0.048 A 
HETATM   15  C21 UNL     1      -2.803  50.040 -25.842  1.00  0.00     0.004 A 
HETATM   16  C25 UNL     1      -4.425  48.247 -25.402  1.00  0.00     0.030 A 
HETATM   17  C20 UNL     1      -1.905  50.840 -25.069  1.00  0.00     0.022 A 
HETATM   18  C22 UNL     1      -3.123  49.962 -27.214  1.00  0.00     0.014 A 
HETATM   19  C19 UNL     1      -0.964  51.859 -25.260  1.00  0.00     0.062 A 
HETATM   20  C27 UNL     1      -2.067  50.441 -23.753  1.00  0.00     0.077 A 
HETATM   21  C16 UNL     1      -0.240  52.477 -24.212  1.00  0.00     0.062 A 
HETATM   22  C18 UNL     1      -0.546  52.501 -26.505  1.00  0.00     0.260 A 
HETATM   23  C15 UNL     1      -0.382  52.152 -22.855  1.00  0.00     0.022 A 
HETATM   24  C17 UNL     1       0.610  53.497 -24.830  1.00  0.00     0.260 A 
HETATM   25  C14 UNL     1       0.089  52.598 -21.586  1.00  0.00     0.004 A 
HETATM   26  C28 UNL     1      -1.270  51.125 -22.594  1.00  0.00     0.078 A 
HETATM   27  C9  UNL     1      -0.574  51.845 -20.594  1.00  0.00     0.049 A 
HETATM   28  C13 UNL     1       0.978  53.618 -21.182  1.00  0.00     0.014 A 
HETATM   29  N2  UNL     1      -1.336  50.880 -21.246  1.00  0.00    -0.308 N 
HETATM   30  C10 UNL     1      -0.400  52.155 -19.231  1.00  0.00     0.030 A 
HETATM   31  C11 UNL     1       0.484  53.175 -18.866  1.00  0.00     0.002 A 
HETATM   32  C12 UNL     1       1.175  53.892 -19.827  1.00  0.00     0.001 A 
HETATM   33  O3  UNL     1       1.389  54.245 -24.276  1.00  0.00    -0.267 OA
HETATM   34  N3  UNL     1       0.369  53.447 -26.166  1.00  0.00    -0.289 N 
HETATM   35  H20 UNL     1       0.828  54.041 -26.837  1.00  0.00     0.172 HD
HETATM   36  O4  UNL     1      -0.928  52.251 -27.631  1.00  0.00    -0.267 OA
HETATM   37  C23 UNL     1      -4.077  49.043 -27.663  1.00  0.00     0.001 A 
HETATM   38  C24 UNL     1      -4.719  48.198 -26.766  1.00  0.00     0.002 A 
ENDBRANCH   3  13
TORSDOF 5
ENDMDL
MODEL 4
REMARK minimizedAffinity -11.0172062
REMARK  5 active torsions:
REMARK  status: ('A' for Active; 'I' for Inactive)
REMARK    1  A    between atoms: N1_2  and  C2_3 
REMARK    2  A    between atoms: C4_5  and  N4_34 
REMARK    3  A    between atoms: C5_7  and  N2_12 
REMARK    4  A    between atoms: C7_9  and  O2_10 
REMARK    5  A    between atoms: C27_35  and  C28_36 
ROOT
HETATM    1  C2  UNL     1      -3.208  49.357 -18.467  1.00  0.00     0.257 C 
HETATM    2  C3  UNL     1      -3.231  50.687 -19.231  1.00  0.00     0.092 C 
HETATM    3  C4  UNL     1      -3.047  50.487 -20.741  1.00  0.00     0.234 C 
HETATM    4  O1  UNL     1      -3.039  49.126 -21.164  1.00  0.00    -0.333 OA
HETATM    5  C5  UNL     1      -2.170  48.207 -20.458  1.00  0.00     0.168 C 
HETATM    6  C6  UNL     1      -3.002  46.909 -20.587  1.00  0.00     0.074 C 
HETATM    7  C7  UNL     1      -1.969  48.561 -18.947  1.00  0.00     0.209 C 
ENDROOT
BRANCH   1   8
HETATM    8  N1  UNL     1      -3.192  49.564 -17.002  1.00  0.00     0.086 N 
HETATM    9  C1  UNL     1      -3.324  48.327 -16.242  1.00  0.00     0.307 C 
HETATM   10  H4  UNL     1      -2.327  50.028 -16.727  1.00  0.00     0.316 HD
ENDBRANCH   1   8
BRANCH   7  11
HETATM   11  O2  UNL     1      -0.811  49.402 -18.769  1.00  0.00    -0.384 OA
HETATM   12  C8  UNL     1      -0.120  49.163 -17.552  1.00  0.00     0.202 C 
ENDBRANCH   7  11
BRANCH   3  13
HETATM   13  N4  UNL     1      -1.949  51.224 -21.359  1.00  0.00    -0.316 N 
HETATM   14  C26 UNL     1      -1.011  51.971 -20.662  1.00  0.00     0.048 A 
HETATM   15  C21 UNL     1      -0.234  52.656 -21.610  1.00  0.00     0.004 A 
HETATM   16  C25 UNL     1      -0.792  52.110 -19.280  1.00  0.00     0.030 A 
HETATM   17  C20 UNL     1      -0.717  52.294 -22.905  1.00  0.00     0.022 A 
HETATM   18  C22 UNL     1       0.794  53.503 -21.142  1.00  0.00     0.014 A 
HETATM   19  C19 UNL     1      -0.449  52.573 -24.250  1.00  0.00     0.062 A 
HETATM   20  C27 UNL     1      -1.754  51.400 -22.695  1.00  0.00     0.077 A 
HETATM   21  C16 UNL     1      -1.140  51.982 -25.337  1.00  0.00     0.062 A 
HETATM   22  C18 UNL     1       0.559  53.466 -24.820  1.00  0.00     0.260 A 
HETATM   23  C15 UNL     1      -2.170  51.041 -25.199  1.00  0.00     0.022 A 
HETATM   24  C17 UNL     1      -0.540  52.519 -26.560  1.00  0.00     0.260 A 
HETATM   25  C14 UNL     1      -2.989  50.214 -26.020  1.00  0.00     0.004 A 
HETATM   26  C28 UNL     1      -2.516  50.745 -23.893  1.00  0.00     0.078 A 
HETATM   27  C9  UNL     1      -3.774  49.408 -25.170  1.00  0.00     0.049 A 
HETATM   28  C13 UNL     1      -3.095  50.029 -27.417  1.00  0.00     0.014 A 
HETATM   29  N2  UNL     1      -3.530  49.823 -23.864  1.00  0.00    -0.308 N 
HETATM   30  C10 UNL     1      -4.595  48.395 -25.705  1.00  0.00     0.030 A 
HETATM   31  C11 UNL     1      -4.672  48.236 -27.093  1.00  0.00     0.002 A 
HETATM   32  C12 UNL     1      -3.941  49.050 -27.941  1.00  0.00     0.001 A 
HETATM   33  O3  UNL     1      -0.850  52.269 -27.707  1.00  0.00    -0.267 OA
HETATM   34  N3  UNL     1       0.442  53.373 -26.170  1.00  0.00    -0.289 N 
HETATM   35  H20 UNL     1       1.016  53.891 -26.815  1.00  0.00     0.172 HD
HETATM   36  O4  UNL     1       1.352  54.165 -24.221  1.00  0.00    -0.267 OA
HETATM   37  C23 UNL     1       1.018  53.643 -19.767  1.00  0.00     0.001 A 
HETATM   38  C24 UNL     1       0.234  52.955 -18.851  1.00  0.00     0.002 A 
ENDBRANCH   3  13
TORSDOF 5
ENDMDL
MODEL 5
REMARK minimizedAffinity -10.9307756
REMARK  5 active torsions:
REMARK  status: ('A' for Active; 'I' for Inactive)
REMARK    1  A    between atoms: N1_2  and  C2_3 
REMARK    2  A    between atoms: C4_5  and  N4_34 
REMARK    3  A    between atoms: C5_7  and  N2_12 
REMARK    4  A    between atoms: C7_9  and  O2_10 
REMARK    5  A    between atoms: C27_35  and  C28_36 
ROOT
HETATM    1  C2  UNL     1      -4.194  48.777 -25.025  1.00  0.00     0.257 C 
HETATM    2  C3  UNL     1      -2.691  49.084 -24.983  1.00  0.00     0.092 C 
HETATM    3  C4  UNL     1      -2.182  49.271 -23.548  1.00  0.00     0.234 C 
HETATM    4  O1  UNL     1      -3.142  48.986 -22.534  1.00  0.00    -0.333 OA
HETATM    5  C5  UNL     1      -4.450  49.599 -22.653  1.00  0.00     0.168 C 
HETATM    6  C6  UNL     1      -5.315  48.499 -21.993  1.00  0.00     0.074 C 
HETATM    7  C7  UNL     1      -4.911  49.821 -24.132  1.00  0.00     0.209 C 
ENDROOT
BRANCH   1   8
HETATM    8  N1  UNL     1      -4.719  48.788 -26.408  1.00  0.00     0.086 N 
HETATM    9  C1  UNL     1      -3.723  48.417 -27.406  1.00  0.00     0.307 C 
HETATM   10  H4  UNL     1      -5.512  48.152 -26.484  1.00  0.00     0.316 HD
ENDBRANCH   1   8
BRANCH   7  11
HETATM   11  O2  UNL     1      -4.528  51.132 -24.595  1.00  0.00    -0.384 OA
HETATM   12  C8  UNL     1      -4.753  52.157 -23.639  1.00  0.00     0.202 C 
ENDBRANCH   7  11
BRANCH   3  13
HETATM   13  N4  UNL     1      -1.497  50.529 -23.267  1.00  0.00    -0.316 N 
HETATM   14  C26 UNL     1      -1.147  51.466 -24.227  1.00  0.00     0.048 A 
HETATM   15  C21 UNL     1      -0.362  52.443 -23.592  1.00  0.00     0.004 A 
HETATM   16  C25 UNL     1      -1.444  51.528 -25.600  1.00  0.00     0.030 A 
HETATM   17  C20 UNL     1      -0.255  52.079 -22.214  1.00  0.00     0.022 A 
HETATM   18  C22 UNL     1       0.131  53.511 -24.371  1.00  0.00     0.014 A 
HETATM   19  C19 UNL     1       0.343  52.549 -21.039  1.00  0.00     0.062 A 
HETATM   20  C27 UNL     1      -0.984  50.911 -22.064  1.00  0.00     0.077 A 
HETATM   21  C16 UNL     1       0.211  51.924 -19.775  1.00  0.00     0.062 A 
HETATM   22  C18 UNL     1       1.179  53.733 -20.845  1.00  0.00     0.260 A 
HETATM   23  C15 UNL     1      -0.543  50.765 -19.544  1.00  0.00     0.022 A 
HETATM   24  C17 UNL     1       0.963  52.739 -18.820  1.00  0.00     0.260 A 
HETATM   25  C14 UNL     1      -0.954  49.948 -18.451  1.00  0.00     0.004 A 
HETATM   26  C28 UNL     1      -1.134  50.221 -20.669  1.00  0.00     0.078 A 
HETATM   27  C9  UNL     1      -1.823  48.959 -18.956  1.00  0.00     0.049 A 
HETATM   28  C13 UNL     1      -0.714  49.993 -17.059  1.00  0.00     0.014 A 
HETATM   29  N2  UNL     1      -1.843  49.094 -20.342  1.00  0.00    -0.308 N 
HETATM   30  C10 UNL     1      -2.489  48.080 -18.080  1.00  0.00     0.030 A 
HETATM   31  C11 UNL     1      -2.233  48.155 -16.707  1.00  0.00     0.002 A 
HETATM   32  C12 UNL     1      -1.348  49.092 -16.201  1.00  0.00     0.001 A 
HETATM   33  O3  UNL     1       1.104  52.543 -17.630  1.00  0.00    -0.267 OA
HETATM   34  N3  UNL     1       1.493  53.774 -19.524  1.00  0.00    -0.289 N 
HETATM   35  H20 UNL     1       2.068  54.490 -19.110  1.00  0.00     0.172 HD
HETATM   36  O4  UNL     1       1.535  54.534 -21.686  1.00  0.00    -0.267 OA
HETATM   37  C23 UNL     1      -0.163  53.580 -25.738  1.00  0.00     0.001 A 
HETATM   38  C24 UNL     1      -0.941  52.600 -26.341  1.00  0.00     0.002 A 
ENDBRANCH   3  13
TORSDOF 5
ENDMDL
MODEL 6
REMARK minimizedAffinity -10.8651609
REMARK  5 active torsions:
REMARK  status: ('A' for Active; 'I' for Inactive)
REMARK    1  A    between atoms: N1_2  and  C2_3 
REMARK    2  A    between atoms: C4_5  and  N4_34 
REMARK    3  A    between atoms: C5_7  and  N2_12 
REMARK    4  A    between atoms: C7_9  and  O2_10 
REMARK    5  A    between atoms: C27_35  and  C28_36 
ROOT
HETATM    1  C2  UNL     1      -4.218  49.383 -21.237  1.00  0.00     0.257 C 
HETATM    2  C3  UNL     1      -2.883  49.309 -21.990  1.00  0.00     0.092 C 
HETATM    3  C4  UNL     1      -1.720  49.861 -21.156  1.00  0.00     0.234 C 
HETATM    4  O1  UNL     1      -2.057  50.194 -19.812  1.00  0.00    -0.333 OA
HETATM    5  C5  UNL     1      -3.225  51.024 -19.597  1.00  0.00     0.168 C 
HETATM    6  C6  UNL     1      -3.688  50.474 -18.227  1.00  0.00     0.074 C 
HETATM    7  C7  UNL     1      -4.353  50.815 -20.662  1.00  0.00     0.209 C 
ENDROOT
BRANCH   1   8
HETATM    8  N1  UNL     1      -5.361  49.032 -22.108  1.00  0.00     0.086 N 
HETATM    9  C1  UNL     1      -6.306  48.118 -21.480  1.00  0.00     0.307 C 
HETATM   10  H4  UNL     1      -5.857  49.878 -22.386  1.00  0.00     0.316 HD
ENDBRANCH   1   8
BRANCH   7  11
HETATM   11  O2  UNL     1      -4.202  51.744 -21.755  1.00  0.00    -0.384 OA
HETATM   12  C8  UNL     1      -5.378  51.894 -22.536  1.00  0.00     0.202 C 
ENDBRANCH   7  11
BRANCH   3  13
HETATM   13  N4  UNL     1      -0.937  50.929 -21.769  1.00  0.00    -0.316 N 
HETATM   14  C26 UNL     1      -0.060  51.756 -21.084  1.00  0.00     0.048 A 
HETATM   15  C21 UNL     1       0.362  52.753 -21.979  1.00  0.00     0.004 A 
HETATM   16  C25 UNL     1       0.387  51.716 -19.750  1.00  0.00     0.030 A 
HETATM   17  C20 UNL     1      -0.275  52.502 -23.233  1.00  0.00     0.022 A 
HETATM   18  C22 UNL     1       1.262  53.733 -21.508  1.00  0.00     0.014 A 
HETATM   19  C19 UNL     1      -0.333  53.052 -24.519  1.00  0.00     0.062 A 
HETATM   20  C27 UNL     1      -1.043  51.363 -23.056  1.00  0.00     0.077 A 
HETATM   21  C16 UNL     1      -1.082  52.499 -25.586  1.00  0.00     0.062 A 
HETATM   22  C18 UNL     1       0.339  54.242 -25.040  1.00  0.00     0.260 A 
HETATM   23  C15 UNL     1      -1.848  51.329 -25.489  1.00  0.00     0.022 A 
HETATM   24  C17 UNL     1      -0.853  53.356 -26.751  1.00  0.00     0.260 A 
HETATM   25  C14 UNL     1      -2.619  50.474 -26.329  1.00  0.00     0.004 A 
HETATM   26  C28 UNL     1      -1.868  50.749 -24.234  1.00  0.00     0.078 A 
HETATM   27  C9  UNL     1      -3.043  49.376 -25.552  1.00  0.00     0.049 A 
HETATM   28  C13 UNL     1      -2.950  50.500 -27.702  1.00  0.00     0.014 A 
HETATM   29  N2  UNL     1      -2.644  49.619 -24.240  1.00  0.00    -0.308 N 
HETATM   30  C10 UNL     1      -3.722  48.298 -26.152  1.00  0.00     0.030 A 
HETATM   31  C11 UNL     1      -4.029  48.354 -27.516  1.00  0.00     0.002 A 
HETATM   32  C12 UNL     1      -3.659  49.446 -28.281  1.00  0.00     0.001 A 
HETATM   33  O3  UNL     1      -1.318  53.229 -27.865  1.00  0.00    -0.267 OA
HETATM   34  N3  UNL     1      -0.013  54.345 -26.348  1.00  0.00    -0.289 N 
HETATM   35  H20 UNL     1       0.308  55.083 -26.953  1.00  0.00     0.172 HD
HETATM   36  O4  UNL     1       1.070  55.002 -24.437  1.00  0.00    -0.267 OA
HETATM   37  C23 UNL     1       1.712  53.697 -20.183  1.00  0.00     0.001 A 
HETATM   38  C24 UNL     1       1.278  52.700 -19.318  1.00  0.00     0.002 A 
ENDBRANCH   3  13
TORSDOF 5
ENDMDL
MODEL 7
REMARK minimizedAffinity -10.6808395
REMARK  5 active torsions:
REMARK  status: ('A' for Active; 'I' for Inactive)
REMARK    1  A    between atoms: N1_2  and  C2_3 
REMARK    2  A    between atoms: C4_5  and  N4_34 
REMARK    3  A    between atoms: C5_7  and  N2_12 
REMARK    4  A    between atoms: C7_9  and  O2_10 
REMARK    5  A    between atoms: C27_35  and  C28_36 
ROOT
HETATM    1  C2  UNL     1      -4.324  48.985 -21.571  1.00  0.00     0.257 C 
HETATM    2  C3  UNL     1      -2.803  48.948 -21.774  1.00  0.00     0.092 C 
HETATM    3  C4  UNL     1      -2.044  49.004 -20.443  1.00  0.00     0.234 C 
HETATM    4  O1  UNL     1      -2.869  48.931 -19.283  1.00  0.00    -0.333 OA
HETATM    5  C5  UNL     1      -4.011  49.821 -19.212  1.00  0.00     0.168 C 
HETATM    6  C6  UNL     1      -4.981  48.936 -18.394  1.00  0.00     0.074 C 
HETATM    7  C7  UNL     1      -4.641  50.154 -20.605  1.00  0.00     0.209 C 
ENDROOT
BRANCH   1   8
HETATM    8  N1  UNL     1      -5.047  49.124 -22.855  1.00  0.00     0.086 N 
HETATM    9  C1  UNL     1      -6.358  48.488 -22.852  1.00  0.00     0.307 C 
HETATM   10  H4  UNL     1      -5.161  50.111 -23.083  1.00  0.00     0.316 HD
ENDBRANCH   1   8
BRANCH   7  11
HETATM   11  O2  UNL     1      -4.056  51.351 -21.158  1.00  0.00    -0.384 OA
HETATM   12  C8  UNL     1      -4.900  52.016 -22.086  1.00  0.00     0.202 C 
ENDBRANCH   7  11
BRANCH   3  13
HETATM   13  N4  UNL     1      -1.061  50.075 -20.307  1.00  0.00    -0.316 N 
HETATM   14  C26 UNL     1      -0.465  50.450 -19.113  1.00  0.00     0.048 A 
HETATM   15  C21 UNL     1       0.281  51.613 -19.364  1.00  0.00     0.004 A 
HETATM   16  C25 UNL     1      -0.531  49.870 -17.832  1.00  0.00     0.030 A 
HETATM   17  C20 UNL     1       0.131  51.928 -20.749  1.00  0.00     0.022 A 
HETATM   18  C22 UNL     1       0.980  52.201 -18.288  1.00  0.00     0.014 A 
HETATM   19  C19 UNL     1       0.558  52.897 -21.665  1.00  0.00     0.062 A 
HETATM   20  C27 UNL     1      -0.683  50.944 -21.285  1.00  0.00     0.077 A 
HETATM   21  C16 UNL     1       0.227  52.887 -23.043  1.00  0.00     0.062 A 
HETATM   22  C18 UNL     1       1.407  54.065 -21.438  1.00  0.00     0.260 A 
HETATM   23  C15 UNL     1      -0.557  51.902 -23.659  1.00  0.00     0.022 A 
HETATM   24  C17 UNL     1       0.886  54.048 -23.643  1.00  0.00     0.260 A 
HETATM   25  C14 UNL     1      -1.000  51.538 -24.964  1.00  0.00     0.004 A 
HETATM   26  C28 UNL     1      -1.046  50.930 -22.806  1.00  0.00     0.078 A 
HETATM   27  C9  UNL     1      -1.707  50.323 -24.854  1.00  0.00     0.049 A 
HETATM   28  C13 UNL     1      -0.812  52.100 -26.246  1.00  0.00     0.014 A 
HETATM   29  N2  UNL     1      -1.801  50.019 -23.499  1.00  0.00    -0.308 N 
HETATM   30  C10 UNL     1      -2.157  49.653 -26.009  1.00  0.00     0.030 A 
HETATM   31  C11 UNL     1      -1.950  50.235 -27.264  1.00  0.00     0.002 A 
HETATM   32  C12 UNL     1      -1.296  51.449 -27.383  1.00  0.00     0.001 A 
HETATM   33  O3  UNL     1       0.851  54.400 -24.805  1.00  0.00    -0.267 OA
HETATM   34  N3  UNL     1       1.554  54.678 -22.642  1.00  0.00    -0.289 N 
HETATM   35  H20 UNL     1       2.093  55.518 -22.776  1.00  0.00     0.172 HD
HETATM   36  O4  UNL     1       1.894  54.433 -20.388  1.00  0.00    -0.267 OA
HETATM   37  C23 UNL     1       0.920  51.628 -17.012  1.00  0.00     0.001 A 
HETATM   38  C24 UNL     1       0.175  50.477 -16.791  1.00  0.00     0.002 A 
ENDBRANCH   3  13
TORSDOF 5
ENDMDL
MODEL 8
REMARK minimizedAffinity -10.5412273
REMARK  5 active torsions:
REMARK  status: ('A' for Active; 'I' for Inactive)
REMARK    1  A    between atoms: N1_2  and  C2_3 
REMARK    2  A    between atoms: C4_5  and  N4_34 
REMARK    3  A    between atoms: C5_7  and  N2_12 
REMARK    4  A    between atoms: C7_9  and  O2_10 
REMARK    5  A    between atoms: C27_35  and  C28_36 
ROOT
HETATM    1  C2  UNL     1      -2.950  47.996 -19.682  1.00  0.00     0.257 C 
HETATM    2  C3  UNL     1      -3.162  49.294 -20.473  1.00  0.00     0.092 C 
HETATM    3  C4  UNL     1      -4.285  49.159 -21.510  1.00  0.00     0.234 C 
HETATM    4  O1  UNL     1      -5.008  47.933 -21.448  1.00  0.00    -0.333 OA
HETATM    5  C5  UNL     1      -4.244  46.702 -21.419  1.00  0.00     0.168 C 
HETATM    6  C6  UNL     1      -5.193  45.825 -20.567  1.00  0.00     0.074 C 
HETATM    7  C7  UNL     1      -2.859  46.834 -20.703  1.00  0.00     0.209 C 
ENDROOT
BRANCH   1   8
HETATM    8  N1  UNL     1      -1.748  48.067 -18.823  1.00  0.00     0.086 N 
HETATM    9  C1  UNL     1      -1.901  48.968 -17.688  1.00  0.00     0.307 C 
HETATM   10  H4  UNL     1      -1.515  47.137 -18.475  1.00  0.00     0.316 HD
ENDBRANCH   1   8
BRANCH   7  11
HETATM   11  O2  UNL     1      -1.823  47.163 -21.651  1.00  0.00    -0.384 OA
HETATM   12  C8  UNL     1      -0.659  47.712 -21.049  1.00  0.00     0.202 C 
ENDBRANCH   7  11
BRANCH   3  13
HETATM   13  N4  UNL     1      -3.929  49.476 -22.889  1.00  0.00    -0.316 N 
HETATM   14  C26 UNL     1      -4.578  48.973 -24.006  1.00  0.00     0.048 A 
HETATM   15  C21 UNL     1      -3.842  49.371 -25.134  1.00  0.00     0.004 A 
HETATM   16  C25 UNL     1      -5.743  48.191 -24.115  1.00  0.00     0.030 A 
HETATM   17  C20 UNL     1      -2.732  50.142 -24.672  1.00  0.00     0.022 A 
HETATM   18  C22 UNL     1      -4.302  48.966 -26.406  1.00  0.00     0.014 A 
HETATM   19  C19 UNL     1      -1.628  50.825 -25.195  1.00  0.00     0.062 A 
HETATM   20  C27 UNL     1      -2.843  50.193 -23.292  1.00  0.00     0.077 A 
HETATM   21  C16 UNL     1      -0.696  51.548 -24.410  1.00  0.00     0.062 A 
HETATM   22  C18 UNL     1      -1.211  50.965 -26.590  1.00  0.00     0.260 A 
HETATM   23  C15 UNL     1      -0.770  51.675 -23.016  1.00  0.00     0.022 A 
HETATM   24  C17 UNL     1       0.278  52.126 -25.337  1.00  0.00     0.260 A 
HETATM   25  C14 UNL     1      -0.099  52.357 -21.960  1.00  0.00     0.004 A 
HETATM   26  C28 UNL     1      -1.817  50.992 -22.424  1.00  0.00     0.078 A 
HETATM   27  C9  UNL     1      -0.800  52.095 -20.765  1.00  0.00     0.049 A 
HETATM   28  C13 UNL     1       1.013  53.228 -21.916  1.00  0.00     0.014 A 
HETATM   29  N2  UNL     1      -1.801  51.174 -21.066  1.00  0.00    -0.308 N 
HETATM   30  C10 UNL     1      -0.438  52.744 -19.568  1.00  0.00     0.030 A 
HETATM   31  C11 UNL     1       0.665  53.604 -19.561  1.00  0.00     0.002 A 
HETATM   32  C12 UNL     1       1.390  53.836 -20.718  1.00  0.00     0.001 A 
HETATM   33  O3  UNL     1       1.242  52.813 -25.064  1.00  0.00    -0.267 OA
HETATM   34  N3  UNL     1      -0.096  51.741 -26.586  1.00  0.00    -0.289 N 
HETATM   35  H20 UNL     1       0.407  51.996 -27.420  1.00  0.00     0.172 HD
HETATM   36  O4  UNL     1      -1.741  50.487 -27.572  1.00  0.00    -0.267 OA
HETATM   37  C23 UNL     1      -5.461  48.191 -26.521  1.00  0.00     0.001 A 
HETATM   38  C24 UNL     1      -6.170  47.810 -25.389  1.00  0.00     0.002 A 
ENDBRANCH   3  13
TORSDOF 5
ENDMDL
MODEL 9
REMARK minimizedAffinity -10.1471081
REMARK  5 active torsions:
REMARK  status: ('A' for Active; 'I' for Inactive)
REMARK    1  A    between atoms: N1_2  and  C2_3 
REMARK    2  A    between atoms: C4_5  and  N4_34 
REMARK    3  A    between atoms: C5_7  and  N2_12 
REMARK    4  A    between atoms: C7_9  and  O2_10 
REMARK    5  A    between atoms: C27_35  and  C28_36 
ROOT
HETATM    1  C2  UNL     1       0.022  51.478 -27.487  1.00  0.00     0.257 C 
HETATM    2  C3  UNL     1       0.201  50.780 -26.133  1.00  0.00     0.092 C 
HETATM    3  C4  UNL     1      -1.124  50.232 -25.588  1.00  0.00     0.234 C 
HETATM    4  O1  UNL     1      -2.226  50.338 -26.486  1.00  0.00    -0.333 OA
HETATM    5  C5  UNL     1      -2.468  51.624 -27.107  1.00  0.00     0.168 C 
HETATM    6  C6  UNL     1      -3.057  51.156 -28.459  1.00  0.00     0.074 C 
HETATM    7  C7  UNL     1      -1.168  52.461 -27.355  1.00  0.00     0.209 C 
ENDROOT
BRANCH   1   8
HETATM    8  N1  UNL     1       1.258  52.170 -27.917  1.00  0.00     0.086 N 
HETATM    9  C1  UNL     1       2.457  51.677 -27.251  1.00  0.00     0.307 C 
HETATM   10  H4  UNL     1       1.378  52.072 -28.925  1.00  0.00     0.316 HD
ENDBRANCH   1   8
BRANCH   7  11
HETATM   11  O2  UNL     1      -0.898  53.330 -26.237  1.00  0.00    -0.384 OA
HETATM   12  C8  UNL     1      -0.166  54.494 -26.589  1.00  0.00     0.202 C 
ENDBRANCH   7  11
BRANCH   3  13
HETATM   13  N4  UNL     1      -1.506  50.681 -24.253  1.00  0.00    -0.316 N 
HETATM   14  C26 UNL     1      -0.727  51.493 -23.442  1.00  0.00     0.048 A 
HETATM   15  C21 UNL     1      -1.355  51.558 -22.188  1.00  0.00     0.004 A 
HETATM   16  C25 UNL     1       0.482  52.162 -23.704  1.00  0.00     0.030 A 
HETATM   17  C20 UNL     1      -2.546  50.773 -22.262  1.00  0.00     0.022 A 
HETATM   18  C22 UNL     1      -0.741  52.325 -21.174  1.00  0.00     0.014 A 
HETATM   19  C19 UNL     1      -3.615  50.392 -21.442  1.00  0.00     0.062 A 
HETATM   20  C27 UNL     1      -2.602  50.275 -23.553  1.00  0.00     0.077 A 
HETATM   21  C16 UNL     1      -4.699  49.587 -21.873  1.00  0.00     0.062 A 
HETATM   22  C18 UNL     1      -3.862  50.727 -20.041  1.00  0.00     0.260 A 
HETATM   23  C15 UNL     1      -4.839  49.083 -23.174  1.00  0.00     0.022 A 
HETATM   24  C17 UNL     1      -5.600  49.446 -20.728  1.00  0.00     0.260 A 
HETATM   25  C14 UNL     1      -5.786  48.353 -23.949  1.00  0.00     0.004 A 
HETATM   26  C28 UNL     1      -3.799  49.389 -24.031  1.00  0.00     0.078 A 
HETATM   27  C9  UNL     1      -5.298  48.285 -25.270  1.00  0.00     0.049 A 
HETATM   28  C13 UNL     1      -7.050  47.791 -23.664  1.00  0.00     0.014 A 
HETATM   29  N2  UNL     1      -4.026  48.851 -25.272  1.00  0.00    -0.308 N 
HETATM   30  C10 UNL     1      -6.088  47.727 -26.294  1.00  0.00     0.030 A 
HETATM   31  C11 UNL     1      -7.338  47.185 -25.978  1.00  0.00     0.002 A 
HETATM   32  C12 UNL     1      -7.810  47.204 -24.677  1.00  0.00     0.001 A 
HETATM   33  O3  UNL     1      -6.644  48.828 -20.681  1.00  0.00    -0.267 OA
HETATM   34  N3  UNL     1      -5.041  50.141 -19.704  1.00  0.00    -0.289 N 
HETATM   35  H20 UNL     1      -5.452  50.207 -18.787  1.00  0.00     0.172 HD
HETATM   36  O4  UNL     1      -3.163  51.394 -19.305  1.00  0.00    -0.267 OA
HETATM   37  C23 UNL     1       0.461  52.996 -21.430  1.00  0.00     0.001 A 
HETATM   38  C24 UNL     1       1.062  52.914 -22.679  1.00  0.00     0.002 A 
ENDBRANCH   3  13
TORSDOF 5
ENDMDL
