MODEL 1
REMARK minimizedAffinity -9.18680573
REMARK  8 active torsions:
REMARK  status: ('A' for Active; 'I' for Inactive)
REMARK    1  A    between atoms: C4_4  and  C5_5 
REMARK    2  A    between atoms: C5_5  and  C6_6 
REMARK    3  A    between atoms: C6_6  and  C7_7 
REMARK    4  A    between atoms: C9_9  and  C10_10 
REMARK    5  A    between atoms: C11_11  and  C12_12 
REMARK    6  A    between atoms: C14_14  and  C15_15 
REMARK    7  A    between atoms: C24_25  and  C26_27 
REMARK    8  A    between atoms: C29_31  and  O3_33 
ROOT
HETATM    1  C15 UNL     1      -7.114  47.303 -27.880  1.00  0.00     0.149 C 
HETATM    2  C16 UNL     1      -6.793  46.130 -28.797  1.00  0.00     0.054 C 
HETATM    3  C17 UNL     1      -7.899  46.162 -29.905  1.00  0.00     0.050 C 
HETATM    4  C18 UNL     1      -8.690  47.446 -29.502  1.00  0.00     0.272 C 
HETATM    5  O1  UNL     1      -9.339  48.199 -30.513  1.00  0.00    -0.360 OA
HETATM    6  C19 UNL     1      -8.494  48.895 -31.405  1.00  0.00     0.171 C 
HETATM    7  C20 UNL     1      -8.304  48.105 -32.689  1.00  0.00     0.027 C 
HETATM    8  C21 UNL     1      -8.073  46.606 -32.492  1.00  0.00     0.012 C 
HETATM    9  C22 UNL     1      -7.159  46.282 -31.292  1.00  0.00     0.032 C 
HETATM   10  C23 UNL     1      -6.307  45.029 -31.588  1.00  0.00    -0.066 C 
HETATM   11  C24 UNL     1      -5.134  45.047 -32.273  1.00  0.00    -0.021 C 
HETATM   12  C25 UNL     1      -4.224  43.864 -32.482  1.00  0.00     0.052 C 
HETATM   13  C27 UNL     1      -6.848  43.737 -31.002  1.00  0.00     0.038 C 
HETATM   14  C28 UNL     1      -8.358  43.765 -30.825  1.00  0.00     0.042 C 
HETATM   15  C29 UNL     1      -8.848  44.894 -29.893  1.00  0.00     0.067 C 
HETATM   16  C30 UNL     1      -9.119  44.321 -28.487  1.00  0.00     0.047 C 
HETATM   17  O4  UNL     1      -7.796  48.243 -28.706  1.00  0.00    -0.351 OA
ENDROOT
BRANCH   1  18
HETATM   18  C14 UNL     1      -5.923  47.893 -27.179  1.00  0.00     0.011 C 
HETATM   19  C12 UNL     1      -5.688  48.078 -25.862  1.00  0.00    -0.063 C 
HETATM   20  C13 UNL     1      -6.689  47.765 -24.781  1.00  0.00     0.048 C 
BRANCH  19  21
HETATM   21  C11 UNL     1      -4.395  48.634 -25.456  1.00  0.00     0.006 C 
HETATM   22  C10 UNL     1      -3.971  48.836 -24.196  1.00  0.00     0.001 C 
BRANCH  22  23
HETATM   23  C9  UNL     1      -2.663  49.384 -23.890  1.00  0.00     0.002 C 
HETATM   24  C7  UNL     1      -2.328  50.686 -23.779  1.00  0.00    -0.084 C 
HETATM   25  C8  UNL     1      -3.281  51.841 -23.980  1.00  0.00     0.043 C 
BRANCH  24  26
HETATM   26  C6  UNL     1      -0.919  51.164 -23.435  1.00  0.00     0.037 C 
BRANCH  26  27
HETATM   27  C5  UNL     1      -0.393  52.425 -24.136  1.00  0.00     0.031 C 
BRANCH  27  28
HETATM   28  C4  UNL     1       0.908  52.156 -24.847  1.00  0.00    -0.024 C 
HETATM   29  C2  UNL     1       1.084  51.577 -26.050  1.00  0.00    -0.091 C 
HETATM   30  C1  UNL     1       2.465  51.418 -26.631  1.00  0.00     0.042 C 
HETATM   31  C3  UNL     1      -0.018  51.030 -26.916  1.00  0.00     0.042 C 
ENDBRANCH  27  28
ENDBRANCH  26  27
ENDBRANCH  24  26
ENDBRANCH  22  23
ENDBRANCH  19  21
ENDBRANCH   1  18
BRANCH  15  32
HETATM   32  O3  UNL     1     -10.142  45.277 -30.386  1.00  0.00    -0.389 OA
HETATM   33  H44 UNL     1     -10.709  44.488 -30.445  1.00  0.00     0.210 HD
ENDBRANCH  15  32
BRANCH  11  34
HETATM   34  C26 UNL     1      -4.602  46.296 -32.910  1.00  0.00     0.265 C 
HETATM   35  O2  UNL     1      -3.808  47.041 -32.344  1.00  0.00    -0.302 OA
ENDBRANCH  11  34
TORSDOF 8
ENDMDL
MODEL 2
REMARK minimizedAffinity -9.18192959
REMARK  8 active torsions:
REMARK  status: ('A' for Active; 'I' for Inactive)
REMARK    1  A    between atoms: C4_4  and  C5_5 
REMARK    2  A    between atoms: C5_5  and  C6_6 
REMARK    3  A    between atoms: C6_6  and  C7_7 
REMARK    4  A    between atoms: C9_9  and  C10_10 
REMARK    5  A    between atoms: C11_11  and  C12_12 
REMARK    6  A    between atoms: C14_14  and  C15_15 
REMARK    7  A    between atoms: C24_25  and  C26_27 
REMARK    8  A    between atoms: C29_31  and  O3_33 
ROOT
HETATM    1  C15 UNL     1      -7.212  47.135 -27.785  1.00  0.00     0.149 C 
HETATM    2  C16 UNL     1      -6.897  45.973 -28.720  1.00  0.00     0.054 C 
HETATM    3  C17 UNL     1      -8.002  46.028 -29.828  1.00  0.00     0.050 C 
HETATM    4  C18 UNL     1      -8.785  47.311 -29.407  1.00  0.00     0.272 C 
HETATM    5  O1  UNL     1      -9.428  48.083 -30.407  1.00  0.00    -0.360 OA
HETATM    6  C19 UNL     1      -8.577  48.787 -31.289  1.00  0.00     0.171 C 
HETATM    7  C20 UNL     1      -8.391  48.014 -32.584  1.00  0.00     0.027 C 
HETATM    8  C21 UNL     1      -8.170  46.511 -32.408  1.00  0.00     0.012 C 
HETATM    9  C22 UNL     1      -7.260  46.163 -31.212  1.00  0.00     0.032 C 
HETATM   10  C23 UNL     1      -6.415  44.909 -31.526  1.00  0.00    -0.066 C 
HETATM   11  C24 UNL     1      -5.241  44.930 -32.210  1.00  0.00    -0.021 C 
HETATM   12  C25 UNL     1      -4.339  43.744 -32.435  1.00  0.00     0.052 C 
HETATM   13  C27 UNL     1      -6.965  43.613 -30.958  1.00  0.00     0.038 C 
HETATM   14  C28 UNL     1      -8.475  43.648 -30.782  1.00  0.00     0.042 C 
HETATM   15  C29 UNL     1      -8.958  44.767 -29.834  1.00  0.00     0.067 C 
HETATM   16  C30 UNL     1      -9.234  44.175 -28.438  1.00  0.00     0.047 C 
HETATM   17  O4  UNL     1      -7.886  48.091 -28.599  1.00  0.00    -0.351 OA
ENDROOT
BRANCH   1  18
HETATM   18  C14 UNL     1      -6.017  47.707 -27.075  1.00  0.00     0.011 C 
HETATM   19  C12 UNL     1      -4.891  48.263 -27.569  1.00  0.00    -0.063 C 
HETATM   20  C13 UNL     1      -4.575  48.349 -29.040  1.00  0.00     0.048 C 
BRANCH  19  21
HETATM   21  C11 UNL     1      -3.904  48.796 -26.627  1.00  0.00     0.006 C 
HETATM   22  C10 UNL     1      -2.838  49.558 -26.929  1.00  0.00     0.001 C 
BRANCH  22  23
HETATM   23  C9  UNL     1      -1.919  50.051 -25.922  1.00  0.00     0.002 C 
HETATM   24  C7  UNL     1      -0.850  50.853 -26.113  1.00  0.00    -0.084 C 
HETATM   25  C8  UNL     1      -0.398  51.381 -27.455  1.00  0.00     0.043 C 
BRANCH  24  26
HETATM   26  C6  UNL     1       0.052  51.334 -24.979  1.00  0.00     0.037 C 
BRANCH  26  27
HETATM   27  C5  UNL     1      -0.614  51.822 -23.684  1.00  0.00     0.031 C 
BRANCH  27  28
HETATM   28  C4  UNL     1       0.277  52.777 -22.934  1.00  0.00    -0.024 C 
HETATM   29  C2  UNL     1       0.564  52.774 -21.618  1.00  0.00    -0.091 C 
HETATM   30  C1  UNL     1       1.512  53.789 -21.035  1.00  0.00     0.042 C 
HETATM   31  C3  UNL     1      -0.009  51.814 -20.611  1.00  0.00     0.042 C 
ENDBRANCH  27  28
ENDBRANCH  26  27
ENDBRANCH  24  26
ENDBRANCH  22  23
ENDBRANCH  19  21
ENDBRANCH   1  18
BRANCH  15  32
HETATM   32  O3  UNL     1     -10.250  45.165 -30.323  1.00  0.00    -0.389 OA
HETATM   33  H44 UNL     1     -10.822  44.380 -30.394  1.00  0.00     0.210 HD
ENDBRANCH  15  32
BRANCH  11  34
HETATM   34  C26 UNL     1      -4.701  46.184 -32.827  1.00  0.00     0.265 C 
HETATM   35  O2  UNL     1      -3.772  46.818 -32.336  1.00  0.00    -0.302 OA
ENDBRANCH  11  34
TORSDOF 8
ENDMDL
MODEL 3
REMARK minimizedAffinity -9.1145525
REMARK  8 active torsions:
REMARK  status: ('A' for Active; 'I' for Inactive)
REMARK    1  A    between atoms: C4_4  and  C5_5 
REMARK    2  A    between atoms: C5_5  and  C6_6 
REMARK    3  A    between atoms: C6_6  and  C7_7 
REMARK    4  A    between atoms: C9_9  and  C10_10 
REMARK    5  A    between atoms: C11_11  and  C12_12 
REMARK    6  A    between atoms: C14_14  and  C15_15 
REMARK    7  A    between atoms: C24_25  and  C26_27 
REMARK    8  A    between atoms: C29_31  and  O3_33 
ROOT
HETATM    1  C15 UNL     1      -7.329  47.148 -27.608  1.00  0.00     0.149 C 
HETATM    2  C16 UNL     1      -7.119  45.991 -28.576  1.00  0.00     0.054 C 
HETATM    3  C17 UNL     1      -8.192  46.195 -29.698  1.00  0.00     0.050 C 
HETATM    4  C18 UNL     1      -8.846  47.538 -29.245  1.00  0.00     0.272 C 
HETATM    5  O1  UNL     1      -9.389  48.404 -30.227  1.00  0.00    -0.360 OA
HETATM    6  C19 UNL     1      -8.455  49.045 -31.072  1.00  0.00     0.171 C 
HETATM    7  C20 UNL     1      -8.326  48.299 -32.390  1.00  0.00     0.027 C 
HETATM    8  C21 UNL     1      -8.263  46.776 -32.262  1.00  0.00     0.012 C 
HETATM    9  C22 UNL     1      -7.415  46.298 -31.065  1.00  0.00     0.032 C 
HETATM   10  C23 UNL     1      -6.698  44.974 -31.410  1.00  0.00    -0.066 C 
HETATM   11  C24 UNL     1      -5.516  44.896 -32.075  1.00  0.00    -0.021 C 
HETATM   12  C25 UNL     1      -4.737  43.631 -32.327  1.00  0.00     0.052 C 
HETATM   13  C27 UNL     1      -7.388  43.724 -30.895  1.00  0.00     0.038 C 
HETATM   14  C28 UNL     1      -8.890  43.909 -30.739  1.00  0.00     0.042 C 
HETATM   15  C29 UNL     1      -9.272  45.041 -29.761  1.00  0.00     0.067 C 
HETATM   16  C30 UNL     1      -9.633  44.435 -28.390  1.00  0.00     0.047 C 
HETATM   17  O4  UNL     1      -7.887  48.195 -28.398  1.00  0.00    -0.351 OA
ENDROOT
BRANCH   1  18
HETATM   18  C14 UNL     1      -6.095  47.571 -26.861  1.00  0.00     0.011 C 
HETATM   19  C12 UNL     1      -4.955  48.140 -27.308  1.00  0.00    -0.063 C 
HETATM   20  C13 UNL     1      -4.668  48.407 -28.762  1.00  0.00     0.048 C 
BRANCH  19  21
HETATM   21  C11 UNL     1      -3.925  48.502 -26.331  1.00  0.00     0.006 C 
HETATM   22  C10 UNL     1      -4.054  48.496 -24.993  1.00  0.00     0.001 C 
BRANCH  22  23
HETATM   23  C9  UNL     1      -2.970  48.861 -24.102  1.00  0.00     0.002 C 
HETATM   24  C7  UNL     1      -2.553  50.105 -23.788  1.00  0.00    -0.084 C 
HETATM   25  C8  UNL     1      -3.149  51.379 -24.342  1.00  0.00     0.043 C 
BRANCH  24  26
HETATM   26  C6  UNL     1      -1.406  50.387 -22.821  1.00  0.00     0.037 C 
BRANCH  26  27
HETATM   27  C5  UNL     1      -0.997  51.850 -22.593  1.00  0.00     0.031 C 
BRANCH  27  28
HETATM   28  C4  UNL     1      -0.689  52.114 -21.142  1.00  0.00    -0.024 C 
HETATM   29  C2  UNL     1       0.263  52.922 -20.637  1.00  0.00    -0.091 C 
HETATM   30  C1  UNL     1       0.410  53.099 -19.148  1.00  0.00     0.042 C 
HETATM   31  C3  UNL     1       1.260  53.699 -21.453  1.00  0.00     0.042 C 
ENDBRANCH  27  28
ENDBRANCH  26  27
ENDBRANCH  24  26
ENDBRANCH  22  23
ENDBRANCH  19  21
ENDBRANCH   1  18
BRANCH  15  32
HETATM   32  O3  UNL     1     -10.507  45.585 -30.255  1.00  0.00    -0.389 OA
HETATM   33  H44 UNL     1     -11.155  44.867 -30.361  1.00  0.00     0.210 HD
ENDBRANCH  15  32
BRANCH  11  34
HETATM   34  C26 UNL     1      -4.839  46.107 -32.642  1.00  0.00     0.265 C 
HETATM   35  O2  UNL     1      -3.975  46.729 -32.031  1.00  0.00    -0.302 OA
ENDBRANCH  11  34
TORSDOF 8
ENDMDL
MODEL 4
REMARK minimizedAffinity -8.50525475
REMARK  8 active torsions:
REMARK  status: ('A' for Active; 'I' for Inactive)
REMARK    1  A    between atoms: C4_4  and  C5_5 
REMARK    2  A    between atoms: C5_5  and  C6_6 
REMARK    3  A    between atoms: C6_6  and  C7_7 
REMARK    4  A    between atoms: C9_9  and  C10_10 
REMARK    5  A    between atoms: C11_11  and  C12_12 
REMARK    6  A    between atoms: C14_14  and  C15_15 
REMARK    7  A    between atoms: C24_25  and  C26_27 
REMARK    8  A    between atoms: C29_31  and  O3_33 
ROOT
HETATM    1  C15 UNL     1      -6.028  47.347 -30.322  1.00  0.00     0.149 C 
HETATM    2  C16 UNL     1      -7.498  47.679 -30.101  1.00  0.00     0.054 C 
HETATM    3  C17 UNL     1      -8.288  46.490 -30.744  1.00  0.00     0.050 C 
HETATM    4  C18 UNL     1      -7.117  45.562 -31.194  1.00  0.00     0.272 C 
HETATM    5  O1  UNL     1      -7.329  44.160 -31.238  1.00  0.00    -0.360 OA
HETATM    6  C19 UNL     1      -7.473  43.516 -29.988  1.00  0.00     0.171 C 
HETATM    7  C20 UNL     1      -8.942  43.315 -29.657  1.00  0.00     0.027 C 
HETATM    8  C21 UNL     1      -9.839  44.515 -29.962  1.00  0.00     0.012 C 
HETATM    9  C22 UNL     1      -9.190  45.869 -29.610  1.00  0.00     0.032 C 
HETATM   10  C23 UNL     1     -10.262  46.870 -29.127  1.00  0.00    -0.066 C 
HETATM   11  C24 UNL     1     -10.724  46.939 -27.851  1.00  0.00    -0.021 C 
HETATM   12  C25 UNL     1     -11.684  47.975 -27.324  1.00  0.00     0.052 C 
HETATM   13  C27 UNL     1     -10.747  47.843 -30.187  1.00  0.00     0.038 C 
HETATM   14  C28 UNL     1     -10.623  47.281 -31.595  1.00  0.00     0.042 C 
HETATM   15  C29 UNL     1      -9.175  46.913 -31.985  1.00  0.00     0.067 C 
HETATM   16  C30 UNL     1      -8.569  48.044 -32.839  1.00  0.00     0.047 C 
HETATM   17  O4  UNL     1      -5.978  45.925 -30.395  1.00  0.00    -0.351 OA
ENDROOT
BRANCH   1  18
HETATM   18  C14 UNL     1      -5.097  47.914 -29.288  1.00  0.00     0.011 C 
HETATM   19  C12 UNL     1      -5.213  47.969 -27.944  1.00  0.00    -0.063 C 
HETATM   20  C13 UNL     1      -6.427  47.496 -27.189  1.00  0.00     0.048 C 
BRANCH  19  21
HETATM   21  C11 UNL     1      -4.106  48.538 -27.170  1.00  0.00     0.006 C 
HETATM   22  C10 UNL     1      -3.953  48.487 -25.836  1.00  0.00     0.001 C 
BRANCH  22  23
HETATM   23  C9  UNL     1      -2.813  49.072 -25.157  1.00  0.00     0.002 C 
HETATM   24  C7  UNL     1      -2.687  50.341 -24.715  1.00  0.00    -0.084 C 
HETATM   25  C8  UNL     1      -3.738  51.416 -24.871  1.00  0.00     0.043 C 
BRANCH  24  26
HETATM   26  C6  UNL     1      -1.446  50.860 -23.993  1.00  0.00     0.037 C 
BRANCH  26  27
HETATM   27  C5  UNL     1      -0.810  52.164 -24.496  1.00  0.00     0.031 C 
BRANCH  27  28
HETATM   28  C4  UNL     1       0.597  51.936 -24.986  1.00  0.00    -0.024 C 
HETATM   29  C2  UNL     1       0.990  51.595 -26.229  1.00  0.00    -0.091 C 
HETATM   30  C1  UNL     1       2.452  51.442 -26.556  1.00  0.00     0.042 C 
HETATM   31  C3  UNL     1       0.066  51.323 -27.384  1.00  0.00     0.042 C 
ENDBRANCH  27  28
ENDBRANCH  26  27
ENDBRANCH  24  26
ENDBRANCH  22  23
ENDBRANCH  19  21
ENDBRANCH   1  18
BRANCH  15  32
HETATM   32  O3  UNL     1      -9.282  45.796 -32.883  1.00  0.00    -0.389 OA
HETATM   33  H44 UNL     1      -9.882  46.028 -33.613  1.00  0.00     0.210 HD
ENDBRANCH  15  32
BRANCH  11  34
HETATM   34  C26 UNL     1     -10.304  45.960 -26.797  1.00  0.00     0.265 C 
HETATM   35  O2  UNL     1     -10.890  44.898 -26.609  1.00  0.00    -0.302 OA
ENDBRANCH  11  34
TORSDOF 8
ENDMDL
MODEL 5
REMARK minimizedAffinity -8.44917774
REMARK  8 active torsions:
REMARK  status: ('A' for Active; 'I' for Inactive)
REMARK    1  A    between atoms: C4_4  and  C5_5 
REMARK    2  A    between atoms: C5_5  and  C6_6 
REMARK    3  A    between atoms: C6_6  and  C7_7 
REMARK    4  A    between atoms: C9_9  and  C10_10 
REMARK    5  A    between atoms: C11_11  and  C12_12 
REMARK    6  A    between atoms: C14_14  and  C15_15 
REMARK    7  A    between atoms: C24_25  and  C26_27 
REMARK    8  A    between atoms: C29_31  and  O3_33 
ROOT
HETATM    1  C15 UNL     1      -5.768  48.093 -29.815  1.00  0.00     0.149 C 
HETATM    2  C16 UNL     1      -7.184  48.131 -29.254  1.00  0.00     0.054 C 
HETATM    3  C17 UNL     1      -7.988  47.088 -30.100  1.00  0.00     0.050 C 
HETATM    4  C18 UNL     1      -6.863  46.514 -31.016  1.00  0.00     0.272 C 
HETATM    5  O1  UNL     1      -6.963  45.174 -31.470  1.00  0.00    -0.360 OA
HETATM    6  C19 UNL     1      -6.793  44.173 -30.487  1.00  0.00     0.171 C 
HETATM    7  C20 UNL     1      -8.141  43.674 -29.993  1.00  0.00     0.027 C 
HETATM    8  C21 UNL     1      -9.177  44.770 -29.741  1.00  0.00     0.012 C 
HETATM    9  C22 UNL     1      -8.583  46.035 -29.089  1.00  0.00     0.032 C 
HETATM   10  C23 UNL     1      -9.612  46.683 -28.136  1.00  0.00    -0.066 C 
HETATM   11  C24 UNL     1      -9.805  46.301 -26.847  1.00  0.00    -0.021 C 
HETATM   12  C25 UNL     1     -10.718  46.984 -25.861  1.00  0.00     0.052 C 
HETATM   13  C27 UNL     1     -10.383  47.848 -28.730  1.00  0.00     0.038 C 
HETATM   14  C28 UNL     1     -10.505  47.756 -30.243  1.00  0.00     0.042 C 
HETATM   15  C29 UNL     1      -9.143  47.732 -30.970  1.00  0.00     0.067 C 
HETATM   16  C30 UNL     1      -8.821  49.141 -31.506  1.00  0.00     0.047 C 
HETATM   17  O4  UNL     1      -5.617  46.780 -30.348  1.00  0.00    -0.351 OA
ENDROOT
BRANCH   1  18
HETATM   18  C14 UNL     1      -4.694  48.453 -28.828  1.00  0.00     0.011 C 
HETATM   19  C12 UNL     1      -4.653  48.300 -27.487  1.00  0.00    -0.063 C 
HETATM   20  C13 UNL     1      -5.800  47.765 -26.670  1.00  0.00     0.048 C 
BRANCH  19  21
HETATM   21  C11 UNL     1      -3.435  48.696 -26.776  1.00  0.00     0.006 C 
HETATM   22  C10 UNL     1      -2.769  49.856 -26.911  1.00  0.00     0.001 C 
BRANCH  22  23
HETATM   23  C9  UNL     1      -1.573  50.164 -26.153  1.00  0.00     0.002 C 
HETATM   24  C7  UNL     1      -0.736  51.208 -26.333  1.00  0.00    -0.084 C 
HETATM   25  C8  UNL     1      -0.893  52.262 -27.404  1.00  0.00     0.043 C 
BRANCH  24  26
HETATM   26  C6  UNL     1       0.496  51.456 -25.466  1.00  0.00     0.037 C 
BRANCH  26  27
HETATM   27  C5  UNL     1       0.478  52.660 -24.514  1.00  0.00     0.031 C 
BRANCH  27  28
HETATM   28  C4  UNL     1       0.181  52.238 -23.099  1.00  0.00    -0.024 C 
HETATM   29  C2  UNL     1       0.561  52.850 -21.960  1.00  0.00    -0.091 C 
HETATM   30  C1  UNL     1       0.142  52.307 -20.620  1.00  0.00     0.042 C 
HETATM   31  C3  UNL     1       1.420  54.082 -21.887  1.00  0.00     0.042 C 
ENDBRANCH  27  28
ENDBRANCH  26  27
ENDBRANCH  24  26
ENDBRANCH  22  23
ENDBRANCH  19  21
ENDBRANCH   1  18
BRANCH  15  32
HETATM   32  O3  UNL     1      -9.341  46.930 -32.147  1.00  0.00    -0.389 OA
HETATM   33  H44 UNL     1     -10.095  47.282 -32.651  1.00  0.00     0.210 HD
ENDBRANCH  15  32
BRANCH  11  34
HETATM   34  C26 UNL     1      -9.099  45.122 -26.250  1.00  0.00     0.265 C 
HETATM   35  O2  UNL     1      -8.029  45.221 -25.658  1.00  0.00    -0.302 OA
ENDBRANCH  11  34
TORSDOF 8
ENDMDL
MODEL 6
REMARK minimizedAffinity -8.33697319
REMARK  8 active torsions:
REMARK  status: ('A' for Active; 'I' for Inactive)
REMARK    1  A    between atoms: C4_4  and  C5_5 
REMARK    2  A    between atoms: C5_5  and  C6_6 
REMARK    3  A    between atoms: C6_6  and  C7_7 
REMARK    4  A    between atoms: C9_9  and  C10_10 
REMARK    5  A    between atoms: C11_11  and  C12_12 
REMARK    6  A    between atoms: C14_14  and  C15_15 
REMARK    7  A    between atoms: C24_25  and  C26_27 
REMARK    8  A    between atoms: C29_31  and  O3_33 
ROOT
HETATM    1  C15 UNL     1      -5.922  48.043 -28.845  1.00  0.00     0.149 C 
HETATM    2  C16 UNL     1      -7.422  47.847 -28.662  1.00  0.00     0.054 C 
HETATM    3  C17 UNL     1      -7.922  47.225 -30.010  1.00  0.00     0.050 C 
HETATM    4  C18 UNL     1      -6.576  47.070 -30.785  1.00  0.00     0.272 C 
HETATM    5  O1  UNL     1      -6.445  46.023 -31.732  1.00  0.00    -0.360 OA
HETATM    6  C19 UNL     1      -6.392  44.713 -31.203  1.00  0.00     0.171 C 
HETATM    7  C20 UNL     1      -7.759  44.052 -31.273  1.00  0.00     0.027 C 
HETATM    8  C21 UNL     1      -8.927  44.951 -30.867  1.00  0.00     0.012 C 
HETATM    9  C22 UNL     1      -8.612  45.854 -29.656  1.00  0.00     0.032 C 
HETATM   10  C23 UNL     1      -9.879  46.062 -28.797  1.00  0.00    -0.066 C 
HETATM   11  C24 UNL     1     -10.305  45.197 -27.841  1.00  0.00    -0.021 C 
HETATM   12  C25 UNL     1     -11.469  45.425 -26.911  1.00  0.00     0.052 C 
HETATM   13  C27 UNL     1     -10.616  47.364 -29.056  1.00  0.00     0.038 C 
HETATM   14  C28 UNL     1     -10.403  47.884 -30.470  1.00  0.00     0.042 C 
HETATM   15  C29 UNL     1      -8.921  48.158 -30.808  1.00  0.00     0.067 C 
HETATM   16  C30 UNL     1      -8.631  49.665 -30.664  1.00  0.00     0.047 C 
HETATM   17  O4  UNL     1      -5.534  47.053 -29.794  1.00  0.00    -0.351 OA
ENDROOT
BRANCH   1  18
HETATM   18  C14 UNL     1      -5.124  47.983 -27.574  1.00  0.00     0.011 C 
HETATM   19  C12 UNL     1      -4.092  48.746 -27.154  1.00  0.00    -0.063 C 
HETATM   20  C13 UNL     1      -3.463  49.834 -27.984  1.00  0.00     0.048 C 
BRANCH  19  21
HETATM   21  C11 UNL     1      -3.533  48.493 -25.823  1.00  0.00     0.006 C 
HETATM   22  C10 UNL     1      -3.244  49.415 -24.888  1.00  0.00     0.001 C 
BRANCH  22  23
HETATM   23  C9  UNL     1      -2.702  49.067 -23.589  1.00  0.00     0.002 C 
HETATM   24  C7  UNL     1      -2.638  49.852 -22.493  1.00  0.00    -0.084 C 
HETATM   25  C8  UNL     1      -3.117  51.283 -22.429  1.00  0.00     0.043 C 
BRANCH  24  26
HETATM   26  C6  UNL     1      -2.060  49.385 -21.159  1.00  0.00     0.037 C 
BRANCH  26  27
HETATM   27  C5  UNL     1      -0.547  49.529 -20.938  1.00  0.00     0.031 C 
BRANCH  27  28
HETATM   28  C4  UNL     1      -0.216  50.820 -20.235  1.00  0.00    -0.024 C 
HETATM   29  C2  UNL     1       0.216  51.971 -20.788  1.00  0.00    -0.091 C 
HETATM   30  C1  UNL     1       0.467  53.186 -19.934  1.00  0.00     0.042 C 
HETATM   31  C3  UNL     1       0.502  52.173 -22.251  1.00  0.00     0.042 C 
ENDBRANCH  27  28
ENDBRANCH  26  27
ENDBRANCH  24  26
ENDBRANCH  22  23
ENDBRANCH  19  21
ENDBRANCH   1  18
BRANCH  15  32
HETATM   32  O3  UNL     1      -8.784  47.893 -32.213  1.00  0.00    -0.389 OA
HETATM   33  H44 UNL     1      -9.444  48.413 -32.704  1.00  0.00     0.210 HD
ENDBRANCH  15  32
BRANCH  11  34
HETATM   34  C26 UNL     1      -9.630  43.880 -27.599  1.00  0.00     0.265 C 
HETATM   35  O2  UNL     1      -8.417  43.776 -27.449  1.00  0.00    -0.302 OA
ENDBRANCH  11  34
TORSDOF 8
ENDMDL
MODEL 7
REMARK minimizedAffinity -8.02710438
REMARK  8 active torsions:
REMARK  status: ('A' for Active; 'I' for Inactive)
REMARK    1  A    between atoms: C4_4  and  C5_5 
REMARK    2  A    between atoms: C5_5  and  C6_6 
REMARK    3  A    between atoms: C6_6  and  C7_7 
REMARK    4  A    between atoms: C9_9  and  C10_10 
REMARK    5  A    between atoms: C11_11  and  C12_12 
REMARK    6  A    between atoms: C14_14  and  C15_15 
REMARK    7  A    between atoms: C24_25  and  C26_27 
REMARK    8  A    between atoms: C29_31  and  O3_33 
ROOT
HETATM    1  C15 UNL     1      -3.482  49.086 -23.678  1.00  0.00     0.149 C 
HETATM    2  C16 UNL     1      -3.657  47.788 -22.900  1.00  0.00     0.054 C 
HETATM    3  C17 UNL     1      -3.975  48.230 -21.432  1.00  0.00     0.050 C 
HETATM    4  C18 UNL     1      -4.019  49.782 -21.590  1.00  0.00     0.272 C 
HETATM    5  O1  UNL     1      -4.856  50.537 -20.730  1.00  0.00    -0.360 OA
HETATM    6  C19 UNL     1      -6.247  50.391 -20.935  1.00  0.00     0.171 C 
HETATM    7  C20 UNL     1      -6.830  49.390 -19.952  1.00  0.00     0.027 C 
HETATM    8  C21 UNL     1      -5.991  48.128 -19.746  1.00  0.00     0.012 C 
HETATM    9  C22 UNL     1      -5.364  47.592 -21.050  1.00  0.00     0.032 C 
HETATM   10  C23 UNL     1      -5.288  46.050 -21.015  1.00  0.00    -0.066 C 
HETATM   11  C24 UNL     1      -6.314  45.226 -21.355  1.00  0.00    -0.021 C 
HETATM   12  C25 UNL     1      -6.237  43.723 -21.439  1.00  0.00     0.052 C 
HETATM   13  C27 UNL     1      -3.935  45.488 -20.616  1.00  0.00     0.038 C 
HETATM   14  C28 UNL     1      -3.149  46.439 -19.726  1.00  0.00     0.042 C 
HETATM   15  C29 UNL     1      -2.865  47.805 -20.386  1.00  0.00     0.067 C 
HETATM   16  C30 UNL     1      -1.429  47.818 -20.948  1.00  0.00     0.047 C 
HETATM   17  O4  UNL     1      -4.273  50.045 -22.980  1.00  0.00    -0.351 OA
ENDROOT
BRANCH   1  18
HETATM   18  C14 UNL     1      -3.826  48.992 -25.138  1.00  0.00     0.011 C 
HETATM   19  C12 UNL     1      -3.118  49.358 -26.228  1.00  0.00    -0.063 C 
HETATM   20  C13 UNL     1      -1.780  50.045 -26.164  1.00  0.00     0.048 C 
BRANCH  19  21
HETATM   21  C11 UNL     1      -3.687  49.092 -27.551  1.00  0.00     0.006 C 
HETATM   22  C10 UNL     1      -4.655  48.206 -27.844  1.00  0.00     0.001 C 
BRANCH  22  23
HETATM   23  C9  UNL     1      -5.165  48.021 -29.188  1.00  0.00     0.002 C 
HETATM   24  C7  UNL     1      -6.164  47.202 -29.579  1.00  0.00    -0.084 C 
HETATM   25  C8  UNL     1      -6.940  46.290 -28.657  1.00  0.00     0.043 C 
BRANCH  24  26
HETATM   26  C6  UNL     1      -6.641  47.090 -31.025  1.00  0.00     0.037 C 
BRANCH  26  27
HETATM   27  C5  UNL     1      -5.989  46.025 -31.919  1.00  0.00     0.031 C 
BRANCH  27  28
HETATM   28  C4  UNL     1      -4.655  46.491 -32.443  1.00  0.00    -0.024 C 
HETATM   29  C2  UNL     1      -4.422  47.336 -33.466  1.00  0.00    -0.091 C 
HETATM   30  C1  UNL     1      -3.014  47.724 -33.835  1.00  0.00     0.042 C 
HETATM   31  C3  UNL     1      -5.482  47.956 -34.334  1.00  0.00     0.042 C 
ENDBRANCH  27  28
ENDBRANCH  26  27
ENDBRANCH  24  26
ENDBRANCH  22  23
ENDBRANCH  19  21
ENDBRANCH   1  18
BRANCH  15  32
HETATM   32  O3  UNL     1      -2.845  48.762 -19.314  1.00  0.00    -0.389 OA
HETATM   33  H44 UNL     1      -2.213  48.470 -18.635  1.00  0.00     0.210 HD
ENDBRANCH  15  32
BRANCH  11  34
HETATM   34  C26 UNL     1      -7.675  45.749 -21.701  1.00  0.00     0.265 C 
HETATM   35  O2  UNL     1      -7.968  46.141 -22.826  1.00  0.00    -0.302 OA
ENDBRANCH  11  34
TORSDOF 8
ENDMDL
MODEL 8
REMARK minimizedAffinity -8.02158546
REMARK  8 active torsions:
REMARK  status: ('A' for Active; 'I' for Inactive)
REMARK    1  A    between atoms: C4_4  and  C5_5 
REMARK    2  A    between atoms: C5_5  and  C6_6 
REMARK    3  A    between atoms: C6_6  and  C7_7 
REMARK    4  A    between atoms: C9_9  and  C10_10 
REMARK    5  A    between atoms: C11_11  and  C12_12 
REMARK    6  A    between atoms: C14_14  and  C15_15 
REMARK    7  A    between atoms: C24_25  and  C26_27 
REMARK    8  A    between atoms: C29_31  and  O3_33 
ROOT
HETATM    1  C15 UNL     1      -2.837  49.030 -23.957  1.00  0.00     0.149 C 
HETATM    2  C16 UNL     1      -3.129  47.856 -23.033  1.00  0.00     0.054 C 
HETATM    3  C17 UNL     1      -3.457  48.499 -21.644  1.00  0.00     0.050 C 
HETATM    4  C18 UNL     1      -3.383  50.019 -21.993  1.00  0.00     0.272 C 
HETATM    5  O1  UNL     1      -4.188  50.931 -21.265  1.00  0.00    -0.360 OA
HETATM    6  C19 UNL     1      -5.579  50.856 -21.504  1.00  0.00     0.171 C 
HETATM    7  C20 UNL     1      -6.263  50.029 -20.428  1.00  0.00     0.027 C 
HETATM    8  C21 UNL     1      -5.524  48.749 -20.036  1.00  0.00     0.012 C 
HETATM    9  C22 UNL     1      -4.900  48.011 -21.239  1.00  0.00     0.032 C 
HETATM   10  C23 UNL     1      -4.938  46.484 -21.011  1.00  0.00    -0.066 C 
HETATM   11  C24 UNL     1      -6.010  45.697 -21.287  1.00  0.00    -0.021 C 
HETATM   12  C25 UNL     1      -6.041  44.193 -21.182  1.00  0.00     0.052 C 
HETATM   13  C27 UNL     1      -3.642  45.885 -20.495  1.00  0.00     0.038 C 
HETATM   14  C28 UNL     1      -2.814  46.884 -19.700  1.00  0.00     0.042 C 
HETATM   15  C29 UNL     1      -2.412  48.134 -20.512  1.00  0.00     0.067 C 
HETATM   16  C30 UNL     1      -0.964  47.977 -21.015  1.00  0.00     0.047 C 
HETATM   17  O4  UNL     1      -3.576  50.121 -23.414  1.00  0.00    -0.351 OA
ENDROOT
BRANCH   1  18
HETATM   18  C14 UNL     1      -3.144  48.777 -25.407  1.00  0.00     0.011 C 
HETATM   19  C12 UNL     1      -4.313  48.474 -26.011  1.00  0.00    -0.063 C 
HETATM   20  C13 UNL     1      -5.605  48.248 -25.271  1.00  0.00     0.048 C 
BRANCH  19  21
HETATM   21  C11 UNL     1      -4.328  48.336 -27.470  1.00  0.00     0.006 C 
HETATM   22  C10 UNL     1      -5.352  47.893 -28.221  1.00  0.00     0.001 C 
BRANCH  22  23
HETATM   23  C9  UNL     1      -5.278  47.801 -29.666  1.00  0.00     0.002 C 
HETATM   24  C7  UNL     1      -5.807  46.840 -30.453  1.00  0.00    -0.084 C 
HETATM   25  C8  UNL     1      -6.578  45.642 -29.949  1.00  0.00     0.043 C 
BRANCH  24  26
HETATM   26  C6  UNL     1      -5.688  46.841 -31.975  1.00  0.00     0.037 C 
BRANCH  26  27
HETATM   27  C5  UNL     1      -6.734  47.625 -32.780  1.00  0.00     0.031 C 
BRANCH  27  28
HETATM   28  C4  UNL     1      -8.134  47.292 -32.333  1.00  0.00    -0.024 C 
HETATM   29  C2  UNL     1      -8.941  48.024 -31.541  1.00  0.00    -0.091 C 
HETATM   30  C1  UNL     1     -10.336  47.554 -31.222  1.00  0.00     0.042 C 
HETATM   31  C3  UNL     1      -8.565  49.330 -30.896  1.00  0.00     0.042 C 
ENDBRANCH  27  28
ENDBRANCH  26  27
ENDBRANCH  24  26
ENDBRANCH  22  23
ENDBRANCH  19  21
ENDBRANCH   1  18
BRANCH  15  32
HETATM   32  O3  UNL     1      -2.354  49.214 -19.566  1.00  0.00    -0.389 OA
HETATM   33  H44 UNL     1      -1.765  48.966 -18.832  1.00  0.00     0.210 HD
ENDBRANCH  15  32
BRANCH  11  34
HETATM   34  C26 UNL     1      -7.319  46.265 -21.746  1.00  0.00     0.265 C 
HETATM   35  O2  UNL     1      -7.649  46.295 -22.927  1.00  0.00    -0.302 OA
ENDBRANCH  11  34
TORSDOF 8
ENDMDL
MODEL 9
REMARK minimizedAffinity -7.97480154
REMARK  8 active torsions:
REMARK  status: ('A' for Active; 'I' for Inactive)
REMARK    1  A    between atoms: C4_4  and  C5_5 
REMARK    2  A    between atoms: C5_5  and  C6_6 
REMARK    3  A    between atoms: C6_6  and  C7_7 
REMARK    4  A    between atoms: C9_9  and  C10_10 
REMARK    5  A    between atoms: C11_11  and  C12_12 
REMARK    6  A    between atoms: C14_14  and  C15_15 
REMARK    7  A    between atoms: C24_25  and  C26_27 
REMARK    8  A    between atoms: C29_31  and  O3_33 
ROOT
HETATM    1  C15 UNL     1      -5.940  46.998 -30.940  1.00  0.00     0.149 C 
HETATM    2  C16 UNL     1      -7.460  47.059 -31.015  1.00  0.00     0.054 C 
HETATM    3  C17 UNL     1      -7.874  45.859 -31.932  1.00  0.00     0.050 C 
HETATM    4  C18 UNL     1      -6.486  45.200 -32.206  1.00  0.00     0.272 C 
HETATM    5  O1  UNL     1      -6.423  43.802 -32.437  1.00  0.00    -0.360 OA
HETATM    6  C19 UNL     1      -6.692  42.978 -31.321  1.00  0.00     0.171 C 
HETATM    7  C20 UNL     1      -8.135  42.502 -31.343  1.00  0.00     0.027 C 
HETATM    8  C21 UNL     1      -9.159  43.575 -31.714  1.00  0.00     0.012 C 
HETATM    9  C22 UNL     1      -8.853  44.953 -31.093  1.00  0.00     0.032 C 
HETATM   10  C23 UNL     1     -10.165  45.696 -30.759  1.00  0.00    -0.066 C 
HETATM   11  C24 UNL     1     -10.876  45.514 -29.615  1.00  0.00    -0.021 C 
HETATM   12  C25 UNL     1     -12.095  46.302 -29.210  1.00  0.00     0.052 C 
HETATM   13  C27 UNL     1     -10.600  46.716 -31.795  1.00  0.00     0.038 C 
HETATM   14  C28 UNL     1     -10.098  46.380 -33.191  1.00  0.00     0.042 C 
HETATM   15  C29 UNL     1      -8.559  46.304 -33.289  1.00  0.00     0.067 C 
HETATM   16  C30 UNL     1      -8.014  47.624 -33.870  1.00  0.00     0.047 C 
HETATM   17  O4  UNL     1      -5.615  45.625 -31.144  1.00  0.00    -0.351 OA
ENDROOT
BRANCH   1  18
HETATM   18  C14 UNL     1      -5.353  47.557 -29.675  1.00  0.00     0.011 C 
HETATM   19  C12 UNL     1      -5.803  47.500 -28.403  1.00  0.00    -0.063 C 
HETATM   20  C13 UNL     1      -7.115  46.875 -28.007  1.00  0.00     0.048 C 
BRANCH  19  21
HETATM   21  C11 UNL     1      -4.983  48.096 -27.345  1.00  0.00     0.006 C 
HETATM   22  C10 UNL     1      -3.679  48.411 -27.425  1.00  0.00     0.001 C 
BRANCH  22  23
HETATM   23  C9  UNL     1      -2.951  49.011 -26.323  1.00  0.00     0.002 C 
HETATM   24  C7  UNL     1      -2.186  50.122 -26.358  1.00  0.00    -0.084 C 
HETATM   25  C8  UNL     1      -1.930  50.954 -27.593  1.00  0.00     0.043 C 
BRANCH  24  26
HETATM   26  C6  UNL     1      -1.470  50.686 -25.133  1.00  0.00     0.037 C 
BRANCH  26  27
HETATM   27  C5  UNL     1      -2.189  50.612 -23.778  1.00  0.00     0.031 C 
BRANCH  27  28
HETATM   28  C4  UNL     1      -1.343  51.194 -22.675  1.00  0.00    -0.024 C 
HETATM   29  C2  UNL     1      -0.843  50.557 -21.599  1.00  0.00    -0.091 C 
HETATM   30  C1  UNL     1       0.020  51.290 -20.605  1.00  0.00     0.042 C 
HETATM   31  C3  UNL     1      -1.082  49.111 -21.261  1.00  0.00     0.042 C 
ENDBRANCH  27  28
ENDBRANCH  26  27
ENDBRANCH  24  26
ENDBRANCH  22  23
ENDBRANCH  19  21
ENDBRANCH   1  18
BRANCH  15  32
HETATM   32  O3  UNL     1      -8.278  45.318 -34.297  1.00  0.00    -0.389 OA
HETATM   33  H44 UNL     1      -8.753  45.551 -35.114  1.00  0.00     0.210 HD
ENDBRANCH  15  32
BRANCH  11  34
HETATM   34  C26 UNL     1     -10.501  44.478 -28.600  1.00  0.00     0.265 C 
HETATM   35  O2  UNL     1     -10.943  43.333 -28.627  1.00  0.00    -0.302 OA
ENDBRANCH  11  34
TORSDOF 8
ENDMDL
