MODEL 1
REMARK minimizedAffinity -8.979146
REMARK  6 active torsions:
REMARK  status: ('A' for Active; 'I' for Inactive)
REMARK    1  A    between atoms: C6_8  and  C7_9 
REMARK    2  A    between atoms: C10_12  and  O1_13 
REMARK    3  A    between atoms: O1_13  and  C11_14 
REMARK    4  A    between atoms: C18_22  and  C19_23 
REMARK    5  A    between atoms: C22_26  and  O2_27 
REMARK    6  A    between atoms: O2_27  and  C23_28 
ROOT
HETATM    1  C1  UNL     1      -0.682  53.333 -27.834  1.00  0.00     0.049 C 
HETATM    2  C2  UNL     1      -0.390  53.216 -26.363  1.00  0.00    -0.046 A 
HETATM    3  C3  UNL     1       0.387  54.125 -25.732  1.00  0.00     0.056 A 
HETATM    4  C4  UNL     1       0.660  54.004 -24.343  1.00  0.00     0.112 A 
HETATM    5  N1  UNL     1       1.395  54.746 -23.545  1.00  0.00    -0.350 N 
ATOM      6  H1  UNL     1       1.924  55.583 -23.789  1.00  0.00     0.166 HD
HETATM    7  C5  UNL     1       1.298  54.151 -22.315  1.00  0.00     0.120 A 
HETATM    8  C6  UNL     1       0.484  53.034 -22.345  1.00  0.00     0.066 A 
HETATM    9  N2  UNL     1       0.087  52.930 -23.669  1.00  0.00    -0.305 N 
HETATM   10  C17 UNL     1      -0.709  51.975 -24.303  1.00  0.00     0.112 A 
HETATM   11  C18 UNL     1      -0.968  52.078 -25.623  1.00  0.00    -0.004 A 
ENDROOT
BRANCH   8  12
HETATM   12  C7  UNL     1       0.112  52.123 -21.270  1.00  0.00    -0.007 A 
HETATM   13  C8  UNL     1       0.047  50.741 -21.490  1.00  0.00     0.016 A 
HETATM   14  C9  UNL     1      -0.319  49.876 -20.456  1.00  0.00     0.037 A 
HETATM   15  C10 UNL     1      -0.655  50.392 -19.207  1.00  0.00     0.069 A 
HETATM   16  C15 UNL     1      -0.559  51.761 -18.966  1.00  0.00     0.037 A 
HETATM   17  C16 UNL     1      -0.193  52.626 -19.999  1.00  0.00     0.016 A 
BRANCH  15  18
HETATM   18  O1  UNL     1      -0.956  49.549 -18.177  1.00  0.00    -0.341 OA
BRANCH  18  19
HETATM   19  C11 UNL     1      -0.549  49.966 -16.854  1.00  0.00     0.057 C 
HETATM   20  C12 UNL     1      -1.661  50.726 -16.117  1.00  0.00     0.045 C 
HETATM   21  C13 UNL     1      -0.290  48.649 -16.102  1.00  0.00     0.045 C 
HETATM   22  C14 UNL     1       0.755  50.779 -16.853  1.00  0.00     0.045 C 
ENDBRANCH  18  19
ENDBRANCH  15  18
ENDBRANCH   8  12
BRANCH  11  23
HETATM   23  C19 UNL     1      -1.814  51.033 -26.222  1.00  0.00    -0.024 A 
HETATM   24  C20 UNL     1      -1.897  49.768 -25.634  1.00  0.00     0.015 A 
HETATM   25  C21 UNL     1      -2.709  48.784 -26.203  1.00  0.00     0.037 A 
HETATM   26  C22 UNL     1      -3.442  49.043 -27.364  1.00  0.00     0.069 A 
HETATM   27  C26 UNL     1      -3.365  50.307 -27.948  1.00  0.00     0.037 A 
HETATM   28  C27 UNL     1      -2.554  51.298 -27.379  1.00  0.00     0.015 A 
BRANCH  26  29
HETATM   29  O2  UNL     1      -4.194  47.990 -27.802  1.00  0.00    -0.347 OA
BRANCH  29  30
HETATM   30  C23 UNL     1      -5.406  48.243 -28.519  1.00  0.00     0.120 C 
HETATM   31  C24 UNL     1      -5.228  47.632 -29.908  1.00  0.00     0.040 C 
HETATM   32  C25 UNL     1      -6.580  47.579 -27.807  1.00  0.00     0.040 C 
ENDBRANCH  29  30
ENDBRANCH  26  29
ENDBRANCH  11  23
TORSDOF 6
ENDMDL
MODEL 2
REMARK minimizedAffinity -8.831563
REMARK  6 active torsions:
REMARK  status: ('A' for Active; 'I' for Inactive)
REMARK    1  A    between atoms: C6_8  and  C7_9 
REMARK    2  A    between atoms: C10_12  and  O1_13 
REMARK    3  A    between atoms: O1_13  and  C11_14 
REMARK    4  A    between atoms: C18_22  and  C19_23 
REMARK    5  A    between atoms: C22_26  and  O2_27 
REMARK    6  A    between atoms: O2_27  and  C23_28 
ROOT
HETATM    1  C1  UNL     1      -0.700  53.345 -27.836  1.00  0.00     0.049 C 
HETATM    2  C2  UNL     1      -0.381  53.231 -26.371  1.00  0.00    -0.046 A 
HETATM    3  C3  UNL     1       0.400  54.145 -25.753  1.00  0.00     0.056 A 
HETATM    4  C4  UNL     1       0.698  54.025 -24.369  1.00  0.00     0.112 A 
HETATM    5  N1  UNL     1       1.442  54.773 -23.583  1.00  0.00    -0.350 N 
ATOM      6  H1  UNL     1       1.959  55.615 -23.837  1.00  0.00     0.166 HD
HETATM    7  C5  UNL     1       1.371  54.177 -22.353  1.00  0.00     0.120 A 
HETATM    8  C6  UNL     1       0.566  53.053 -22.369  1.00  0.00     0.066 A 
HETATM    9  N2  UNL     1       0.146  52.947 -23.686  1.00  0.00    -0.305 N 
HETATM   10  C17 UNL     1      -0.653  51.986 -24.306  1.00  0.00     0.112 A 
HETATM   11  C18 UNL     1      -0.937  52.088 -25.621  1.00  0.00    -0.004 A 
ENDROOT
BRANCH   8  12
HETATM   12  C7  UNL     1       0.221  52.139 -21.288  1.00  0.00    -0.007 A 
HETATM   13  C8  UNL     1      -0.067  50.793 -21.550  1.00  0.00     0.016 A 
HETATM   14  C9  UNL     1      -0.406  49.926 -20.509  1.00  0.00     0.037 A 
HETATM   15  C10 UNL     1      -0.492  50.409 -19.205  1.00  0.00     0.069 A 
HETATM   16  C15 UNL     1      -0.172  51.736 -18.927  1.00  0.00     0.037 A 
HETATM   17  C16 UNL     1       0.166  52.604 -19.968  1.00  0.00     0.016 A 
BRANCH  15  18
HETATM   18  O1  UNL     1      -0.764  49.555 -18.177  1.00  0.00    -0.341 OA
BRANCH  18  19
HETATM   19  C11 UNL     1      -2.158  49.260 -17.927  1.00  0.00     0.057 C 
HETATM   20  C12 UNL     1      -2.544  47.847 -18.388  1.00  0.00     0.045 C 
HETATM   21  C13 UNL     1      -2.290  49.316 -16.395  1.00  0.00     0.045 C 
HETATM   22  C14 UNL     1      -3.111  50.305 -18.526  1.00  0.00     0.045 C 
ENDBRANCH  18  19
ENDBRANCH  15  18
ENDBRANCH   8  12
BRANCH  11  23
HETATM   23  C19 UNL     1      -1.785  51.036 -26.205  1.00  0.00    -0.024 A 
HETATM   24  C20 UNL     1      -1.847  49.770 -25.617  1.00  0.00     0.015 A 
HETATM   25  C21 UNL     1      -2.661  48.780 -26.172  1.00  0.00     0.037 A 
HETATM   26  C22 UNL     1      -3.417  49.034 -27.319  1.00  0.00     0.069 A 
HETATM   27  C26 UNL     1      -3.360  50.299 -27.904  1.00  0.00     0.037 A 
HETATM   28  C27 UNL     1      -2.547  51.295 -27.349  1.00  0.00     0.015 A 
BRANCH  26  29
HETATM   29  O2  UNL     1      -4.168  47.975 -27.745  1.00  0.00    -0.347 OA
BRANCH  29  30
HETATM   30  C23 UNL     1      -5.403  48.218 -28.424  1.00  0.00     0.120 C 
HETATM   31  C24 UNL     1      -5.255  47.629 -29.826  1.00  0.00     0.040 C 
HETATM   32  C25 UNL     1      -6.547  47.526 -27.689  1.00  0.00     0.040 C 
ENDBRANCH  29  30
ENDBRANCH  26  29
ENDBRANCH  11  23
TORSDOF 6
ENDMDL
MODEL 3
REMARK minimizedAffinity -8.80591297
REMARK  6 active torsions:
REMARK  status: ('A' for Active; 'I' for Inactive)
REMARK    1  A    between atoms: C6_8  and  C7_9 
REMARK    2  A    between atoms: C10_12  and  O1_13 
REMARK    3  A    between atoms: O1_13  and  C11_14 
REMARK    4  A    between atoms: C18_22  and  C19_23 
REMARK    5  A    between atoms: C22_26  and  O2_27 
REMARK    6  A    between atoms: O2_27  and  C23_28 
ROOT
HETATM    1  C1  UNL     1       1.602  54.627 -22.067  1.00  0.00     0.049 C 
HETATM    2  C2  UNL     1       1.061  53.598 -21.113  1.00  0.00    -0.046 A 
HETATM    3  C3  UNL     1       1.272  53.701 -19.782  1.00  0.00     0.056 A 
HETATM    4  C4  UNL     1       0.760  52.721 -18.889  1.00  0.00     0.112 A 
HETATM    5  N1  UNL     1       0.864  52.612 -17.583  1.00  0.00    -0.350 N 
ATOM      6  H1  UNL     1       1.350  53.242 -16.945  1.00  0.00     0.166 HD
HETATM    7  C5  UNL     1       0.180  51.469 -17.266  1.00  0.00     0.120 A 
HETATM    8  C6  UNL     1      -0.367  50.867 -18.384  1.00  0.00     0.066 A 
HETATM    9  N2  UNL     1       0.030  51.673 -19.440  1.00  0.00    -0.305 N 
HETATM   10  C17 UNL     1      -0.190  51.541 -20.811  1.00  0.00     0.112 A 
HETATM   11  C18 UNL     1       0.297  52.463 -21.667  1.00  0.00    -0.004 A 
ENDROOT
BRANCH   8  12
HETATM   12  C7  UNL     1      -1.163  49.651 -18.492  1.00  0.00    -0.007 A 
HETATM   13  C8  UNL     1      -2.011  49.254 -17.450  1.00  0.00     0.016 A 
HETATM   14  C9  UNL     1      -2.764  48.083 -17.559  1.00  0.00     0.037 A 
HETATM   15  C10 UNL     1      -2.646  47.285 -18.694  1.00  0.00     0.069 A 
HETATM   16  C15 UNL     1      -1.834  47.689 -19.752  1.00  0.00     0.037 A 
HETATM   17  C16 UNL     1      -1.081  48.860 -19.644  1.00  0.00     0.016 A 
BRANCH  15  18
HETATM   18  O1  UNL     1      -3.422  46.171 -18.832  1.00  0.00    -0.341 OA
BRANCH  18  19
HETATM   19  C11 UNL     1      -4.646  46.319 -19.589  1.00  0.00     0.057 C 
HETATM   20  C12 UNL     1      -4.592  45.575 -20.930  1.00  0.00     0.045 C 
HETATM   21  C13 UNL     1      -5.719  45.650 -18.712  1.00  0.00     0.045 C 
HETATM   22  C14 UNL     1      -5.050  47.787 -19.799  1.00  0.00     0.045 C 
ENDBRANCH  18  19
ENDBRANCH  15  18
ENDBRANCH   8  12
BRANCH  11  23
HETATM   23  C19 UNL     1       0.025  52.257 -23.099  1.00  0.00    -0.024 A 
HETATM   24  C20 UNL     1      -0.823  51.227 -23.516  1.00  0.00     0.015 A 
HETATM   25  C21 UNL     1      -1.083  51.042 -24.876  1.00  0.00     0.037 A 
HETATM   26  C22 UNL     1      -0.501  51.875 -25.836  1.00  0.00     0.069 A 
HETATM   27  C26 UNL     1       0.340  52.906 -25.420  1.00  0.00     0.037 A 
HETATM   28  C27 UNL     1       0.602  53.096 -24.058  1.00  0.00     0.015 A 
BRANCH  26  29
HETATM   29  O2  UNL     1      -0.850  51.579 -27.123  1.00  0.00    -0.347 OA
BRANCH  29  30
HETATM   30  C23 UNL     1      -0.066  52.100 -28.200  1.00  0.00     0.120 C 
HETATM   31  C24 UNL     1      -0.277  53.613 -28.203  1.00  0.00     0.040 C 
HETATM   32  C25 UNL     1       1.409  51.782 -27.972  1.00  0.00     0.040 C 
ENDBRANCH  29  30
ENDBRANCH  26  29
ENDBRANCH  11  23
TORSDOF 6
ENDMDL
MODEL 4
REMARK minimizedAffinity -8.65480709
REMARK  6 active torsions:
REMARK  status: ('A' for Active; 'I' for Inactive)
REMARK    1  A    between atoms: C6_8  and  C7_9 
REMARK    2  A    between atoms: C10_12  and  O1_13 
REMARK    3  A    between atoms: O1_13  and  C11_14 
REMARK    4  A    between atoms: C18_22  and  C19_23 
REMARK    5  A    between atoms: C22_26  and  O2_27 
REMARK    6  A    between atoms: O2_27  and  C23_28 
ROOT
HETATM    1  C1  UNL     1       1.021  54.019 -20.550  1.00  0.00     0.049 C 
HETATM    2  C2  UNL     1       0.433  52.720 -20.075  1.00  0.00    -0.046 A 
HETATM    3  C3  UNL     1       0.577  52.316 -18.793  1.00  0.00     0.056 A 
HETATM    4  C4  UNL     1       0.020  51.084 -18.356  1.00  0.00     0.112 A 
HETATM    5  N1  UNL     1       0.058  50.495 -17.181  1.00  0.00    -0.350 N 
ATOM      6  H1  UNL     1       0.511  50.832 -16.332  1.00  0.00     0.166 HD
HETATM    7  C5  UNL     1      -0.642  49.329 -17.345  1.00  0.00     0.120 A 
HETATM    8  C6  UNL     1      -1.132  49.197 -18.631  1.00  0.00     0.066 A 
HETATM    9  N2  UNL     1      -0.682  50.331 -19.290  1.00  0.00    -0.305 N 
HETATM   10  C17 UNL     1      -0.834  50.723 -20.621  1.00  0.00     0.112 A 
HETATM   11  C18 UNL     1      -0.303  51.888 -21.047  1.00  0.00    -0.004 A 
ENDROOT
BRANCH   8  12
HETATM   12  C7  UNL     1      -1.923  48.125 -19.221  1.00  0.00    -0.007 A 
HETATM   13  C8  UNL     1      -1.847  47.849 -20.593  1.00  0.00     0.016 A 
HETATM   14  C9  UNL     1      -2.617  46.826 -21.151  1.00  0.00     0.037 A 
HETATM   15  C10 UNL     1      -3.490  46.097 -20.348  1.00  0.00     0.069 A 
HETATM   16  C15 UNL     1      -3.546  46.338 -18.977  1.00  0.00     0.037 A 
HETATM   17  C16 UNL     1      -2.778  47.362 -18.417  1.00  0.00     0.016 A 
BRANCH  15  18
HETATM   18  O1  UNL     1      -4.199  45.058 -20.876  1.00  0.00    -0.341 OA
BRANCH  18  19
HETATM   19  C11 UNL     1      -5.615  45.272 -21.077  1.00  0.00     0.057 C 
HETATM   20  C12 UNL     1      -6.358  45.522 -19.757  1.00  0.00     0.045 C 
HETATM   21  C13 UNL     1      -5.690  46.557 -21.919  1.00  0.00     0.045 C 
HETATM   22  C14 UNL     1      -6.288  44.142 -21.871  1.00  0.00     0.045 C 
ENDBRANCH  18  19
ENDBRANCH  15  18
ENDBRANCH   8  12
BRANCH  11  23
HETATM   23  C19 UNL     1      -0.503  52.235 -22.464  1.00  0.00    -0.024 A 
HETATM   24  C20 UNL     1       0.595  52.461 -23.298  1.00  0.00     0.015 A 
HETATM   25  C21 UNL     1       0.398  52.782 -24.643  1.00  0.00     0.037 A 
HETATM   26  C22 UNL     1      -0.890  52.887 -25.173  1.00  0.00     0.069 A 
HETATM   27  C26 UNL     1      -1.987  52.656 -24.343  1.00  0.00     0.037 A 
HETATM   28  C27 UNL     1      -1.794  52.332 -22.994  1.00  0.00     0.015 A 
BRANCH  26  29
HETATM   29  O2  UNL     1      -0.929  53.201 -26.502  1.00  0.00    -0.347 OA
BRANCH  29  30
HETATM   30  C23 UNL     1      -0.975  52.149 -27.471  1.00  0.00     0.120 C 
HETATM   31  C24 UNL     1       0.355  52.187 -28.221  1.00  0.00     0.040 C 
HETATM   32  C25 UNL     1      -1.138  50.804 -26.770  1.00  0.00     0.040 C 
ENDBRANCH  29  30
ENDBRANCH  26  29
ENDBRANCH  11  23
TORSDOF 6
ENDMDL
MODEL 5
REMARK minimizedAffinity -8.59383869
REMARK  6 active torsions:
REMARK  status: ('A' for Active; 'I' for Inactive)
REMARK    1  A    between atoms: C6_8  and  C7_9 
REMARK    2  A    between atoms: C10_12  and  O1_13 
REMARK    3  A    between atoms: O1_13  and  C11_14 
REMARK    4  A    between atoms: C18_22  and  C19_23 
REMARK    5  A    between atoms: C22_26  and  O2_27 
REMARK    6  A    between atoms: O2_27  and  C23_28 
ROOT
HETATM    1  C1  UNL     1       0.363  54.247 -25.897  1.00  0.00     0.049 C 
HETATM    2  C2  UNL     1       0.367  53.700 -24.496  1.00  0.00    -0.046 A 
HETATM    3  C3  UNL     1       1.098  54.284 -23.521  1.00  0.00     0.056 A 
HETATM    4  C4  UNL     1       1.098  53.757 -22.201  1.00  0.00     0.112 A 
HETATM    5  N1  UNL     1       1.741  54.145 -21.122  1.00  0.00    -0.350 N 
ATOM      6  H1  UNL     1       2.384  54.932 -21.032  1.00  0.00     0.166 HD
HETATM    7  C5  UNL     1       1.363  53.262 -20.146  1.00  0.00     0.120 A 
HETATM    8  C6  UNL     1       0.465  52.323 -20.618  1.00  0.00     0.066 A 
HETATM    9  N2  UNL     1       0.311  52.636 -21.960  1.00  0.00    -0.305 N 
HETATM   10  C17 UNL     1      -0.442  52.010 -22.954  1.00  0.00     0.112 A 
HETATM   11  C18 UNL     1      -0.443  52.500 -24.211  1.00  0.00    -0.004 A 
ENDROOT
BRANCH   8  12
HETATM   12  C7  UNL     1      -0.183  51.220 -19.920  1.00  0.00    -0.007 A 
HETATM   13  C8  UNL     1      -0.655  51.378 -18.611  1.00  0.00     0.016 A 
HETATM   14  C9  UNL     1      -1.267  50.313 -17.946  1.00  0.00     0.037 A 
HETATM   15  C10 UNL     1      -1.378  49.075 -18.575  1.00  0.00     0.069 A 
HETATM   16  C15 UNL     1      -0.944  48.916 -19.889  1.00  0.00     0.037 A 
HETATM   17  C16 UNL     1      -0.332  49.981 -20.555  1.00  0.00     0.016 A 
BRANCH  15  18
HETATM   18  O1  UNL     1      -2.026  48.048 -17.953  1.00  0.00    -0.341 OA
BRANCH  18  19
HETATM   19  C11 UNL     1      -3.409  47.834 -18.320  1.00  0.00     0.057 C 
HETATM   20  C12 UNL     1      -4.051  49.092 -18.921  1.00  0.00     0.045 C 
HETATM   21  C13 UNL     1      -3.349  46.756 -19.416  1.00  0.00     0.045 C 
HETATM   22  C14 UNL     1      -4.261  47.290 -17.164  1.00  0.00     0.045 C 
ENDBRANCH  18  19
ENDBRANCH  15  18
ENDBRANCH   8  12
BRANCH  11  23
HETATM   23  C19 UNL     1      -1.261  51.787 -25.206  1.00  0.00    -0.024 A 
HETATM   24  C20 UNL     1      -0.738  50.687 -25.892  1.00  0.00     0.015 A 
HETATM   25  C21 UNL     1      -1.523  50.010 -26.829  1.00  0.00     0.037 A 
HETATM   26  C22 UNL     1      -2.832  50.419 -27.098  1.00  0.00     0.069 A 
HETATM   27  C26 UNL     1      -3.356  51.513 -26.409  1.00  0.00     0.037 A 
HETATM   28  C27 UNL     1      -2.574  52.193 -25.468  1.00  0.00     0.015 A 
BRANCH  26  29
HETATM   29  O2  UNL     1      -3.479  49.660 -28.031  1.00  0.00    -0.347 OA
BRANCH  29  30
HETATM   30  C23 UNL     1      -3.975  48.370 -27.665  1.00  0.00     0.120 C 
HETATM   31  C24 UNL     1      -4.483  48.487 -26.229  1.00  0.00     0.040 C 
HETATM   32  C25 UNL     1      -5.122  47.972 -28.590  1.00  0.00     0.040 C 
ENDBRANCH  29  30
ENDBRANCH  26  29
ENDBRANCH  11  23
TORSDOF 6
ENDMDL
MODEL 6
REMARK minimizedAffinity -8.5777092
REMARK  6 active torsions:
REMARK  status: ('A' for Active; 'I' for Inactive)
REMARK    1  A    between atoms: C6_8  and  C7_9 
REMARK    2  A    between atoms: C10_12  and  O1_13 
REMARK    3  A    between atoms: O1_13  and  C11_14 
REMARK    4  A    between atoms: C18_22  and  C19_23 
REMARK    5  A    between atoms: C22_26  and  O2_27 
REMARK    6  A    between atoms: O2_27  and  C23_28 
ROOT
HETATM    1  C1  UNL     1       1.627  54.279 -22.818  1.00  0.00     0.049 C 
HETATM    2  C2  UNL     1       0.506  53.543 -23.498  1.00  0.00    -0.046 A 
HETATM    3  C3  UNL     1       0.239  53.735 -24.809  1.00  0.00     0.056 A 
HETATM    4  C4  UNL     1      -0.825  53.037 -25.441  1.00  0.00     0.112 A 
HETATM    5  N1  UNL     1      -1.269  53.087 -26.678  1.00  0.00    -0.350 N 
ATOM      6  H1  UNL     1      -0.911  53.660 -27.443  1.00  0.00     0.166 HD
HETATM    7  C5  UNL     1      -2.316  52.205 -26.716  1.00  0.00     0.120 A 
HETATM    8  C6  UNL     1      -2.518  51.590 -25.494  1.00  0.00     0.066 A 
HETATM    9  N2  UNL     1      -1.559  52.149 -24.663  1.00  0.00    -0.305 N 
HETATM   10  C17 UNL     1      -1.308  51.943 -23.306  1.00  0.00     0.112 A 
HETATM   11  C18 UNL     1      -0.304  52.606 -22.696  1.00  0.00    -0.004 A 
ENDROOT
BRANCH   8  12
HETATM   12  C7  UNL     1      -3.510  50.596 -25.105  1.00  0.00    -0.007 A 
HETATM   13  C8  UNL     1      -4.603  50.949 -24.304  1.00  0.00     0.016 A 
HETATM   14  C9  UNL     1      -5.544  49.987 -23.927  1.00  0.00     0.037 A 
HETATM   15  C10 UNL     1      -5.376  48.662 -24.321  1.00  0.00     0.069 A 
HETATM   16  C15 UNL     1      -4.312  48.307 -25.148  1.00  0.00     0.037 A 
HETATM   17  C16 UNL     1      -3.371  49.267 -25.524  1.00  0.00     0.016 A 
BRANCH  15  18
HETATM   18  O1  UNL     1      -6.322  47.730 -24.006  1.00  0.00    -0.341 OA
BRANCH  18  19
HETATM   19  C11 UNL     1      -7.432  47.594 -24.923  1.00  0.00     0.057 C 
HETATM   20  C12 UNL     1      -6.973  47.542 -26.387  1.00  0.00     0.045 C 
HETATM   21  C13 UNL     1      -8.054  46.233 -24.568  1.00  0.00     0.045 C 
HETATM   22  C14 UNL     1      -8.508  48.674 -24.730  1.00  0.00     0.045 C 
ENDBRANCH  18  19
ENDBRANCH  15  18
ENDBRANCH   8  12
BRANCH  11  23
HETATM   23  C19 UNL     1      -0.100  52.338 -21.263  1.00  0.00    -0.024 A 
HETATM   24  C20 UNL     1      -0.217  51.038 -20.763  1.00  0.00     0.015 A 
HETATM   25  C21 UNL     1      -0.014  50.790 -19.404  1.00  0.00     0.037 A 
HETATM   26  C22 UNL     1       0.304  51.829 -18.525  1.00  0.00     0.069 A 
HETATM   27  C26 UNL     1       0.428  53.126 -19.024  1.00  0.00     0.037 A 
HETATM   28  C27 UNL     1       0.226  53.379 -20.387  1.00  0.00     0.015 A 
BRANCH  26  29
HETATM   29  O2  UNL     1       0.479  51.437 -17.229  1.00  0.00    -0.347 OA
BRANCH  29  30
HETATM   30  C23 UNL     1       1.110  52.329 -16.305  1.00  0.00     0.120 C 
HETATM   31  C24 UNL     1       0.669  51.896 -14.908  1.00  0.00     0.040 C 
HETATM   32  C25 UNL     1       2.627  52.218 -16.427  1.00  0.00     0.040 C 
ENDBRANCH  29  30
ENDBRANCH  26  29
ENDBRANCH  11  23
TORSDOF 6
ENDMDL
MODEL 7
REMARK minimizedAffinity -8.40681744
REMARK  6 active torsions:
REMARK  status: ('A' for Active; 'I' for Inactive)
REMARK    1  A    between atoms: C6_8  and  C7_9 
REMARK    2  A    between atoms: C10_12  and  O1_13 
REMARK    3  A    between atoms: O1_13  and  C11_14 
REMARK    4  A    between atoms: C18_22  and  C19_23 
REMARK    5  A    between atoms: C22_26  and  O2_27 
REMARK    6  A    between atoms: O2_27  and  C23_28 
ROOT
HETATM    1  C1  UNL     1       1.306  53.312 -20.092  1.00  0.00     0.049 C 
HETATM    2  C2  UNL     1       0.069  52.488 -19.860  1.00  0.00    -0.046 A 
HETATM    3  C3  UNL     1      -0.360  52.211 -18.609  1.00  0.00     0.056 A 
HETATM    4  C4  UNL     1      -1.528  51.429 -18.401  1.00  0.00     0.112 A 
HETATM    5  N1  UNL     1      -2.103  51.025 -17.290  1.00  0.00    -0.350 N 
ATOM      6  H1  UNL     1      -1.804  51.212 -16.332  1.00  0.00     0.166 HD
HETATM    7  C5  UNL     1      -3.191  50.298 -17.696  1.00  0.00     0.120 A 
HETATM    8  C6  UNL     1      -3.301  50.259 -19.074  1.00  0.00     0.066 A 
HETATM    9  N2  UNL     1      -2.206  50.979 -19.528  1.00  0.00    -0.305 N 
HETATM   10  C17 UNL     1      -1.775  51.243 -20.828  1.00  0.00     0.112 A 
HETATM   11  C18 UNL     1      -0.664  51.980 -21.036  1.00  0.00    -0.004 A 
ENDROOT
BRANCH   8  12
HETATM   12  C7  UNL     1      -4.300  49.608 -19.911  1.00  0.00    -0.007 A 
HETATM   13  C8  UNL     1      -5.464  50.285 -20.297  1.00  0.00     0.016 A 
HETATM   14  C9  UNL     1      -6.421  49.649 -21.092  1.00  0.00     0.037 A 
HETATM   15  C10 UNL     1      -6.235  48.323 -21.474  1.00  0.00     0.069 A 
HETATM   16  C15 UNL     1      -5.065  47.652 -21.126  1.00  0.00     0.037 A 
HETATM   17  C16 UNL     1      -4.108  48.286 -20.331  1.00  0.00     0.016 A 
BRANCH  15  18
HETATM   18  O1  UNL     1      -7.137  47.716 -22.298  1.00  0.00    -0.341 OA
BRANCH  18  19
HETATM   19  C11 UNL     1      -6.989  47.958 -23.716  1.00  0.00     0.057 C 
HETATM   20  C12 UNL     1      -7.496  46.782 -24.562  1.00  0.00     0.045 C 
HETATM   21  C13 UNL     1      -7.894  49.171 -23.992  1.00  0.00     0.045 C 
HETATM   22  C14 UNL     1      -5.554  48.334 -24.116  1.00  0.00     0.045 C 
ENDBRANCH  18  19
ENDBRANCH  15  18
ENDBRANCH   8  12
BRANCH  11  23
HETATM   23  C19 UNL     1      -0.269  52.217 -22.434  1.00  0.00    -0.024 A 
HETATM   24  C20 UNL     1       0.548  53.302 -22.764  1.00  0.00     0.015 A 
HETATM   25  C21 UNL     1       0.925  53.516 -24.092  1.00  0.00     0.037 A 
HETATM   26  C22 UNL     1       0.491  52.658 -25.107  1.00  0.00     0.069 A 
HETATM   27  C26 UNL     1      -0.320  51.572 -24.778  1.00  0.00     0.037 A 
HETATM   28  C27 UNL     1      -0.698  51.353 -23.447  1.00  0.00     0.015 A 
BRANCH  26  29
HETATM   29  O2  UNL     1       0.942  52.988 -26.353  1.00  0.00    -0.347 OA
BRANCH  29  30
HETATM   30  C23 UNL     1       0.234  52.516 -27.503  1.00  0.00     0.120 C 
HETATM   31  C24 UNL     1      -0.418  53.739 -28.148  1.00  0.00     0.040 C 
HETATM   32  C25 UNL     1       1.207  51.870 -28.485  1.00  0.00     0.040 C 
ENDBRANCH  29  30
ENDBRANCH  26  29
ENDBRANCH  11  23
TORSDOF 6
ENDMDL
MODEL 8
REMARK minimizedAffinity -8.40041542
REMARK  6 active torsions:
REMARK  status: ('A' for Active; 'I' for Inactive)
REMARK    1  A    between atoms: C6_8  and  C7_9 
REMARK    2  A    between atoms: C10_12  and  O1_13 
REMARK    3  A    between atoms: O1_13  and  C11_14 
REMARK    4  A    between atoms: C18_22  and  C19_23 
REMARK    5  A    between atoms: C22_26  and  O2_27 
REMARK    6  A    between atoms: O2_27  and  C23_28 
ROOT
HETATM    1  C1  UNL     1      -3.160  48.884 -26.508  1.00  0.00     0.049 C 
HETATM    2  C2  UNL     1      -2.326  49.722 -25.579  1.00  0.00    -0.046 A 
HETATM    3  C3  UNL     1      -1.347  50.525 -26.053  1.00  0.00     0.056 A 
HETATM    4  C4  UNL     1      -0.562  51.310 -25.166  1.00  0.00     0.112 A 
HETATM    5  N1  UNL     1       0.439  52.129 -25.402  1.00  0.00    -0.350 N 
ATOM      6  H1  UNL     1       0.849  52.362 -26.306  1.00  0.00     0.166 HD
HETATM    7  C5  UNL     1       0.811  52.600 -24.171  1.00  0.00     0.120 A 
HETATM    8  C6  UNL     1       0.026  52.078 -23.159  1.00  0.00     0.066 A 
HETATM    9  N2  UNL     1      -0.853  51.225 -23.808  1.00  0.00    -0.305 N 
HETATM   10  C17 UNL     1      -1.850  50.394 -23.297  1.00  0.00     0.112 A 
HETATM   11  C18 UNL     1      -2.596  49.641 -24.131  1.00  0.00    -0.004 A 
ENDROOT
BRANCH   8  12
HETATM   12  C7  UNL     1       0.080  52.316 -21.723  1.00  0.00    -0.007 A 
HETATM   13  C8  UNL     1       1.006  53.215 -21.178  1.00  0.00     0.016 A 
HETATM   14  C9  UNL     1       1.057  53.428 -19.799  1.00  0.00     0.037 A 
HETATM   15  C10 UNL     1       0.206  52.719 -18.955  1.00  0.00     0.069 A 
HETATM   16  C15 UNL     1      -0.744  51.850 -19.488  1.00  0.00     0.037 A 
HETATM   17  C16 UNL     1      -0.795  51.635 -20.867  1.00  0.00     0.016 A 
BRANCH  15  18
HETATM   18  O1  UNL     1       0.210  52.967 -17.613  1.00  0.00    -0.341 OA
BRANCH  18  19
HETATM   19  C11 UNL     1       1.039  52.109 -16.795  1.00  0.00     0.057 C 
HETATM   20  C12 UNL     1       0.688  52.213 -15.305  1.00  0.00     0.045 C 
HETATM   21  C13 UNL     1       0.699  50.686 -17.270  1.00  0.00     0.045 C 
HETATM   22  C14 UNL     1       2.542  52.338 -17.015  1.00  0.00     0.045 C 
ENDBRANCH  18  19
ENDBRANCH  15  18
ENDBRANCH   8  12
BRANCH  11  23
HETATM   23  C19 UNL     1      -3.629  48.789 -23.519  1.00  0.00    -0.024 A 
HETATM   24  C20 UNL     1      -4.900  48.695 -24.093  1.00  0.00     0.015 A 
HETATM   25  C21 UNL     1      -5.873  47.879 -23.511  1.00  0.00     0.037 A 
HETATM   26  C22 UNL     1      -5.596  47.150 -22.352  1.00  0.00     0.069 A 
HETATM   27  C26 UNL     1      -4.326  47.237 -21.781  1.00  0.00     0.037 A 
HETATM   28  C27 UNL     1      -3.348  48.054 -22.362  1.00  0.00     0.015 A 
BRANCH  26  29
HETATM   29  O2  UNL     1      -6.639  46.392 -21.901  1.00  0.00    -0.347 OA
BRANCH  29  30
HETATM   30  C23 UNL     1      -7.835  47.039 -21.455  1.00  0.00     0.120 C 
HETATM   31  C24 UNL     1      -7.397  48.259 -20.646  1.00  0.00     0.040 C 
HETATM   32  C25 UNL     1      -8.665  47.482 -22.656  1.00  0.00     0.040 C 
ENDBRANCH  29  30
ENDBRANCH  26  29
ENDBRANCH  11  23
TORSDOF 6
ENDMDL
MODEL 9
REMARK minimizedAffinity -8.39043522
REMARK  6 active torsions:
REMARK  status: ('A' for Active; 'I' for Inactive)
REMARK    1  A    between atoms: C6_8  and  C7_9 
REMARK    2  A    between atoms: C10_12  and  O1_13 
REMARK    3  A    between atoms: O1_13  and  C11_14 
REMARK    4  A    between atoms: C18_22  and  C19_23 
REMARK    5  A    between atoms: C22_26  and  O2_27 
REMARK    6  A    between atoms: O2_27  and  C23_28 
ROOT
HETATM    1  C1  UNL     1      -0.229  53.153 -26.488  1.00  0.00     0.049 C 
HETATM    2  C2  UNL     1       0.011  53.043 -25.007  1.00  0.00    -0.046 A 
HETATM    3  C3  UNL     1       0.788  53.937 -24.357  1.00  0.00     0.056 A 
HETATM    4  C4  UNL     1       1.011  53.821 -22.959  1.00  0.00     0.112 A 
HETATM    5  N1  UNL     1       1.737  54.552 -22.142  1.00  0.00    -0.350 N 
ATOM      6  H1  UNL     1       2.294  55.375 -22.375  1.00  0.00     0.166 HD
HETATM    7  C5  UNL     1       1.585  53.970 -20.912  1.00  0.00     0.120 A 
HETATM    8  C6  UNL     1       0.744  52.873 -20.960  1.00  0.00     0.066 A 
HETATM    9  N2  UNL     1       0.390  52.768 -22.297  1.00  0.00    -0.305 N 
HETATM   10  C17 UNL     1      -0.407  51.827 -22.949  1.00  0.00     0.112 A 
HETATM   11  C18 UNL     1      -0.619  51.925 -24.278  1.00  0.00    -0.004 A 
ENDROOT
BRANCH   8  12
HETATM   12  C7  UNL     1       0.315  51.981 -19.892  1.00  0.00    -0.007 A 
HETATM   13  C8  UNL     1      -0.256  50.735 -20.183  1.00  0.00     0.016 A 
HETATM   14  C9  UNL     1      -0.674  49.890 -19.152  1.00  0.00     0.037 A 
HETATM   15  C10 UNL     1      -0.553  50.302 -17.827  1.00  0.00     0.069 A 
HETATM   16  C15 UNL     1       0.047  51.522 -17.524  1.00  0.00     0.037 A 
HETATM   17  C16 UNL     1       0.464  52.367 -18.554  1.00  0.00     0.016 A 
BRANCH  15  18
HETATM   18  O1  UNL     1      -0.904  49.457 -16.814  1.00  0.00    -0.341 OA
BRANCH  18  19
HETATM   19  C11 UNL     1      -2.265  49.548 -16.333  1.00  0.00     0.057 C 
HETATM   20  C12 UNL     1      -2.868  48.168 -16.034  1.00  0.00     0.045 C 
HETATM   21  C13 UNL     1      -2.149  50.317 -15.006  1.00  0.00     0.045 C 
HETATM   22  C14 UNL     1      -3.182  50.349 -17.269  1.00  0.00     0.045 C 
ENDBRANCH  18  19
ENDBRANCH  15  18
ENDBRANCH   8  12
BRANCH  11  23
HETATM   23  C19 UNL     1      -1.470  50.896 -24.897  1.00  0.00    -0.024 A 
HETATM   24  C20 UNL     1      -1.433  50.685 -26.278  1.00  0.00     0.015 A 
HETATM   25  C21 UNL     1      -2.237  49.701 -26.858  1.00  0.00     0.037 A 
HETATM   26  C22 UNL     1      -3.090  48.919 -26.074  1.00  0.00     0.069 A 
HETATM   27  C26 UNL     1      -3.124  49.125 -24.695  1.00  0.00     0.037 A 
HETATM   28  C27 UNL     1      -2.318  50.109 -24.110  1.00  0.00     0.015 A 
BRANCH  26  29
HETATM   29  O2  UNL     1      -3.811  47.995 -26.776  1.00  0.00    -0.347 OA
BRANCH  29  30
HETATM   30  C23 UNL     1      -5.064  48.374 -27.353  1.00  0.00     0.120 C 
HETATM   31  C24 UNL     1      -5.019  47.943 -28.819  1.00  0.00     0.040 C 
HETATM   32  C25 UNL     1      -6.204  47.657 -26.636  1.00  0.00     0.040 C 
ENDBRANCH  29  30
ENDBRANCH  26  29
ENDBRANCH  11  23
TORSDOF 6
ENDMDL
