MODEL 1
REMARK minimizedAffinity -7.15360117
REMARK CNNscore 0.309492916
REMARK CNNaffinity 6.72096014
REMARK  9 active torsions:
REMARK  status: ('A' for Active; 'I' for Inactive)
REMARK    1  A    between atoms: O1_2  and  C2_3 
REMARK    2  A    between atoms: C2_3  and  C3_4 
REMARK    3  A    between atoms: C3_4  and  C4_5 
REMARK    4  A    between atoms: C4_5  and  O2_6 
REMARK    5  A    between atoms: O2_6  and  C5_7 
REMARK    6  A    between atoms: C15_18  and  O4_19 
REMARK    7  A    between atoms: C21_25  and  O5_27 
REMARK    8  A    between atoms: C23_28  and  O6_29 
REMARK    9  A    between atoms: C29_37  and  O8_38 
ROOT
HETATM    1  C5  UNL     1     -18.672  -8.004   6.488  1.00  0.00     0.122 C 
HETATM    2  C6  UNL     1     -18.414  -9.090   7.549  1.00  0.00     0.033 C 
HETATM    3  C7  UNL     1     -17.948  -8.524   8.890  1.00  0.00     0.014 C 
HETATM    4  C8  UNL     1     -16.625  -7.679   8.776  1.00  0.00    -0.010 C 
HETATM    5  C9  UNL     1     -15.466  -8.717   8.738  1.00  0.00     0.018 C 
HETATM    6  C10 UNL     1     -16.546  -6.990   7.370  1.00  0.00     0.073 C 
HETATM    7  C11 UNL     1     -17.927  -6.692   6.780  1.00  0.00     0.045 C 
HETATM    8  C12 UNL     1     -15.596  -5.806   7.249  1.00  0.00     0.161 C 
HETATM    9  O3  UNL     1     -15.271  -5.381   6.137  1.00  0.00    -0.292 OA
HETATM   10  C13 UNL     1     -15.054  -5.132   8.463  1.00  0.00    -0.005 C 
HETATM   11  C14 UNL     1     -15.486  -5.500   9.686  1.00  0.00    -0.013 C 
HETATM   12  C15 UNL     1     -15.153  -4.589  10.837  1.00  0.00     0.095 C 
HETATM   13  C16 UNL     1     -13.920  -3.704  10.685  1.00  0.00     0.026 C 
HETATM   14  C17 UNL     1     -13.989  -2.930   9.380  1.00  0.00     0.013 C 
HETATM   15  C18 UNL     1     -14.153  -3.925   8.206  1.00  0.00     0.043 C 
HETATM   16  C19 UNL     1     -13.896  -2.928  12.025  1.00  0.00     0.016 C 
HETATM   17  C20 UNL     1     -14.812  -3.751  13.021  1.00  0.00     0.034 C 
HETATM   18  C21 UNL     1     -14.567  -3.510  14.548  1.00  0.00     0.087 C 
HETATM   19  C22 UNL     1     -13.058  -3.465  14.899  1.00  0.00     0.049 C 
HETATM   20  C23 UNL     1     -15.207  -2.134  15.051  1.00  0.00     0.181 C 
HETATM   21  C24 UNL     1     -16.751  -1.900  15.252  1.00  0.00     0.158 C 
HETATM   22  O7  UNL     1     -16.916  -0.421  15.322  1.00  0.00    -0.373 OA
HETATM   23  C25 UNL     1     -17.312   0.048  13.985  1.00  0.00     0.185 C 
HETATM   24  C26 UNL     1     -17.363  -1.212  13.122  1.00  0.00     0.028 C 
HETATM   25  C27 UNL     1     -18.193  -1.018  11.870  1.00  0.00     0.053 C 
HETATM   26  C28 UNL     1     -19.632  -0.597  12.148  1.00  0.00     0.309 C 
HETATM   27  N1  UNL     1     -19.824  -0.024  13.503  1.00  0.00     0.128 N 
HETATM   28  C29 UNL     1     -18.699   0.787  13.963  1.00  0.00     0.384 C 
HETATM   29  C30 UNL     1     -20.562  -1.808  11.860  1.00  0.00     0.233 C 
HETATM   30  O9  UNL     1     -21.241  -2.389  12.700  1.00  0.00    -0.277 OA
HETATM   31  N2  UNL     1     -20.550  -2.120  10.487  1.00  0.00    -0.243 NA
HETATM   32  C31 UNL     1     -21.682  -2.757   9.888  1.00  0.00     0.120 A 
HETATM   33  C32 UNL     1     -20.344  -3.431   9.921  1.00  0.00     0.090 A 
HETATM   34  C33 UNL     1     -20.202  -4.710  10.688  1.00  0.00     0.115 C 
HETATM   35  C34 UNL     1     -18.914  -5.316  10.282  1.00  0.00    -0.104 C 
HETATM   36  C35 UNL     1     -17.863  -5.873  10.071  1.00  0.00    -0.090 C 
HETATM   37  C36 UNL     1     -16.523  -6.596   9.979  1.00  0.00     0.062 C 
HETATM   38  C37 UNL     1     -16.242  -7.182  11.453  1.00  0.00     0.012 C 
HETATM   39  C38 UNL     1     -14.940  -8.004  11.597  1.00  0.00     0.007 C 
HETATM   40  C39 UNL     1     -14.024  -7.538  12.712  1.00  0.00     0.001 C 
HETATM   41  C40 UNL     1     -13.712  -6.056  12.519  1.00  0.00     0.013 C 
HETATM   42  C41 UNL     1     -14.970  -5.158  12.295  1.00  0.00     0.002 C 
HETATM   43  C42 UNL     1     -16.216  -6.034  12.531  1.00  0.00     0.020 C 
HETATM   44  C43 UNL     1     -17.791  -2.209  14.195  1.00  0.00     0.020 C 
HETATM   45  C44 UNL     1     -18.088  -3.645  13.882  1.00  0.00     0.013 C 
HETATM   46  H42 UNL     1     -20.683   0.519  13.518  1.00  0.00     0.320 HD
ENDROOT
BRANCH   1  47
HETATM   47  O2  UNL     1     -18.195  -8.495   5.228  1.00  0.00    -0.386 OA
BRANCH  47  48
HETATM   48  C4  UNL     1     -19.213  -8.934   4.339  1.00  0.00     0.170 C 
BRANCH  48  49
HETATM   49  C3  UNL     1     -20.449  -8.034   4.360  1.00  0.00     0.052 C 
BRANCH  49  50
HETATM   50  C2  UNL     1     -20.946  -7.685   2.960  1.00  0.00     0.169 C 
BRANCH  50  51
HETATM   51  O1  UNL     1     -22.058  -6.797   3.063  1.00  0.00    -0.396 OA
HETATM   52  C1  UNL     1     -22.968  -6.962   1.983  1.00  0.00     0.201 C 
ENDBRANCH  50  51
ENDBRANCH  49  50
ENDBRANCH  48  49
ENDBRANCH  47  48
ENDBRANCH   1  47
BRANCH  12  53
HETATM   53  O4  UNL     1     -16.283  -3.666  10.846  1.00  0.00    -0.384 OA
HETATM   54  H21 UNL     1     -16.590  -3.525   9.937  1.00  0.00     0.211 HD
ENDBRANCH  12  53
BRANCH  18  55
HETATM   55  O5  UNL     1     -15.137  -4.585  15.296  1.00  0.00    -0.387 OA
HETATM   56  H33 UNL     1     -15.034  -4.338  16.235  1.00  0.00     0.210 HD
ENDBRANCH  18  55
BRANCH  20  57
HETATM   57  O6  UNL     1     -14.652  -1.856  16.369  1.00  0.00    -0.390 OA
HETATM   58  H35 UNL     1     -15.036  -0.993  16.633  1.00  0.00     0.210 HD
ENDBRANCH  20  57
BRANCH  28  59
HETATM   59  O8  UNL     1     -18.611   1.916  13.108  1.00  0.00    -0.366 OA
HETATM   60  H44 UNL     1     -18.878   2.685  13.638  1.00  0.00     0.212 HD
ENDBRANCH  28  59
TORSDOF 9
ENDMDL
MODEL 2
REMARK minimizedAffinity -6.31639194
REMARK CNNscore 0.305799782
REMARK CNNaffinity 7.00157976
REMARK  9 active torsions:
REMARK  status: ('A' for Active; 'I' for Inactive)
REMARK    1  A    between atoms: O1_2  and  C2_3 
REMARK    2  A    between atoms: C2_3  and  C3_4 
REMARK    3  A    between atoms: C3_4  and  C4_5 
REMARK    4  A    between atoms: C4_5  and  O2_6 
REMARK    5  A    between atoms: O2_6  and  C5_7 
REMARK    6  A    between atoms: C15_18  and  O4_19 
REMARK    7  A    between atoms: C21_25  and  O5_27 
REMARK    8  A    between atoms: C23_28  and  O6_29 
REMARK    9  A    between atoms: C29_37  and  O8_38 
ROOT
HETATM    1  C5  UNL     1      -4.732  17.992   1.700  1.00  0.00     0.122 C 
HETATM    2  C6  UNL     1      -3.942  19.243   2.128  1.00  0.00     0.033 C 
HETATM    3  C7  UNL     1      -2.433  19.097   1.938  1.00  0.00     0.014 C 
HETATM    4  C8  UNL     1      -1.825  17.884   2.734  1.00  0.00    -0.010 C 
HETATM    5  C9  UNL     1      -1.658  18.384   4.199  1.00  0.00     0.018 C 
HETATM    6  C10 UNL     1      -2.887  16.737   2.858  1.00  0.00     0.073 C 
HETATM    7  C11 UNL     1      -3.875  16.716   1.689  1.00  0.00     0.045 C 
HETATM    8  C12 UNL     1      -2.349  15.350   3.187  1.00  0.00     0.161 C 
HETATM    9  O3  UNL     1      -3.116  14.460   3.564  1.00  0.00    -0.292 OA
HETATM   10  C13 UNL     1      -0.898  15.038   3.047  1.00  0.00    -0.005 C 
HETATM   11  C14 UNL     1      -0.061  15.956   2.524  1.00  0.00    -0.013 C 
HETATM   12  C15 UNL     1       1.309  15.485   2.116  1.00  0.00     0.095 C 
HETATM   13  C16 UNL     1       1.858  14.252   2.828  1.00  0.00     0.026 C 
HETATM   14  C17 UNL     1       0.849  13.118   2.762  1.00  0.00     0.013 C 
HETATM   15  C18 UNL     1      -0.496  13.597   3.358  1.00  0.00     0.043 C 
HETATM   16  C19 UNL     1       3.246  14.071   2.165  1.00  0.00     0.016 C 
HETATM   17  C20 UNL     1       3.587  15.459   1.483  1.00  0.00     0.034 C 
HETATM   18  C21 UNL     1       5.100  15.738   1.198  1.00  0.00     0.087 C 
HETATM   19  C22 UNL     1       6.005  15.328   2.388  1.00  0.00     0.049 C 
HETATM   20  C23 UNL     1       5.627  14.945  -0.087  1.00  0.00     0.181 C 
HETATM   21  C24 UNL     1       5.267  15.330  -1.570  1.00  0.00     0.158 C 
HETATM   22  O7  UNL     1       5.615  14.129  -2.381  1.00  0.00    -0.373 OA
HETATM   23  C25 UNL     1       4.379  13.355  -2.586  1.00  0.00     0.185 C 
HETATM   24  C26 UNL     1       3.293  14.143  -1.855  1.00  0.00     0.028 C 
HETATM   25  C27 UNL     1       1.902  13.784  -2.335  1.00  0.00     0.053 C 
HETATM   26  C28 UNL     1       1.695  14.000  -3.831  1.00  0.00     0.309 C 
HETATM   27  N1  UNL     1       2.965  14.073  -4.594  1.00  0.00     0.128 N 
HETATM   28  C29 UNL     1       4.000  13.167  -4.099  1.00  0.00     0.384 C 
HETATM   29  C30 UNL     1       0.794  15.251  -4.025  1.00  0.00     0.233 C 
HETATM   30  O9  UNL     1       1.145  16.293  -4.569  1.00  0.00    -0.277 OA
HETATM   31  N2  UNL     1      -0.500  15.006  -3.527  1.00  0.00    -0.243 NA
HETATM   32  C31 UNL     1      -1.620  15.711  -4.068  1.00  0.00     0.120 A 
HETATM   33  C32 UNL     1      -1.235  15.863  -2.628  1.00  0.00     0.090 A 
HETATM   34  C33 UNL     1      -0.797  17.210  -2.140  1.00  0.00     0.115 C 
HETATM   35  C34 UNL     1      -0.806  17.157  -0.660  1.00  0.00    -0.104 C 
HETATM   36  C35 UNL     1      -0.721  17.211   0.544  1.00  0.00    -0.090 C 
HETATM   37  C36 UNL     1      -0.457  17.360   2.039  1.00  0.00     0.062 C 
HETATM   38  C37 UNL     1       0.827  18.323   2.161  1.00  0.00     0.012 C 
HETATM   39  C38 UNL     1       1.264  18.657   3.607  1.00  0.00     0.007 C 
HETATM   40  C39 UNL     1       2.721  18.364   3.906  1.00  0.00     0.001 C 
HETATM   41  C40 UNL     1       3.019  16.904   3.573  1.00  0.00     0.013 C 
HETATM   42  C41 UNL     1       2.546  16.460   2.152  1.00  0.00     0.002 C 
HETATM   43  C42 UNL     1       2.070  17.721   1.404  1.00  0.00     0.020 C 
HETATM   44  C43 UNL     1       3.851  15.549  -2.059  1.00  0.00     0.020 C 
HETATM   45  C44 UNL     1       3.118  16.775  -1.604  1.00  0.00     0.013 C 
HETATM   46  H42 UNL     1       2.776  13.893  -5.576  1.00  0.00     0.320 HD
ENDROOT
BRANCH   1  47
HETATM   47  O2  UNL     1      -5.788  17.790   2.648  1.00  0.00    -0.386 OA
BRANCH  47  48
HETATM   48  C4  UNL     1      -6.344  16.481   2.647  1.00  0.00     0.170 C 
BRANCH  48  49
HETATM   49  C3  UNL     1      -7.684  16.406   1.914  1.00  0.00     0.052 C 
BRANCH  49  50
HETATM   50  C2  UNL     1      -8.190  14.974   1.761  1.00  0.00     0.169 C 
BRANCH  50  51
HETATM   51  O1  UNL     1      -8.868  14.846   0.512  1.00  0.00    -0.396 OA
HETATM   52  C1  UNL     1     -10.087  15.579   0.496  1.00  0.00     0.201 C 
ENDBRANCH  50  51
ENDBRANCH  49  50
ENDBRANCH  48  49
ENDBRANCH  47  48
ENDBRANCH   1  47
BRANCH  12  53
HETATM   53  O4  UNL     1       1.100  15.063   0.735  1.00  0.00    -0.384 OA
HETATM   54  H21 UNL     1       0.203  14.704   0.641  1.00  0.00     0.211 HD
ENDBRANCH  12  53
BRANCH  18  55
HETATM   55  O5  UNL     1       5.294  17.137   0.989  1.00  0.00    -0.387 OA
HETATM   56  H33 UNL     1       6.230  17.238   0.729  1.00  0.00     0.210 HD
ENDBRANCH  18  55
BRANCH  20  57
HETATM   57  O6  UNL     1       7.083  15.010  -0.068  1.00  0.00    -0.390 OA
HETATM   58  H35 UNL     1       7.374  14.489  -0.845  1.00  0.00     0.210 HD
ENDBRANCH  20  57
BRANCH  28  59
HETATM   59  O8  UNL     1       3.537  11.842  -4.301  1.00  0.00    -0.366 OA
HETATM   60  H44 UNL     1       4.089  11.460  -5.005  1.00  0.00     0.212 HD
ENDBRANCH  28  59
TORSDOF 9
ENDMDL
MODEL 3
REMARK minimizedAffinity -6.33282423
REMARK CNNscore 0.282514662
REMARK CNNaffinity 6.47161674
REMARK  9 active torsions:
REMARK  status: ('A' for Active; 'I' for Inactive)
REMARK    1  A    between atoms: O1_2  and  C2_3 
REMARK    2  A    between atoms: C2_3  and  C3_4 
REMARK    3  A    between atoms: C3_4  and  C4_5 
REMARK    4  A    between atoms: C4_5  and  O2_6 
REMARK    5  A    between atoms: O2_6  and  C5_7 
REMARK    6  A    between atoms: C15_18  and  O4_19 
REMARK    7  A    between atoms: C21_25  and  O5_27 
REMARK    8  A    between atoms: C23_28  and  O6_29 
REMARK    9  A    between atoms: C29_37  and  O8_38 
ROOT
HETATM    1  C5  UNL     1       2.882  14.523  -3.141  1.00  0.00     0.122 C 
HETATM    2  C6  UNL     1       4.120  13.807  -2.571  1.00  0.00     0.033 C 
HETATM    3  C7  UNL     1       4.370  14.118  -1.096  1.00  0.00     0.014 C 
HETATM    4  C8  UNL     1       4.566  15.654  -0.815  1.00  0.00    -0.010 C 
HETATM    5  C9  UNL     1       6.042  15.967  -1.198  1.00  0.00     0.018 C 
HETATM    6  C10 UNL     1       3.734  16.499  -1.841  1.00  0.00     0.073 C 
HETATM    7  C11 UNL     1       2.483  15.767  -2.332  1.00  0.00     0.045 C 
HETATM    8  C12 UNL     1       3.447  17.943  -1.452  1.00  0.00     0.161 C 
HETATM    9  O3  UNL     1       3.042  18.745  -2.298  1.00  0.00    -0.292 OA
HETATM   10  C13 UNL     1       3.632  18.411  -0.049  1.00  0.00    -0.005 C 
HETATM   11  C14 UNL     1       3.958  17.528   0.916  1.00  0.00    -0.013 C 
HETATM   12  C15 UNL     1       3.822  17.986   2.343  1.00  0.00     0.095 C 
HETATM   13  C16 UNL     1       3.922  19.486   2.600  1.00  0.00     0.026 C 
HETATM   14  C17 UNL     1       2.963  20.238   1.693  1.00  0.00     0.013 C 
HETATM   15  C18 UNL     1       3.259  19.868   0.221  1.00  0.00     0.043 C 
HETATM   16  C19 UNL     1       3.740  19.577   4.136  1.00  0.00     0.016 C 
HETATM   17  C20 UNL     1       4.026  18.123   4.695  1.00  0.00     0.034 C 
HETATM   18  C21 UNL     1       4.422  18.027   6.205  1.00  0.00     0.087 C 
HETATM   19  C22 UNL     1       5.441  19.121   6.614  1.00  0.00     0.049 C 
HETATM   20  C23 UNL     1       3.158  18.179   7.171  1.00  0.00     0.181 C 
HETATM   21  C24 UNL     1       2.065  17.065   7.377  1.00  0.00     0.158 C 
HETATM   22  O7  UNL     1       0.908  17.764   8.005  1.00  0.00    -0.373 OA
HETATM   23  C25 UNL     1      -0.047  18.097   6.935  1.00  0.00     0.185 C 
HETATM   24  C26 UNL     1       0.599  17.577   5.652  1.00  0.00     0.028 C 
HETATM   25  C27 UNL     1      -0.409  17.394   4.536  1.00  0.00     0.053 C 
HETATM   26  C28 UNL     1      -1.550  16.446   4.890  1.00  0.00     0.309 C 
HETATM   27  N1  UNL     1      -1.717  16.249   6.350  1.00  0.00     0.128 N 
HETATM   28  C29 UNL     1      -1.467  17.455   7.138  1.00  0.00     0.384 C 
HETATM   29  C30 UNL     1      -1.341  15.116   4.115  1.00  0.00     0.233 C 
HETATM   30  O9  UNL     1      -1.121  14.026   4.634  1.00  0.00    -0.277 OA
HETATM   31  N2  UNL     1      -1.481  15.326   2.730  1.00  0.00    -0.243 NA
HETATM   32  C31 UNL     1      -1.899  14.255   1.881  1.00  0.00     0.120 A 
HETATM   33  C32 UNL     1      -0.555  14.894   1.711  1.00  0.00     0.090 A 
HETATM   34  C33 UNL     1       0.670  14.059   1.931  1.00  0.00     0.115 C 
HETATM   35  C34 UNL     1       1.814  14.820   1.381  1.00  0.00    -0.104 C 
HETATM   36  C35 UNL     1       2.826  15.372   1.019  1.00  0.00    -0.090 C 
HETATM   37  C36 UNL     1       4.174  16.019   0.716  1.00  0.00     0.062 C 
HETATM   38  C37 UNL     1       5.177  15.492   1.861  1.00  0.00     0.012 C 
HETATM   39  C38 UNL     1       6.637  15.988   1.735  1.00  0.00     0.007 C 
HETATM   40  C39 UNL     1       7.183  16.652   2.983  1.00  0.00     0.001 C 
HETATM   41  C40 UNL     1       6.256  17.794   3.392  1.00  0.00     0.013 C 
HETATM   42  C41 UNL     1       4.747  17.398   3.475  1.00  0.00     0.002 C 
HETATM   43  C42 UNL     1       4.656  15.870   3.298  1.00  0.00     0.020 C 
HETATM   44  C43 UNL     1       1.342  16.379   6.237  1.00  0.00     0.020 C 
HETATM   45  C44 UNL     1       2.107  15.415   5.381  1.00  0.00     0.013 C 
HETATM   46  H42 UNL     1      -2.651  15.892   6.535  1.00  0.00     0.320 HD
ENDROOT
BRANCH   1  47
HETATM   47  O2  UNL     1       3.196  14.960  -4.470  1.00  0.00    -0.386 OA
BRANCH  47  48
HETATM   48  C4  UNL     1       4.235  14.226  -5.105  1.00  0.00     0.170 C 
BRANCH  48  49
HETATM   49  C3  UNL     1       3.771  13.521  -6.380  1.00  0.00     0.052 C 
BRANCH  49  50
HETATM   50  C2  UNL     1       4.805  13.591  -7.500  1.00  0.00     0.169 C 
BRANCH  50  51
HETATM   51  O1  UNL     1       4.148  13.900  -8.728  1.00  0.00    -0.396 OA
HETATM   52  C1  UNL     1       3.145  14.893  -8.556  1.00  0.00     0.201 C 
ENDBRANCH  50  51
ENDBRANCH  49  50
ENDBRANCH  48  49
ENDBRANCH  47  48
ENDBRANCH   1  47
BRANCH  12  53
HETATM   53  O4  UNL     1       2.440  17.639   2.657  1.00  0.00    -0.384 OA
HETATM   54  H21 UNL     1       1.896  17.734   1.859  1.00  0.00     0.211 HD
ENDBRANCH  12  53
BRANCH  18  55
HETATM   55  O5  UNL     1       5.043  16.764   6.454  1.00  0.00    -0.387 OA
HETATM   56  H33 UNL     1       5.185  16.725   7.419  1.00  0.00     0.210 HD
ENDBRANCH  18  55
BRANCH  20  57
HETATM   57  O6  UNL     1       3.667  18.402   8.518  1.00  0.00    -0.390 OA
HETATM   58  H35 UNL     1       2.871  18.525   9.077  1.00  0.00     0.210 HD
ENDBRANCH  20  57
BRANCH  28  59
HETATM   59  O8  UNL     1      -2.461  18.405   6.790  1.00  0.00    -0.366 OA
HETATM   60  H44 UNL     1      -3.043  18.492   7.563  1.00  0.00     0.212 HD
ENDBRANCH  28  59
TORSDOF 9
ENDMDL
MODEL 4
REMARK minimizedAffinity -7.16104412
REMARK CNNscore 0.238808453
REMARK CNNaffinity 6.19936609
REMARK  9 active torsions:
REMARK  status: ('A' for Active; 'I' for Inactive)
REMARK    1  A    between atoms: O1_2  and  C2_3 
REMARK    2  A    between atoms: C2_3  and  C3_4 
REMARK    3  A    between atoms: C3_4  and  C4_5 
REMARK    4  A    between atoms: C4_5  and  O2_6 
REMARK    5  A    between atoms: O2_6  and  C5_7 
REMARK    6  A    between atoms: C15_18  and  O4_19 
REMARK    7  A    between atoms: C21_25  and  O5_27 
REMARK    8  A    between atoms: C23_28  and  O6_29 
REMARK    9  A    between atoms: C29_37  and  O8_38 
ROOT
HETATM    1  C5  UNL     1       8.879  14.557  21.764  1.00  0.00     0.122 C 
HETATM    2  C6  UNL     1       8.900  13.019  21.829  1.00  0.00     0.033 C 
HETATM    3  C7  UNL     1       7.696  12.369  21.148  1.00  0.00     0.014 C 
HETATM    4  C8  UNL     1       6.321  12.828  21.759  1.00  0.00    -0.010 C 
HETATM    5  C9  UNL     1       6.130  11.979  23.050  1.00  0.00     0.018 C 
HETATM    6  C10 UNL     1       6.436  14.295  22.299  1.00  0.00     0.073 C 
HETATM    7  C11 UNL     1       7.469  15.127  21.536  1.00  0.00     0.045 C 
HETATM    8  C12 UNL     1       5.126  15.045  22.504  1.00  0.00     0.161 C 
HETATM    9  O3  UNL     1       5.102  16.085  23.168  1.00  0.00    -0.292 OA
HETATM   10  C13 UNL     1       3.857  14.549  21.899  1.00  0.00    -0.005 C 
HETATM   11  C14 UNL     1       3.877  13.484  21.073  1.00  0.00    -0.013 C 
HETATM   12  C15 UNL     1       2.642  13.225  20.253  1.00  0.00     0.095 C 
HETATM   13  C16 UNL     1       1.321  13.752  20.805  1.00  0.00     0.026 C 
HETATM   14  C17 UNL     1       1.448  15.226  21.149  1.00  0.00     0.013 C 
HETATM   15  C18 UNL     1       2.623  15.420  22.136  1.00  0.00     0.043 C 
HETATM   16  C19 UNL     1       0.304  13.311  19.724  1.00  0.00     0.016 C 
HETATM   17  C20 UNL     1       1.022  12.172  18.890  1.00  0.00     0.034 C 
HETATM   18  C21 UNL     1       0.088  11.202  18.094  1.00  0.00     0.087 C 
HETATM   19  C22 UNL     1      -1.140  10.756  18.929  1.00  0.00     0.049 C 
HETATM   20  C23 UNL     1      -0.473  11.868  16.754  1.00  0.00     0.181 C 
HETATM   21  C24 UNL     1       0.391  12.111  15.461  1.00  0.00     0.158 C 
HETATM   22  O7  UNL     1      -0.387  13.090  14.649  1.00  0.00    -0.373 OA
HETATM   23  C25 UNL     1       0.161  14.429  14.917  1.00  0.00     0.185 C 
HETATM   24  C26 UNL     1       1.285  14.201  15.927  1.00  0.00     0.028 C 
HETATM   25  C27 UNL     1       2.264  15.356  15.967  1.00  0.00     0.053 C 
HETATM   26  C28 UNL     1       2.914  15.656  14.620  1.00  0.00     0.309 C 
HETATM   27  N1  UNL     1       2.162  15.098  13.469  1.00  0.00     0.128 N 
HETATM   28  C29 UNL     1       0.710  15.152  13.634  1.00  0.00     0.384 C 
HETATM   29  C30 UNL     1       4.392  15.179  14.671  1.00  0.00     0.233 C 
HETATM   30  O9  UNL     1       4.866  14.280  13.983  1.00  0.00    -0.277 OA
HETATM   31  N2  UNL     1       5.126  15.952  15.591  1.00  0.00    -0.243 NA
HETATM   32  C31 UNL     1       6.536  16.118  15.422  1.00  0.00     0.120 A 
HETATM   33  C32 UNL     1       5.978  15.440  16.636  1.00  0.00     0.090 A 
HETATM   34  C33 UNL     1       6.314  13.998  16.871  1.00  0.00     0.115 C 
HETATM   35  C34 UNL     1       5.931  13.688  18.266  1.00  0.00    -0.104 C 
HETATM   36  C35 UNL     1       5.605  13.306  19.366  1.00  0.00    -0.090 C 
HETATM   37  C36 UNL     1       5.126  12.682  20.672  1.00  0.00     0.062 C 
HETATM   38  C37 UNL     1       4.671  11.183  20.299  1.00  0.00     0.012 C 
HETATM   39  C38 UNL     1       4.180  10.329  21.490  1.00  0.00     0.007 C 
HETATM   40  C39 UNL     1       2.811   9.707  21.295  1.00  0.00     0.001 C 
HETATM   41  C40 UNL     1       1.803  10.806  20.963  1.00  0.00     0.013 C 
HETATM   42  C41 UNL     1       2.252  11.763  19.813  1.00  0.00     0.002 C 
HETATM   43  C42 UNL     1       3.542  11.183  19.201  1.00  0.00     0.020 C 
HETATM   44  C43 UNL     1       1.731  12.816  15.468  1.00  0.00     0.020 C 
HETATM   45  C44 UNL     1       2.907  12.111  16.074  1.00  0.00     0.013 C 
HETATM   46  H42 UNL     1       2.440  15.583  12.621  1.00  0.00     0.320 HD
ENDROOT
BRANCH   1  47
HETATM   47  O2  UNL     1       9.344  15.059  23.024  1.00  0.00    -0.386 OA
BRANCH  47  48
HETATM   48  C4  UNL     1       9.098  16.443  23.238  1.00  0.00     0.170 C 
BRANCH  48  49
HETATM   49  C3  UNL     1       8.873  16.785  24.711  1.00  0.00     0.052 C 
BRANCH  49  50
HETATM   50  C2  UNL     1       7.740  17.787  24.915  1.00  0.00     0.169 C 
BRANCH  50  51
HETATM   51  O1  UNL     1       6.787  17.240  25.826  1.00  0.00    -0.396 OA
HETATM   52  C1  UNL     1       6.414  18.180  26.826  1.00  0.00     0.201 C 
ENDBRANCH  50  51
ENDBRANCH  49  50
ENDBRANCH  48  49
ENDBRANCH  47  48
ENDBRANCH   1  47
BRANCH  12  53
HETATM   53  O4  UNL     1       2.890  14.013  19.050  1.00  0.00    -0.384 OA
HETATM   54  H21 UNL     1       3.394  14.808  19.285  1.00  0.00     0.211 HD
ENDBRANCH  12  53
BRANCH  18  55
HETATM   55  O5  UNL     1       0.812  10.018  17.753  1.00  0.00    -0.387 OA
HETATM   56  H33 UNL     1       0.212   9.496  17.187  1.00  0.00     0.210 HD
ENDBRANCH  18  55
BRANCH  20  57
HETATM   57  O6  UNL     1      -1.562  11.027  16.275  1.00  0.00    -0.390 OA
HETATM   58  H35 UNL     1      -1.905  11.479  15.476  1.00  0.00     0.210 HD
ENDBRANCH  20  57
BRANCH  28  59
HETATM   59  O8  UNL     1       0.337  16.519  13.676  1.00  0.00    -0.366 OA
HETATM   60  H44 UNL     1      -0.141  16.700  12.850  1.00  0.00     0.212 HD
ENDBRANCH  28  59
TORSDOF 9
ENDMDL
MODEL 5
REMARK minimizedAffinity -6.79199362
REMARK CNNscore 0.236732289
REMARK CNNaffinity 6.49464464
REMARK  9 active torsions:
REMARK  status: ('A' for Active; 'I' for Inactive)
REMARK    1  A    between atoms: O1_2  and  C2_3 
REMARK    2  A    between atoms: C2_3  and  C3_4 
REMARK    3  A    between atoms: C3_4  and  C4_5 
REMARK    4  A    between atoms: C4_5  and  O2_6 
REMARK    5  A    between atoms: O2_6  and  C5_7 
REMARK    6  A    between atoms: C15_18  and  O4_19 
REMARK    7  A    between atoms: C21_25  and  O5_27 
REMARK    8  A    between atoms: C23_28  and  O6_29 
REMARK    9  A    between atoms: C29_37  and  O8_38 
ROOT
HETATM    1  C5  UNL     1     -17.152  -8.831   6.143  1.00  0.00     0.122 C 
HETATM    2  C6  UNL     1     -16.699  -9.871   7.185  1.00  0.00     0.033 C 
HETATM    3  C7  UNL     1     -16.451  -9.271   8.568  1.00  0.00     0.014 C 
HETATM    4  C8  UNL     1     -15.362  -8.135   8.561  1.00  0.00    -0.010 C 
HETATM    5  C9  UNL     1     -13.990  -8.868   8.561  1.00  0.00     0.018 C 
HETATM    6  C10 UNL     1     -15.377  -7.386   7.183  1.00  0.00     0.073 C 
HETATM    7  C11 UNL     1     -16.756  -7.395   6.520  1.00  0.00     0.045 C 
HETATM    8  C12 UNL     1     -14.729  -6.007   7.156  1.00  0.00     0.161 C 
HETATM    9  O3  UNL     1     -14.457  -5.469   6.079  1.00  0.00    -0.292 OA
HETATM   10  C13 UNL     1     -14.427  -5.278   8.420  1.00  0.00    -0.005 C 
HETATM   11  C14 UNL     1     -14.822  -5.790   9.603  1.00  0.00    -0.013 C 
HETATM   12  C15 UNL     1     -14.775  -4.878  10.799  1.00  0.00     0.095 C 
HETATM   13  C16 UNL     1     -13.781  -3.722  10.749  1.00  0.00     0.026 C 
HETATM   14  C17 UNL     1     -13.963  -2.930   9.466  1.00  0.00     0.013 C 
HETATM   15  C18 UNL     1     -13.826  -3.883   8.255  1.00  0.00     0.043 C 
HETATM   16  C19 UNL     1     -14.011  -3.021  12.111  1.00  0.00     0.016 C 
HETATM   17  C20 UNL     1     -14.757  -4.079  13.024  1.00  0.00     0.034 C 
HETATM   18  C21 UNL     1     -14.656  -3.854  14.570  1.00  0.00     0.087 C 
HETATM   19  C22 UNL     1     -13.221  -3.471  15.013  1.00  0.00     0.049 C 
HETATM   20  C23 UNL     1     -15.629  -2.691  15.074  1.00  0.00     0.181 C 
HETATM   21  C24 UNL     1     -17.192  -2.836  15.188  1.00  0.00     0.158 C 
HETATM   22  O7  UNL     1     -17.708  -1.441  15.292  1.00  0.00    -0.373 OA
HETATM   23  C25 UNL     1     -18.134  -1.021  13.948  1.00  0.00     0.185 C 
HETATM   24  C26 UNL     1     -17.839  -2.218  13.046  1.00  0.00     0.028 C 
HETATM   25  C27 UNL     1     -18.625  -2.170  11.753  1.00  0.00     0.053 C 
HETATM   26  C28 UNL     1     -20.136  -2.112  11.955  1.00  0.00     0.309 C 
HETATM   27  N1  UNL     1     -20.528  -1.661  13.313  1.00  0.00     0.128 N 
HETATM   28  C29 UNL     1     -19.653  -0.628  13.864  1.00  0.00     0.384 C 
HETATM   29  C30 UNL     1     -20.735  -3.494  11.574  1.00  0.00     0.233 C 
HETATM   30  O9  UNL     1     -21.299  -4.255  12.354  1.00  0.00    -0.277 OA
HETATM   31  N2  UNL     1     -20.579  -3.735  10.196  1.00  0.00    -0.243 NA
HETATM   32  C31 UNL     1     -21.493  -4.593   9.511  1.00  0.00     0.120 A 
HETATM   33  C32 UNL     1     -20.038  -4.934   9.604  1.00  0.00     0.090 A 
HETATM   34  C33 UNL     1     -19.636  -6.176  10.340  1.00  0.00     0.115 C 
HETATM   35  C34 UNL     1     -18.222  -6.444   9.995  1.00  0.00    -0.104 C 
HETATM   36  C35 UNL     1     -17.059  -6.728   9.831  1.00  0.00    -0.090 C 
HETATM   37  C36 UNL     1     -15.583  -7.112   9.800  1.00  0.00     0.062 C 
HETATM   38  C37 UNL     1     -15.248  -7.678  11.269  1.00  0.00     0.012 C 
HETATM   39  C38 UNL     1     -13.797  -8.177  11.468  1.00  0.00     0.007 C 
HETATM   40  C39 UNL     1     -13.078  -7.558  12.649  1.00  0.00     0.001 C 
HETATM   41  C40 UNL     1     -13.116  -6.037  12.521  1.00  0.00     0.013 C 
HETATM   42  C41 UNL     1     -14.538  -5.451  12.248  1.00  0.00     0.002 C 
HETATM   43  C42 UNL     1     -15.551  -6.605  12.381  1.00  0.00     0.020 C 
HETATM   44  C43 UNL     1     -18.073  -3.334  14.061  1.00  0.00     0.020 C 
HETATM   45  C44 UNL     1     -18.004  -4.784  13.687  1.00  0.00     0.013 C 
HETATM   46  H42 UNL     1     -21.491  -1.336  13.292  1.00  0.00     0.320 HD
ENDROOT
BRANCH   1  47
HETATM   47  O2  UNL     1     -16.507  -9.141   4.900  1.00  0.00    -0.386 OA
BRANCH  47  48
HETATM   48  C4  UNL     1     -17.282  -9.936   4.012  1.00  0.00     0.170 C 
BRANCH  48  49
HETATM   49  C3  UNL     1     -18.756  -9.530   3.984  1.00  0.00     0.052 C 
BRANCH  49  50
HETATM   50  C2  UNL     1     -19.416  -9.805   2.636  1.00  0.00     0.169 C 
BRANCH  50  51
HETATM   51  O1  UNL     1     -20.738 -10.297   2.851  1.00  0.00    -0.396 OA
HETATM   52  C1  UNL     1     -21.723  -9.337   2.488  1.00  0.00     0.201 C 
ENDBRANCH  50  51
ENDBRANCH  49  50
ENDBRANCH  48  49
ENDBRANCH  47  48
ENDBRANCH   1  47
BRANCH  12  53
HETATM   53  O4  UNL     1     -16.091  -4.247  10.767  1.00  0.00    -0.384 OA
HETATM   54  H21 UNL     1     -16.375  -4.143   9.846  1.00  0.00     0.211 HD
ENDBRANCH  12  53
BRANCH  18  55
HETATM   55  O5  UNL     1     -14.992  -5.065  15.249  1.00  0.00    -0.387 OA
HETATM   56  H33 UNL     1     -15.000  -4.842  16.199  1.00  0.00     0.210 HD
ENDBRANCH  18  55
BRANCH  20  57
HETATM   57  O6  UNL     1     -15.225  -2.347  16.431  1.00  0.00    -0.390 OA
HETATM   58  H35 UNL     1     -15.816  -1.612  16.697  1.00  0.00     0.210 HD
ENDBRANCH  20  57
BRANCH  28  59
HETATM   59  O8  UNL     1     -19.791   0.526  13.050  1.00  0.00    -0.366 OA
HETATM   60  H44 UNL     1     -20.260   1.187  13.586  1.00  0.00     0.212 HD
ENDBRANCH  28  59
TORSDOF 9
ENDMDL
MODEL 6
REMARK minimizedAffinity -9.60631371
REMARK CNNscore 0.201441914
REMARK CNNaffinity 6.63394403
REMARK  9 active torsions:
REMARK  status: ('A' for Active; 'I' for Inactive)
REMARK    1  A    between atoms: O1_2  and  C2_3 
REMARK    2  A    between atoms: C2_3  and  C3_4 
REMARK    3  A    between atoms: C3_4  and  C4_5 
REMARK    4  A    between atoms: C4_5  and  O2_6 
REMARK    5  A    between atoms: O2_6  and  C5_7 
REMARK    6  A    between atoms: C15_18  and  O4_19 
REMARK    7  A    between atoms: C21_25  and  O5_27 
REMARK    8  A    between atoms: C23_28  and  O6_29 
REMARK    9  A    between atoms: C29_37  and  O8_38 
ROOT
HETATM    1  C5  UNL     1       0.103  10.825  17.281  1.00  0.00     0.122 C 
HETATM    2  C6  UNL     1      -0.140  12.344  17.232  1.00  0.00     0.033 C 
HETATM    3  C7  UNL     1       1.038  13.161  17.761  1.00  0.00     0.014 C 
HETATM    4  C8  UNL     1       1.412  12.811  19.249  1.00  0.00    -0.010 C 
HETATM    5  C9  UNL     1       0.393  13.587  20.133  1.00  0.00     0.018 C 
HETATM    6  C10 UNL     1       1.083  11.307  19.546  1.00  0.00     0.073 C 
HETATM    7  C11 UNL     1       1.181  10.423  18.300  1.00  0.00     0.045 C 
HETATM    8  C12 UNL     1       1.777  10.688  20.752  1.00  0.00     0.161 C 
HETATM    9  O3  UNL     1       1.380   9.614  21.214  1.00  0.00    -0.292 OA
HETATM   10  C13 UNL     1       2.950  11.354  21.386  1.00  0.00    -0.005 C 
HETATM   11  C14 UNL     1       3.476  12.463  20.829  1.00  0.00    -0.013 C 
HETATM   12  C15 UNL     1       4.829  12.905  21.318  1.00  0.00     0.095 C 
HETATM   13  C16 UNL     1       5.225  12.485  22.730  1.00  0.00     0.026 C 
HETATM   14  C17 UNL     1       5.047  10.986  22.900  1.00  0.00     0.013 C 
HETATM   15  C18 UNL     1       3.588  10.605  22.555  1.00  0.00     0.043 C 
HETATM   16  C19 UNL     1       6.638  13.101  22.880  1.00  0.00     0.016 C 
HETATM   17  C20 UNL     1       6.750  14.211  21.755  1.00  0.00     0.034 C 
HETATM   18  C21 UNL     1       7.825  15.325  21.986  1.00  0.00     0.087 C 
HETATM   19  C22 UNL     1       7.828  15.841  23.447  1.00  0.00     0.049 C 
HETATM   20  C23 UNL     1       9.304  14.811  21.666  1.00  0.00     0.181 C 
HETATM   21  C24 UNL     1       9.859  14.565  20.214  1.00  0.00     0.158 C 
HETATM   22  O7  UNL     1      11.079  13.730  20.398  1.00  0.00    -0.373 OA
HETATM   23  C25 UNL     1      10.697  12.326  20.180  1.00  0.00     0.185 C 
HETATM   24  C26 UNL     1       9.201  12.365  19.871  1.00  0.00     0.028 C 
HETATM   25  C27 UNL     1       8.728  11.114  19.162  1.00  0.00     0.053 C 
HETATM   26  C28 UNL     1       9.458  10.837  17.852  1.00  0.00     0.309 C 
HETATM   27  N1  UNL     1      10.756  11.546  17.744  1.00  0.00     0.128 N 
HETATM   28  C29 UNL     1      11.484  11.635  19.008  1.00  0.00     0.384 C 
HETATM   29  C30 UNL     1       8.491  11.150  16.677  1.00  0.00     0.233 C 
HETATM   30  O9  UNL     1       8.659  12.038  15.846  1.00  0.00    -0.277 OA
HETATM   31  N2  UNL     1       7.414  10.245  16.672  1.00  0.00    -0.243 NA
HETATM   32  C31 UNL     1       6.738   9.942  15.449  1.00  0.00     0.120 A 
HETATM   33  C32 UNL     1       6.016  10.594  16.588  1.00  0.00     0.090 A 
HETATM   34  C33 UNL     1       5.463  11.973  16.393  1.00  0.00     0.115 C 
HETATM   35  C34 UNL     1       4.536  12.229  17.518  1.00  0.00    -0.104 C 
HETATM   36  C35 UNL     1       3.804  12.570  18.418  1.00  0.00    -0.090 C 
HETATM   37  C36 UNL     1       2.968  13.153  19.552  1.00  0.00     0.062 C 
HETATM   38  C37 UNL     1       3.361  14.713  19.626  1.00  0.00     0.012 C 
HETATM   39  C38 UNL     1       2.598  15.534  20.691  1.00  0.00     0.007 C 
HETATM   40  C39 UNL     1       3.487  16.308  21.643  1.00  0.00     0.001 C 
HETATM   41  C40 UNL     1       4.473  15.347  22.303  1.00  0.00     0.013 C 
HETATM   42  C41 UNL     1       5.241  14.426  21.302  1.00  0.00     0.002 C 
HETATM   43  C42 UNL     1       4.904  14.905  19.876  1.00  0.00     0.020 C 
HETATM   44  C43 UNL     1       9.146  13.724  19.176  1.00  0.00     0.020 C 
HETATM   45  C44 UNL     1       7.887  14.259  18.563  1.00  0.00     0.013 C 
HETATM   46  H42 UNL     1      11.327  11.091  17.037  1.00  0.00     0.320 HD
ENDROOT
BRANCH   1  47
HETATM   47  O2  UNL     1      -1.120  10.194  17.681  1.00  0.00    -0.386 OA
BRANCH  47  48
HETATM   48  C4  UNL     1      -1.952  10.989  18.515  1.00  0.00     0.170 C 
BRANCH  48  49
HETATM   49  C3  UNL     1      -3.411  11.004  18.058  1.00  0.00     0.052 C 
BRANCH  49  50
HETATM   50  C2  UNL     1      -3.637  10.191  16.787  1.00  0.00     0.169 C 
BRANCH  50  51
HETATM   51  O1  UNL     1      -4.454  10.940  15.888  1.00  0.00    -0.396 OA
HETATM   52  C1  UNL     1      -4.478  12.322  16.224  1.00  0.00     0.201 C 
ENDBRANCH  50  51
ENDBRANCH  49  50
ENDBRANCH  48  49
ENDBRANCH  47  48
ENDBRANCH   1  47
BRANCH  12  53
HETATM   53  O4  UNL     1       5.736  12.177  20.438  1.00  0.00    -0.384 OA
HETATM   54  H21 UNL     1       5.344  11.319  20.210  1.00  0.00     0.211 HD
ENDBRANCH  12  53
BRANCH  18  55
HETATM   55  O5  UNL     1       7.534  16.445  21.149  1.00  0.00    -0.387 OA
HETATM   56  H33 UNL     1       8.279  17.065  21.268  1.00  0.00     0.210 HD
ENDBRANCH  18  55
BRANCH  20  57
HETATM   57  O6  UNL     1      10.231  15.793  22.216  1.00  0.00    -0.390 OA
HETATM   58  H35 UNL     1      11.124  15.433  22.035  1.00  0.00     0.210 HD
ENDBRANCH  20  57
BRANCH  28  59
HETATM   59  O8  UNL     1      11.830  10.315  19.394  1.00  0.00    -0.366 OA
HETATM   60  H44 UNL     1      12.793  10.240  19.294  1.00  0.00     0.212 HD
ENDBRANCH  28  59
TORSDOF 9
ENDMDL
MODEL 7
REMARK minimizedAffinity -7.38016319
REMARK CNNscore 0.186761484
REMARK CNNaffinity 6.23891115
REMARK  9 active torsions:
REMARK  status: ('A' for Active; 'I' for Inactive)
REMARK    1  A    between atoms: O1_2  and  C2_3 
REMARK    2  A    between atoms: C2_3  and  C3_4 
REMARK    3  A    between atoms: C3_4  and  C4_5 
REMARK    4  A    between atoms: C4_5  and  O2_6 
REMARK    5  A    between atoms: O2_6  and  C5_7 
REMARK    6  A    between atoms: C15_18  and  O4_19 
REMARK    7  A    between atoms: C21_25  and  O5_27 
REMARK    8  A    between atoms: C23_28  and  O6_29 
REMARK    9  A    between atoms: C29_37  and  O8_38 
ROOT
HETATM    1  C5  UNL     1      15.488  -7.535  -1.872  1.00  0.00     0.122 C 
HETATM    2  C6  UNL     1      15.456  -6.004  -1.720  1.00  0.00     0.033 C 
HETATM    3  C7  UNL     1      15.556  -5.539  -0.268  1.00  0.00     0.014 C 
HETATM    4  C8  UNL     1      14.404  -6.107   0.642  1.00  0.00    -0.010 C 
HETATM    5  C9  UNL     1      13.168  -5.202   0.369  1.00  0.00     0.018 C 
HETATM    6  C10 UNL     1      13.950  -7.514   0.118  1.00  0.00     0.073 C 
HETATM    7  C11 UNL     1      15.076  -8.273  -0.587  1.00  0.00     0.045 C 
HETATM    8  C12 UNL     1      13.189  -8.389   1.105  1.00  0.00     0.161 C 
HETATM    9  O3  UNL     1      12.570  -9.380   0.707  1.00  0.00    -0.292 OA
HETATM   10  C13 UNL     1      13.190  -8.080   2.563  1.00  0.00    -0.005 C 
HETATM   11  C14 UNL     1      13.956  -7.076   3.037  1.00  0.00    -0.013 C 
HETATM   12  C15 UNL     1      14.163  -7.012   4.526  1.00  0.00     0.095 C 
HETATM   13  C16 UNL     1      13.087  -7.645   5.402  1.00  0.00     0.026 C 
HETATM   14  C17 UNL     1      12.816  -9.070   4.951  1.00  0.00     0.013 C 
HETATM   15  C18 UNL     1      12.433  -9.065   3.452  1.00  0.00     0.043 C 
HETATM   16  C19 UNL     1      13.627  -7.393   6.832  1.00  0.00     0.016 C 
HETATM   17  C20 UNL     1      14.702  -6.239   6.694  1.00  0.00     0.034 C 
HETATM   18  C21 UNL     1      15.025  -5.433   7.996  1.00  0.00     0.087 C 
HETATM   19  C22 UNL     1      13.746  -5.074   8.794  1.00  0.00     0.049 C 
HETATM   20  C23 UNL     1      15.983  -6.246   8.985  1.00  0.00     0.181 C 
HETATM   21  C24 UNL     1      17.520  -6.476   8.735  1.00  0.00     0.158 C 
HETATM   22  O7  UNL     1      17.903  -7.587   9.652  1.00  0.00    -0.373 OA
HETATM   23  C25 UNL     1      17.884  -8.835   8.873  1.00  0.00     0.185 C 
HETATM   24  C26 UNL     1      17.463  -8.418   7.465  1.00  0.00     0.028 C 
HETATM   25  C27 UNL     1      17.838  -9.451   6.424  1.00  0.00     0.053 C 
HETATM   26  C28 UNL     1      19.330  -9.764   6.380  1.00  0.00     0.309 C 
HETATM   27  N1  UNL     1      20.048  -9.372   7.618  1.00  0.00     0.128 N 
HETATM   28  C29 UNL     1      19.269  -9.576   8.838  1.00  0.00     0.384 C 
HETATM   29  C30 UNL     1      19.929  -9.123   5.098  1.00  0.00     0.233 C 
HETATM   30  O9  UNL     1      20.765  -8.225   5.085  1.00  0.00    -0.277 OA
HETATM   31  N2  UNL     1      19.410  -9.747   3.948  1.00  0.00    -0.243 NA
HETATM   32  C31 UNL     1      20.171  -9.765   2.738  1.00  0.00     0.120 A 
HETATM   33  C32 UNL     1      18.843  -9.075   2.805  1.00  0.00     0.090 A 
HETATM   34  C33 UNL     1      18.793  -7.592   2.590  1.00  0.00     0.115 C 
HETATM   35  C34 UNL     1      17.373  -7.235   2.375  1.00  0.00    -0.104 C 
HETATM   36  C35 UNL     1      16.245  -6.820   2.245  1.00  0.00    -0.090 C 
HETATM   37  C36 UNL     1      14.867  -6.168   2.195  1.00  0.00     0.062 C 
HETATM   38  C37 UNL     1      15.024  -4.758   2.955  1.00  0.00     0.012 C 
HETATM   39  C38 UNL     1      13.747  -3.886   2.995  1.00  0.00     0.007 C 
HETATM   40  C39 UNL     1      13.337  -3.436   4.383  1.00  0.00     0.001 C 
HETATM   41  C40 UNL     1      13.187  -4.659   5.284  1.00  0.00     0.013 C 
HETATM   42  C41 UNL     1      14.407  -5.635   5.252  1.00  0.00     0.002 C 
HETATM   43  C42 UNL     1      15.525  -4.956   4.435  1.00  0.00     0.020 C 
HETATM   44  C43 UNL     1      18.086  -7.024   7.442  1.00  0.00     0.020 C 
HETATM   45  C44 UNL     1      18.057  -6.154   6.222  1.00  0.00     0.013 C 
HETATM   46  H42 UNL     1      20.928  -9.877   7.669  1.00  0.00     0.320 HD
ENDROOT
BRANCH   1  47
HETATM   47  O2  UNL     1      14.548  -7.898  -2.893  1.00  0.00    -0.386 OA
BRANCH  47  48
HETATM   48  C4  UNL     1      13.196  -7.578  -2.595  1.00  0.00     0.170 C 
BRANCH  48  49
HETATM   49  C3  UNL     1      12.223  -8.038  -3.681  1.00  0.00     0.052 C 
BRANCH  49  50
HETATM   50  C2  UNL     1      10.932  -8.614  -3.108  1.00  0.00     0.169 C 
BRANCH  50  51
HETATM   51  O1  UNL     1      10.275  -7.614  -2.329  1.00  0.00    -0.396 OA
HETATM   52  C1  UNL     1       9.602  -6.666  -3.148  1.00  0.00     0.201 C 
ENDBRANCH  50  51
ENDBRANCH  49  50
ENDBRANCH  48  49
ENDBRANCH  47  48
ENDBRANCH   1  47
BRANCH  12  53
HETATM   53  O4  UNL     1      15.345  -7.844   4.717  1.00  0.00    -0.384 OA
HETATM   54  H21 UNL     1      15.343  -8.561   4.063  1.00  0.00     0.211 HD
ENDBRANCH  12  53
BRANCH  18  55
HETATM   55  O5  UNL     1      15.660  -4.202   7.647  1.00  0.00    -0.387 OA
HETATM   56  H33 UNL     1      15.916  -3.788   8.494  1.00  0.00     0.210 HD
ENDBRANCH  18  55
BRANCH  20  57
HETATM   57  O6  UNL     1      15.952  -5.565  10.273  1.00  0.00    -0.390 OA
HETATM   58  H35 UNL     1      16.518  -6.105  10.864  1.00  0.00     0.210 HD
ENDBRANCH  20  57
BRANCH  28  59
HETATM   59  O8  UNL     1      19.055 -10.971   8.977  1.00  0.00    -0.366 OA
HETATM   60  H44 UNL     1      19.590 -11.258   9.736  1.00  0.00     0.212 HD
ENDBRANCH  28  59
TORSDOF 9
ENDMDL
MODEL 8
REMARK minimizedAffinity -7.05879164
REMARK CNNscore 0.185776398
REMARK CNNaffinity 6.19591713
REMARK  9 active torsions:
REMARK  status: ('A' for Active; 'I' for Inactive)
REMARK    1  A    between atoms: O1_2  and  C2_3 
REMARK    2  A    between atoms: C2_3  and  C3_4 
REMARK    3  A    between atoms: C3_4  and  C4_5 
REMARK    4  A    between atoms: C4_5  and  O2_6 
REMARK    5  A    between atoms: O2_6  and  C5_7 
REMARK    6  A    between atoms: C15_18  and  O4_19 
REMARK    7  A    between atoms: C21_25  and  O5_27 
REMARK    8  A    between atoms: C23_28  and  O6_29 
REMARK    9  A    between atoms: C29_37  and  O8_38 
ROOT
HETATM    1  C5  UNL     1     -16.801  -8.913   6.128  1.00  0.00     0.122 C 
HETATM    2  C6  UNL     1     -16.317  -9.935   7.173  1.00  0.00     0.033 C 
HETATM    3  C7  UNL     1     -16.122  -9.331   8.563  1.00  0.00     0.014 C 
HETATM    4  C8  UNL     1     -15.090  -8.143   8.580  1.00  0.00    -0.010 C 
HETATM    5  C9  UNL     1     -13.683  -8.809   8.601  1.00  0.00     0.018 C 
HETATM    6  C10 UNL     1     -15.117  -7.388   7.205  1.00  0.00     0.073 C 
HETATM    7  C11 UNL     1     -16.482  -7.461   6.518  1.00  0.00     0.045 C 
HETATM    8  C12 UNL     1     -14.536  -5.980   7.196  1.00  0.00     0.161 C 
HETATM    9  O3  UNL     1     -14.272  -5.424   6.126  1.00  0.00    -0.292 OA
HETATM   10  C13 UNL     1     -14.292  -5.244   8.468  1.00  0.00    -0.005 C 
HETATM   11  C14 UNL     1     -14.682  -5.781   9.642  1.00  0.00    -0.013 C 
HETATM   12  C15 UNL     1     -14.701  -4.873  10.842  1.00  0.00     0.095 C 
HETATM   13  C16 UNL     1     -13.763  -3.670  10.815  1.00  0.00     0.026 C 
HETATM   14  C17 UNL     1     -13.961  -2.881   9.532  1.00  0.00     0.013 C 
HETATM   15  C18 UNL     1     -13.757  -3.820   8.320  1.00  0.00     0.043 C 
HETATM   16  C19 UNL     1     -14.050  -2.989  12.176  1.00  0.00     0.016 C 
HETATM   17  C20 UNL     1     -14.759  -4.086  13.071  1.00  0.00     0.034 C 
HETATM   18  C21 UNL     1     -14.696  -3.865  14.619  1.00  0.00     0.087 C 
HETATM   19  C22 UNL     1     -13.290  -3.414  15.088  1.00  0.00     0.049 C 
HETATM   20  C23 UNL     1     -15.734  -2.753  15.111  1.00  0.00     0.181 C 
HETATM   21  C24 UNL     1     -17.290  -2.974  15.197  1.00  0.00     0.158 C 
HETATM   22  O7  UNL     1     -17.874  -1.606  15.298  1.00  0.00    -0.373 OA
HETATM   23  C25 UNL     1     -18.296  -1.200  13.948  1.00  0.00     0.185 C 
HETATM   24  C26 UNL     1     -17.928  -2.377  13.047  1.00  0.00     0.028 C 
HETATM   25  C27 UNL     1     -18.693  -2.361  11.740  1.00  0.00     0.053 C 
HETATM   26  C28 UNL     1     -20.208  -2.377  11.916  1.00  0.00     0.309 C 
HETATM   27  N1  UNL     1     -20.645  -1.952  13.268  1.00  0.00     0.128 N 
HETATM   28  C29 UNL     1     -19.831  -0.881  13.840  1.00  0.00     0.384 C 
HETATM   29  C30 UNL     1     -20.733  -3.784  11.519  1.00  0.00     0.233 C 
HETATM   30  O9  UNL     1     -21.273  -4.576  12.285  1.00  0.00    -0.277 OA
HETATM   31  N2  UNL     1     -20.541  -4.010  10.143  1.00  0.00    -0.243 NA
HETATM   32  C31 UNL     1     -21.401  -4.909   9.437  1.00  0.00     0.120 A 
HETATM   33  C32 UNL     1     -19.932  -5.178   9.555  1.00  0.00     0.090 A 
HETATM   34  C33 UNL     1     -19.484  -6.404  10.292  1.00  0.00     0.115 C 
HETATM   35  C34 UNL     1     -18.053  -6.601   9.971  1.00  0.00    -0.104 C 
HETATM   36  C35 UNL     1     -16.874  -6.827   9.826  1.00  0.00    -0.090 C 
HETATM   37  C36 UNL     1     -15.381  -7.138   9.819  1.00  0.00     0.062 C 
HETATM   38  C37 UNL     1     -15.045  -7.696  11.292  1.00  0.00     0.012 C 
HETATM   39  C38 UNL     1     -13.575  -8.124  11.514  1.00  0.00     0.007 C 
HETATM   40  C39 UNL     1     -12.907  -7.477  12.710  1.00  0.00     0.001 C 
HETATM   41  C40 UNL     1     -13.017  -5.959  12.587  1.00  0.00     0.013 C 
HETATM   42  C41 UNL     1     -14.461  -5.441  12.292  1.00  0.00     0.002 C 
HETATM   43  C42 UNL     1     -15.419  -6.644  12.403  1.00  0.00     0.020 C 
HETATM   44  C43 UNL     1     -18.125  -3.508  14.052  1.00  0.00     0.020 C 
HETATM   45  C44 UNL     1     -17.980  -4.951  13.673  1.00  0.00     0.013 C 
HETATM   46  H42 UNL     1     -21.622  -1.675  13.232  1.00  0.00     0.320 HD
ENDROOT
BRANCH   1  47
HETATM   47  O2  UNL     1     -16.121  -9.184   4.895  1.00  0.00    -0.386 OA
BRANCH  47  48
HETATM   48  C4  UNL     1     -16.811 -10.065   4.019  1.00  0.00     0.170 C 
BRANCH  48  49
HETATM   49  C3  UNL     1     -16.069 -10.294   2.701  1.00  0.00     0.052 C 
BRANCH  49  50
HETATM   50  C2  UNL     1     -14.583  -9.959   2.798  1.00  0.00     0.169 C 
BRANCH  50  51
HETATM   51  O1  UNL     1     -14.298  -8.840   1.959  1.00  0.00    -0.396 OA
HETATM   52  C1  UNL     1     -12.902  -8.696   1.727  1.00  0.00     0.201 C 
ENDBRANCH  50  51
ENDBRANCH  49  50
ENDBRANCH  48  49
ENDBRANCH  47  48
ENDBRANCH   1  47
BRANCH  12  53
HETATM   53  O4  UNL     1     -16.044  -4.307  10.790  1.00  0.00    -0.384 OA
HETATM   54  H21 UNL     1     -16.317  -4.212   9.864  1.00  0.00     0.211 HD
ENDBRANCH  12  53
BRANCH  18  55
HETATM   55  O5  UNL     1     -14.985  -5.094  15.286  1.00  0.00    -0.387 OA
HETATM   56  H33 UNL     1     -15.020  -4.876  16.238  1.00  0.00     0.210 HD
ENDBRANCH  18  55
BRANCH  20  57
HETATM   57  O6  UNL     1     -15.370  -2.397  16.477  1.00  0.00    -0.390 OA
HETATM   58  H35 UNL     1     -16.000  -1.692  16.735  1.00  0.00     0.210 HD
ENDBRANCH  20  57
BRANCH  28  59
HETATM   59  O8  UNL     1     -20.011   0.269  13.029  1.00  0.00    -0.366 OA
HETATM   60  H44 UNL     1     -20.521   0.904  13.559  1.00  0.00     0.212 HD
ENDBRANCH  28  59
TORSDOF 9
ENDMDL
MODEL 9
REMARK minimizedAffinity -8.26614094
REMARK CNNscore 0.1821917
REMARK CNNaffinity 6.26461649
REMARK  9 active torsions:
REMARK  status: ('A' for Active; 'I' for Inactive)
REMARK    1  A    between atoms: O1_2  and  C2_3 
REMARK    2  A    between atoms: C2_3  and  C3_4 
REMARK    3  A    between atoms: C3_4  and  C4_5 
REMARK    4  A    between atoms: C4_5  and  O2_6 
REMARK    5  A    between atoms: O2_6  and  C5_7 
REMARK    6  A    between atoms: C15_18  and  O4_19 
REMARK    7  A    between atoms: C21_25  and  O5_27 
REMARK    8  A    between atoms: C23_28  and  O6_29 
REMARK    9  A    between atoms: C29_37  and  O8_38 
ROOT
HETATM    1  C5  UNL     1      -1.178  13.055  16.808  1.00  0.00     0.122 C 
HETATM    2  C6  UNL     1      -1.018  14.529  17.223  1.00  0.00     0.033 C 
HETATM    3  C7  UNL     1       0.347  14.840  17.834  1.00  0.00     0.014 C 
HETATM    4  C8  UNL     1       0.663  13.974  19.110  1.00  0.00    -0.010 C 
HETATM    5  C9  UNL     1      -0.090  14.665  20.283  1.00  0.00     0.018 C 
HETATM    6  C10 UNL     1      -0.037  12.576  18.997  1.00  0.00     0.073 C 
HETATM    7  C11 UNL     1      -0.211  12.117  17.547  1.00  0.00     0.045 C 
HETATM    8  C12 UNL     1       0.509  11.472  19.893  1.00  0.00     0.161 C 
HETATM    9  O3  UNL     1      -0.138  10.436  20.068  1.00  0.00    -0.292 OA
HETATM   10  C13 UNL     1       1.835  11.612  20.561  1.00  0.00    -0.005 C 
HETATM   11  C14 UNL     1       2.613  12.679  20.291  1.00  0.00    -0.013 C 
HETATM   12  C15 UNL     1       4.049  12.614  20.737  1.00  0.00     0.095 C 
HETATM   13  C16 UNL     1       4.367  11.702  21.918  1.00  0.00     0.026 C 
HETATM   14  C17 UNL     1       3.809  10.311  21.670  1.00  0.00     0.013 C 
HETATM   15  C18 UNL     1       2.291  10.413  21.390  1.00  0.00     0.043 C 
HETATM   16  C19 UNL     1       5.895  11.887  22.085  1.00  0.00     0.016 C 
HETATM   17  C20 UNL     1       6.258  13.226  21.320  1.00  0.00     0.034 C 
HETATM   18  C21 UNL     1       7.591  13.927  21.742  1.00  0.00     0.087 C 
HETATM   19  C22 UNL     1       7.775  13.957  23.281  1.00  0.00     0.049 C 
HETATM   20  C23 UNL     1       8.876  13.197  21.131  1.00  0.00     0.181 C 
HETATM   21  C24 UNL     1       9.301  13.279  19.618  1.00  0.00     0.158 C 
HETATM   22  O7  UNL     1      10.267  12.162  19.422  1.00  0.00    -0.373 OA
HETATM   23  C25 UNL     1       9.526  11.025  18.853  1.00  0.00     0.185 C 
HETATM   24  C26 UNL     1       8.083  11.513  18.732  1.00  0.00     0.028 C 
HETATM   25  C27 UNL     1       7.279  10.688  17.750  1.00  0.00     0.053 C 
HETATM   26  C28 UNL     1       7.870  10.657  16.345  1.00  0.00     0.309 C 
HETATM   27  N1  UNL     1       9.304  11.034  16.304  1.00  0.00     0.128 N 
HETATM   28  C29 UNL     1      10.069  10.557  17.455  1.00  0.00     0.384 C 
HETATM   29  C30 UNL     1       6.982  11.535  15.420  1.00  0.00     0.233 C 
HETATM   30  O9  UNL     1       7.349  12.567  14.865  1.00  0.00    -0.277 OA
HETATM   31  N2  UNL     1       5.706  10.959  15.273  1.00  0.00    -0.243 NA
HETATM   32  C31 UNL     1       4.937  11.215  14.094  1.00  0.00     0.120 A 
HETATM   33  C32 UNL     1       4.446  11.641  15.444  1.00  0.00     0.090 A 
HETATM   34  C33 UNL     1       4.266  13.104  15.713  1.00  0.00     0.115 C 
HETATM   35  C34 UNL     1       3.473  13.219  16.958  1.00  0.00    -0.104 C 
HETATM   36  C35 UNL     1       2.883  13.434  17.991  1.00  0.00    -0.090 C 
HETATM   37  C36 UNL     1       2.264  13.826  19.328  1.00  0.00     0.062 C 
HETATM   38  C37 UNL     1       3.051  15.148  19.803  1.00  0.00     0.012 C 
HETATM   39  C38 UNL     1       2.561  15.763  21.135  1.00  0.00     0.007 C 
HETATM   40  C39 UNL     1       3.651  15.974  22.167  1.00  0.00     0.001 C 
HETATM   41  C40 UNL     1       4.373  14.651  22.413  1.00  0.00     0.013 C 
HETATM   42  C41 UNL     1       4.843  13.923  21.113  1.00  0.00     0.002 C 
HETATM   43  C42 UNL     1       4.598  14.880  19.929  1.00  0.00     0.020 C 
HETATM   44  C43 UNL     1       8.362  12.990  18.466  1.00  0.00     0.020 C 
HETATM   45  C44 UNL     1       7.267  13.971  18.172  1.00  0.00     0.013 C 
HETATM   46  H42 UNL     1       9.715  10.693  15.439  1.00  0.00     0.320 HD
ENDROOT
BRANCH   1  47
HETATM   47  O2  UNL     1      -2.511  12.644  17.141  1.00  0.00    -0.386 OA
BRANCH  47  48
HETATM   48  C4  UNL     1      -2.672  12.181  18.476  1.00  0.00     0.170 C 
BRANCH  48  49
HETATM   49  C3  UNL     1      -3.516  10.909  18.565  1.00  0.00     0.052 C 
BRANCH  49  50
HETATM   50  C2  UNL     1      -3.438  10.062  17.298  1.00  0.00     0.169 C 
BRANCH  50  51
HETATM   51  O1  UNL     1      -2.242   9.283  17.327  1.00  0.00    -0.396 OA
HETATM   52  C1  UNL     1      -2.287   8.212  16.391  1.00  0.00     0.201 C 
ENDBRANCH  50  51
ENDBRANCH  49  50
ENDBRANCH  48  49
ENDBRANCH  47  48
ENDBRANCH   1  47
BRANCH  12  53
HETATM   53  O4  UNL     1       4.708  11.994  19.593  1.00  0.00    -0.384 OA
HETATM   54  H21 UNL     1       4.099  11.366  19.172  1.00  0.00     0.211 HD
ENDBRANCH  12  53
BRANCH  18  55
HETATM   55  O5  UNL     1       7.576  15.284  21.298  1.00  0.00    -0.387 OA
HETATM   56  H33 UNL     1       8.461  15.641  21.508  1.00  0.00     0.210 HD
ENDBRANCH  18  55
BRANCH  20  57
HETATM   57  O6  UNL     1      10.042  13.713  21.836  1.00  0.00    -0.390 OA
HETATM   58  H35 UNL     1      10.805  13.223  21.464  1.00  0.00     0.210 HD
ENDBRANCH  20  57
BRANCH  28  59
HETATM   59  O8  UNL     1      10.071   9.139  17.407  1.00  0.00    -0.366 OA
HETATM   60  H44 UNL     1      10.978   8.871  17.186  1.00  0.00     0.212 HD
ENDBRANCH  28  59
TORSDOF 9
ENDMDL
