MODEL 1
REMARK minimizedAffinity -10.0937862
REMARK  5 active torsions:
REMARK  status: ('A' for Active; 'I' for Inactive)
REMARK    1  A    between atoms: C4_4  and  C5_5 
REMARK    2  A    between atoms: N1_23  and  C22_24 
REMARK    3  A    between atoms: C22_24  and  C23_25 
REMARK    4  A    between atoms: C23_25  and  O2_26 
REMARK    5  A    between atoms: C26_29  and  O3_31 
ROOT
HETATM    1  C5  UNL     1      -0.256  50.720 -20.596  1.00  0.00     0.146 C 
HETATM    2  C6  UNL     1      -1.449  51.221 -19.803  1.00  0.00     0.043 C 
HETATM    3  C7  UNL     1      -2.459  50.091 -19.956  1.00  0.00     0.019 C 
HETATM    4  C8  UNL     1      -2.209  49.037 -18.868  1.00  0.00     0.013 C 
HETATM    5  C9  UNL     1      -2.193  49.609 -21.395  1.00  0.00     0.069 C 
HETATM    6  C10 UNL     1      -2.394  48.096 -21.670  1.00  0.00     0.040 C 
HETATM    7  C11 UNL     1      -3.090  48.010 -23.036  1.00  0.00     0.012 C 
HETATM    8  C12 UNL     1      -3.989  49.254 -23.070  1.00  0.00    -0.037 C 
HETATM    9  C13 UNL     1      -5.178  49.036 -22.088  1.00  0.00     0.015 C 
HETATM   10  C14 UNL     1      -4.628  49.596 -24.447  1.00  0.00     0.021 C 
HETATM   11  C15 UNL     1      -3.896  50.269 -25.630  1.00  0.00     0.052 C 
HETATM   12  C16 UNL     1      -2.970  51.460 -25.533  1.00  0.00    -0.038 C 
HETATM   13  C17 UNL     1      -2.591  52.398 -24.648  1.00  0.00     0.015 C 
HETATM   14  C18 UNL     1      -2.931  52.758 -23.237  1.00  0.00     0.045 C 
HETATM   15  C19 UNL     1      -3.628  51.687 -22.400  1.00  0.00     0.013 C 
HETATM   16  C20 UNL     1      -2.981  50.303 -22.560  1.00  0.00     0.029 C 
HETATM   17  C21 UNL     1      -1.405  53.064 -25.262  1.00  0.00     0.250 C 
HETATM   18  O1  UNL     1      -0.839  54.045 -24.817  1.00  0.00    -0.268 OA
HETATM   19  N1  UNL     1      -1.077  52.361 -26.405  1.00  0.00    -0.338 N 
HETATM   20  C24 UNL     1      -2.129  51.477 -26.775  1.00  0.00     0.120 C 
HETATM   21  C25 UNL     1      -1.797  50.008 -26.921  1.00  0.00     0.068 C 
HETATM   22  C26 UNL     1      -3.140  49.309 -26.624  1.00  0.00     0.064 C 
HETATM   23  C27 UNL     1      -3.952  49.096 -27.910  1.00  0.00     0.046 C 
HETATM   24  O4  UNL     1      -0.785  49.883 -21.634  1.00  0.00    -0.370 OA
ENDROOT
BRANCH   1  25
HETATM   25  C4  UNL     1       0.538  51.817 -21.236  1.00  0.00     0.007 C 
HETATM   26  C2  UNL     1       0.753  53.061 -20.764  1.00  0.00    -0.089 C 
HETATM   27  C1  UNL     1       0.183  53.602 -19.482  1.00  0.00     0.042 C 
HETATM   28  C3  UNL     1       1.610  54.033 -21.531  1.00  0.00     0.042 C 
ENDBRANCH   1  25
BRANCH  22  29
HETATM   29  O3  UNL     1      -2.898  48.020 -26.079  1.00  0.00    -0.389 OA
HETATM   30  H41 UNL     1      -2.290  47.543 -26.671  1.00  0.00     0.210 HD
ENDBRANCH  22  29
BRANCH  19  31
HETATM   31  C22 UNL     1      -0.086  52.832 -27.353  1.00  0.00     0.152 C 
BRANCH  31  32
HETATM   32  C23 UNL     1      -0.463  54.157 -28.016  1.00  0.00     0.184 C 
BRANCH  32  33
HETATM   33  O2  UNL     1      -1.822  54.135 -28.438  1.00  0.00    -0.399 OA
HETATM   34  H34 UNL     1      -1.877  53.516 -29.187  1.00  0.00     0.209 HD
ENDBRANCH  32  33
ENDBRANCH  31  32
ENDBRANCH  19  31
TORSDOF 5
ENDMDL
MODEL 2
REMARK minimizedAffinity -9.26959705
REMARK  5 active torsions:
REMARK  status: ('A' for Active; 'I' for Inactive)
REMARK    1  A    between atoms: C4_4  and  C5_5 
REMARK    2  A    between atoms: N1_23  and  C22_24 
REMARK    3  A    between atoms: C22_24  and  C23_25 
REMARK    4  A    between atoms: C23_25  and  O2_26 
REMARK    5  A    between atoms: C26_29  and  O3_31 
ROOT
HETATM    1  C5  UNL     1      -0.494  52.583 -23.143  1.00  0.00     0.146 C 
HETATM    2  C6  UNL     1       0.091  51.606 -24.146  1.00  0.00     0.043 C 
HETATM    3  C7  UNL     1      -1.008  51.494 -25.195  1.00  0.00     0.019 C 
HETATM    4  C8  UNL     1      -0.840  52.618 -26.227  1.00  0.00     0.013 C 
HETATM    5  C9  UNL     1      -2.285  51.589 -24.339  1.00  0.00     0.069 C 
HETATM    6  C10 UNL     1      -3.510  52.280 -24.993  1.00  0.00     0.040 C 
HETATM    7  C11 UNL     1      -4.728  51.438 -24.589  1.00  0.00     0.012 C 
HETATM    8  C12 UNL     1      -4.183  50.003 -24.538  1.00  0.00    -0.037 C 
HETATM    9  C13 UNL     1      -3.924  49.517 -25.994  1.00  0.00     0.015 C 
HETATM   10  C14 UNL     1      -5.119  48.941 -23.891  1.00  0.00     0.021 C 
HETATM   11  C15 UNL     1      -5.348  48.755 -22.374  1.00  0.00     0.052 C 
HETATM   12  C16 UNL     1      -4.272  48.752 -21.313  1.00  0.00    -0.038 C 
HETATM   13  C17 UNL     1      -2.932  48.710 -21.207  1.00  0.00     0.015 C 
HETATM   14  C18 UNL     1      -1.772  48.625 -22.147  1.00  0.00     0.045 C 
HETATM   15  C19 UNL     1      -2.040  48.983 -23.608  1.00  0.00     0.013 C 
HETATM   16  C20 UNL     1      -2.880  50.261 -23.755  1.00  0.00     0.029 C 
HETATM   17  C21 UNL     1      -2.638  49.023 -19.777  1.00  0.00     0.250 C 
HETATM   18  O1  UNL     1      -1.539  48.975 -19.256  1.00  0.00    -0.268 OA
HETATM   19  N1  UNL     1      -3.829  49.381 -19.176  1.00  0.00    -0.338 N 
HETATM   20  C24 UNL     1      -4.937  49.029 -19.997  1.00  0.00     0.120 C 
HETATM   21  C25 UNL     1      -5.903  50.126 -20.386  1.00  0.00     0.068 C 
HETATM   22  C26 UNL     1      -6.487  49.628 -21.725  1.00  0.00     0.064 C 
HETATM   23  C27 UNL     1      -7.759  48.798 -21.502  1.00  0.00     0.046 C 
HETATM   24  O4  UNL     1      -1.918  52.410 -23.196  1.00  0.00    -0.370 OA
ENDROOT
BRANCH   1  25
HETATM   25  C4  UNL     1      -0.043  52.335 -21.736  1.00  0.00     0.007 C 
HETATM   26  C2  UNL     1       0.795  53.087 -20.996  1.00  0.00    -0.089 C 
HETATM   27  C1  UNL     1       1.482  54.334 -21.480  1.00  0.00     0.042 C 
HETATM   28  C3  UNL     1       1.117  52.703 -19.576  1.00  0.00     0.042 C 
ENDBRANCH   1  25
BRANCH  22  29
HETATM   29  O3  UNL     1      -6.863  50.739 -22.525  1.00  0.00    -0.389 OA
HETATM   30  H41 UNL     1      -7.439  51.320 -21.998  1.00  0.00     0.210 HD
ENDBRANCH  22  29
BRANCH  19  31
HETATM   31  C22 UNL     1      -3.953  49.575 -17.745  1.00  0.00     0.152 C 
BRANCH  31  32
HETATM   32  C23 UNL     1      -3.024  50.658 -17.197  1.00  0.00     0.184 C 
BRANCH  32  33
HETATM   33  O2  UNL     1      -2.879  51.715 -18.140  1.00  0.00    -0.399 OA
HETATM   34  H34 UNL     1      -2.357  51.363 -18.883  1.00  0.00     0.209 HD
ENDBRANCH  32  33
ENDBRANCH  31  32
ENDBRANCH  19  31
TORSDOF 5
ENDMDL
MODEL 3
REMARK minimizedAffinity -9.1629858
REMARK  5 active torsions:
REMARK  status: ('A' for Active; 'I' for Inactive)
REMARK    1  A    between atoms: C4_4  and  C5_5 
REMARK    2  A    between atoms: N1_23  and  C22_24 
REMARK    3  A    between atoms: C22_24  and  C23_25 
REMARK    4  A    between atoms: C23_25  and  O2_26 
REMARK    5  A    between atoms: C26_29  and  O3_31 
ROOT
HETATM    1  C5  UNL     1      -0.805  52.245 -21.862  1.00  0.00     0.146 C 
HETATM    2  C6  UNL     1      -0.023  51.461 -22.899  1.00  0.00     0.043 C 
HETATM    3  C7  UNL     1      -0.879  51.601 -24.151  1.00  0.00     0.019 C 
HETATM    4  C8  UNL     1      -0.501  52.898 -24.881  1.00  0.00     0.013 C 
HETATM    5  C9  UNL     1      -2.307  51.579 -23.572  1.00  0.00     0.069 C 
HETATM    6  C10 UNL     1      -3.369  52.434 -24.311  1.00  0.00     0.040 C 
HETATM    7  C11 UNL     1      -4.645  51.579 -24.341  1.00  0.00     0.012 C 
HETATM    8  C12 UNL     1      -4.121  50.142 -24.468  1.00  0.00    -0.037 C 
HETATM    9  C13 UNL     1      -3.563  49.940 -25.908  1.00  0.00     0.015 C 
HETATM   10  C14 UNL     1      -5.170  49.012 -24.253  1.00  0.00     0.021 C 
HETATM   11  C15 UNL     1      -5.709  48.542 -22.883  1.00  0.00     0.052 C 
HETATM   12  C16 UNL     1      -4.878  48.287 -21.647  1.00  0.00    -0.038 C 
HETATM   13  C17 UNL     1      -3.589  48.170 -21.280  1.00  0.00     0.015 C 
HETATM   14  C18 UNL     1      -2.259  48.224 -21.961  1.00  0.00     0.045 C 
HETATM   15  C19 UNL     1      -2.217  48.872 -23.344  1.00  0.00     0.013 C 
HETATM   16  C20 UNL     1      -3.010  50.187 -23.401  1.00  0.00     0.029 C 
HETATM   17  C21 UNL     1      -3.600  48.185 -19.787  1.00  0.00     0.250 C 
HETATM   18  O1  UNL     1      -2.634  47.991 -19.074  1.00  0.00    -0.268 OA
HETATM   19  N1  UNL     1      -4.891  48.466 -19.383  1.00  0.00    -0.338 N 
HETATM   20  C24 UNL     1      -5.802  48.328 -20.467  1.00  0.00     0.120 C 
HETATM   21  C25 UNL     1      -6.668  49.519 -20.817  1.00  0.00     0.068 C 
HETATM   22  C26 UNL     1      -6.959  49.317 -22.319  1.00  0.00     0.064 C 
HETATM   23  C27 UNL     1      -8.249  48.511 -22.531  1.00  0.00     0.046 C 
HETATM   24  O4  UNL     1      -2.187  52.144 -22.238  1.00  0.00    -0.370 OA
ENDROOT
BRANCH   1  25
HETATM   25  C4  UNL     1      -0.657  51.708 -20.471  1.00  0.00     0.007 C 
HETATM   26  C2  UNL     1       0.117  52.192 -19.480  1.00  0.00    -0.089 C 
HETATM   27  C1  UNL     1       1.033  53.378 -19.609  1.00  0.00     0.042 C 
HETATM   28  C3  UNL     1       0.120  51.540 -18.123  1.00  0.00     0.042 C 
ENDBRANCH   1  25
BRANCH  22  29
HETATM   29  O3  UNL     1      -7.161  50.578 -22.940  1.00  0.00    -0.389 OA
HETATM   30  H41 UNL     1      -7.835  51.067 -22.437  1.00  0.00     0.210 HD
ENDBRANCH  22  29
BRANCH  19  31
HETATM   31  C22 UNL     1      -5.310  48.381 -17.998  1.00  0.00     0.152 C 
BRANCH  31  32
HETATM   32  C23 UNL     1      -6.600  47.585 -17.802  1.00  0.00     0.184 C 
BRANCH  32  33
HETATM   33  O2  UNL     1      -7.624  48.416 -17.267  1.00  0.00    -0.399 OA
HETATM   34  H34 UNL     1      -7.374  48.618 -16.348  1.00  0.00     0.209 HD
ENDBRANCH  32  33
ENDBRANCH  31  32
ENDBRANCH  19  31
TORSDOF 5
ENDMDL
MODEL 4
REMARK minimizedAffinity -8.98616886
REMARK  5 active torsions:
REMARK  status: ('A' for Active; 'I' for Inactive)
REMARK    1  A    between atoms: C4_4  and  C5_5 
REMARK    2  A    between atoms: N1_23  and  C22_24 
REMARK    3  A    between atoms: C22_24  and  C23_25 
REMARK    4  A    between atoms: C23_25  and  O2_26 
REMARK    5  A    between atoms: C26_29  and  O3_31 
ROOT
HETATM    1  C5  UNL     1      -1.588  51.591 -20.973  1.00  0.00     0.146 C 
HETATM    2  C6  UNL     1      -0.494  50.903 -21.767  1.00  0.00     0.043 C 
HETATM    3  C7  UNL     1      -0.895  51.178 -23.210  1.00  0.00     0.019 C 
HETATM    4  C8  UNL     1      -0.324  52.535 -23.645  1.00  0.00     0.013 C 
HETATM    5  C9  UNL     1      -2.432  51.118 -23.138  1.00  0.00     0.069 C 
HETATM    6  C10 UNL     1      -3.210  52.056 -24.097  1.00  0.00     0.040 C 
HETATM    7  C11 UNL     1      -4.388  51.225 -24.627  1.00  0.00     0.012 C 
HETATM    8  C12 UNL     1      -3.823  49.800 -24.715  1.00  0.00    -0.037 C 
HETATM    9  C13 UNL     1      -2.820  49.734 -25.904  1.00  0.00     0.015 C 
HETATM   10  C14 UNL     1      -4.862  48.669 -24.967  1.00  0.00     0.021 C 
HETATM   11  C15 UNL     1      -5.811  48.074 -23.903  1.00  0.00     0.052 C 
HETATM   12  C16 UNL     1      -5.427  47.686 -22.493  1.00  0.00    -0.038 C 
HETATM   13  C17 UNL     1      -4.328  47.517 -21.737  1.00  0.00     0.015 C 
HETATM   14  C18 UNL     1      -2.849  47.620 -21.935  1.00  0.00     0.045 C 
HETATM   15  C19 UNL     1      -2.368  48.401 -23.157  1.00  0.00     0.013 C 
HETATM   16  C20 UNL     1      -3.125  49.726 -23.343  1.00  0.00     0.029 C 
HETATM   17  C21 UNL     1      -4.828  47.385 -20.337  1.00  0.00     0.250 C 
HETATM   18  O1  UNL     1      -4.145  47.108 -19.368  1.00  0.00    -0.268 OA
HETATM   19  N1  UNL     1      -6.185  47.642 -20.353  1.00  0.00    -0.338 N 
HETATM   20  C24 UNL     1      -6.688  47.623 -21.684  1.00  0.00     0.120 C 
HETATM   21  C25 UNL     1      -7.414  48.854 -22.181  1.00  0.00     0.068 C 
HETATM   22  C26 UNL     1      -7.193  48.806 -23.707  1.00  0.00     0.064 C 
HETATM   23  C27 UNL     1      -8.325  48.042 -24.409  1.00  0.00     0.046 C 
HETATM   24  O4  UNL     1      -2.767  51.546 -21.789  1.00  0.00    -0.370 OA
ENDROOT
BRANCH   1  25
HETATM   25  C4  UNL     1      -1.893  50.918 -19.670  1.00  0.00     0.007 C 
HETATM   26  C2  UNL     1      -1.192  50.992 -18.521  1.00  0.00    -0.089 C 
HETATM   27  C1  UNL     1       0.088  51.760 -18.346  1.00  0.00     0.042 C 
HETATM   28  C3  UNL     1      -1.666  50.269 -17.288  1.00  0.00     0.042 C 
ENDBRANCH   1  25
BRANCH  22  29
HETATM   29  O3  UNL     1      -7.205  50.124 -24.234  1.00  0.00    -0.389 OA
HETATM   30  H41 UNL     1      -8.016  50.570 -23.935  1.00  0.00     0.210 HD
ENDBRANCH  22  29
BRANCH  19  31
HETATM   31  C22 UNL     1      -7.033  47.426 -19.197  1.00  0.00     0.152 C 
BRANCH  31  32
HETATM   32  C23 UNL     1      -7.478  48.723 -18.521  1.00  0.00     0.184 C 
BRANCH  32  33
HETATM   33  O2  UNL     1      -7.875  48.475 -17.177  1.00  0.00    -0.399 OA
HETATM   34  H34 UNL     1      -8.709  47.975 -17.215  1.00  0.00     0.209 HD
ENDBRANCH  32  33
ENDBRANCH  31  32
ENDBRANCH  19  31
TORSDOF 5
ENDMDL
MODEL 5
REMARK minimizedAffinity -8.87519836
REMARK  5 active torsions:
REMARK  status: ('A' for Active; 'I' for Inactive)
REMARK    1  A    between atoms: C4_4  and  C5_5 
REMARK    2  A    between atoms: N1_23  and  C22_24 
REMARK    3  A    between atoms: C22_24  and  C23_25 
REMARK    4  A    between atoms: C23_25  and  O2_26 
REMARK    5  A    between atoms: C26_29  and  O3_31 
ROOT
HETATM    1  C5  UNL     1      -5.630  50.876 -23.297  1.00  0.00     0.146 C 
HETATM    2  C6  UNL     1      -5.648  49.405 -23.668  1.00  0.00     0.043 C 
HETATM    3  C7  UNL     1      -5.879  48.718 -22.329  1.00  0.00     0.019 C 
HETATM    4  C8  UNL     1      -7.387  48.642 -22.051  1.00  0.00     0.013 C 
HETATM    5  C9  UNL     1      -5.088  49.619 -21.361  1.00  0.00     0.069 C 
HETATM    6  C10 UNL     1      -5.657  49.763 -19.925  1.00  0.00     0.040 C 
HETATM    7  C11 UNL     1      -4.442  49.713 -18.988  1.00  0.00     0.012 C 
HETATM    8  C12 UNL     1      -3.479  48.743 -19.688  1.00  0.00    -0.037 C 
HETATM    9  C13 UNL     1      -4.046  47.298 -19.558  1.00  0.00     0.015 C 
HETATM   10  C14 UNL     1      -2.032  48.688 -19.116  1.00  0.00     0.021 C 
HETATM   11  C15 UNL     1      -0.930  49.741 -19.371  1.00  0.00     0.052 C 
HETATM   12  C16 UNL     1      -0.598  50.367 -20.706  1.00  0.00    -0.038 C 
HETATM   13  C17 UNL     1      -0.877  50.211 -22.012  1.00  0.00     0.015 C 
HETATM   14  C18 UNL     1      -1.691  49.272 -22.843  1.00  0.00     0.045 C 
HETATM   15  C19 UNL     1      -2.753  48.450 -22.114  1.00  0.00     0.013 C 
HETATM   16  C20 UNL     1      -3.573  49.293 -21.124  1.00  0.00     0.029 C 
HETATM   17  C21 UNL     1      -0.349  51.439 -22.678  1.00  0.00     0.250 C 
HETATM   18  O1  UNL     1      -0.309  51.627 -23.880  1.00  0.00    -0.268 OA
HETATM   19  N1  UNL     1       0.069  52.305 -21.686  1.00  0.00    -0.338 N 
HETATM   20  C24 UNL     1       0.157  51.634 -20.433  1.00  0.00     0.120 C 
HETATM   21  C25 UNL     1      -0.634  52.200 -19.274  1.00  0.00     0.068 C 
HETATM   22  C26 UNL     1      -0.888  50.966 -18.382  1.00  0.00     0.064 C 
HETATM   23  C27 UNL     1       0.226  50.796 -17.339  1.00  0.00     0.046 C 
HETATM   24  O4  UNL     1      -5.134  50.946 -21.952  1.00  0.00    -0.370 OA
ENDROOT
BRANCH   1  25
HETATM   25  C4  UNL     1      -4.735  51.701 -24.171  1.00  0.00     0.007 C 
HETATM   26  C2  UNL     1      -3.949  51.275 -25.178  1.00  0.00    -0.089 C 
HETATM   27  C1  UNL     1      -3.793  49.839 -25.597  1.00  0.00     0.042 C 
HETATM   28  C3  UNL     1      -3.132  52.255 -25.979  1.00  0.00     0.042 C 
ENDBRANCH   1  25
BRANCH  22  29
HETATM   29  O3  UNL     1      -2.098  51.140 -17.659  1.00  0.00    -0.389 OA
HETATM   30  H41 UNL     1      -2.065  51.999 -17.201  1.00  0.00     0.210 HD
ENDBRANCH  22  29
BRANCH  19  31
HETATM   31  C22 UNL     1       0.804  53.521 -21.970  1.00  0.00     0.152 C 
BRANCH  31  32
HETATM   32  C23 UNL     1       1.043  53.750 -23.463  1.00  0.00     0.184 C 
BRANCH  32  33
HETATM   33  O2  UNL     1       1.505  55.076 -23.696  1.00  0.00    -0.399 OA
HETATM   34  H34 UNL     1       0.755  55.673 -23.522  1.00  0.00     0.209 HD
ENDBRANCH  32  33
ENDBRANCH  31  32
ENDBRANCH  19  31
TORSDOF 5
ENDMDL
MODEL 6
REMARK minimizedAffinity -8.74243069
REMARK  5 active torsions:
REMARK  status: ('A' for Active; 'I' for Inactive)
REMARK    1  A    between atoms: C4_4  and  C5_5 
REMARK    2  A    between atoms: N1_23  and  C22_24 
REMARK    3  A    between atoms: C22_24  and  C23_25 
REMARK    4  A    between atoms: C23_25  and  O2_26 
REMARK    5  A    between atoms: C26_29  and  O3_31 
ROOT
HETATM    1  C5  UNL     1      -2.377  50.109 -27.325  1.00  0.00     0.146 C 
HETATM    2  C6  UNL     1      -2.484  51.566 -27.732  1.00  0.00     0.043 C 
HETATM    3  C7  UNL     1      -1.156  52.149 -27.265  1.00  0.00     0.019 C 
HETATM    4  C8  UNL     1      -0.100  51.945 -28.360  1.00  0.00     0.013 C 
HETATM    5  C9  UNL     1      -0.897  51.366 -25.964  1.00  0.00     0.069 C 
HETATM    6  C10 UNL     1       0.585  51.066 -25.617  1.00  0.00     0.040 C 
HETATM    7  C11 UNL     1       0.713  51.295 -24.104  1.00  0.00     0.012 C 
HETATM    8  C12 UNL     1      -0.262  52.447 -23.823  1.00  0.00    -0.037 C 
HETATM    9  C13 UNL     1       0.340  53.762 -24.400  1.00  0.00     0.015 C 
HETATM   10  C14 UNL     1      -0.563  52.736 -22.323  1.00  0.00     0.021 C 
HETATM   11  C15 UNL     1      -1.508  51.907 -21.425  1.00  0.00     0.052 C 
HETATM   12  C16 UNL     1      -2.879  51.402 -21.814  1.00  0.00    -0.038 C 
HETATM   13  C17 UNL     1      -3.793  51.556 -22.787  1.00  0.00     0.015 C 
HETATM   14  C18 UNL     1      -3.920  52.367 -24.037  1.00  0.00     0.045 C 
HETATM   15  C19 UNL     1      -2.633  52.959 -24.610  1.00  0.00     0.013 C 
HETATM   16  C20 UNL     1      -1.478  51.946 -24.628  1.00  0.00     0.029 C 
HETATM   17  C21 UNL     1      -4.792  50.469 -22.567  1.00  0.00     0.250 C 
HETATM   18  O1  UNL     1      -5.837  50.338 -23.178  1.00  0.00    -0.268 OA
HETATM   19  N1  UNL     1      -4.306  49.653 -21.564  1.00  0.00    -0.338 N 
HETATM   20  C24 UNL     1      -3.226  50.279 -20.882  1.00  0.00     0.120 C 
HETATM   21  C25 UNL     1      -1.908  49.537 -20.817  1.00  0.00     0.068 C 
HETATM   22  C26 UNL     1      -0.868  50.670 -20.687  1.00  0.00     0.064 C 
HETATM   23  C27 UNL     1      -0.582  50.995 -19.214  1.00  0.00     0.046 C 
HETATM   24  O4  UNL     1      -1.537  50.075 -26.162  1.00  0.00    -0.370 OA
ENDROOT
BRANCH   1  25
HETATM   25  C4  UNL     1      -3.695  49.491 -26.969  1.00  0.00     0.007 C 
HETATM   26  C2  UNL     1      -4.007  48.801 -25.854  1.00  0.00    -0.089 C 
HETATM   27  C1  UNL     1      -3.043  48.484 -24.745  1.00  0.00     0.042 C 
HETATM   28  C3  UNL     1      -5.401  48.273 -25.646  1.00  0.00     0.042 C 
ENDBRANCH   1  25
BRANCH  22  29
HETATM   29  O3  UNL     1       0.364  50.256 -21.258  1.00  0.00    -0.389 OA
HETATM   30  H41 UNL     1       0.614  49.400 -20.868  1.00  0.00     0.210 HD
ENDBRANCH  22  29
BRANCH  19  31
HETATM   31  C22 UNL     1      -5.099  48.598 -20.964  1.00  0.00     0.152 C 
BRANCH  31  32
HETATM   32  C23 UNL     1      -6.071  49.102 -19.897  1.00  0.00     0.184 C 
BRANCH  32  33
HETATM   33  O2  UNL     1      -6.656  50.336 -20.297  1.00  0.00    -0.399 OA
HETATM   34  H34 UNL     1      -5.954  51.010 -20.259  1.00  0.00     0.209 HD
ENDBRANCH  32  33
ENDBRANCH  31  32
ENDBRANCH  19  31
TORSDOF 5
ENDMDL
MODEL 7
REMARK minimizedAffinity -8.62066269
REMARK  5 active torsions:
REMARK  status: ('A' for Active; 'I' for Inactive)
REMARK    1  A    between atoms: C4_4  and  C5_5 
REMARK    2  A    between atoms: N1_23  and  C22_24 
REMARK    3  A    between atoms: C22_24  and  C23_25 
REMARK    4  A    between atoms: C23_25  and  O2_26 
REMARK    5  A    between atoms: C26_29  and  O3_31 
ROOT
HETATM    1  C5  UNL     1      -4.315  51.064 -23.523  1.00  0.00     0.146 C 
HETATM    2  C6  UNL     1      -4.051  49.776 -24.280  1.00  0.00     0.043 C 
HETATM    3  C7  UNL     1      -4.896  48.757 -23.526  1.00  0.00     0.019 C 
HETATM    4  C8  UNL     1      -6.324  48.767 -24.089  1.00  0.00     0.013 C 
HETATM    5  C9  UNL     1      -4.772  49.246 -22.070  1.00  0.00     0.069 C 
HETATM    6  C10 UNL     1      -6.006  49.026 -21.157  1.00  0.00     0.040 C 
HETATM    7  C11 UNL     1      -5.445  48.574 -19.801  1.00  0.00     0.012 C 
HETATM    8  C12 UNL     1      -4.203  47.751 -20.173  1.00  0.00    -0.037 C 
HETATM    9  C13 UNL     1      -4.667  46.402 -20.797  1.00  0.00     0.015 C 
HETATM   10  C14 UNL     1      -3.256  47.376 -18.996  1.00  0.00     0.021 C 
HETATM   11  C15 UNL     1      -2.245  48.331 -18.322  1.00  0.00     0.052 C 
HETATM   12  C16 UNL     1      -1.312  49.280 -19.040  1.00  0.00    -0.038 C 
HETATM   13  C17 UNL     1      -0.869  49.543 -20.282  1.00  0.00     0.015 C 
HETATM   14  C18 UNL     1      -1.083  48.981 -21.651  1.00  0.00     0.045 C 
HETATM   15  C19 UNL     1      -2.316  48.102 -21.852  1.00  0.00     0.013 C 
HETATM   16  C20 UNL     1      -3.577  48.703 -21.212  1.00  0.00     0.029 C 
HETATM   17  C21 UNL     1      -0.149  50.846 -20.177  1.00  0.00     0.250 C 
HETATM   18  O1  UNL     1       0.491  51.371 -21.069  1.00  0.00    -0.268 OA
HETATM   19  N1  UNL     1      -0.355  51.334 -18.901  1.00  0.00    -0.338 N 
HETATM   20  C24 UNL     1      -0.884  50.323 -18.051  1.00  0.00     0.120 C 
HETATM   21  C25 UNL     1      -2.191  50.608 -17.344  1.00  0.00     0.068 C 
HETATM   22  C26 UNL     1      -2.792  49.203 -17.130  1.00  0.00     0.064 C 
HETATM   23  C27 UNL     1      -2.366  48.617 -15.777  1.00  0.00     0.046 C 
HETATM   24  O4  UNL     1      -4.587  50.685 -22.166  1.00  0.00    -0.370 OA
ENDROOT
BRANCH   1  25
HETATM   25  C4  UNL     1      -3.150  52.005 -23.522  1.00  0.00     0.007 C 
HETATM   26  C2  UNL     1      -1.953  51.834 -24.118  1.00  0.00    -0.089 C 
HETATM   27  C1  UNL     1      -1.544  50.607 -24.883  1.00  0.00     0.042 C 
HETATM   28  C3  UNL     1      -0.899  52.907 -24.041  1.00  0.00     0.042 C 
ENDBRANCH   1  25
BRANCH  22  29
HETATM   29  O3  UNL     1      -4.209  49.289 -17.106  1.00  0.00    -0.389 OA
HETATM   30  H41 UNL     1      -4.469  49.967 -16.458  1.00  0.00     0.210 HD
ENDBRANCH  22  29
BRANCH  19  31
HETATM   31  C22 UNL     1       0.347  52.494 -18.387  1.00  0.00     0.152 C 
BRANCH  31  32
HETATM   32  C23 UNL     1       1.226  52.184 -17.176  1.00  0.00     0.184 C 
BRANCH  32  33
HETATM   33  O2  UNL     1       1.447  53.359 -16.405  1.00  0.00    -0.399 OA
HETATM   34  H34 UNL     1       2.029  53.938 -16.929  1.00  0.00     0.209 HD
ENDBRANCH  32  33
ENDBRANCH  31  32
ENDBRANCH  19  31
TORSDOF 5
ENDMDL
MODEL 8
REMARK minimizedAffinity -8.61035728
REMARK  5 active torsions:
REMARK  status: ('A' for Active; 'I' for Inactive)
REMARK    1  A    between atoms: C4_4  and  C5_5 
REMARK    2  A    between atoms: N1_23  and  C22_24 
REMARK    3  A    between atoms: C22_24  and  C23_25 
REMARK    4  A    between atoms: C23_25  and  O2_26 
REMARK    5  A    between atoms: C26_29  and  O3_31 
ROOT
HETATM    1  C5  UNL     1      -7.961  47.280 -26.730  1.00  0.00     0.146 C 
HETATM    2  C6  UNL     1      -8.925  48.451 -26.699  1.00  0.00     0.043 C 
HETATM    3  C7  UNL     1     -10.227  47.836 -27.194  1.00  0.00     0.019 C 
HETATM    4  C8  UNL     1     -10.979  47.216 -26.008  1.00  0.00     0.013 C 
HETATM    5  C9  UNL     1      -9.729  46.823 -28.243  1.00  0.00     0.069 C 
HETATM    6  C10 UNL     1     -10.555  45.519 -28.397  1.00  0.00     0.040 C 
HETATM    7  C11 UNL     1     -10.628  45.248 -29.906  1.00  0.00     0.012 C 
HETATM    8  C12 UNL     1     -10.676  46.650 -30.530  1.00  0.00    -0.037 C 
HETATM    9  C13 UNL     1     -12.074  47.274 -30.247  1.00  0.00     0.015 C 
HETATM   10  C14 UNL     1     -10.481  46.717 -32.073  1.00  0.00     0.021 C 
HETATM   11  C15 UNL     1      -9.128  46.592 -32.810  1.00  0.00     0.052 C 
HETATM   12  C16 UNL     1      -7.839  47.273 -32.412  1.00  0.00    -0.038 C 
HETATM   13  C17 UNL     1      -7.397  48.228 -31.575  1.00  0.00     0.015 C 
HETATM   14  C18 UNL     1      -8.003  49.158 -30.573  1.00  0.00     0.045 C 
HETATM   15  C19 UNL     1      -9.403  48.810 -30.068  1.00  0.00     0.013 C 
HETATM   16  C20 UNL     1      -9.550  47.321 -29.719  1.00  0.00     0.029 C 
HETATM   17  C21 UNL     1      -5.908  48.115 -31.597  1.00  0.00     0.250 C 
HETATM   18  O1  UNL     1      -5.135  48.880 -31.051  1.00  0.00    -0.268 OA
HETATM   19  N1  UNL     1      -5.587  46.991 -32.333  1.00  0.00    -0.338 N 
HETATM   20  C24 UNL     1      -6.715  46.527 -33.066  1.00  0.00     0.120 C 
HETATM   21  C25 UNL     1      -7.153  45.094 -32.851  1.00  0.00     0.068 C 
HETATM   22  C26 UNL     1      -8.662  45.132 -33.176  1.00  0.00     0.064 C 
HETATM   23  C27 UNL     1      -8.918  44.827 -34.658  1.00  0.00     0.046 C 
HETATM   24  O4  UNL     1      -8.410  46.417 -27.785  1.00  0.00    -0.370 OA
ENDROOT
BRANCH   1  25
HETATM   25  C4  UNL     1      -6.547  47.679 -27.020  1.00  0.00     0.007 C 
HETATM   26  C2  UNL     1      -5.605  48.072 -26.140  1.00  0.00    -0.089 C 
HETATM   27  C1  UNL     1      -5.824  48.222 -24.660  1.00  0.00     0.042 C 
HETATM   28  C3  UNL     1      -4.214  48.409 -26.607  1.00  0.00     0.042 C 
ENDBRANCH   1  25
BRANCH  22  29
HETATM   29  O3  UNL     1      -9.336  44.128 -32.432  1.00  0.00    -0.389 OA
HETATM   30  H41 UNL     1      -8.889  43.277 -32.583  1.00  0.00     0.210 HD
ENDBRANCH  22  29
BRANCH  19  31
HETATM   31  C22 UNL     1      -4.225  46.673 -32.715  1.00  0.00     0.152 C 
BRANCH  31  32
HETATM   32  C23 UNL     1      -3.702  47.531 -33.867  1.00  0.00     0.184 C 
BRANCH  32  33
HETATM   33  O2  UNL     1      -2.436  48.092 -33.536  1.00  0.00    -0.399 OA
HETATM   34  H34 UNL     1      -2.593  48.761 -32.846  1.00  0.00     0.209 HD
ENDBRANCH  32  33
ENDBRANCH  31  32
ENDBRANCH  19  31
TORSDOF 5
ENDMDL
MODEL 9
REMARK minimizedAffinity -8.55587673
REMARK  5 active torsions:
REMARK  status: ('A' for Active; 'I' for Inactive)
REMARK    1  A    between atoms: C4_4  and  C5_5 
REMARK    2  A    between atoms: N1_23  and  C22_24 
REMARK    3  A    between atoms: C22_24  and  C23_25 
REMARK    4  A    between atoms: C23_25  and  O2_26 
REMARK    5  A    between atoms: C26_29  and  O3_31 
ROOT
HETATM    1  C5  UNL     1      -6.620  49.350 -20.646  1.00  0.00     0.146 C 
HETATM    2  C6  UNL     1      -6.254  47.909 -20.343  1.00  0.00     0.043 C 
HETATM    3  C7  UNL     1      -5.150  48.049 -19.304  1.00  0.00     0.019 C 
HETATM    4  C8  UNL     1      -5.778  48.157 -17.908  1.00  0.00     0.013 C 
HETATM    5  C9  UNL     1      -4.413  49.315 -19.780  1.00  0.00     0.069 C 
HETATM    6  C10 UNL     1      -3.794  50.214 -18.679  1.00  0.00     0.040 C 
HETATM    7  C11 UNL     1      -2.426  50.654 -19.220  1.00  0.00     0.012 C 
HETATM    8  C12 UNL     1      -1.948  49.446 -20.038  1.00  0.00    -0.037 C 
HETATM    9  C13 UNL     1      -1.554  48.303 -19.056  1.00  0.00     0.015 C 
HETATM   10  C14 UNL     1      -0.703  49.682 -20.941  1.00  0.00     0.021 C 
HETATM   11  C15 UNL     1      -0.711  50.418 -22.300  1.00  0.00     0.052 C 
HETATM   12  C16 UNL     1      -1.729  50.227 -23.402  1.00  0.00    -0.038 C 
HETATM   13  C17 UNL     1      -2.734  49.401 -23.741  1.00  0.00     0.015 C 
HETATM   14  C18 UNL     1      -3.372  48.177 -23.168  1.00  0.00     0.045 C 
HETATM   15  C19 UNL     1      -3.108  47.888 -21.690  1.00  0.00     0.013 C 
HETATM   16  C20 UNL     1      -3.246  49.143 -20.813  1.00  0.00     0.029 C 
HETATM   17  C21 UNL     1      -3.432  50.074 -24.877  1.00  0.00     0.250 C 
HETATM   18  O1  UNL     1      -4.332  49.589 -25.537  1.00  0.00    -0.268 OA
HETATM   19  N1  UNL     1      -2.875  51.329 -25.024  1.00  0.00    -0.338 N 
HETATM   20  C24 UNL     1      -1.658  51.432 -24.293  1.00  0.00     0.120 C 
HETATM   21  C25 UNL     1      -1.540  52.542 -23.272  1.00  0.00     0.068 C 
HETATM   22  C26 UNL     1      -0.526  51.982 -22.252  1.00  0.00     0.064 C 
HETATM   23  C27 UNL     1       0.910  52.378 -22.623  1.00  0.00     0.046 C 
HETATM   24  O4  UNL     1      -5.428  50.121 -20.440  1.00  0.00    -0.370 OA
ENDROOT
BRANCH   1  25
HETATM   25  C4  UNL     1      -7.081  49.565 -22.055  1.00  0.00     0.007 C 
HETATM   26  C2  UNL     1      -7.222  48.640 -23.025  1.00  0.00    -0.089 C 
HETATM   27  C1  UNL     1      -6.895  47.181 -22.873  1.00  0.00     0.042 C 
HETATM   28  C3  UNL     1      -7.732  49.031 -24.387  1.00  0.00     0.042 C 
ENDBRANCH   1  25
BRANCH  22  29
HETATM   29  O3  UNL     1      -0.782  52.535 -20.970  1.00  0.00    -0.389 OA
HETATM   30  H41 UNL     1      -0.814  53.504 -21.051  1.00  0.00     0.210 HD
ENDBRANCH  22  29
BRANCH  19  31
HETATM   31  C22 UNL     1      -3.183  52.193 -26.146  1.00  0.00     0.152 C 
BRANCH  31  32
HETATM   32  C23 UNL     1      -2.093  52.209 -27.217  1.00  0.00     0.184 C 
BRANCH  32  33
HETATM   33  O2  UNL     1      -2.081  53.458 -27.899  1.00  0.00    -0.399 OA
HETATM   34  H34 UNL     1      -2.890  53.494 -28.440  1.00  0.00     0.209 HD
ENDBRANCH  32  33
ENDBRANCH  31  32
ENDBRANCH  19  31
TORSDOF 5
ENDMDL
