MODEL 1
REMARK minimizedAffinity -9.50091362
REMARK CNNscore 0.430380851
REMARK CNNaffinity 6.90399313
REMARK  18 active torsions:
REMARK  status: ('A' for Active; 'I' for Inactive)
REMARK    1  A    between atoms: C2_2  and  C4_4 
REMARK    2  A    between atoms: C4_4  and  N1_5 
REMARK    3  A    between atoms: C4_4  and  C30_38 
REMARK       I    between atoms: N1_5  and  C5_6 
REMARK    4  A    between atoms: C5_6  and  C6_8 
REMARK    5  A    between atoms: C6_8  and  C7_9 
REMARK    6  A    between atoms: C7_9  and  C8_10 
REMARK    7  A    between atoms: C8_10  and  O3_12 
REMARK    8  A    between atoms: O3_12  and  C9_13 
REMARK    9  A    between atoms: C9_13  and  C10_14 
REMARK   10  A    between atoms: C10_14  and  C11_16 
REMARK   11  A    between atoms: C11_16  and  O5_17 
REMARK   12  A    between atoms: C26_33  and  O7_34 
REMARK       I    between atoms: C30_38  and  N2_40 
REMARK   13  A    between atoms: N2_40  and  C31_41 
REMARK   14  A    between atoms: C31_41  and  C32_42 
REMARK   15  A    between atoms: C32_42  and  C33_43 
REMARK   16  A    between atoms: C32_42  and  C35_47 
REMARK   17  A    between atoms: C33_43  and  C34_44 
REMARK   18  A    between atoms: C34_44  and  O10_46 
ROOT
HETATM    1  C8  UNL     1       5.928   8.621  11.285  1.00  0.00     0.259 C 
HETATM    2  O2  UNL     1       5.460   9.547  10.631  1.00  0.00    -0.265 OA
ENDROOT
BRANCH   1   3
HETATM    3  C7  UNL     1       5.264   7.269  11.411  1.00  0.00     0.120 C 
BRANCH   3   4
HETATM    4  C6  UNL     1       4.295   6.952  10.277  1.00  0.00     0.112 C 
BRANCH   4   5
HETATM    5  C5  UNL     1       2.855   7.241  10.640  1.00  0.00     0.218 C 
HETATM    6  N1  UNL     1       1.979   6.370  10.023  1.00  0.00    -0.347 N 
HETATM    7  H9  UNL     1       2.310   5.981   9.148  1.00  0.00     0.163 HD
HETATM    8  O1  UNL     1       2.506   8.140  11.395  1.00  0.00    -0.274 OA
BRANCH   6   9
HETATM    9  C4  UNL     1       0.535   6.606  10.081  1.00  0.00     0.179 C 
BRANCH   9  10
HETATM   10  C2  UNL     1       0.240   8.118  10.217  1.00  0.00     0.009 C 
HETATM   11  C1  UNL     1      -0.127   8.763   8.879  1.00  0.00     0.012 C 
HETATM   12  C3  UNL     1      -0.832   8.446  11.262  1.00  0.00     0.012 C 
ENDBRANCH   9  10
BRANCH   9  13
HETATM   13  C30 UNL     1      -0.023   5.765  11.254  1.00  0.00     0.240 C 
HETATM   14  O8  UNL     1       0.335   5.945  12.418  1.00  0.00    -0.271 OA
HETATM   15  N2  UNL     1      -0.976   4.837  10.897  1.00  0.00    -0.359 N 
HETATM   16  H43 UNL     1      -1.168   4.678   9.913  1.00  0.00     0.162 HD
BRANCH  15  17
HETATM   17  C31 UNL     1      -1.623   3.966  11.862  1.00  0.00     0.132 C 
BRANCH  17  18
HETATM   18  C32 UNL     1      -2.551   2.926  11.201  1.00  0.00     0.046 C 
BRANCH  18  19
HETATM   19  C33 UNL     1      -2.041   1.492  11.406  1.00  0.00     0.120 C 
BRANCH  19  20
HETATM   20  C34 UNL     1      -0.822   1.227  10.564  1.00  0.00     0.140 C 
HETATM   21  O9  UNL     1      -0.768   0.550   9.550  1.00  0.00    -0.650 OA
BRANCH  20  22
HETATM   22  O10 UNL     1       0.270   1.868  11.016  1.00  0.00    -0.776 OA
HETATM   23  H49 UNL     1       0.973   1.621  10.380  1.00  0.00     0.167 HD
ENDBRANCH  20  22
ENDBRANCH  19  20
ENDBRANCH  18  19
BRANCH  18  24
HETATM   24  C35 UNL     1      -3.979   3.087  11.713  1.00  0.00    -0.052 A 
HETATM   25  C36 UNL     1      -4.941   2.112  11.407  1.00  0.00     0.007 A 
HETATM   26  C37 UNL     1      -6.252   2.236  11.869  1.00  0.00     0.001 A 
HETATM   27  C38 UNL     1      -6.619   3.334  12.644  1.00  0.00     0.000 A 
HETATM   28  C39 UNL     1      -5.674   4.306  12.962  1.00  0.00     0.001 A 
HETATM   29  C40 UNL     1      -4.362   4.184  12.503  1.00  0.00     0.007 A 
ENDBRANCH  18  24
ENDBRANCH  17  18
ENDBRANCH  15  17
ENDBRANCH   9  13
ENDBRANCH   6   9
ENDBRANCH   4   5
ENDBRANCH   3   4
ENDBRANCH   1   3
BRANCH   1  30
HETATM   30  O3  UNL     1       7.098   8.688  11.971  1.00  0.00    -0.314 OA
BRANCH  30  31
HETATM   31  C9  UNL     1       7.163   7.867  13.138  1.00  0.00     0.260 C 
BRANCH  31  32
HETATM   32  C10 UNL     1       6.644   8.565  14.391  1.00  0.00     0.185 C 
HETATM   33  O4  UNL     1       5.489   8.999  14.467  1.00  0.00    -0.292 OA
BRANCH  32  34
HETATM   34  C11 UNL     1       7.569   8.668  15.619  1.00  0.00     0.128 C 
HETATM   35  C12 UNL     1       8.989   8.061  15.483  1.00  0.00     0.047 C 
HETATM   36  C13 UNL     1       9.928   8.951  16.323  1.00  0.00     0.009 C 
HETATM   37  C14 UNL     1       8.984   9.855  17.106  1.00  0.00     0.002 C 
HETATM   38  C15 UNL     1       9.551  11.125  17.755  1.00  0.00    -0.002 C 
HETATM   39  C28 UNL     1       7.829  10.126  16.114  1.00  0.00     0.001 C 
HETATM   40  C16 UNL     1      10.759  10.783  18.653  1.00  0.00     0.010 C 
HETATM   41  C25 UNL     1       8.394  11.814  18.565  1.00  0.00     0.031 C 
HETATM   42  C17 UNL     1      11.228  11.962  19.506  1.00  0.00     0.035 C 
HETATM   43  C18 UNL     1      10.048  12.520  20.257  1.00  0.00    -0.068 C 
HETATM   44  C19 UNL     1       9.977  12.400  21.594  1.00  0.00     0.053 C 
HETATM   45  C23 UNL     1       8.914  13.061  19.376  1.00  0.00    -0.014 C 
HETATM   46  C20 UNL     1       8.722  12.683  22.325  1.00  0.00     0.149 C 
HETATM   47  O6  UNL     1       8.708  12.632  23.550  1.00  0.00    -0.293 OA
HETATM   48  C21 UNL     1       7.475  12.913  21.508  1.00  0.00     0.084 C 
HETATM   49  C22 UNL     1       7.818  13.716  20.265  1.00  0.00     0.022 C 
HETATM   50  C24 UNL     1       9.450  14.205  18.474  1.00  0.00     0.020 C 
HETATM   51  C26 UNL     1       7.128  12.050  17.691  1.00  0.00     0.124 C 
HETATM   52  C27 UNL     1       6.684  10.796  16.908  1.00  0.00     0.045 C 
HETATM   53  C29 UNL     1       8.244  11.011  14.908  1.00  0.00     0.019 C 
BRANCH  34  54
HETATM   54  O5  UNL     1       6.902   7.909  16.645  1.00  0.00    -0.381 OA
HETATM   55  H16 UNL     1       5.952   8.150  16.597  1.00  0.00     0.211 HD
ENDBRANCH  34  54
BRANCH  51  56
HETATM   56  O7  UNL     1       7.331  13.124  16.787  1.00  0.00    -0.395 OA
HETATM   57  H37 UNL     1       6.460  13.406  16.453  1.00  0.00     0.210 HD
ENDBRANCH  51  56
ENDBRANCH  32  34
ENDBRANCH  31  32
ENDBRANCH  30  31
ENDBRANCH   1  30
TORSDOF 18
ENDMDL
MODEL 2
REMARK minimizedAffinity -9.49246788
REMARK CNNscore 0.3862198
REMARK CNNaffinity 6.88915825
REMARK  18 active torsions:
REMARK  status: ('A' for Active; 'I' for Inactive)
REMARK    1  A    between atoms: C2_2  and  C4_4 
REMARK    2  A    between atoms: C4_4  and  N1_5 
REMARK    3  A    between atoms: C4_4  and  C30_38 
REMARK       I    between atoms: N1_5  and  C5_6 
REMARK    4  A    between atoms: C5_6  and  C6_8 
REMARK    5  A    between atoms: C6_8  and  C7_9 
REMARK    6  A    between atoms: C7_9  and  C8_10 
REMARK    7  A    between atoms: C8_10  and  O3_12 
REMARK    8  A    between atoms: O3_12  and  C9_13 
REMARK    9  A    between atoms: C9_13  and  C10_14 
REMARK   10  A    between atoms: C10_14  and  C11_16 
REMARK   11  A    between atoms: C11_16  and  O5_17 
REMARK   12  A    between atoms: C26_33  and  O7_34 
REMARK       I    between atoms: C30_38  and  N2_40 
REMARK   13  A    between atoms: N2_40  and  C31_41 
REMARK   14  A    between atoms: C31_41  and  C32_42 
REMARK   15  A    between atoms: C32_42  and  C33_43 
REMARK   16  A    between atoms: C32_42  and  C35_47 
REMARK   17  A    between atoms: C33_43  and  C34_44 
REMARK   18  A    between atoms: C34_44  and  O10_46 
ROOT
HETATM    1  C8  UNL     1       6.264   6.941  11.245  1.00  0.00     0.259 C 
HETATM    2  O2  UNL     1       7.220   6.853  10.482  1.00  0.00    -0.265 OA
ENDROOT
BRANCH   1   3
HETATM    3  C7  UNL     1       4.841   7.149  10.780  1.00  0.00     0.120 C 
BRANCH   3   4
HETATM    4  C6  UNL     1       4.180   5.885  10.240  1.00  0.00     0.112 C 
BRANCH   4   5
HETATM    5  C5  UNL     1       2.760   6.119   9.777  1.00  0.00     0.218 C 
HETATM    6  N1  UNL     1       1.990   6.725  10.750  1.00  0.00    -0.347 N 
HETATM    7  H9  UNL     1       2.289   6.550  11.702  1.00  0.00     0.163 HD
HETATM    8  O1  UNL     1       2.340   5.809   8.669  1.00  0.00    -0.274 OA
BRANCH   6   9
HETATM    9  C4  UNL     1       0.541   6.854  10.578  1.00  0.00     0.179 C 
BRANCH   9  10
HETATM   10  C2  UNL     1       0.161   8.324  10.288  1.00  0.00     0.009 C 
HETATM   11  C1  UNL     1      -0.253   8.544   8.832  1.00  0.00     0.012 C 
HETATM   12  C3  UNL     1      -0.920   8.878  11.224  1.00  0.00     0.012 C 
ENDBRANCH   9  10
BRANCH   9  13
HETATM   13  C30 UNL     1      -0.127   6.288  11.853  1.00  0.00     0.240 C 
HETATM   14  O8  UNL     1       0.289   6.547  12.982  1.00  0.00    -0.271 OA
HETATM   15  N2  UNL     1      -1.242   5.512  11.625  1.00  0.00    -0.359 N 
HETATM   16  H43 UNL     1      -1.486   5.266  10.671  1.00  0.00     0.162 HD
BRANCH  15  17
HETATM   17  C31 UNL     1      -2.009   4.906  12.698  1.00  0.00     0.132 C 
BRANCH  17  18
HETATM   18  C32 UNL     1      -3.497   4.716  12.337  1.00  0.00     0.046 C 
BRANCH  18  19
HETATM   19  C33 UNL     1      -4.011   3.327  12.744  1.00  0.00     0.120 C 
BRANCH  19  20
HETATM   20  C34 UNL     1      -3.645   2.293  11.715  1.00  0.00     0.140 C 
HETATM   21  O9  UNL     1      -2.522   2.021  11.321  1.00  0.00    -0.650 OA
BRANCH  20  22
HETATM   22  O10 UNL     1      -4.711   1.613  11.259  1.00  0.00    -0.776 OA
HETATM   23  H49 UNL     1      -4.334   0.976  10.617  1.00  0.00     0.167 HD
ENDBRANCH  20  22
ENDBRANCH  19  20
ENDBRANCH  18  19
BRANCH  18  24
HETATM   24  C35 UNL     1      -4.340   5.826  12.958  1.00  0.00    -0.052 A 
HETATM   25  C36 UNL     1      -5.632   5.538  13.424  1.00  0.00     0.007 A 
HETATM   26  C37 UNL     1      -6.419   6.536  13.999  1.00  0.00     0.001 A 
HETATM   27  C38 UNL     1      -5.927   7.834  14.118  1.00  0.00     0.000 A 
HETATM   28  C39 UNL     1      -4.643   8.132  13.667  1.00  0.00     0.001 A 
HETATM   29  C40 UNL     1      -3.853   7.136  13.093  1.00  0.00     0.007 A 
ENDBRANCH  18  24
ENDBRANCH  17  18
ENDBRANCH  15  17
ENDBRANCH   9  13
ENDBRANCH   6   9
ENDBRANCH   4   5
ENDBRANCH   3   4
ENDBRANCH   1   3
BRANCH   1  30
HETATM   30  O3  UNL     1       6.358   6.856  12.597  1.00  0.00    -0.314 OA
BRANCH  30  31
HETATM   31  C9  UNL     1       6.059   8.062  13.302  1.00  0.00     0.260 C 
BRANCH  31  32
HETATM   32  C10 UNL     1       6.568   8.057  14.740  1.00  0.00     0.185 C 
HETATM   33  O4  UNL     1       5.845   7.731  15.689  1.00  0.00    -0.292 OA
BRANCH  32  34
HETATM   34  C11 UNL     1       8.046   8.404  15.004  1.00  0.00     0.128 C 
HETATM   35  C12 UNL     1       9.019   8.304  13.801  1.00  0.00     0.047 C 
HETATM   36  C13 UNL     1      10.071   9.414  13.996  1.00  0.00     0.009 C 
HETATM   37  C14 UNL     1       9.821   9.922  15.410  1.00  0.00     0.002 C 
HETATM   38  C15 UNL     1      10.413  11.277  15.821  1.00  0.00    -0.002 C 
HETATM   39  C28 UNL     1       8.285   9.842  15.563  1.00  0.00     0.001 C 
HETATM   40  C16 UNL     1      11.932  11.312  15.549  1.00  0.00     0.010 C 
HETATM   41  C25 UNL     1      10.083  11.510  17.340  1.00  0.00     0.031 C 
HETATM   42  C17 UNL     1      12.623  12.539  16.143  1.00  0.00     0.035 C 
HETATM   43  C18 UNL     1      12.261  12.644  17.601  1.00  0.00    -0.068 C 
HETATM   44  C19 UNL     1      13.197  12.448  18.547  1.00  0.00     0.053 C 
HETATM   45  C23 UNL     1      10.764  12.821  17.889  1.00  0.00    -0.014 C 
HETATM   46  C20 UNL     1      12.825  12.269  19.968  1.00  0.00     0.149 C 
HETATM   47  O6  UNL     1      13.705  12.161  20.816  1.00  0.00    -0.293 OA
HETATM   48  C21 UNL     1      11.361  12.113  20.293  1.00  0.00     0.084 C 
HETATM   49  C22 UNL     1      10.539  13.039  19.413  1.00  0.00     0.022 C 
HETATM   50  C24 UNL     1      10.248  14.116  17.207  1.00  0.00     0.020 C 
HETATM   51  C26 UNL     1       8.565  11.356  17.639  1.00  0.00     0.124 C 
HETATM   52  C27 UNL     1       7.955  10.062  17.058  1.00  0.00     0.045 C 
HETATM   53  C29 UNL     1       7.522  10.867  14.682  1.00  0.00     0.019 C 
BRANCH  34  54
HETATM   54  O5  UNL     1       8.487   7.421  15.962  1.00  0.00    -0.381 OA
HETATM   55  H16 UNL     1       7.770   7.339  16.626  1.00  0.00     0.211 HD
ENDBRANCH  34  54
BRANCH  51  56
HETATM   56  O7  UNL     1       7.838  12.476  17.160  1.00  0.00    -0.395 OA
HETATM   57  H37 UNL     1       6.960  12.471  17.584  1.00  0.00     0.210 HD
ENDBRANCH  51  56
ENDBRANCH  32  34
ENDBRANCH  31  32
ENDBRANCH  30  31
ENDBRANCH   1  30
TORSDOF 18
ENDMDL
MODEL 3
REMARK minimizedAffinity -9.4788723
REMARK CNNscore 0.347584724
REMARK CNNaffinity 7.30340338
REMARK  18 active torsions:
REMARK  status: ('A' for Active; 'I' for Inactive)
REMARK    1  A    between atoms: C2_2  and  C4_4 
REMARK    2  A    between atoms: C4_4  and  N1_5 
REMARK    3  A    between atoms: C4_4  and  C30_38 
REMARK       I    between atoms: N1_5  and  C5_6 
REMARK    4  A    between atoms: C5_6  and  C6_8 
REMARK    5  A    between atoms: C6_8  and  C7_9 
REMARK    6  A    between atoms: C7_9  and  C8_10 
REMARK    7  A    between atoms: C8_10  and  O3_12 
REMARK    8  A    between atoms: O3_12  and  C9_13 
REMARK    9  A    between atoms: C9_13  and  C10_14 
REMARK   10  A    between atoms: C10_14  and  C11_16 
REMARK   11  A    between atoms: C11_16  and  O5_17 
REMARK   12  A    between atoms: C26_33  and  O7_34 
REMARK       I    between atoms: C30_38  and  N2_40 
REMARK   13  A    between atoms: N2_40  and  C31_41 
REMARK   14  A    between atoms: C31_41  and  C32_42 
REMARK   15  A    between atoms: C32_42  and  C33_43 
REMARK   16  A    between atoms: C32_42  and  C35_47 
REMARK   17  A    between atoms: C33_43  and  C34_44 
REMARK   18  A    between atoms: C34_44  and  O10_46 
ROOT
HETATM    1  C8  UNL     1       0.203   9.754  16.619  1.00  0.00     0.259 C 
HETATM    2  O2  UNL     1      -0.680  10.604  16.625  1.00  0.00    -0.265 OA
ENDROOT
BRANCH   1   3
HETATM    3  C7  UNL     1       1.556   9.952  17.263  1.00  0.00     0.120 C 
BRANCH   3   4
HETATM    4  C6  UNL     1       1.509  10.759  18.556  1.00  0.00     0.112 C 
BRANCH   4   5
HETATM    5  C5  UNL     1       2.791  10.661  19.354  1.00  0.00     0.218 C 
HETATM    6  N1  UNL     1       2.589  10.080  20.591  1.00  0.00    -0.347 N 
HETATM    7  H9  UNL     1       1.655  10.192  20.968  1.00  0.00     0.163 HD
HETATM    8  O1  UNL     1       3.880  11.048  18.951  1.00  0.00    -0.274 OA
BRANCH   6   9
HETATM    9  C4  UNL     1       3.657  10.078  21.592  1.00  0.00     0.179 C 
BRANCH   9  10
HETATM   10  C2  UNL     1       3.321   9.094  22.737  1.00  0.00     0.009 C 
HETATM   11  C1  UNL     1       3.198   9.796  24.091  1.00  0.00     0.012 C 
HETATM   12  C3  UNL     1       2.070   8.247  22.477  1.00  0.00     0.012 C 
ENDBRANCH   9  10
BRANCH   9  13
HETATM   13  C30 UNL     1       3.843  11.537  22.073  1.00  0.00     0.240 C 
HETATM   14  O8  UNL     1       2.919  12.190  22.557  1.00  0.00    -0.271 OA
HETATM   15  N2  UNL     1       5.125  12.025  21.954  1.00  0.00    -0.359 N 
HETATM   16  H43 UNL     1       5.823  11.469  21.471  1.00  0.00     0.162 HD
BRANCH  15  17
HETATM   17  C31 UNL     1       5.494  13.368  22.365  1.00  0.00     0.132 C 
BRANCH  17  18
HETATM   18  C32 UNL     1       6.934  13.452  22.911  1.00  0.00     0.046 C 
BRANCH  18  19
HETATM   19  C33 UNL     1       7.975  13.112  21.833  1.00  0.00     0.120 C 
BRANCH  19  20
HETATM   20  C34 UNL     1       8.843  11.962  22.264  1.00  0.00     0.140 C 
HETATM   21  O9  UNL     1       8.870  11.441  23.367  1.00  0.00    -0.650 OA
BRANCH  20  22
HETATM   22  O10 UNL     1       9.609  11.486  21.266  1.00  0.00    -0.776 OA
HETATM   23  H49 UNL     1      10.104  10.747  21.675  1.00  0.00     0.167 HD
ENDBRANCH  20  22
ENDBRANCH  19  20
ENDBRANCH  18  19
BRANCH  18  24
HETATM   24  C35 UNL     1       7.193  14.826  23.521  1.00  0.00    -0.052 A 
HETATM   25  C36 UNL     1       6.147  15.758  23.602  1.00  0.00     0.007 A 
HETATM   26  C37 UNL     1       6.360  17.019  24.160  1.00  0.00     0.001 A 
HETATM   27  C38 UNL     1       7.619  17.366  24.645  1.00  0.00     0.000 A 
HETATM   28  C39 UNL     1       8.664  16.449  24.578  1.00  0.00     0.001 A 
HETATM   29  C40 UNL     1       8.455  15.186  24.022  1.00  0.00     0.007 A 
ENDBRANCH  18  24
ENDBRANCH  17  18
ENDBRANCH  15  17
ENDBRANCH   9  13
ENDBRANCH   6   9
ENDBRANCH   4   5
ENDBRANCH   3   4
ENDBRANCH   1   3
BRANCH   1  30
HETATM   30  O3  UNL     1       0.080   8.530  16.044  1.00  0.00    -0.314 OA
BRANCH  30  31
HETATM   31  C9  UNL     1      -1.038   8.383  15.167  1.00  0.00     0.260 C 
BRANCH  31  32
HETATM   32  C10 UNL     1      -0.783   7.392  14.035  1.00  0.00     0.185 C 
HETATM   33  O4  UNL     1       0.344   6.940  13.802  1.00  0.00    -0.292 OA
BRANCH  32  34
HETATM   34  C11 UNL     1      -1.981   6.890  13.206  1.00  0.00     0.128 C 
HETATM   35  C12 UNL     1      -1.710   5.741  12.201  1.00  0.00     0.047 C 
HETATM   36  C13 UNL     1      -2.988   4.879  12.168  1.00  0.00     0.009 C 
HETATM   37  C14 UNL     1      -4.015   5.702  12.934  1.00  0.00     0.002 C 
HETATM   38  C15 UNL     1      -5.287   5.007  13.439  1.00  0.00    -0.002 C 
HETATM   39  C28 UNL     1      -3.185   6.373  14.054  1.00  0.00     0.001 C 
HETATM   40  C16 UNL     1      -6.006   4.281  12.282  1.00  0.00     0.010 C 
HETATM   41  C25 UNL     1      -6.202   6.097  14.108  1.00  0.00     0.031 C 
HETATM   42  C17 UNL     1      -7.392   3.764  12.664  1.00  0.00     0.035 C 
HETATM   43  C18 UNL     1      -8.187   4.895  13.264  1.00  0.00    -0.068 C 
HETATM   44  C19 UNL     1      -9.250   5.395  12.611  1.00  0.00     0.053 C 
HETATM   45  C23 UNL     1      -7.594   5.500  14.544  1.00  0.00    -0.014 C 
HETATM   46  C20 UNL     1      -9.877   6.669  13.029  1.00  0.00     0.149 C 
HETATM   47  O6  UNL     1     -10.888   7.064  12.457  1.00  0.00    -0.293 OA
HETATM   48  C21 UNL     1      -9.165   7.488  14.076  1.00  0.00     0.084 C 
HETATM   49  C22 UNL     1      -8.565   6.567  15.125  1.00  0.00     0.022 C 
HETATM   50  C24 UNL     1      -7.481   4.405  15.638  1.00  0.00     0.020 C 
HETATM   51  C26 UNL     1      -5.442   6.913  15.193  1.00  0.00     0.124 C 
HETATM   52  C27 UNL     1      -4.079   7.452  14.709  1.00  0.00     0.045 C 
HETATM   53  C29 UNL     1      -2.668   5.374  15.123  1.00  0.00     0.019 C 
BRANCH  34  54
HETATM   54  O5  UNL     1      -2.384   8.028  12.418  1.00  0.00    -0.381 OA
HETATM   55  H16 UNL     1      -2.362   8.804  13.019  1.00  0.00     0.211 HD
ENDBRANCH  34  54
BRANCH  51  56
HETATM   56  O7  UNL     1      -5.255   6.141  16.368  1.00  0.00    -0.395 OA
HETATM   57  H37 UNL     1      -5.020   6.747  17.094  1.00  0.00     0.210 HD
ENDBRANCH  51  56
ENDBRANCH  32  34
ENDBRANCH  31  32
ENDBRANCH  30  31
ENDBRANCH   1  30
TORSDOF 18
ENDMDL
MODEL 4
REMARK minimizedAffinity -8.68043613
REMARK CNNscore 0.331307977
REMARK CNNaffinity 7.96569681
REMARK  18 active torsions:
REMARK  status: ('A' for Active; 'I' for Inactive)
REMARK    1  A    between atoms: C2_2  and  C4_4 
REMARK    2  A    between atoms: C4_4  and  N1_5 
REMARK    3  A    between atoms: C4_4  and  C30_38 
REMARK       I    between atoms: N1_5  and  C5_6 
REMARK    4  A    between atoms: C5_6  and  C6_8 
REMARK    5  A    between atoms: C6_8  and  C7_9 
REMARK    6  A    between atoms: C7_9  and  C8_10 
REMARK    7  A    between atoms: C8_10  and  O3_12 
REMARK    8  A    between atoms: O3_12  and  C9_13 
REMARK    9  A    between atoms: C9_13  and  C10_14 
REMARK   10  A    between atoms: C10_14  and  C11_16 
REMARK   11  A    between atoms: C11_16  and  O5_17 
REMARK   12  A    between atoms: C26_33  and  O7_34 
REMARK       I    between atoms: C30_38  and  N2_40 
REMARK   13  A    between atoms: N2_40  and  C31_41 
REMARK   14  A    between atoms: C31_41  and  C32_42 
REMARK   15  A    between atoms: C32_42  and  C33_43 
REMARK   16  A    between atoms: C32_42  and  C35_47 
REMARK   17  A    between atoms: C33_43  and  C34_44 
REMARK   18  A    between atoms: C34_44  and  O10_46 
ROOT
HETATM    1  C8  UNL     1      -4.878   2.878  11.251  1.00  0.00     0.259 C 
HETATM    2  O2  UNL     1      -5.568   3.034  10.251  1.00  0.00    -0.265 OA
ENDROOT
BRANCH   1   3
HETATM    3  C7  UNL     1      -3.368   2.819  11.224  1.00  0.00     0.120 C 
BRANCH   3   4
HETATM    4  C6  UNL     1      -2.706   4.163  10.934  1.00  0.00     0.112 C 
BRANCH   4   5
HETATM    5  C5  UNL     1      -1.960   4.716  12.127  1.00  0.00     0.218 C 
HETATM    6  N1  UNL     1      -1.781   6.083  12.040  1.00  0.00    -0.347 N 
HETATM    7  H9  UNL     1      -1.761   6.451  11.096  1.00  0.00     0.163 HD
HETATM    8  O1  UNL     1      -1.561   4.034  13.063  1.00  0.00    -0.274 OA
BRANCH   6   9
HETATM    9  C4  UNL     1      -0.909   6.780  12.988  1.00  0.00     0.179 C 
BRANCH   9  10
HETATM   10  C2  UNL     1      -1.042   8.311  12.818  1.00  0.00     0.009 C 
HETATM   11  C1  UNL     1      -0.233   9.085  13.860  1.00  0.00     0.012 C 
HETATM   12  C3  UNL     1      -0.688   8.809  11.412  1.00  0.00     0.012 C 
ENDBRANCH   9  10
BRANCH   9  13
HETATM   13  C30 UNL     1       0.530   6.260  12.759  1.00  0.00     0.240 C 
HETATM   14  O8  UNL     1       1.376   6.258  13.653  1.00  0.00    -0.271 OA
HETATM   15  N2  UNL     1       0.771   5.765  11.497  1.00  0.00    -0.359 N 
HETATM   16  H43 UNL     1       0.061   5.871  10.780  1.00  0.00     0.162 HD
BRANCH  15  17
HETATM   17  C31 UNL     1       2.058   5.223  11.100  1.00  0.00     0.132 C 
BRANCH  17  18
HETATM   18  C32 UNL     1       2.976   6.278  10.448  1.00  0.00     0.046 C 
BRANCH  18  19
HETATM   19  C33 UNL     1       4.449   5.838  10.457  1.00  0.00     0.120 C 
BRANCH  19  20
HETATM   20  C34 UNL     1       5.346   6.963  10.895  1.00  0.00     0.140 C 
HETATM   21  O9  UNL     1       5.009   7.978  11.483  1.00  0.00    -0.650 OA
BRANCH  20  22
HETATM   22  O10 UNL     1       6.640   6.736  10.611  1.00  0.00    -0.776 OA
HETATM   23  H49 UNL     1       7.104   7.527  10.956  1.00  0.00     0.167 HD
ENDBRANCH  20  22
ENDBRANCH  19  20
ENDBRANCH  18  19
BRANCH  18  24
HETATM   24  C35 UNL     1       2.500   6.596   9.034  1.00  0.00    -0.052 A 
HETATM   25  C36 UNL     1       1.715   7.737   8.806  1.00  0.00     0.007 A 
HETATM   26  C37 UNL     1       1.272   8.051   7.521  1.00  0.00     0.001 A 
HETATM   27  C38 UNL     1       1.609   7.231   6.446  1.00  0.00     0.000 A 
HETATM   28  C39 UNL     1       2.393   6.100   6.656  1.00  0.00     0.001 A 
HETATM   29  C40 UNL     1       2.839   5.784   7.939  1.00  0.00     0.007 A 
ENDBRANCH  18  24
ENDBRANCH  17  18
ENDBRANCH  15  17
ENDBRANCH   9  13
ENDBRANCH   6   9
ENDBRANCH   4   5
ENDBRANCH   3   4
ENDBRANCH   1   3
BRANCH   1  30
HETATM   30  O3  UNL     1      -5.377   2.745  12.508  1.00  0.00    -0.314 OA
BRANCH  30  31
HETATM   31  C9  UNL     1      -6.406   3.672  12.853  1.00  0.00     0.260 C 
BRANCH  31  32
HETATM   32  C10 UNL     1      -5.958   4.711  13.876  1.00  0.00     0.185 C 
HETATM   33  O4  UNL     1      -4.786   5.103  13.940  1.00  0.00    -0.292 OA
BRANCH  32  34
HETATM   34  C11 UNL     1      -7.013   5.336  14.809  1.00  0.00     0.128 C 
HETATM   35  C12 UNL     1      -6.491   6.234  15.960  1.00  0.00     0.047 C 
HETATM   36  C13 UNL     1      -7.543   7.343  16.160  1.00  0.00     0.009 C 
HETATM   37  C14 UNL     1      -8.728   6.892  15.317  1.00  0.00     0.002 C 
HETATM   38  C15 UNL     1      -9.812   7.919  14.961  1.00  0.00    -0.002 C 
HETATM   39  C28 UNL     1      -8.070   6.228  14.085  1.00  0.00     0.001 C 
HETATM   40  C16 UNL     1     -10.350   8.606  16.234  1.00  0.00     0.010 C 
HETATM   41  C25 UNL     1     -10.947   7.172  14.171  1.00  0.00     0.031 C 
HETATM   42  C17 UNL     1     -11.585   9.469  15.977  1.00  0.00     0.035 C 
HETATM   43  C18 UNL     1     -12.612   8.645  15.247  1.00  0.00    -0.068 C 
HETATM   44  C19 UNL     1     -13.761   8.301  15.855  1.00  0.00     0.053 C 
HETATM   45  C23 UNL     1     -12.170   8.121  13.874  1.00  0.00    -0.014 C 
HETATM   46  C20 UNL     1     -14.657   7.275  15.278  1.00  0.00     0.149 C 
HETATM   47  O6  UNL     1     -15.731   7.033  15.819  1.00  0.00    -0.293 OA
HETATM   48  C21 UNL     1     -14.147   6.484  14.099  1.00  0.00     0.084 C 
HETATM   49  C22 UNL     1     -13.356   7.395  13.176  1.00  0.00     0.022 C 
HETATM   50  C24 UNL     1     -11.814   9.313  12.947  1.00  0.00     0.020 C 
HETATM   51  C26 UNL     1     -10.390   6.378  12.955  1.00  0.00     0.124 C 
HETATM   52  C27 UNL     1      -9.182   5.484  13.310  1.00  0.00     0.045 C 
HETATM   53  C29 UNL     1      -7.341   7.235  13.156  1.00  0.00     0.019 C 
BRANCH  34  54
HETATM   54  O5  UNL     1      -7.661   4.211  15.435  1.00  0.00    -0.381 OA
HETATM   55  H16 UNL     1      -7.813   3.549  14.729  1.00  0.00     0.211 HD
ENDBRANCH  34  54
BRANCH  51  56
HETATM   56  O7  UNL     1     -10.034   7.256  11.899  1.00  0.00    -0.395 OA
HETATM   57  H37 UNL     1      -9.941   6.727  11.085  1.00  0.00     0.210 HD
ENDBRANCH  51  56
ENDBRANCH  32  34
ENDBRANCH  31  32
ENDBRANCH  30  31
ENDBRANCH   1  30
TORSDOF 18
ENDMDL
MODEL 5
REMARK minimizedAffinity -9.42486382
REMARK CNNscore 0.315242559
REMARK CNNaffinity 7.42241049
REMARK  18 active torsions:
REMARK  status: ('A' for Active; 'I' for Inactive)
REMARK    1  A    between atoms: C2_2  and  C4_4 
REMARK    2  A    between atoms: C4_4  and  N1_5 
REMARK    3  A    between atoms: C4_4  and  C30_38 
REMARK       I    between atoms: N1_5  and  C5_6 
REMARK    4  A    between atoms: C5_6  and  C6_8 
REMARK    5  A    between atoms: C6_8  and  C7_9 
REMARK    6  A    between atoms: C7_9  and  C8_10 
REMARK    7  A    between atoms: C8_10  and  O3_12 
REMARK    8  A    between atoms: O3_12  and  C9_13 
REMARK    9  A    between atoms: C9_13  and  C10_14 
REMARK   10  A    between atoms: C10_14  and  C11_16 
REMARK   11  A    between atoms: C11_16  and  O5_17 
REMARK   12  A    between atoms: C26_33  and  O7_34 
REMARK       I    between atoms: C30_38  and  N2_40 
REMARK   13  A    between atoms: N2_40  and  C31_41 
REMARK   14  A    between atoms: C31_41  and  C32_42 
REMARK   15  A    between atoms: C32_42  and  C33_43 
REMARK   16  A    between atoms: C32_42  and  C35_47 
REMARK   17  A    between atoms: C33_43  and  C34_44 
REMARK   18  A    between atoms: C34_44  and  O10_46 
ROOT
HETATM    1  C8  UNL     1       2.502   7.903  14.758  1.00  0.00     0.259 C 
HETATM    2  O2  UNL     1       2.993   7.142  15.583  1.00  0.00    -0.265 OA
ENDROOT
BRANCH   1   3
HETATM    3  C7  UNL     1       2.654   9.406  14.813  1.00  0.00     0.120 C 
BRANCH   3   4
HETATM    4  C6  UNL     1       4.035   9.867  15.268  1.00  0.00     0.112 C 
BRANCH   4   5
HETATM    5  C5  UNL     1       5.087   9.712  14.193  1.00  0.00     0.218 C 
HETATM    6  N1  UNL     1       5.625   8.440  14.172  1.00  0.00    -0.347 N 
HETATM    7  H9  UNL     1       5.597   7.950  15.059  1.00  0.00     0.163 HD
HETATM    8  O1  UNL     1       5.423  10.607  13.428  1.00  0.00    -0.274 OA
BRANCH   6   9
HETATM    9  C4  UNL     1       6.796   8.143  13.345  1.00  0.00     0.179 C 
BRANCH   9  10
HETATM   10  C2  UNL     1       8.037   8.897  13.877  1.00  0.00     0.009 C 
HETATM   11  C1  UNL     1       9.224   7.966  14.125  1.00  0.00     0.012 C 
HETATM   12  C3  UNL     1       8.474  10.069  12.990  1.00  0.00     0.012 C 
ENDBRANCH   9  10
BRANCH   9  13
HETATM   13  C30 UNL     1       6.436   8.508  11.886  1.00  0.00     0.240 C 
HETATM   14  O8  UNL     1       7.268   8.956  11.097  1.00  0.00    -0.271 OA
HETATM   15  N2  UNL     1       5.130   8.253  11.533  1.00  0.00    -0.359 N 
HETATM   16  H43 UNL     1       4.471   7.963  12.248  1.00  0.00     0.162 HD
BRANCH  15  17
HETATM   17  C31 UNL     1       4.610   8.519  10.203  1.00  0.00     0.132 C 
BRANCH  17  18
HETATM   18  C32 UNL     1       3.817   7.330   9.622  1.00  0.00     0.046 C 
BRANCH  18  19
HETATM   19  C33 UNL     1       3.894   6.093  10.531  1.00  0.00     0.120 C 
BRANCH  19  20
HETATM   20  C34 UNL     1       3.195   4.918   9.904  1.00  0.00     0.140 C 
HETATM   21  O9  UNL     1       2.237   4.312  10.356  1.00  0.00    -0.650 OA
BRANCH  20  22
HETATM   22  O10 UNL     1       3.710   4.585   8.707  1.00  0.00    -0.776 OA
HETATM   23  H49 UNL     1       3.163   3.827   8.413  1.00  0.00     0.167 HD
ENDBRANCH  20  22
ENDBRANCH  19  20
ENDBRANCH  18  19
BRANCH  18  24
HETATM   24  C35 UNL     1       2.371   7.735   9.355  1.00  0.00    -0.052 A 
HETATM   25  C36 UNL     1       1.881   7.734   8.039  1.00  0.00     0.007 A 
HETATM   26  C37 UNL     1       0.560   8.096   7.772  1.00  0.00     0.001 A 
HETATM   27  C38 UNL     1      -0.289   8.462   8.814  1.00  0.00     0.000 A 
HETATM   28  C39 UNL     1       0.181   8.460  10.125  1.00  0.00     0.001 A 
HETATM   29  C40 UNL     1       1.501   8.097  10.396  1.00  0.00     0.007 A 
ENDBRANCH  18  24
ENDBRANCH  17  18
ENDBRANCH  15  17
ENDBRANCH   9  13
ENDBRANCH   6   9
ENDBRANCH   4   5
ENDBRANCH   3   4
ENDBRANCH   1   3
BRANCH   1  30
HETATM   30  O3  UNL     1       1.766   7.499  13.691  1.00  0.00    -0.314 OA
BRANCH  30  31
HETATM   31  C9  UNL     1       0.638   6.682  14.006  1.00  0.00     0.260 C 
BRANCH  31  32
HETATM   32  C10 UNL     1      -0.673   7.462  14.045  1.00  0.00     0.185 C 
HETATM   33  O4  UNL     1      -0.788   8.517  14.682  1.00  0.00    -0.292 OA
BRANCH  32  34
HETATM   34  C11 UNL     1      -1.864   6.952  13.211  1.00  0.00     0.128 C 
HETATM   35  C12 UNL     1      -1.576   5.820  12.192  1.00  0.00     0.047 C 
HETATM   36  C13 UNL     1      -2.840   4.938  12.150  1.00  0.00     0.009 C 
HETATM   37  C14 UNL     1      -3.879   5.736  12.927  1.00  0.00     0.002 C 
HETATM   38  C15 UNL     1      -5.140   5.015  13.425  1.00  0.00    -0.002 C 
HETATM   39  C28 UNL     1      -3.059   6.406  14.054  1.00  0.00     0.001 C 
HETATM   40  C16 UNL     1      -5.848   4.293  12.259  1.00  0.00     0.010 C 
HETATM   41  C25 UNL     1      -6.070   6.082  14.108  1.00  0.00     0.031 C 
HETATM   42  C17 UNL     1      -7.226   3.749  12.637  1.00  0.00     0.035 C 
HETATM   43  C18 UNL     1      -8.037   4.860  13.250  1.00  0.00    -0.068 C 
HETATM   44  C19 UNL     1      -9.109   5.352  12.605  1.00  0.00     0.053 C 
HETATM   45  C23 UNL     1      -7.452   5.459  14.537  1.00  0.00    -0.014 C 
HETATM   46  C20 UNL     1      -9.755   6.612  13.038  1.00  0.00     0.149 C 
HETATM   47  O6  UNL     1     -10.772   6.998  12.473  1.00  0.00    -0.293 OA
HETATM   48  C21 UNL     1      -9.054   7.428  14.095  1.00  0.00     0.084 C 
HETATM   49  C22 UNL     1      -8.439   6.504  15.132  1.00  0.00     0.022 C 
HETATM   50  C24 UNL     1      -7.322   4.353  15.618  1.00  0.00     0.020 C 
HETATM   51  C26 UNL     1      -5.322   6.897  15.201  1.00  0.00     0.124 C 
HETATM   52  C27 UNL     1      -3.968   7.463  14.723  1.00  0.00     0.045 C 
HETATM   53  C29 UNL     1      -2.525   5.402  15.110  1.00  0.00     0.019 C 
BRANCH  34  54
HETATM   54  O5  UNL     1      -2.284   8.093  12.438  1.00  0.00    -0.381 OA
HETATM   55  H16 UNL     1      -2.274   8.861  13.047  1.00  0.00     0.211 HD
ENDBRANCH  34  54
BRANCH  51  56
HETATM   56  O7  UNL     1      -5.121   6.113  16.367  1.00  0.00    -0.395 OA
HETATM   57  H37 UNL     1      -4.896   6.715  17.100  1.00  0.00     0.210 HD
ENDBRANCH  51  56
ENDBRANCH  32  34
ENDBRANCH  31  32
ENDBRANCH  30  31
ENDBRANCH   1  30
TORSDOF 18
ENDMDL
MODEL 6
REMARK minimizedAffinity -8.76107979
REMARK CNNscore 0.307229489
REMARK CNNaffinity 6.59795809
REMARK  18 active torsions:
REMARK  status: ('A' for Active; 'I' for Inactive)
REMARK    1  A    between atoms: C2_2  and  C4_4 
REMARK    2  A    between atoms: C4_4  and  N1_5 
REMARK    3  A    between atoms: C4_4  and  C30_38 
REMARK       I    between atoms: N1_5  and  C5_6 
REMARK    4  A    between atoms: C5_6  and  C6_8 
REMARK    5  A    between atoms: C6_8  and  C7_9 
REMARK    6  A    between atoms: C7_9  and  C8_10 
REMARK    7  A    between atoms: C8_10  and  O3_12 
REMARK    8  A    between atoms: O3_12  and  C9_13 
REMARK    9  A    between atoms: C9_13  and  C10_14 
REMARK   10  A    between atoms: C10_14  and  C11_16 
REMARK   11  A    between atoms: C11_16  and  O5_17 
REMARK   12  A    between atoms: C26_33  and  O7_34 
REMARK       I    between atoms: C30_38  and  N2_40 
REMARK   13  A    between atoms: N2_40  and  C31_41 
REMARK   14  A    between atoms: C31_41  and  C32_42 
REMARK   15  A    between atoms: C32_42  and  C33_43 
REMARK   16  A    between atoms: C32_42  and  C35_47 
REMARK   17  A    between atoms: C33_43  and  C34_44 
REMARK   18  A    between atoms: C34_44  and  O10_46 
ROOT
HETATM    1  C8  UNL     1      -3.006  10.468  15.856  1.00  0.00     0.259 C 
HETATM    2  O2  UNL     1      -3.781  10.838  16.730  1.00  0.00    -0.265 OA
ENDROOT
BRANCH   1   3
HETATM    3  C7  UNL     1      -1.608  11.019  15.691  1.00  0.00     0.120 C 
BRANCH   3   4
HETATM    4  C6  UNL     1      -0.595  10.423  16.664  1.00  0.00     0.112 C 
BRANCH   4   5
HETATM    5  C5  UNL     1      -0.017  11.452  17.609  1.00  0.00     0.218 C 
HETATM    6  N1  UNL     1       1.200  11.937  17.169  1.00  0.00    -0.347 N 
HETATM    7  H9  UNL     1       1.725  11.300  16.582  1.00  0.00     0.163 HD
HETATM    8  O1  UNL     1      -0.563  11.817  18.643  1.00  0.00    -0.274 OA
BRANCH   6   9
HETATM    9  C4  UNL     1       2.018  12.786  18.037  1.00  0.00     0.179 C 
BRANCH   9  10
HETATM   10  C2  UNL     1       2.712  13.893  17.210  1.00  0.00     0.009 C 
HETATM   11  C1  UNL     1       1.992  14.172  15.890  1.00  0.00     0.012 C 
HETATM   12  C3  UNL     1       2.913  15.204  17.978  1.00  0.00     0.012 C 
ENDBRANCH   9  10
BRANCH   9  13
HETATM   13  C30 UNL     1       3.012  11.863  18.782  1.00  0.00     0.240 C 
HETATM   14  O8  UNL     1       3.715  11.044  18.190  1.00  0.00    -0.271 OA
HETATM   15  N2  UNL     1       3.075  12.062  20.143  1.00  0.00    -0.359 N 
HETATM   16  H43 UNL     1       2.412  12.692  20.582  1.00  0.00     0.162 HD
BRANCH  15  17
HETATM   17  C31 UNL     1       3.959  11.299  21.006  1.00  0.00     0.132 C 
BRANCH  17  18
HETATM   18  C32 UNL     1       3.989  11.833  22.454  1.00  0.00     0.046 C 
BRANCH  18  19
HETATM   19  C33 UNL     1       3.681  10.728  23.476  1.00  0.00     0.120 C 
BRANCH  19  20
HETATM   20  C34 UNL     1       3.522   9.395  22.799  1.00  0.00     0.140 C 
HETATM   21  O9  UNL     1       2.985   8.400  23.261  1.00  0.00    -0.650 OA
BRANCH  20  22
HETATM   22  O10 UNL     1       4.009   9.387  21.546  1.00  0.00    -0.776 OA
HETATM   23  H49 UNL     1       3.832   8.478  21.226  1.00  0.00     0.167 HD
ENDBRANCH  20  22
ENDBRANCH  19  20
ENDBRANCH  18  19
BRANCH  18  24
HETATM   24  C35 UNL     1       5.326  12.505  22.746  1.00  0.00    -0.052 A 
HETATM   25  C36 UNL     1       6.472  11.718  22.940  1.00  0.00     0.007 A 
HETATM   26  C37 UNL     1       7.707  12.312  23.203  1.00  0.00     0.001 A 
HETATM   27  C38 UNL     1       7.814  13.699  23.276  1.00  0.00     0.000 A 
HETATM   28  C39 UNL     1       6.688  14.493  23.078  1.00  0.00     0.001 A 
HETATM   29  C40 UNL     1       5.452  13.903  22.813  1.00  0.00     0.007 A 
ENDBRANCH  18  24
ENDBRANCH  17  18
ENDBRANCH  15  17
ENDBRANCH   9  13
ENDBRANCH   6   9
ENDBRANCH   4   5
ENDBRANCH   3   4
ENDBRANCH   1   3
BRANCH   1  30
HETATM   30  O3  UNL     1      -3.298   9.518  14.931  1.00  0.00    -0.314 OA
BRANCH  30  31
HETATM   31  C9  UNL     1      -3.114   8.170  15.367  1.00  0.00     0.260 C 
BRANCH  31  32
HETATM   32  C10 UNL     1      -1.838   7.534  14.824  1.00  0.00     0.185 C 
HETATM   33  O4  UNL     1      -0.995   7.019  15.569  1.00  0.00    -0.292 OA
BRANCH  32  34
HETATM   34  C11 UNL     1      -1.631   7.473  13.298  1.00  0.00     0.128 C 
HETATM   35  C12 UNL     1      -2.370   8.536  12.445  1.00  0.00     0.047 C 
HETATM   36  C13 UNL     1      -1.447   8.858  11.253  1.00  0.00     0.009 C 
HETATM   37  C14 UNL     1      -0.359   7.794  11.323  1.00  0.00     0.002 C 
HETATM   38  C15 UNL     1       0.941   8.016  10.538  1.00  0.00    -0.002 C 
HETATM   39  C28 UNL     1      -0.143   7.591  12.841  1.00  0.00     0.001 C 
HETATM   40  C16 UNL     1       0.636   8.307   9.053  1.00  0.00     0.010 C 
HETATM   41  C25 UNL     1       1.839   6.738  10.715  1.00  0.00     0.031 C 
HETATM   42  C17 UNL     1       1.885   8.312   8.172  1.00  0.00     0.035 C 
HETATM   43  C18 UNL     1       2.647   7.033   8.400  1.00  0.00    -0.068 C 
HETATM   44  C19 UNL     1       2.734   6.113   7.423  1.00  0.00     0.053 C 
HETATM   45  C23 UNL     1       3.145   6.819   9.836  1.00  0.00    -0.014 C 
HETATM   46  C20 UNL     1       3.228   4.745   7.699  1.00  0.00     0.149 C 
HETATM   47  O6  UNL     1       3.362   3.951   6.774  1.00  0.00    -0.293 OA
HETATM   48  C21 UNL     1       3.439   4.355   9.140  1.00  0.00     0.084 C 
HETATM   49  C22 UNL     1       4.015   5.532   9.910  1.00  0.00     0.022 C 
HETATM   50  C24 UNL     1       4.091   7.980  10.242  1.00  0.00     0.020 C 
HETATM   51  C26 UNL     1       2.048   6.371  12.212  1.00  0.00     0.124 C 
HETATM   52  C27 UNL     1       0.733   6.329  13.020  1.00  0.00     0.045 C 
HETATM   53  C29 UNL     1       0.513   8.811  13.540  1.00  0.00     0.019 C 
BRANCH  34  54
HETATM   54  O5  UNL     1      -2.170   6.195  12.906  1.00  0.00    -0.381 OA
HETATM   55  H16 UNL     1      -1.859   5.547  13.573  1.00  0.00     0.211 HD
ENDBRANCH  34  54
BRANCH  51  56
HETATM   56  O7  UNL     1       2.953   7.271  12.831  1.00  0.00    -0.395 OA
HETATM   57  H37 UNL     1       3.255   6.868  13.666  1.00  0.00     0.210 HD
ENDBRANCH  51  56
ENDBRANCH  32  34
ENDBRANCH  31  32
ENDBRANCH  30  31
ENDBRANCH   1  30
TORSDOF 18
ENDMDL
MODEL 7
REMARK minimizedAffinity -8.56201935
REMARK CNNscore 0.275988966
REMARK CNNaffinity 7.35191584
REMARK  18 active torsions:
REMARK  status: ('A' for Active; 'I' for Inactive)
REMARK    1  A    between atoms: C2_2  and  C4_4 
REMARK    2  A    between atoms: C4_4  and  N1_5 
REMARK    3  A    between atoms: C4_4  and  C30_38 
REMARK       I    between atoms: N1_5  and  C5_6 
REMARK    4  A    between atoms: C5_6  and  C6_8 
REMARK    5  A    between atoms: C6_8  and  C7_9 
REMARK    6  A    between atoms: C7_9  and  C8_10 
REMARK    7  A    between atoms: C8_10  and  O3_12 
REMARK    8  A    between atoms: O3_12  and  C9_13 
REMARK    9  A    between atoms: C9_13  and  C10_14 
REMARK   10  A    between atoms: C10_14  and  C11_16 
REMARK   11  A    between atoms: C11_16  and  O5_17 
REMARK   12  A    between atoms: C26_33  and  O7_34 
REMARK       I    between atoms: C30_38  and  N2_40 
REMARK   13  A    between atoms: N2_40  and  C31_41 
REMARK   14  A    between atoms: C31_41  and  C32_42 
REMARK   15  A    between atoms: C32_42  and  C33_43 
REMARK   16  A    between atoms: C32_42  and  C35_47 
REMARK   17  A    between atoms: C33_43  and  C34_44 
REMARK   18  A    between atoms: C34_44  and  O10_46 
ROOT
HETATM    1  C8  UNL     1      -7.047   3.025  12.530  1.00  0.00     0.259 C 
HETATM    2  O2  UNL     1      -8.106   2.460  12.773  1.00  0.00    -0.265 OA
ENDROOT
BRANCH   1   3
HETATM    3  C7  UNL     1      -5.974   2.443  11.638  1.00  0.00     0.120 C 
BRANCH   3   4
HETATM    4  C6  UNL     1      -4.929   3.459  11.190  1.00  0.00     0.112 C 
BRANCH   4   5
HETATM    5  C5  UNL     1      -3.679   3.426  12.040  1.00  0.00     0.218 C 
HETATM    6  N1  UNL     1      -3.189   4.692  12.294  1.00  0.00    -0.347 N 
HETATM    7  H9  UNL     1      -3.419   5.387  11.594  1.00  0.00     0.163 HD
HETATM    8  O1  UNL     1      -3.161   2.397  12.456  1.00  0.00    -0.274 OA
BRANCH   6   9
HETATM    9  C4  UNL     1      -1.879   4.868  12.924  1.00  0.00     0.179 C 
BRANCH   9  10
HETATM   10  C2  UNL     1      -1.903   6.075  13.890  1.00  0.00     0.009 C 
HETATM   11  C1  UNL     1      -0.512   6.669  14.116  1.00  0.00     0.012 C 
HETATM   12  C3  UNL     1      -2.878   7.182  13.471  1.00  0.00     0.012 C 
ENDBRANCH   9  10
BRANCH   9  13
HETATM   13  C30 UNL     1      -0.837   5.012  11.789  1.00  0.00     0.240 C 
HETATM   14  O8  UNL     1      -1.160   5.287  10.634  1.00  0.00    -0.271 OA
HETATM   15  N2  UNL     1       0.472   4.850  12.184  1.00  0.00    -0.359 N 
HETATM   16  H43 UNL     1       0.669   4.542  13.131  1.00  0.00     0.162 HD
BRANCH  15  17
HETATM   17  C31 UNL     1       1.589   4.962  11.262  1.00  0.00     0.132 C 
BRANCH  17  18
HETATM   18  C32 UNL     1       2.051   6.420  11.057  1.00  0.00     0.046 C 
BRANCH  18  19
HETATM   19  C33 UNL     1       3.418   6.683  11.707  1.00  0.00     0.120 C 
BRANCH  19  20
HETATM   20  C34 UNL     1       4.523   6.607  10.689  1.00  0.00     0.140 C 
HETATM   21  O9  UNL     1       4.998   7.537  10.057  1.00  0.00    -0.650 OA
BRANCH  20  22
HETATM   22  O10 UNL     1       5.014   5.364  10.546  1.00  0.00    -0.776 OA
HETATM   23  H49 UNL     1       5.721   5.461   9.875  1.00  0.00     0.167 HD
ENDBRANCH  20  22
ENDBRANCH  19  20
ENDBRANCH  18  19
BRANCH  18  24
HETATM   24  C35 UNL     1       2.065   6.769   9.572  1.00  0.00    -0.052 A 
HETATM   25  C36 UNL     1       1.669   8.050   9.156  1.00  0.00     0.007 A 
HETATM   26  C37 UNL     1       1.678   8.392   7.803  1.00  0.00     0.001 A 
HETATM   27  C38 UNL     1       2.084   7.462   6.848  1.00  0.00     0.000 A 
HETATM   28  C39 UNL     1       2.487   6.190   7.248  1.00  0.00     0.001 A 
HETATM   29  C40 UNL     1       2.480   5.845   8.599  1.00  0.00     0.007 A 
ENDBRANCH  18  24
ENDBRANCH  17  18
ENDBRANCH  15  17
ENDBRANCH   9  13
ENDBRANCH   6   9
ENDBRANCH   4   5
ENDBRANCH   3   4
ENDBRANCH   1   3
BRANCH   1  30
HETATM   30  O3  UNL     1      -6.702   4.243  13.023  1.00  0.00    -0.314 OA
BRANCH  30  31
HETATM   31  C9  UNL     1      -7.798   5.103  13.335  1.00  0.00     0.260 C 
BRANCH  31  32
HETATM   32  C10 UNL     1      -7.963   5.344  14.832  1.00  0.00     0.185 C 
HETATM   33  O4  UNL     1      -7.598   4.513  15.672  1.00  0.00    -0.292 OA
BRANCH  32  34
HETATM   34  C11 UNL     1      -8.540   6.691  15.307  1.00  0.00     0.128 C 
HETATM   35  C12 UNL     1      -7.549   7.877  15.428  1.00  0.00     0.047 C 
HETATM   36  C13 UNL     1      -8.339   9.148  15.056  1.00  0.00     0.009 C 
HETATM   37  C14 UNL     1      -9.789   8.683  14.999  1.00  0.00     0.002 C 
HETATM   38  C15 UNL     1     -10.820   9.571  14.288  1.00  0.00    -0.002 C 
HETATM   39  C28 UNL     1      -9.693   7.253  14.417  1.00  0.00     0.001 C 
HETATM   40  C16 UNL     1     -10.787  11.005  14.859  1.00  0.00     0.010 C 
HETATM   41  C25 UNL     1     -12.233   8.903  14.456  1.00  0.00     0.031 C 
HETATM   42  C17 UNL     1     -11.938  11.878  14.361  1.00  0.00     0.035 C 
HETATM   43  C18 UNL     1     -13.237  11.155  14.599  1.00  0.00    -0.068 C 
HETATM   44  C19 UNL     1     -14.116  11.621  15.504  1.00  0.00     0.053 C 
HETATM   45  C23 UNL     1     -13.378   9.812  13.868  1.00  0.00    -0.014 C 
HETATM   46  C20 UNL     1     -15.258  10.797  15.960  1.00  0.00     0.149 C 
HETATM   47  O6  UNL     1     -16.080  11.276  16.734  1.00  0.00    -0.293 OA
HETATM   48  C21 UNL     1     -15.292   9.351  15.532  1.00  0.00     0.084 C 
HETATM   49  C22 UNL     1     -14.803   9.230  14.099  1.00  0.00     0.022 C 
HETATM   50  C24 UNL     1     -13.267  10.034  12.337  1.00  0.00     0.020 C 
HETATM   51  C26 UNL     1     -12.237   7.419  13.993  1.00  0.00     0.124 C 
HETATM   52  C27 UNL     1     -11.079   6.589  14.588  1.00  0.00     0.045 C 
HETATM   53  C29 UNL     1      -9.254   7.220  12.929  1.00  0.00     0.019 C 
BRANCH  34  54
HETATM   54  O5  UNL     1      -9.025   6.433  16.639  1.00  0.00    -0.381 OA
HETATM   55  H16 UNL     1      -9.488   5.570  16.604  1.00  0.00     0.211 HD
ENDBRANCH  34  54
BRANCH  51  56
HETATM   56  O7  UNL     1     -12.203   7.330  12.577  1.00  0.00    -0.395 OA
HETATM   57  H37 UNL     1     -12.466   6.426  12.325  1.00  0.00     0.210 HD
ENDBRANCH  51  56
ENDBRANCH  32  34
ENDBRANCH  31  32
ENDBRANCH  30  31
ENDBRANCH   1  30
TORSDOF 18
ENDMDL
MODEL 8
REMARK minimizedAffinity -8.66126347
REMARK CNNscore 0.256033421
REMARK CNNaffinity 6.29470778
REMARK  18 active torsions:
REMARK  status: ('A' for Active; 'I' for Inactive)
REMARK    1  A    between atoms: C2_2  and  C4_4 
REMARK    2  A    between atoms: C4_4  and  N1_5 
REMARK    3  A    between atoms: C4_4  and  C30_38 
REMARK       I    between atoms: N1_5  and  C5_6 
REMARK    4  A    between atoms: C5_6  and  C6_8 
REMARK    5  A    between atoms: C6_8  and  C7_9 
REMARK    6  A    between atoms: C7_9  and  C8_10 
REMARK    7  A    between atoms: C8_10  and  O3_12 
REMARK    8  A    between atoms: O3_12  and  C9_13 
REMARK    9  A    between atoms: C9_13  and  C10_14 
REMARK   10  A    between atoms: C10_14  and  C11_16 
REMARK   11  A    between atoms: C11_16  and  O5_17 
REMARK   12  A    between atoms: C26_33  and  O7_34 
REMARK       I    between atoms: C30_38  and  N2_40 
REMARK   13  A    between atoms: N2_40  and  C31_41 
REMARK   14  A    between atoms: C31_41  and  C32_42 
REMARK   15  A    between atoms: C32_42  and  C33_43 
REMARK   16  A    between atoms: C32_42  and  C35_47 
REMARK   17  A    between atoms: C33_43  and  C34_44 
REMARK   18  A    between atoms: C34_44  and  O10_46 
ROOT
HETATM    1  C8  UNL     1       4.854  10.898  13.213  1.00  0.00     0.259 C 
HETATM    2  O2  UNL     1       4.856  12.003  12.682  1.00  0.00    -0.265 OA
ENDROOT
BRANCH   1   3
HETATM    3  C7  UNL     1       4.337   9.648  12.537  1.00  0.00     0.120 C 
BRANCH   3   4
HETATM    4  C6  UNL     1       2.997   9.165  13.082  1.00  0.00     0.112 C 
BRANCH   4   5
HETATM    5  C5  UNL     1       2.290   8.218  12.139  1.00  0.00     0.218 C 
HETATM    6  N1  UNL     1       2.793   6.934  12.217  1.00  0.00    -0.347 N 
HETATM    7  H9  UNL     1       3.759   6.872  12.516  1.00  0.00     0.163 HD
HETATM    8  O1  UNL     1       1.376   8.548  11.393  1.00  0.00    -0.274 OA
BRANCH   6   9
HETATM    9  C4  UNL     1       2.386   5.917  11.246  1.00  0.00     0.179 C 
BRANCH   9  10
HETATM   10  C2  UNL     1       3.272   5.994   9.981  1.00  0.00     0.009 C 
HETATM   11  C1  UNL     1       3.562   4.615   9.386  1.00  0.00     0.012 C 
HETATM   12  C3  UNL     1       2.715   6.921   8.893  1.00  0.00     0.012 C 
ENDBRANCH   9  10
BRANCH   9  13
HETATM   13  C30 UNL     1       0.882   6.132  10.955  1.00  0.00     0.240 C 
HETATM   14  O8  UNL     1       0.475   6.517   9.859  1.00  0.00    -0.271 OA
HETATM   15  N2  UNL     1       0.041   5.819  12.000  1.00  0.00    -0.359 N 
HETATM   16  H43 UNL     1       0.440   5.588  12.903  1.00  0.00     0.162 HD
BRANCH  15  17
HETATM   17  C31 UNL     1      -1.402   5.945  11.909  1.00  0.00     0.132 C 
BRANCH  17  18
HETATM   18  C32 UNL     1      -2.103   4.599  11.626  1.00  0.00     0.046 C 
BRANCH  18  19
HETATM   19  C33 UNL     1      -1.291   3.409  12.160  1.00  0.00     0.120 C 
BRANCH  19  20
HETATM   20  C34 UNL     1      -0.926   2.463  11.049  1.00  0.00     0.140 C 
HETATM   21  O9  UNL     1       0.020   1.692  11.027  1.00  0.00    -0.650 OA
BRANCH  20  22
HETATM   22  O10 UNL     1      -1.799   2.499  10.027  1.00  0.00    -0.776 OA
HETATM   23  H49 UNL     1      -1.453   1.839   9.392  1.00  0.00     0.167 HD
ENDBRANCH  20  22
ENDBRANCH  19  20
ENDBRANCH  18  19
BRANCH  18  24
HETATM   24  C35 UNL     1      -3.518   4.607  12.195  1.00  0.00    -0.052 A 
HETATM   25  C36 UNL     1      -3.914   5.639  13.060  1.00  0.00     0.007 A 
HETATM   26  C37 UNL     1      -5.205   5.668  13.588  1.00  0.00     0.001 A 
HETATM   27  C38 UNL     1      -6.119   4.668  13.259  1.00  0.00     0.000 A 
HETATM   28  C39 UNL     1      -5.742   3.642  12.396  1.00  0.00     0.001 A 
HETATM   29  C40 UNL     1      -4.452   3.611  11.865  1.00  0.00     0.007 A 
ENDBRANCH  18  24
ENDBRANCH  17  18
ENDBRANCH  15  17
ENDBRANCH   9  13
ENDBRANCH   6   9
ENDBRANCH   4   5
ENDBRANCH   3   4
ENDBRANCH   1   3
BRANCH   1  30
HETATM   30  O3  UNL     1       5.317  10.654  14.465  1.00  0.00    -0.314 OA
BRANCH  30  31
HETATM   31  C9  UNL     1       6.735  10.522  14.572  1.00  0.00     0.260 C 
BRANCH  31  32
HETATM   32  C10 UNL     1       7.362  11.547  15.513  1.00  0.00     0.185 C 
HETATM   33  O4  UNL     1       7.795  12.631  15.104  1.00  0.00    -0.292 OA
BRANCH  32  34
HETATM   34  C11 UNL     1       7.392  11.246  17.023  1.00  0.00     0.128 C 
HETATM   35  C12 UNL     1       8.637  11.725  17.812  1.00  0.00     0.047 C 
HETATM   36  C13 UNL     1       8.141  12.118  19.218  1.00  0.00     0.009 C 
HETATM   37  C14 UNL     1       6.707  11.607  19.264  1.00  0.00     0.002 C 
HETATM   38  C15 UNL     1       5.768  12.147  20.352  1.00  0.00    -0.002 C 
HETATM   39  C28 UNL     1       6.189  11.836  17.825  1.00  0.00     0.001 C 
HETATM   40  C16 UNL     1       6.397  11.969  21.750  1.00  0.00     0.010 C 
HETATM   41  C25 UNL     1       4.394  11.392  20.225  1.00  0.00     0.031 C 
HETATM   42  C17 UNL     1       5.425  12.272  22.891  1.00  0.00     0.035 C 
HETATM   43  C18 UNL     1       4.165  11.475  22.683  1.00  0.00    -0.068 C 
HETATM   44  C19 UNL     1       3.847  10.477  23.525  1.00  0.00     0.053 C 
HETATM   45  C23 UNL     1       3.404  11.788  21.386  1.00  0.00    -0.014 C 
HETATM   46  C20 UNL     1       2.779   9.506  23.197  1.00  0.00     0.149 C 
HETATM   47  O6  UNL     1       2.466   8.649  24.017  1.00  0.00    -0.293 OA
HETATM   48  C21 UNL     1       2.199   9.549  21.806  1.00  0.00     0.084 C 
HETATM   49  C22 UNL     1       2.068  10.993  21.351  1.00  0.00     0.022 C 
HETATM   50  C24 UNL     1       2.995  13.284  21.365  1.00  0.00     0.020 C 
HETATM   51  C26 UNL     1       3.816  11.467  18.783  1.00  0.00     0.124 C 
HETATM   52  C27 UNL     1       4.842  11.088  17.693  1.00  0.00     0.045 C 
HETATM   53  C29 UNL     1       6.016  13.335  17.462  1.00  0.00     0.019 C 
BRANCH  34  54
HETATM   54  O5  UNL     1       7.386   9.808  17.111  1.00  0.00    -0.381 OA
HETATM   55  H16 UNL     1       6.728   9.492  16.456  1.00  0.00     0.211 HD
ENDBRANCH  34  54
BRANCH  51  56
HETATM   56  O7  UNL     1       3.297  12.760  18.513  1.00  0.00    -0.395 OA
HETATM   57  H37 UNL     1       2.725  12.697  17.726  1.00  0.00     0.210 HD
ENDBRANCH  51  56
ENDBRANCH  32  34
ENDBRANCH  31  32
ENDBRANCH  30  31
ENDBRANCH   1  30
TORSDOF 18
ENDMDL
MODEL 9
REMARK minimizedAffinity -9.41527748
REMARK CNNscore 0.251001954
REMARK CNNaffinity 6.98610067
REMARK  18 active torsions:
REMARK  status: ('A' for Active; 'I' for Inactive)
REMARK    1  A    between atoms: C2_2  and  C4_4 
REMARK    2  A    between atoms: C4_4  and  N1_5 
REMARK    3  A    between atoms: C4_4  and  C30_38 
REMARK       I    between atoms: N1_5  and  C5_6 
REMARK    4  A    between atoms: C5_6  and  C6_8 
REMARK    5  A    between atoms: C6_8  and  C7_9 
REMARK    6  A    between atoms: C7_9  and  C8_10 
REMARK    7  A    between atoms: C8_10  and  O3_12 
REMARK    8  A    between atoms: O3_12  and  C9_13 
REMARK    9  A    between atoms: C9_13  and  C10_14 
REMARK   10  A    between atoms: C10_14  and  C11_16 
REMARK   11  A    between atoms: C11_16  and  O5_17 
REMARK   12  A    between atoms: C26_33  and  O7_34 
REMARK       I    between atoms: C30_38  and  N2_40 
REMARK   13  A    between atoms: N2_40  and  C31_41 
REMARK   14  A    between atoms: C31_41  and  C32_42 
REMARK   15  A    between atoms: C32_42  and  C33_43 
REMARK   16  A    between atoms: C32_42  and  C35_47 
REMARK   17  A    between atoms: C33_43  and  C34_44 
REMARK   18  A    between atoms: C34_44  and  O10_46 
ROOT
HETATM    1  C8  UNL     1      -1.576  10.598  14.480  1.00  0.00     0.259 C 
HETATM    2  O2  UNL     1      -1.810  11.680  13.953  1.00  0.00    -0.265 OA
ENDROOT
BRANCH   1   3
HETATM    3  C7  UNL     1      -2.053  10.224  15.865  1.00  0.00     0.120 C 
BRANCH   3   4
HETATM    4  C6  UNL     1      -2.939  11.281  16.516  1.00  0.00     0.112 C 
BRANCH   4   5
HETATM    5  C5  UNL     1      -2.557  11.560  17.953  1.00  0.00     0.218 C 
HETATM    6  N1  UNL     1      -1.337  12.202  18.051  1.00  0.00    -0.347 N 
HETATM    7  H9  UNL     1      -0.699  12.024  17.285  1.00  0.00     0.163 HD
HETATM    8  O1  UNL     1      -3.247  11.255  18.918  1.00  0.00    -0.274 OA
BRANCH   6   9
HETATM    9  C4  UNL     1      -0.695  12.379  19.355  1.00  0.00     0.179 C 
BRANCH   9  10
HETATM   10  C2  UNL     1      -0.449  13.879  19.636  1.00  0.00     0.009 C 
HETATM   11  C1  UNL     1       0.428  14.536  18.568  1.00  0.00     0.012 C 
HETATM   12  C3  UNL     1      -1.735  14.692  19.823  1.00  0.00     0.012 C 
ENDBRANCH   9  10
BRANCH   9  13
HETATM   13  C30 UNL     1       0.602  11.535  19.348  1.00  0.00     0.240 C 
HETATM   14  O8  UNL     1       0.996  10.946  18.342  1.00  0.00    -0.271 OA
HETATM   15  N2  UNL     1       1.296  11.533  20.538  1.00  0.00    -0.359 N 
HETATM   16  H43 UNL     1       0.878  11.968  21.355  1.00  0.00     0.162 HD
BRANCH  15  17
HETATM   17  C31 UNL     1       2.541  10.810  20.718  1.00  0.00     0.132 C 
BRANCH  17  18
HETATM   18  C32 UNL     1       2.980  10.733  22.196  1.00  0.00     0.046 C 
BRANCH  18  19
HETATM   19  C33 UNL     1       3.489   9.332  22.569  1.00  0.00     0.120 C 
BRANCH  19  20
HETATM   20  C34 UNL     1       2.398   8.512  23.200  1.00  0.00     0.140 C 
HETATM   21  O9  UNL     1       2.060   8.525  24.373  1.00  0.00    -0.650 OA
BRANCH  20  22
HETATM   22  O10 UNL     1       1.748   7.739  22.312  1.00  0.00    -0.776 OA
HETATM   23  H49 UNL     1       1.070   7.277  22.847  1.00  0.00     0.167 HD
ENDBRANCH  20  22
ENDBRANCH  19  20
ENDBRANCH  18  19
BRANCH  18  24
HETATM   24  C35 UNL     1       4.025  11.803  22.497  1.00  0.00    -0.052 A 
HETATM   25  C36 UNL     1       3.628  13.141  22.638  1.00  0.00     0.007 A 
HETATM   26  C37 UNL     1       4.566  14.135  22.918  1.00  0.00     0.001 A 
HETATM   27  C38 UNL     1       5.912  13.806  23.062  1.00  0.00     0.000 A 
HETATM   28  C39 UNL     1       6.320  12.481  22.932  1.00  0.00     0.001 A 
HETATM   29  C40 UNL     1       5.384  11.484  22.654  1.00  0.00     0.007 A 
ENDBRANCH  18  24
ENDBRANCH  17  18
ENDBRANCH  15  17
ENDBRANCH   9  13
ENDBRANCH   6   9
ENDBRANCH   4   5
ENDBRANCH   3   4
ENDBRANCH   1   3
BRANCH   1  30
HETATM   30  O3  UNL     1      -0.868   9.600  13.891  1.00  0.00    -0.314 OA
BRANCH  30  31
HETATM   31  C9  UNL     1      -0.696   8.428  14.688  1.00  0.00     0.260 C 
BRANCH  31  32
HETATM   32  C10 UNL     1      -0.586   7.152  13.860  1.00  0.00     0.185 C 
HETATM   33  O4  UNL     1       0.445   6.468  13.845  1.00  0.00    -0.292 OA
BRANCH  32  34
HETATM   34  C11 UNL     1      -1.821   6.668  13.076  1.00  0.00     0.128 C 
HETATM   35  C12 UNL     1      -1.612   5.490  12.091  1.00  0.00     0.047 C 
HETATM   36  C13 UNL     1      -2.915   4.666  12.112  1.00  0.00     0.009 C 
HETATM   37  C14 UNL     1      -3.895   5.536  12.887  1.00  0.00     0.002 C 
HETATM   38  C15 UNL     1      -5.173   4.891  13.443  1.00  0.00    -0.002 C 
HETATM   39  C28 UNL     1      -3.015   6.205  13.968  1.00  0.00     0.001 C 
HETATM   40  C16 UNL     1      -5.945   4.162  12.323  1.00  0.00     0.010 C 
HETATM   41  C25 UNL     1      -6.036   6.021  14.113  1.00  0.00     0.031 C 
HETATM   42  C17 UNL     1      -7.335   3.694  12.755  1.00  0.00     0.035 C 
HETATM   43  C18 UNL     1      -8.078   4.861  13.350  1.00  0.00    -0.068 C 
HETATM   44  C19 UNL     1      -9.145   5.379  12.717  1.00  0.00     0.053 C 
HETATM   45  C23 UNL     1      -7.432   5.476  14.600  1.00  0.00    -0.014 C 
HETATM   46  C20 UNL     1      -9.721   6.680  13.122  1.00  0.00     0.149 C 
HETATM   47  O6  UNL     1     -10.736   7.093  12.570  1.00  0.00    -0.293 OA
HETATM   48  C21 UNL     1      -8.956   7.500  14.131  1.00  0.00     0.084 C 
HETATM   49  C22 UNL     1      -8.354   6.584  15.183  1.00  0.00     0.022 C 
HETATM   50  C24 UNL     1      -7.320   4.403  15.715  1.00  0.00     0.020 C 
HETATM   51  C26 UNL     1      -5.222   6.838  15.157  1.00  0.00     0.124 C 
HETATM   52  C27 UNL     1      -3.858   7.325  14.624  1.00  0.00     0.045 C 
HETATM   53  C29 UNL     1      -2.497   5.215  15.045  1.00  0.00     0.019 C 
BRANCH  34  54
HETATM   54  O5  UNL     1      -2.212   7.801  12.275  1.00  0.00    -0.381 OA
HETATM   55  H16 UNL     1      -2.150   8.588  12.856  1.00  0.00     0.211 HD
ENDBRANCH  34  54
BRANCH  51  56
HETATM   56  O7  UNL     1      -5.024   6.086  16.344  1.00  0.00    -0.395 OA
HETATM   57  H37 UNL     1      -4.752   6.701  17.049  1.00  0.00     0.210 HD
ENDBRANCH  51  56
ENDBRANCH  32  34
ENDBRANCH  31  32
ENDBRANCH  30  31
ENDBRANCH   1  30
TORSDOF 18
ENDMDL
