MODEL 1
REMARK minimizedAffinity -7.5717926
REMARK CNNscore 0.815777719
REMARK CNNaffinity 6.75805616
REMARK  12 active torsions:
REMARK  status: ('A' for Active; 'I' for Inactive)
REMARK    1  A    between atoms: N1_2  and  C2_3 
REMARK    2  A    between atoms: C2_3  and  C3_4 
REMARK    3  A    between atoms: C3_4  and  C4_5 
REMARK    4  A    between atoms: C13_15  and  O2_16 
REMARK    5  A    between atoms: C18_21  and  O3_22 
REMARK    6  A    between atoms: C20_24  and  C21_25 
REMARK    7  A    between atoms: C21_25  and  C23_27 
REMARK    8  A    between atoms: C23_27  and  C24_28 
REMARK    9  A    between atoms: C24_28  and  O4_29 
REMARK   10  A    between atoms: C24_28  and  C25_30 
REMARK   11  A    between atoms: C26_31  and  C28_33 
REMARK   12  A    between atoms: C28_33  and  O6_35 
ROOT
HETATM    1  C4  UNL     1      -1.216  52.001 -10.350  1.00  0.00     0.023 C 
HETATM    2  C5  UNL     1      -1.392  50.825  -9.326  1.00  0.00     0.024 C 
HETATM    3  C6  UNL     1      -2.572  52.737 -10.343  1.00  0.00     0.135 C 
HETATM    4  O1  UNL     1      -3.633  52.103 -10.410  1.00  0.00    -0.297 OA
HETATM    5  C7  UNL     1      -2.642  54.241 -10.233  1.00  0.00     0.080 C 
HETATM    6  C8  UNL     1      -1.321  54.958 -10.039  1.00  0.00     0.022 C 
HETATM    7  C9  UNL     1      -0.339  54.210  -9.118  1.00  0.00    -0.008 C 
HETATM    8  C10 UNL     1      -0.982  53.897  -7.740  1.00  0.00     0.021 C 
HETATM    9  C11 UNL     1       0.920  55.080  -8.868  1.00  0.00     0.002 C 
HETATM   10  C12 UNL     1       2.158  54.800  -9.354  1.00  0.00    -0.029 C 
HETATM   11  C13 UNL     1       2.395  53.640 -10.289  1.00  0.00     0.149 C 
HETATM   12  C14 UNL     1       1.112  53.064 -10.877  1.00  0.00     0.043 C 
HETATM   13  C15 UNL     1       0.022  52.844  -9.825  1.00  0.00     0.017 C 
HETATM   14  C16 UNL     1       3.363  55.657  -8.955  1.00  0.00     0.017 C 
HETATM   15  C17 UNL     1       3.385  56.859  -9.951  1.00  0.00     0.023 C 
HETATM   16  C18 UNL     1       4.765  54.995  -8.910  1.00  0.00     0.132 C 
HETATM   17  C19 UNL     1       5.598  55.893  -7.977  1.00  0.00     0.038 C 
HETATM   18  C20 UNL     1       4.595  56.782  -7.178  1.00  0.00     0.001 C 
HETATM   19  C29 UNL     1       3.227  56.069  -7.438  1.00  0.00    -0.019 C 
HETATM   20  C30 UNL     1       3.088  54.853  -6.466  1.00  0.00     0.017 C 
HETATM   21  C31 UNL     1       1.974  56.935  -7.304  1.00  0.00     0.094 C 
HETATM   22  C32 UNL     1       0.766  56.322  -8.001  1.00  0.00     0.157 C 
HETATM   23  O7  UNL     1      -0.335  56.859  -7.863  1.00  0.00    -0.293 OA
ENDROOT
BRANCH  18  24
HETATM   24  C21 UNL     1       5.069  57.046  -5.715  1.00  0.00    -0.011 C 
HETATM   25  C22 UNL     1       4.074  57.937  -4.960  1.00  0.00     0.010 C 
BRANCH  24  26
HETATM   26  C23 UNL     1       6.477  57.718  -5.695  1.00  0.00     0.040 C 
BRANCH  26  27
HETATM   27  C24 UNL     1       7.577  56.939  -4.949  1.00  0.00     0.142 C 
BRANCH  27  28
HETATM   28  O4  UNL     1       7.174  56.724  -3.598  1.00  0.00    -0.392 OA
HETATM   29  H39 UNL     1       6.443  56.086  -3.614  1.00  0.00     0.210 HD
ENDBRANCH  27  28
BRANCH  27  30
HETATM   30  C25 UNL     1       8.909  57.615  -4.902  1.00  0.00     0.018 C 
HETATM   31  C26 UNL     1      10.121  57.023  -4.849  1.00  0.00     0.010 C 
HETATM   32  C27 UNL     1      10.379  55.547  -4.865  1.00  0.00     0.055 C 
BRANCH  31  33
HETATM   33  C28 UNL     1      11.297  57.929  -4.798  1.00  0.00     0.171 C 
HETATM   34  O5  UNL     1      11.285  59.146  -4.724  1.00  0.00    -0.646 OA
BRANCH  33  35
HETATM   35  O6  UNL     1      12.458  57.254  -4.846  1.00  0.00    -0.773 OA
HETATM   36  H44 UNL     1      13.134  57.964  -4.803  1.00  0.00     0.167 HD
ENDBRANCH  33  35
ENDBRANCH  31  33
ENDBRANCH  27  30
ENDBRANCH  26  27
ENDBRANCH  24  26
ENDBRANCH  18  24
BRANCH  16  37
HETATM   37  O3  UNL     1       5.379  54.846 -10.185  1.00  0.00    -0.394 OA
HETATM   38  H28 UNL     1       5.720  55.714 -10.469  1.00  0.00     0.210 HD
ENDBRANCH  16  37
BRANCH  11  39
HETATM   39  O2  UNL     1       3.167  54.046 -11.413  1.00  0.00    -0.391 OA
HETATM   40  H20 UNL     1       4.099  54.125 -11.115  1.00  0.00     0.210 HD
ENDBRANCH  11  39
BRANCH   1  41
HETATM   41  C3  UNL     1      -1.079  51.269 -11.731  1.00  0.00     0.047 C 
BRANCH  41  42
HETATM   42  C2  UNL     1      -1.505  51.910 -13.064  1.00  0.00     0.270 C 
BRANCH  42  43
HETATM   43  N1  UNL     1      -1.747  50.962 -14.143  1.00  0.00     0.079 N 
HETATM   44  C1  UNL     1      -3.041  51.210 -14.775  1.00  0.00     0.306 C 
HETATM   45  H4  UNL     1      -1.775  50.021 -13.759  1.00  0.00     0.315 HD
ENDBRANCH  42  43
ENDBRANCH  41  42
ENDBRANCH   1  41
TORSDOF 12
ENDMDL
MODEL 2
REMARK minimizedAffinity -7.36867952
REMARK CNNscore 0.674606323
REMARK CNNaffinity 6.33809423
REMARK  12 active torsions:
REMARK  status: ('A' for Active; 'I' for Inactive)
REMARK    1  A    between atoms: N1_2  and  C2_3 
REMARK    2  A    between atoms: C2_3  and  C3_4 
REMARK    3  A    between atoms: C3_4  and  C4_5 
REMARK    4  A    between atoms: C13_15  and  O2_16 
REMARK    5  A    between atoms: C18_21  and  O3_22 
REMARK    6  A    between atoms: C20_24  and  C21_25 
REMARK    7  A    between atoms: C21_25  and  C23_27 
REMARK    8  A    between atoms: C23_27  and  C24_28 
REMARK    9  A    between atoms: C24_28  and  O4_29 
REMARK   10  A    between atoms: C24_28  and  C25_30 
REMARK   11  A    between atoms: C26_31  and  C28_33 
REMARK   12  A    between atoms: C28_33  and  O6_35 
ROOT
HETATM    1  C4  UNL     1      -6.418  46.848 -32.292  1.00  0.00     0.023 C 
HETATM    2  C5  UNL     1      -6.953  47.726 -33.477  1.00  0.00     0.024 C 
HETATM    3  C6  UNL     1      -5.401  47.749 -31.561  1.00  0.00     0.135 C 
HETATM    4  O1  UNL     1      -4.553  48.388 -32.197  1.00  0.00    -0.297 OA
HETATM    5  C7  UNL     1      -5.425  47.892 -30.058  1.00  0.00     0.080 C 
HETATM    6  C8  UNL     1      -6.552  47.179 -29.338  1.00  0.00     0.022 C 
HETATM    7  C9  UNL     1      -7.895  47.224 -30.091  1.00  0.00    -0.008 C 
HETATM    8  C10 UNL     1      -8.312  48.683 -30.419  1.00  0.00     0.021 C 
HETATM    9  C11 UNL     1      -9.012  46.595 -29.219  1.00  0.00     0.002 C 
HETATM   10  C12 UNL     1      -9.629  45.414 -29.491  1.00  0.00    -0.029 C 
HETATM   11  C13 UNL     1      -9.191  44.542 -30.640  1.00  0.00     0.149 C 
HETATM   12  C14 UNL     1      -7.834  44.934 -31.216  1.00  0.00     0.043 C 
HETATM   13  C15 UNL     1      -7.700  46.441 -31.450  1.00  0.00     0.017 C 
HETATM   14  C16 UNL     1     -10.803  44.934 -28.633  1.00  0.00     0.017 C 
HETATM   15  C17 UNL     1     -10.170  44.178 -27.421  1.00  0.00     0.023 C 
HETATM   16  C18 UNL     1     -11.889  44.042 -29.290  1.00  0.00     0.132 C 
HETATM   17  C19 UNL     1     -13.132  44.210 -28.397  1.00  0.00     0.038 C 
HETATM   18  C20 UNL     1     -12.901  45.478 -27.519  1.00  0.00     0.001 C 
HETATM   19  C29 UNL     1     -11.695  46.172 -28.234  1.00  0.00    -0.019 C 
HETATM   20  C30 UNL     1     -12.224  46.987 -29.460  1.00  0.00     0.017 C 
HETATM   21  C31 UNL     1     -10.840  47.103 -27.374  1.00  0.00     0.094 C 
HETATM   22  C32 UNL     1      -9.468  47.363 -27.985  1.00  0.00     0.157 C 
HETATM   23  O7  UNL     1      -8.730  48.193 -27.453  1.00  0.00    -0.293 OA
ENDROOT
BRANCH  18  24
HETATM   24  C21 UNL     1     -14.219  46.274 -27.267  1.00  0.00    -0.011 C 
HETATM   25  C22 UNL     1     -14.341  46.698 -25.796  1.00  0.00     0.010 C 
BRANCH  24  26
HETATM   26  C23 UNL     1     -15.470  45.429 -27.662  1.00  0.00     0.040 C 
BRANCH  26  27
HETATM   27  C24 UNL     1     -16.220  44.762 -26.494  1.00  0.00     0.142 C 
BRANCH  27  28
HETATM   28  O4  UNL     1     -16.526  43.412 -26.835  1.00  0.00    -0.392 OA
HETATM   29  H39 UNL     1     -15.688  42.921 -26.850  1.00  0.00     0.210 HD
ENDBRANCH  27  28
BRANCH  27  30
HETATM   30  C25 UNL     1     -17.509  45.417 -26.115  1.00  0.00     0.018 C 
HETATM   31  C26 UNL     1     -17.947  45.690 -24.867  1.00  0.00     0.010 C 
HETATM   32  C27 UNL     1     -17.201  45.422 -23.596  1.00  0.00     0.055 C 
BRANCH  31  33
HETATM   33  C28 UNL     1     -19.279  46.340 -24.762  1.00  0.00     0.171 C 
HETATM   34  O5  UNL     1     -20.361  45.787 -24.683  1.00  0.00    -0.646 OA
BRANCH  33  35
HETATM   35  O6  UNL     1     -19.188  47.681 -24.764  1.00  0.00    -0.773 OA
HETATM   36  H44 UNL     1     -20.122  47.970 -24.689  1.00  0.00     0.167 HD
ENDBRANCH  33  35
ENDBRANCH  31  33
ENDBRANCH  27  30
ENDBRANCH  26  27
ENDBRANCH  24  26
ENDBRANCH  18  24
BRANCH  16  37
HETATM   37  O3  UNL     1     -11.516  42.676 -29.425  1.00  0.00    -0.394 OA
HETATM   38  H28 UNL     1     -11.591  42.246 -28.553  1.00  0.00     0.210 HD
ENDBRANCH  16  37
BRANCH  11  39
HETATM   39  O2  UNL     1      -9.038  43.191 -30.222  1.00  0.00    -0.391 OA
HETATM   40  H20 UNL     1      -9.937  42.806 -30.142  1.00  0.00     0.210 HD
ENDBRANCH  11  39
BRANCH   1  41
HETATM   41  C3  UNL     1      -5.614  45.709 -33.011  1.00  0.00     0.047 C 
BRANCH  41  42
HETATM   42  C2  UNL     1      -4.599  44.812 -32.281  1.00  0.00     0.270 C 
BRANCH  42  43
HETATM   43  N1  UNL     1      -4.226  43.603 -33.004  1.00  0.00     0.079 N 
HETATM   44  C1  UNL     1      -5.125  42.500 -32.674  1.00  0.00     0.306 C 
HETATM   45  H4  UNL     1      -3.290  43.323 -32.722  1.00  0.00     0.315 HD
ENDBRANCH  42  43
ENDBRANCH  41  42
ENDBRANCH   1  41
TORSDOF 12
ENDMDL
MODEL 3
REMARK minimizedAffinity -8.50496197
REMARK CNNscore 0.58254528
REMARK CNNaffinity 7.11812401
REMARK  12 active torsions:
REMARK  status: ('A' for Active; 'I' for Inactive)
REMARK    1  A    between atoms: N1_2  and  C2_3 
REMARK    2  A    between atoms: C2_3  and  C3_4 
REMARK    3  A    between atoms: C3_4  and  C4_5 
REMARK    4  A    between atoms: C13_15  and  O2_16 
REMARK    5  A    between atoms: C18_21  and  O3_22 
REMARK    6  A    between atoms: C20_24  and  C21_25 
REMARK    7  A    between atoms: C21_25  and  C23_27 
REMARK    8  A    between atoms: C23_27  and  C24_28 
REMARK    9  A    between atoms: C24_28  and  O4_29 
REMARK   10  A    between atoms: C24_28  and  C25_30 
REMARK   11  A    between atoms: C26_31  and  C28_33 
REMARK   12  A    between atoms: C28_33  and  O6_35 
ROOT
HETATM    1  C4  UNL     1      -0.491  51.720 -25.727  1.00  0.00     0.023 C 
HETATM    2  C5  UNL     1       0.334  50.656 -26.533  1.00  0.00     0.024 C 
HETATM    3  C6  UNL     1      -1.646  52.120 -26.669  1.00  0.00     0.135 C 
HETATM    4  O1  UNL     1      -1.428  52.380 -27.859  1.00  0.00    -0.297 OA
HETATM    5  C7  UNL     1      -3.070  52.184 -26.172  1.00  0.00     0.080 C 
HETATM    6  C8  UNL     1      -3.297  51.746 -24.738  1.00  0.00     0.022 C 
HETATM    7  C9  UNL     1      -2.436  50.542 -24.315  1.00  0.00    -0.008 C 
HETATM    8  C10 UNL     1      -2.633  49.338 -25.276  1.00  0.00     0.021 C 
HETATM    9  C11 UNL     1      -2.835  50.081 -22.889  1.00  0.00     0.002 C 
HETATM   10  C12 UNL     1      -2.050  50.218 -21.787  1.00  0.00    -0.029 C 
HETATM   11  C13 UNL     1      -0.730  50.944 -21.845  1.00  0.00     0.149 C 
HETATM   12  C14 UNL     1      -0.545  51.767 -23.116  1.00  0.00     0.043 C 
HETATM   13  C15 UNL     1      -0.924  50.996 -24.383  1.00  0.00     0.017 C 
HETATM   14  C16 UNL     1      -2.485  49.625 -20.444  1.00  0.00     0.017 C 
HETATM   15  C17 UNL     1      -3.394  50.703 -19.772  1.00  0.00     0.023 C 
HETATM   16  C18 UNL     1      -1.391  49.172 -19.442  1.00  0.00     0.132 C 
HETATM   17  C19 UNL     1      -2.095  48.159 -18.519  1.00  0.00     0.038 C 
HETATM   18  C20 UNL     1      -3.412  47.725 -19.231  1.00  0.00     0.001 C 
HETATM   19  C29 UNL     1      -3.194  48.238 -20.693  1.00  0.00    -0.019 C 
HETATM   20  C30 UNL     1      -2.310  47.211 -21.472  1.00  0.00     0.017 C 
HETATM   21  C31 UNL     1      -4.455  48.503 -21.515  1.00  0.00     0.094 C 
HETATM   22  C32 UNL     1      -4.191  49.409 -22.711  1.00  0.00     0.157 C 
HETATM   23  O7  UNL     1      -5.097  49.600 -23.524  1.00  0.00    -0.293 OA
ENDROOT
BRANCH  18  24
HETATM   24  C21 UNL     1      -3.760  46.226 -18.977  1.00  0.00    -0.011 C 
HETATM   25  C22 UNL     1      -5.278  46.011 -18.902  1.00  0.00     0.010 C 
BRANCH  24  26
HETATM   26  C23 UNL     1      -3.103  45.714 -17.657  1.00  0.00     0.040 C 
BRANCH  26  27
HETATM   27  C24 UNL     1      -3.714  44.430 -17.063  1.00  0.00     0.142 C 
BRANCH  27  28
HETATM   28  O4  UNL     1      -3.440  44.376 -15.665  1.00  0.00    -0.392 OA
HETATM   29  H39 UNL     1      -3.968  45.072 -15.241  1.00  0.00     0.210 HD
ENDBRANCH  27  28
BRANCH  27  30
HETATM   30  C25 UNL     1      -3.204  43.156 -17.655  1.00  0.00     0.018 C 
HETATM   31  C26 UNL     1      -3.909  42.246 -18.360  1.00  0.00     0.010 C 
HETATM   32  C27 UNL     1      -5.357  42.351 -18.728  1.00  0.00     0.055 C 
BRANCH  31  33
HETATM   33  C28 UNL     1      -3.162  41.051 -18.830  1.00  0.00     0.171 C 
HETATM   34  O5  UNL     1      -3.631  40.029 -19.298  1.00  0.00    -0.646 OA
BRANCH  33  35
HETATM   35  O6  UNL     1      -1.834  41.195 -18.684  1.00  0.00    -0.773 OA
HETATM   36  H44 UNL     1      -1.476  40.350 -19.030  1.00  0.00     0.167 HD
ENDBRANCH  33  35
ENDBRANCH  31  33
ENDBRANCH  27  30
ENDBRANCH  26  27
ENDBRANCH  24  26
ENDBRANCH  18  24
BRANCH  16  37
HETATM   37  O3  UNL     1      -0.801  50.236 -18.705  1.00  0.00    -0.394 OA
HETATM   38  H28 UNL     1      -1.423  50.514 -18.008  1.00  0.00     0.210 HD
ENDBRANCH  16  37
BRANCH  11  39
HETATM   39  O2  UNL     1      -0.619  51.880 -20.780  1.00  0.00    -0.391 OA
HETATM   40  H20 UNL     1      -0.419  51.373 -19.964  1.00  0.00     0.210 HD
ENDBRANCH  11  39
BRANCH   1  41
HETATM   41  C3  UNL     1       0.486  52.943 -25.626  1.00  0.00     0.047 C 
BRANCH  41  42
HETATM   42  C2  UNL     1       0.154  54.215 -24.825  1.00  0.00     0.270 C 
BRANCH  42  43
HETATM   43  N1  UNL     1       0.268  55.455 -25.581  1.00  0.00     0.079 N 
HETATM   44  C1  UNL     1       0.045  55.221 -27.006  1.00  0.00     0.306 C 
HETATM   45  H4  UNL     1       1.212  55.820 -25.480  1.00  0.00     0.315 HD
ENDBRANCH  42  43
ENDBRANCH  41  42
ENDBRANCH   1  41
TORSDOF 12
ENDMDL
MODEL 4
REMARK minimizedAffinity -7.1530571
REMARK CNNscore 0.473800719
REMARK CNNaffinity 6.24025106
REMARK  12 active torsions:
REMARK  status: ('A' for Active; 'I' for Inactive)
REMARK    1  A    between atoms: N1_2  and  C2_3 
REMARK    2  A    between atoms: C2_3  and  C3_4 
REMARK    3  A    between atoms: C3_4  and  C4_5 
REMARK    4  A    between atoms: C13_15  and  O2_16 
REMARK    5  A    between atoms: C18_21  and  O3_22 
REMARK    6  A    between atoms: C20_24  and  C21_25 
REMARK    7  A    between atoms: C21_25  and  C23_27 
REMARK    8  A    between atoms: C23_27  and  C24_28 
REMARK    9  A    between atoms: C24_28  and  O4_29 
REMARK   10  A    between atoms: C24_28  and  C25_30 
REMARK   11  A    between atoms: C26_31  and  C28_33 
REMARK   12  A    between atoms: C28_33  and  O6_35 
ROOT
HETATM    1  C4  UNL     1      -9.268  46.720 -17.279  1.00  0.00     0.023 C 
HETATM    2  C5  UNL     1      -9.939  48.105 -16.975  1.00  0.00     0.024 C 
HETATM    3  C6  UNL     1     -10.377  45.882 -17.948  1.00  0.00     0.135 C 
HETATM    4  O1  UNL     1     -11.517  45.847 -17.469  1.00  0.00    -0.297 OA
HETATM    5  C7  UNL     1     -10.108  45.103 -19.214  1.00  0.00     0.080 C 
HETATM    6  C8  UNL     1      -8.729  45.270 -19.821  1.00  0.00     0.022 C 
HETATM    7  C9  UNL     1      -8.181  46.707 -19.725  1.00  0.00    -0.008 C 
HETATM    8  C10 UNL     1      -9.166  47.732 -20.349  1.00  0.00     0.021 C 
HETATM    9  C11 UNL     1      -6.837  46.812 -20.491  1.00  0.00     0.002 C 
HETATM   10  C12 UNL     1      -5.626  46.991 -19.900  1.00  0.00    -0.029 C 
HETATM   11  C13 UNL     1      -5.473  46.999 -18.399  1.00  0.00     0.149 C 
HETATM   12  C14 UNL     1      -6.697  46.463 -17.663  1.00  0.00     0.043 C 
HETATM   13  C15 UNL     1      -8.011  47.045 -18.191  1.00  0.00     0.017 C 
HETATM   14  C16 UNL     1      -4.369  47.201 -20.749  1.00  0.00     0.017 C 
HETATM   15  C17 UNL     1      -3.843  45.773 -21.100  1.00  0.00     0.023 C 
HETATM   16  C18 UNL     1      -3.210  48.052 -20.166  1.00  0.00     0.132 C 
HETATM   17  C19 UNL     1      -2.412  48.528 -21.394  1.00  0.00     0.038 C 
HETATM   18  C20 UNL     1      -3.324  48.323 -22.643  1.00  0.00     0.001 C 
HETATM   19  C29 UNL     1      -4.731  48.087 -22.003  1.00  0.00    -0.019 C 
HETATM   20  C30 UNL     1      -5.366  49.468 -21.634  1.00  0.00     0.017 C 
HETATM   21  C31 UNL     1      -5.739  47.307 -22.847  1.00  0.00     0.094 C 
HETATM   22  C32 UNL     1      -6.876  46.732 -22.011  1.00  0.00     0.157 C 
HETATM   23  O7  UNL     1      -7.819  46.187 -22.587  1.00  0.00    -0.293 OA
ENDROOT
BRANCH  18  24
HETATM   24  C21 UNL     1      -3.133  49.446 -23.709  1.00  0.00    -0.011 C 
HETATM   25  C22 UNL     1      -3.193  48.878 -25.134  1.00  0.00     0.010 C 
BRANCH  24  26
HETATM   26  C23 UNL     1      -1.772  50.184 -23.509  1.00  0.00     0.040 C 
BRANCH  26  27
HETATM   27  C24 UNL     1      -1.869  51.694 -23.218  1.00  0.00     0.142 C 
BRANCH  27  28
HETATM   28  O4  UNL     1      -3.213  52.130 -23.412  1.00  0.00    -0.392 OA
HETATM   29  H39 UNL     1      -3.746  51.746 -22.697  1.00  0.00     0.210 HD
ENDBRANCH  27  28
BRANCH  27  30
HETATM   30  C25 UNL     1      -1.005  52.559 -24.077  1.00  0.00     0.018 C 
HETATM   31  C26 UNL     1      -0.378  52.206 -25.219  1.00  0.00     0.010 C 
HETATM   32  C27 UNL     1      -0.456  50.866 -25.885  1.00  0.00     0.055 C 
BRANCH  31  33
HETATM   33  C28 UNL     1       0.436  53.259 -25.879  1.00  0.00     0.171 C 
HETATM   34  O5  UNL     1       0.110  54.414 -26.092  1.00  0.00    -0.646 OA
BRANCH  33  35
HETATM   35  O6  UNL     1       1.644  52.804 -26.252  1.00  0.00    -0.773 OA
HETATM   36  H44 UNL     1       2.064  53.589 -26.663  1.00  0.00     0.167 HD
ENDBRANCH  33  35
ENDBRANCH  31  33
ENDBRANCH  27  30
ENDBRANCH  26  27
ENDBRANCH  24  26
ENDBRANCH  18  24
BRANCH  16  37
HETATM   37  O3  UNL     1      -2.386  47.354 -19.240  1.00  0.00    -0.394 OA
HETATM   38  H28 UNL     1      -1.794  46.760 -19.737  1.00  0.00     0.210 HD
ENDBRANCH  16  37
BRANCH  11  39
HETATM   39  O2  UNL     1      -4.401  46.158 -17.995  1.00  0.00    -0.391 OA
HETATM   40  H20 UNL     1      -3.565  46.638 -18.182  1.00  0.00     0.210 HD
ENDBRANCH  11  39
BRANCH   1  41
HETATM   41  C3  UNL     1      -9.011  46.116 -15.853  1.00  0.00     0.047 C 
BRANCH  41  42
HETATM   42  C2  UNL     1      -9.434  46.826 -14.555  1.00  0.00     0.270 C 
BRANCH  42  43
HETATM   43  N1  UNL     1      -8.411  46.854 -13.518  1.00  0.00     0.079 N 
HETATM   44  C1  UNL     1      -7.222  46.115 -13.936  1.00  0.00     0.306 C 
HETATM   45  H4  UNL     1      -8.771  46.398 -12.684  1.00  0.00     0.315 HD
ENDBRANCH  42  43
ENDBRANCH  41  42
ENDBRANCH   1  41
TORSDOF 12
ENDMDL
MODEL 5
REMARK minimizedAffinity -7.64953613
REMARK CNNscore 0.462845325
REMARK CNNaffinity 6.65369558
REMARK  12 active torsions:
REMARK  status: ('A' for Active; 'I' for Inactive)
REMARK    1  A    between atoms: N1_2  and  C2_3 
REMARK    2  A    between atoms: C2_3  and  C3_4 
REMARK    3  A    between atoms: C3_4  and  C4_5 
REMARK    4  A    between atoms: C13_15  and  O2_16 
REMARK    5  A    between atoms: C18_21  and  O3_22 
REMARK    6  A    between atoms: C20_24  and  C21_25 
REMARK    7  A    between atoms: C21_25  and  C23_27 
REMARK    8  A    between atoms: C23_27  and  C24_28 
REMARK    9  A    between atoms: C24_28  and  O4_29 
REMARK   10  A    between atoms: C24_28  and  C25_30 
REMARK   11  A    between atoms: C26_31  and  C28_33 
REMARK   12  A    between atoms: C28_33  and  O6_35 
ROOT
HETATM    1  C4  UNL     1      -8.132  46.310 -26.567  1.00  0.00     0.023 C 
HETATM    2  C5  UNL     1      -7.987  44.804 -26.151  1.00  0.00     0.024 C 
HETATM    3  C6  UNL     1      -9.553  46.708 -26.117  1.00  0.00     0.135 C 
HETATM    4  O1  UNL     1     -10.520  45.975 -26.360  1.00  0.00    -0.297 OA
HETATM    5  C7  UNL     1      -9.798  47.987 -25.352  1.00  0.00     0.080 C 
HETATM    6  C8  UNL     1      -8.567  48.790 -24.982  1.00  0.00     0.022 C 
HETATM    7  C9  UNL     1      -7.361  47.922 -24.574  1.00  0.00    -0.008 C 
HETATM    8  C10 UNL     1      -7.727  46.949 -23.422  1.00  0.00     0.021 C 
HETATM    9  C11 UNL     1      -6.202  48.827 -24.082  1.00  0.00     0.002 C 
HETATM   10  C12 UNL     1      -5.032  49.011 -24.749  1.00  0.00    -0.029 C 
HETATM   11  C13 UNL     1      -4.801  48.415 -26.116  1.00  0.00     0.149 C 
HETATM   12  C14 UNL     1      -6.077  47.909 -26.779  1.00  0.00     0.043 C 
HETATM   13  C15 UNL     1      -6.945  47.070 -25.838  1.00  0.00     0.017 C 
HETATM   14  C16 UNL     1      -3.900  49.831 -24.124  1.00  0.00     0.017 C 
HETATM   15  C17 UNL     1      -4.195  51.321 -24.489  1.00  0.00     0.023 C 
HETATM   16  C18 UNL     1      -2.435  49.486 -24.500  1.00  0.00     0.132 C 
HETATM   17  C19 UNL     1      -1.586  50.050 -23.345  1.00  0.00     0.038 C 
HETATM   18  C20 UNL     1      -2.554  50.320 -22.152  1.00  0.00     0.001 C 
HETATM   19  C29 UNL     1      -3.842  49.540 -22.575  1.00  0.00    -0.019 C 
HETATM   20  C30 UNL     1      -3.664  48.026 -22.226  1.00  0.00     0.017 C 
HETATM   21  C31 UNL     1      -5.158  50.019 -21.963  1.00  0.00     0.094 C 
HETATM   22  C32 UNL     1      -6.374  49.541 -22.747  1.00  0.00     0.157 C 
HETATM   23  O7  UNL     1      -7.497  49.755 -22.290  1.00  0.00    -0.293 OA
ENDROOT
BRANCH  18  24
HETATM   24  C21 UNL     1      -1.888  50.032 -20.770  1.00  0.00    -0.011 C 
HETATM   25  C22 UNL     1      -0.934  48.832 -20.851  1.00  0.00     0.010 C 
BRANCH  24  26
HETATM   26  C23 UNL     1      -2.966  49.757 -19.675  1.00  0.00     0.040 C 
BRANCH  26  27
HETATM   27  C24 UNL     1      -2.796  50.543 -18.361  1.00  0.00     0.142 C 
BRANCH  27  28
HETATM   28  O4  UNL     1      -2.896  51.941 -18.627  1.00  0.00    -0.392 OA
HETATM   29  H39 UNL     1      -3.820  52.124 -18.860  1.00  0.00     0.210 HD
ENDBRANCH  27  28
BRANCH  27  30
HETATM   30  C25 UNL     1      -1.494  50.327 -17.660  1.00  0.00     0.018 C 
HETATM   31  C26 UNL     1      -1.173  49.309 -16.835  1.00  0.00     0.010 C 
HETATM   32  C27 UNL     1      -2.058  48.153 -16.481  1.00  0.00     0.055 C 
BRANCH  31  33
HETATM   33  C28 UNL     1       0.195  49.334 -16.254  1.00  0.00     0.171 C 
HETATM   34  O5  UNL     1       0.878  50.318 -16.028  1.00  0.00    -0.646 OA
BRANCH  33  35
HETATM   35  O6  UNL     1       0.651  48.101 -15.982  1.00  0.00    -0.773 OA
HETATM   36  H44 UNL     1       1.543  48.267 -15.610  1.00  0.00     0.167 HD
ENDBRANCH  33  35
ENDBRANCH  31  33
ENDBRANCH  27  30
ENDBRANCH  26  27
ENDBRANCH  24  26
ENDBRANCH  18  24
BRANCH  16  37
HETATM   37  O3  UNL     1      -2.021  50.000 -25.759  1.00  0.00    -0.394 OA
HETATM   38  H28 UNL     1      -1.845  50.954 -25.663  1.00  0.00     0.210 HD
ENDBRANCH  16  37
BRANCH  11  39
HETATM   39  O2  UNL     1      -4.280  49.389 -27.011  1.00  0.00    -0.391 OA
HETATM   40  H20 UNL     1      -3.330  49.509 -26.793  1.00  0.00     0.210 HD
ENDBRANCH  11  39
BRANCH   1  41
HETATM   41  C3  UNL     1      -8.125  46.261 -28.135  1.00  0.00     0.047 C 
BRANCH  41  42
HETATM   42  C2  UNL     1      -8.865  47.291 -29.007  1.00  0.00     0.270 C 
BRANCH  42  43
HETATM   43  N1  UNL     1      -9.459  46.744 -30.220  1.00  0.00     0.079 N 
HETATM   44  C1  UNL     1     -10.644  45.950 -29.910  1.00  0.00     0.306 C 
HETATM   45  H4  UNL     1      -8.789  46.124 -30.667  1.00  0.00     0.315 HD
ENDBRANCH  42  43
ENDBRANCH  41  42
ENDBRANCH   1  41
TORSDOF 12
ENDMDL
MODEL 6
REMARK minimizedAffinity -7.66370964
REMARK CNNscore 0.44486019
REMARK CNNaffinity 6.5347209
REMARK  12 active torsions:
REMARK  status: ('A' for Active; 'I' for Inactive)
REMARK    1  A    between atoms: N1_2  and  C2_3 
REMARK    2  A    between atoms: C2_3  and  C3_4 
REMARK    3  A    between atoms: C3_4  and  C4_5 
REMARK    4  A    between atoms: C13_15  and  O2_16 
REMARK    5  A    between atoms: C18_21  and  O3_22 
REMARK    6  A    between atoms: C20_24  and  C21_25 
REMARK    7  A    between atoms: C21_25  and  C23_27 
REMARK    8  A    between atoms: C23_27  and  C24_28 
REMARK    9  A    between atoms: C24_28  and  O4_29 
REMARK   10  A    between atoms: C24_28  and  C25_30 
REMARK   11  A    between atoms: C26_31  and  C28_33 
REMARK   12  A    between atoms: C28_33  and  O6_35 
ROOT
HETATM    1  C4  UNL     1      -5.019  45.060 -19.576  1.00  0.00     0.023 C 
HETATM    2  C5  UNL     1      -3.825  44.056 -19.406  1.00  0.00     0.024 C 
HETATM    3  C6  UNL     1      -5.578  45.255 -18.151  1.00  0.00     0.135 C 
HETATM    4  O1  UNL     1      -5.779  44.282 -17.414  1.00  0.00    -0.297 OA
HETATM    5  C7  UNL     1      -5.871  46.634 -17.611  1.00  0.00     0.080 C 
HETATM    6  C8  UNL     1      -5.500  47.797 -18.510  1.00  0.00     0.022 C 
HETATM    7  C9  UNL     1      -4.184  47.587 -19.282  1.00  0.00    -0.008 C 
HETATM    8  C10 UNL     1      -3.009  47.262 -18.320  1.00  0.00     0.021 C 
HETATM    9  C11 UNL     1      -3.816  48.876 -20.062  1.00  0.00     0.002 C 
HETATM   10  C12 UNL     1      -3.848  48.992 -21.416  1.00  0.00    -0.029 C 
HETATM   11  C13 UNL     1      -4.358  47.875 -22.292  1.00  0.00     0.149 C 
HETATM   12  C14 UNL     1      -5.120  46.801 -21.522  1.00  0.00     0.043 C 
HETATM   13  C15 UNL     1      -4.395  46.355 -20.249  1.00  0.00     0.017 C 
HETATM   14  C16 UNL     1      -3.354  50.270 -22.099  1.00  0.00     0.017 C 
HETATM   15  C17 UNL     1      -4.572  51.248 -22.115  1.00  0.00     0.023 C 
HETATM   16  C18 UNL     1      -2.753  50.167 -23.526  1.00  0.00     0.132 C 
HETATM   17  C19 UNL     1      -1.879  51.426 -23.679  1.00  0.00     0.038 C 
HETATM   18  C20 UNL     1      -1.644  52.000 -22.248  1.00  0.00     0.001 C 
HETATM   19  C29 UNL     1      -2.091  50.816 -21.328  1.00  0.00    -0.019 C 
HETATM   20  C30 UNL     1      -0.924  49.780 -21.220  1.00  0.00     0.017 C 
HETATM   21  C31 UNL     1      -2.535  51.186 -19.913  1.00  0.00     0.094 C 
HETATM   22  C32 UNL     1      -3.367  50.089 -19.259  1.00  0.00     0.157 C 
HETATM   23  O7  UNL     1      -3.682  50.211 -18.074  1.00  0.00    -0.293 OA
ENDROOT
BRANCH  18  24
HETATM   24  C21 UNL     1      -0.221  52.619 -22.083  1.00  0.00    -0.011 C 
HETATM   25  C22 UNL     1       0.700  52.217 -23.243  1.00  0.00     0.010 C 
BRANCH  24  26
HETATM   26  C23 UNL     1       0.429  52.177 -20.735  1.00  0.00     0.040 C 
BRANCH  26  27
HETATM   27  C24 UNL     1       0.417  53.232 -19.611  1.00  0.00     0.142 C 
BRANCH  27  28
HETATM   28  O4  UNL     1       0.839  54.489 -20.135  1.00  0.00    -0.392 OA
HETATM   29  H39 UNL     1       0.135  54.806 -20.724  1.00  0.00     0.210 HD
ENDBRANCH  27  28
BRANCH  27  30
HETATM   30  C25 UNL     1       1.305  52.926 -18.448  1.00  0.00     0.018 C 
HETATM   31  C26 UNL     1       1.046  52.084 -17.426  1.00  0.00     0.010 C 
HETATM   32  C27 UNL     1      -0.186  51.245 -17.269  1.00  0.00     0.055 C 
BRANCH  31  33
HETATM   33  C28 UNL     1       2.098  51.967 -16.383  1.00  0.00     0.171 C 
HETATM   34  O5  UNL     1       3.224  52.431 -16.422  1.00  0.00    -0.646 OA
BRANCH  33  35
HETATM   35  O6  UNL     1       1.681  51.257 -15.322  1.00  0.00    -0.773 OA
HETATM   36  H44 UNL     1       2.460  51.264 -14.726  1.00  0.00     0.167 HD
ENDBRANCH  33  35
ENDBRANCH  31  33
ENDBRANCH  27  30
ENDBRANCH  26  27
ENDBRANCH  24  26
ENDBRANCH  18  24
BRANCH  16  37
HETATM   37  O3  UNL     1      -3.725  50.070 -24.560  1.00  0.00    -0.394 OA
HETATM   38  H28 UNL     1      -4.109  50.954 -24.709  1.00  0.00     0.210 HD
ENDBRANCH  16  37
BRANCH  11  39
HETATM   39  O2  UNL     1      -5.284  48.367 -23.253  1.00  0.00    -0.391 OA
HETATM   40  H20 UNL     1      -4.766  48.816 -23.955  1.00  0.00     0.210 HD
ENDBRANCH  11  39
BRANCH   1  41
HETATM   41  C3  UNL     1      -6.077  44.239 -20.394  1.00  0.00     0.047 C 
BRANCH  41  42
HETATM   42  C2  UNL     1      -7.592  44.488 -20.289  1.00  0.00     0.270 C 
BRANCH  42  43
HETATM   43  N1  UNL     1      -8.254  44.747 -21.561  1.00  0.00     0.079 N 
HETATM   44  C1  UNL     1      -7.606  44.014 -22.645  1.00  0.00     0.306 C 
HETATM   45  H4  UNL     1      -8.178  45.737 -21.779  1.00  0.00     0.315 HD
ENDBRANCH  42  43
ENDBRANCH  41  42
ENDBRANCH   1  41
TORSDOF 12
ENDMDL
MODEL 7
REMARK minimizedAffinity -7.51824188
REMARK CNNscore 0.420092404
REMARK CNNaffinity 6.38205576
REMARK  12 active torsions:
REMARK  status: ('A' for Active; 'I' for Inactive)
REMARK    1  A    between atoms: N1_2  and  C2_3 
REMARK    2  A    between atoms: C2_3  and  C3_4 
REMARK    3  A    between atoms: C3_4  and  C4_5 
REMARK    4  A    between atoms: C13_15  and  O2_16 
REMARK    5  A    between atoms: C18_21  and  O3_22 
REMARK    6  A    between atoms: C20_24  and  C21_25 
REMARK    7  A    between atoms: C21_25  and  C23_27 
REMARK    8  A    between atoms: C23_27  and  C24_28 
REMARK    9  A    between atoms: C24_28  and  O4_29 
REMARK   10  A    between atoms: C24_28  and  C25_30 
REMARK   11  A    between atoms: C26_31  and  C28_33 
REMARK   12  A    between atoms: C28_33  and  O6_35 
ROOT
HETATM    1  C4  UNL     1      -8.586  47.201 -18.484  1.00  0.00     0.023 C 
HETATM    2  C5  UNL     1      -9.527  48.438 -18.267  1.00  0.00     0.024 C 
HETATM    3  C6  UNL     1      -9.460  46.165 -19.221  1.00  0.00     0.135 C 
HETATM    4  O1  UNL     1     -10.609  45.920 -18.834  1.00  0.00    -0.297 OA
HETATM    5  C7  UNL     1      -8.947  45.441 -20.443  1.00  0.00     0.080 C 
HETATM    6  C8  UNL     1      -7.578  45.860 -20.942  1.00  0.00     0.022 C 
HETATM    7  C9  UNL     1      -7.317  47.375 -20.835  1.00  0.00    -0.008 C 
HETATM    8  C10 UNL     1      -8.421  48.192 -21.559  1.00  0.00     0.021 C 
HETATM    9  C11 UNL     1      -5.958  47.725 -21.493  1.00  0.00     0.002 C 
HETATM   10  C12 UNL     1      -4.854  48.133 -20.812  1.00  0.00    -0.029 C 
HETATM   11  C13 UNL     1      -4.831  48.180 -19.304  1.00  0.00     0.149 C 
HETATM   12  C14 UNL     1      -5.989  47.429 -18.656  1.00  0.00     0.043 C 
HETATM   13  C15 UNL     1      -7.341  47.750 -19.300  1.00  0.00     0.017 C 
HETATM   14  C16 UNL     1      -3.593  48.569 -21.563  1.00  0.00     0.017 C 
HETATM   15  C17 UNL     1      -2.783  47.262 -21.837  1.00  0.00     0.023 C 
HETATM   16  C18 UNL     1      -2.666  49.626 -20.908  1.00  0.00     0.132 C 
HETATM   17  C19 UNL     1      -1.872  50.236 -22.079  1.00  0.00     0.038 C 
HETATM   18  C20 UNL     1      -2.623  49.854 -23.392  1.00  0.00     0.001 C 
HETATM   19  C29 UNL     1      -4.010  49.362 -22.861  1.00  0.00    -0.019 C 
HETATM   20  C30 UNL     1      -4.919  50.602 -22.576  1.00  0.00     0.017 C 
HETATM   21  C31 UNL     1      -4.781  48.401 -23.765  1.00  0.00     0.094 C 
HETATM   22  C32 UNL     1      -5.855  47.628 -23.009  1.00  0.00     0.157 C 
HETATM   23  O7  UNL     1      -6.629  46.911 -23.647  1.00  0.00    -0.293 OA
ENDROOT
BRANCH  18  24
HETATM   24  C21 UNL     1      -2.557  50.985 -24.465  1.00  0.00    -0.011 C 
HETATM   25  C22 UNL     1      -2.917  52.349 -23.859  1.00  0.00     0.010 C 
BRANCH  24  26
HETATM   26  C23 UNL     1      -3.518  50.684 -25.657  1.00  0.00     0.040 C 
BRANCH  26  27
HETATM   27  C24 UNL     1      -3.115  51.299 -27.010  1.00  0.00     0.142 C 
BRANCH  27  28
HETATM   28  O4  UNL     1      -2.495  50.303 -27.820  1.00  0.00    -0.392 OA
HETATM   29  H39 UNL     1      -3.186  49.671 -28.078  1.00  0.00     0.210 HD
ENDBRANCH  27  28
BRANCH  27  30
HETATM   30  C25 UNL     1      -2.158  52.444 -26.922  1.00  0.00     0.018 C 
HETATM   31  C26 UNL     1      -0.810  52.383 -26.962  1.00  0.00     0.010 C 
HETATM   32  C27 UNL     1       0.008  51.141 -27.142  1.00  0.00     0.055 C 
BRANCH  31  33
HETATM   33  C28 UNL     1      -0.086  53.675 -26.842  1.00  0.00     0.171 C 
HETATM   34  O5  UNL     1      -0.224  54.661 -27.544  1.00  0.00    -0.646 OA
BRANCH  33  35
HETATM   35  O6  UNL     1       0.796  53.669 -25.829  1.00  0.00    -0.773 OA
HETATM   36  H44 UNL     1       1.190  54.566 -25.866  1.00  0.00     0.167 HD
ENDBRANCH  33  35
ENDBRANCH  31  33
ENDBRANCH  27  30
ENDBRANCH  26  27
ENDBRANCH  24  26
ENDBRANCH  18  24
BRANCH  16  37
HETATM   37  O3  UNL     1      -1.805  49.103 -19.904  1.00  0.00    -0.394 OA
HETATM   38  H28 UNL     1      -1.074  48.627 -20.338  1.00  0.00     0.210 HD
ENDBRANCH  16  37
BRANCH  11  39
HETATM   39  O2  UNL     1      -3.657  47.559 -18.796  1.00  0.00    -0.391 OA
HETATM   40  H20 UNL     1      -2.913  48.186 -18.927  1.00  0.00     0.210 HD
ENDBRANCH  11  39
BRANCH   1  41
HETATM   41  C3  UNL     1      -8.339  46.667 -17.029  1.00  0.00     0.047 C 
BRANCH  41  42
HETATM   42  C2  UNL     1      -9.287  46.969 -15.855  1.00  0.00     0.270 C 
BRANCH  42  43
HETATM   43  N1  UNL     1      -9.686  45.800 -15.081  1.00  0.00     0.079 N 
HETATM   44  C1  UNL     1     -11.054  45.404 -15.402  1.00  0.00     0.306 C 
HETATM   45  H4  UNL     1      -9.664  46.034 -14.092  1.00  0.00     0.315 HD
ENDBRANCH  42  43
ENDBRANCH  41  42
ENDBRANCH   1  41
TORSDOF 12
ENDMDL
MODEL 8
REMARK minimizedAffinity -7.10696554
REMARK CNNscore 0.419680327
REMARK CNNaffinity 6.35886717
REMARK  12 active torsions:
REMARK  status: ('A' for Active; 'I' for Inactive)
REMARK    1  A    between atoms: N1_2  and  C2_3 
REMARK    2  A    between atoms: C2_3  and  C3_4 
REMARK    3  A    between atoms: C3_4  and  C4_5 
REMARK    4  A    between atoms: C13_15  and  O2_16 
REMARK    5  A    between atoms: C18_21  and  O3_22 
REMARK    6  A    between atoms: C20_24  and  C21_25 
REMARK    7  A    between atoms: C21_25  and  C23_27 
REMARK    8  A    between atoms: C23_27  and  C24_28 
REMARK    9  A    between atoms: C24_28  and  O4_29 
REMARK   10  A    between atoms: C24_28  and  C25_30 
REMARK   11  A    between atoms: C26_31  and  C28_33 
REMARK   12  A    between atoms: C28_33  and  O6_35 
ROOT
HETATM    1  C4  UNL     1      -8.971  46.592 -17.587  1.00  0.00     0.023 C 
HETATM    2  C5  UNL     1      -9.695  47.933 -17.214  1.00  0.00     0.024 C 
HETATM    3  C6  UNL     1     -10.010  45.795 -18.403  1.00  0.00     0.135 C 
HETATM    4  O1  UNL     1     -11.180  45.698 -18.010  1.00  0.00    -0.297 OA
HETATM    5  C7  UNL     1      -9.636  45.135 -19.708  1.00  0.00     0.080 C 
HETATM    6  C8  UNL     1      -8.224  45.380 -20.200  1.00  0.00     0.022 C 
HETATM    7  C9  UNL     1      -7.719  46.812 -19.943  1.00  0.00    -0.008 C 
HETATM    8  C10 UNL     1      -8.683  47.869 -20.544  1.00  0.00     0.021 C 
HETATM    9  C11 UNL     1      -6.328  47.008 -20.600  1.00  0.00     0.002 C 
HETATM   10  C12 UNL     1      -5.165  47.157 -19.912  1.00  0.00    -0.029 C 
HETATM   11  C13 UNL     1      -5.116  47.037 -18.410  1.00  0.00     0.149 C 
HETATM   12  C14 UNL     1      -6.374  46.416 -17.811  1.00  0.00     0.043 C 
HETATM   13  C15 UNL     1      -7.663  47.018 -18.377  1.00  0.00     0.017 C 
HETATM   14  C16 UNL     1      -3.859  47.463 -20.650  1.00  0.00     0.017 C 
HETATM   15  C17 UNL     1      -3.275  46.081 -21.084  1.00  0.00     0.023 C 
HETATM   16  C18 UNL     1      -2.763  48.281 -19.916  1.00  0.00     0.132 C 
HETATM   17  C19 UNL     1      -1.895  48.878 -21.039  1.00  0.00     0.038 C 
HETATM   18  C20 UNL     1      -2.713  48.766 -22.362  1.00  0.00     0.001 C 
HETATM   19  C29 UNL     1      -4.156  48.449 -21.846  1.00  0.00    -0.019 C 
HETATM   20  C30 UNL     1      -4.848  49.780 -21.405  1.00  0.00     0.017 C 
HETATM   21  C31 UNL     1      -5.084  47.727 -22.822  1.00  0.00     0.094 C 
HETATM   22  C32 UNL     1      -6.261  47.060 -22.121  1.00  0.00     0.157 C 
HETATM   23  O7  UNL     1      -7.149  46.551 -22.807  1.00  0.00    -0.293 OA
ENDROOT
BRANCH  18  24
HETATM   24  C21 UNL     1      -2.477  49.981 -23.312  1.00  0.00    -0.011 C 
HETATM   25  C22 UNL     1      -2.564  49.560 -24.786  1.00  0.00     0.010 C 
BRANCH  24  26
HETATM   26  C23 UNL     1      -1.087  50.638 -23.047  1.00  0.00     0.040 C 
BRANCH  26  27
HETATM   27  C24 UNL     1      -1.057  52.177 -23.098  1.00  0.00     0.142 C 
BRANCH  27  28
HETATM   28  O4  UNL     1      -0.853  52.605 -24.442  1.00  0.00    -0.392 OA
HETATM   29  H39 UNL     1      -1.662  52.398 -24.936  1.00  0.00     0.210 HD
ENDBRANCH  27  28
BRANCH  27  30
HETATM   30  C25 UNL     1       0.014  52.815 -22.272  1.00  0.00     0.018 C 
HETATM   31  C26 UNL     1       0.084  52.862 -20.925  1.00  0.00     0.010 C 
HETATM   32  C27 UNL     1      -0.893  52.243 -19.973  1.00  0.00     0.055 C 
BRANCH  31  33
HETATM   33  C28 UNL     1       1.255  53.572 -20.349  1.00  0.00     0.171 C 
HETATM   34  O5  UNL     1       1.952  54.406 -20.900  1.00  0.00    -0.646 OA
BRANCH  33  35
HETATM   35  O6  UNL     1       1.503  53.194 -19.084  1.00  0.00    -0.773 OA
HETATM   36  H44 UNL     1       2.283  53.734 -18.835  1.00  0.00     0.167 HD
ENDBRANCH  33  35
ENDBRANCH  31  33
ENDBRANCH  27  30
ENDBRANCH  26  27
ENDBRANCH  24  26
ENDBRANCH  18  24
BRANCH  16  37
HETATM   37  O3  UNL     1      -1.988  47.521 -18.997  1.00  0.00    -0.394 OA
HETATM   38  H28 UNL     1      -1.349  46.983 -19.500  1.00  0.00     0.210 HD
ENDBRANCH  16  37
BRANCH  11  39
HETATM   39  O2  UNL     1      -4.053  46.183 -18.004  1.00  0.00    -0.391 OA
HETATM   40  H20 UNL     1      -3.219  46.693 -18.090  1.00  0.00     0.210 HD
ENDBRANCH  11  39
BRANCH   1  41
HETATM   41  C3  UNL     1      -8.797  45.871 -16.204  1.00  0.00     0.047 C 
BRANCH  41  42
HETATM   42  C2  UNL     1      -9.061  46.568 -14.858  1.00  0.00     0.270 C 
BRANCH  42  43
HETATM   43  N1  UNL     1      -8.380  45.966 -13.719  1.00  0.00     0.079 N 
HETATM   44  C1  UNL     1      -9.328  45.641 -12.657  1.00  0.00     0.306 C 
HETATM   45  H4  UNL     1      -7.718  46.636 -13.337  1.00  0.00     0.315 HD
ENDBRANCH  42  43
ENDBRANCH  41  42
ENDBRANCH   1  41
TORSDOF 12
ENDMDL
MODEL 9
REMARK minimizedAffinity -8.20132923
REMARK CNNscore 0.410451263
REMARK CNNaffinity 6.80366278
REMARK  12 active torsions:
REMARK  status: ('A' for Active; 'I' for Inactive)
REMARK    1  A    between atoms: N1_2  and  C2_3 
REMARK    2  A    between atoms: C2_3  and  C3_4 
REMARK    3  A    between atoms: C3_4  and  C4_5 
REMARK    4  A    between atoms: C13_15  and  O2_16 
REMARK    5  A    between atoms: C18_21  and  O3_22 
REMARK    6  A    between atoms: C20_24  and  C21_25 
REMARK    7  A    between atoms: C21_25  and  C23_27 
REMARK    8  A    between atoms: C23_27  and  C24_28 
REMARK    9  A    between atoms: C24_28  and  O4_29 
REMARK   10  A    between atoms: C24_28  and  C25_30 
REMARK   11  A    between atoms: C26_31  and  C28_33 
REMARK   12  A    between atoms: C28_33  and  O6_35 
ROOT
HETATM    1  C4  UNL     1      -0.742  51.681 -25.615  1.00  0.00     0.023 C 
HETATM    2  C5  UNL     1      -0.073  50.436 -26.298  1.00  0.00     0.024 C 
HETATM    3  C6  UNL     1      -2.108  51.829 -26.315  1.00  0.00     0.135 C 
HETATM    4  O1  UNL     1      -2.196  51.766 -27.548  1.00  0.00    -0.297 OA
HETATM    5  C7  UNL     1      -3.374  52.032 -25.517  1.00  0.00     0.080 C 
HETATM    6  C8  UNL     1      -3.228  51.988 -24.009  1.00  0.00     0.022 C 
HETATM    7  C9  UNL     1      -2.223  50.930 -23.516  1.00  0.00    -0.008 C 
HETATM    8  C10 UNL     1      -2.575  49.519 -24.058  1.00  0.00     0.021 C 
HETATM    9  C11 UNL     1      -2.244  50.863 -21.966  1.00  0.00     0.002 C 
HETATM   10  C12 UNL     1      -1.228  51.278 -21.164  1.00  0.00    -0.029 C 
HETATM   11  C13 UNL     1      -0.003  51.953 -21.727  1.00  0.00     0.149 C 
HETATM   12  C14 UNL     1      -0.174  52.412 -23.172  1.00  0.00     0.043 C 
HETATM   13  C15 UNL     1      -0.800  51.339 -24.067  1.00  0.00     0.017 C 
HETATM   14  C16 UNL     1      -1.296  51.062 -19.649  1.00  0.00     0.017 C 
HETATM   15  C17 UNL     1      -2.078  52.285 -19.074  1.00  0.00     0.023 C 
HETATM   16  C18 UNL     1       0.029  50.878 -18.864  1.00  0.00     0.132 C 
HETATM   17  C19 UNL     1      -0.375  50.149 -17.569  1.00  0.00     0.038 C 
HETATM   18  C20 UNL     1      -1.798  49.554 -17.802  1.00  0.00     0.001 C 
HETATM   19  C29 UNL     1      -1.964  49.664 -19.353  1.00  0.00    -0.019 C 
HETATM   20  C30 UNL     1      -1.234  48.461 -20.035  1.00  0.00     0.017 C 
HETATM   21  C31 UNL     1      -3.398  49.714 -19.881  1.00  0.00     0.094 C 
HETATM   22  C32 UNL     1      -3.478  50.272 -21.297  1.00  0.00     0.157 C 
HETATM   23  O7  UNL     1      -4.561  50.250 -21.883  1.00  0.00    -0.293 OA
ENDROOT
BRANCH  18  24
HETATM   24  C21 UNL     1      -1.989  48.176 -17.095  1.00  0.00    -0.011 C 
HETATM   25  C22 UNL     1      -3.468  47.768 -17.061  1.00  0.00     0.010 C 
BRANCH  24  26
HETATM   26  C23 UNL     1      -1.433  48.212 -15.637  1.00  0.00     0.040 C 
BRANCH  26  27
HETATM   27  C24 UNL     1      -1.685  49.518 -14.860  1.00  0.00     0.142 C 
BRANCH  27  28
HETATM   28  O4  UNL     1      -0.537  49.836 -14.077  1.00  0.00    -0.392 OA
HETATM   29  H39 UNL     1       0.168  50.094 -14.693  1.00  0.00     0.210 HD
ENDBRANCH  27  28
BRANCH  27  30
HETATM   30  C25 UNL     1      -2.850  49.481 -13.923  1.00  0.00     0.018 C 
HETATM   31  C26 UNL     1      -3.064  48.598 -12.925  1.00  0.00     0.010 C 
HETATM   32  C27 UNL     1      -2.143  47.486 -12.524  1.00  0.00     0.055 C 
BRANCH  31  33
HETATM   33  C28 UNL     1      -4.315  48.775 -12.143  1.00  0.00     0.171 C 
HETATM   34  O5  UNL     1      -4.555  49.650 -11.330  1.00  0.00    -0.646 OA
BRANCH  33  35
HETATM   35  O6  UNL     1      -5.223  47.825 -12.421  1.00  0.00    -0.773 OA
HETATM   36  H44 UNL     1      -5.982  48.063 -11.848  1.00  0.00     0.167 HD
ENDBRANCH  33  35
ENDBRANCH  31  33
ENDBRANCH  27  30
ENDBRANCH  26  27
ENDBRANCH  24  26
ENDBRANCH  18  24
BRANCH  16  37
HETATM   37  O3  UNL     1       0.717  52.094 -18.592  1.00  0.00    -0.394 OA
HETATM   38  H28 UNL     1       0.264  52.550 -17.860  1.00  0.00     0.210 HD
ENDBRANCH  16  37
BRANCH  11  39
HETATM   39  O2  UNL     1       0.305  53.134 -20.998  1.00  0.00    -0.391 OA
HETATM   40  H20 UNL     1       0.723  52.857 -20.154  1.00  0.00     0.210 HD
ENDBRANCH  11  39
BRANCH   1  41
HETATM   41  C3  UNL     1       0.160  52.880 -26.073  1.00  0.00     0.047 C 
BRANCH  41  42
HETATM   42  C2  UNL     1      -0.398  54.116 -26.801  1.00  0.00     0.270 C 
BRANCH  42  43
HETATM   43  N1  UNL     1       0.279  55.366 -26.482  1.00  0.00     0.079 N 
HETATM   44  C1  UNL     1       0.456  55.510 -25.039  1.00  0.00     0.306 C 
HETATM   45  H4  UNL     1      -0.296  56.144 -26.794  1.00  0.00     0.315 HD
ENDBRANCH  42  43
ENDBRANCH  41  42
ENDBRANCH   1  41
TORSDOF 12
ENDMDL
