MODEL 1
REMARK minimizedAffinity -6.9611907
REMARK CNNscore 0.573842585
REMARK CNNaffinity 6.79895639
REMARK  10 active torsions:
REMARK  status: ('A' for Active; 'I' for Inactive)
REMARK    1  A    between atoms: C2_2  and  C4_4 
REMARK    2  A    between atoms: C7_7  and  C8_8 
REMARK    3  A    between atoms: C8_8  and  O2_10 
REMARK    4  A    between atoms: C21_23  and  O3_24 
REMARK    5  A    between atoms: O3_24  and  C22_25 
REMARK    6  A    between atoms: C24_28  and  O5_29 
REMARK    7  A    between atoms: C25_30  and  O6_31 
REMARK    8  A    between atoms: C26_32  and  O7_33 
REMARK    9  A    between atoms: C27_34  and  C29_36 
REMARK   10  A    between atoms: C29_36  and  O8_37 
ROOT
HETATM    1  C4  UNL     1       2.533  56.064  -9.095  1.00  0.00     0.019 C 
HETATM    2  C5  UNL     1       2.898  56.793  -7.774  1.00  0.00     0.011 C 
HETATM    3  C6  UNL     1       2.249  55.995  -6.630  1.00  0.00     0.021 C 
HETATM    4  C7  UNL     1       1.088  55.256  -7.300  1.00  0.00     0.050 C 
HETATM    5  C9  UNL     1       0.595  53.997  -6.567  1.00  0.00     0.022 C 
HETATM    6  C10 UNL     1      -0.404  53.205  -7.443  1.00  0.00     0.011 C 
HETATM    7  C11 UNL     1       0.122  52.828  -8.877  1.00  0.00    -0.032 C 
HETATM    8  C12 UNL     1       1.222  51.737  -8.641  1.00  0.00     0.016 C 
HETATM    9  C13 UNL     1       0.753  54.111  -9.554  1.00  0.00     0.000 C 
HETATM   10  C14 UNL     1       1.310  53.800 -10.945  1.00  0.00     0.006 C 
HETATM   11  C15 UNL     1       0.240  53.215 -11.865  1.00  0.00     0.006 C 
HETATM   12  C16 UNL     1      -0.454  51.961 -11.279  1.00  0.00     0.003 C 
HETATM   13  C17 UNL     1      -1.361  51.192 -12.333  1.00  0.00    -0.035 C 
HETATM   14  C18 UNL     1      -2.361  52.137 -13.060  1.00  0.00     0.016 C 
HETATM   15  C19 UNL     1      -0.402  50.665 -13.455  1.00  0.00     0.012 C 
HETATM   16  C20 UNL     1      -0.968  49.542 -14.301  1.00  0.00     0.034 C 
HETATM   17  C21 UNL     1      -1.549  48.352 -13.529  1.00  0.00     0.135 C 
HETATM   18  C27 UNL     1      -1.639  48.559 -11.972  1.00  0.00     0.008 C 
HETATM   19  C28 UNL     1      -2.619  47.470 -11.428  1.00  0.00     0.020 C 
HETATM   20  C30 UNL     1      -2.202  50.009 -11.697  1.00  0.00     0.007 C 
HETATM   21  C31 UNL     1      -2.661  50.277 -10.246  1.00  0.00     0.007 C 
HETATM   22  C32 UNL     1      -1.632  50.920  -9.324  1.00  0.00     0.011 C 
HETATM   23  C33 UNL     1      -1.056  52.256  -9.853  1.00  0.00    -0.032 C 
HETATM   24  C34 UNL     1      -2.226  53.280  -9.921  1.00  0.00     0.016 C 
HETATM   25  C35 UNL     1       1.760  54.811  -8.617  1.00  0.00     0.017 C 
ENDROOT
BRANCH  17  26
HETATM   26  O3  UNL     1      -2.886  48.117 -14.030  1.00  0.00    -0.352 OA
BRANCH  26  27
HETATM   27  C22 UNL     1      -2.987  47.065 -14.998  1.00  0.00     0.291 C 
HETATM   28  O4  UNL     1      -2.659  47.498 -16.321  1.00  0.00    -0.356 OA
HETATM   29  C23 UNL     1      -3.754  48.153 -16.965  1.00  0.00     0.205 C 
HETATM   30  C24 UNL     1      -4.878  47.160 -17.272  1.00  0.00     0.173 C 
HETATM   31  C25 UNL     1      -4.873  45.996 -16.271  1.00  0.00     0.182 C 
HETATM   32  C26 UNL     1      -4.426  46.494 -14.898  1.00  0.00     0.204 C 
BRANCH  30  33
HETATM   33  O5  UNL     1      -6.136  47.843 -17.226  1.00  0.00    -0.391 OA
HETATM   34  H37 UNL     1      -6.796  47.133 -17.076  1.00  0.00     0.210 HD
ENDBRANCH  30  33
BRANCH  31  35
HETATM   35  O6  UNL     1      -6.191  45.426 -16.195  1.00  0.00    -0.390 OA
HETATM   36  H39 UNL     1      -6.155  44.830 -15.415  1.00  0.00     0.210 HD
ENDBRANCH  31  35
BRANCH  32  37
HETATM   37  O7  UNL     1      -4.504  45.409 -13.952  1.00  0.00    -0.388 OA
HETATM   38  H41 UNL     1      -4.146  45.765 -13.115  1.00  0.00     0.210 HD
ENDBRANCH  32  37
ENDBRANCH  26  27
ENDBRANCH  17  26
BRANCH  18  39
HETATM   39  C29 UNL     1      -0.281  48.295 -11.273  1.00  0.00     0.176 C 
BRANCH  39  40
HETATM   40  O8  UNL     1       0.456  47.290 -11.966  1.00  0.00    -0.400 OA
HETATM   41  H47 UNL     1       1.234  47.077 -11.419  1.00  0.00     0.209 HD
ENDBRANCH  39  40
ENDBRANCH  18  39
BRANCH   1  42
HETATM   42  C2  UNL     1       3.770  55.875  -9.965  1.00  0.00    -0.088 C 
HETATM   43  C1  UNL     1       4.863  55.179  -9.619  1.00  0.00     0.014 C 
HETATM   44  C3  UNL     1       3.702  56.553 -11.310  1.00  0.00     0.043 C 
ENDBRANCH   1  42
BRANCH   4  45
HETATM   45  C8  UNL     1      -0.086  56.249  -7.353  1.00  0.00     0.149 C 
HETATM   46  O1  UNL     1      -0.731  56.522  -8.356  1.00  0.00    -0.649 OA
BRANCH  45  47
HETATM   47  O2  UNL     1      -0.426  56.814  -6.188  1.00  0.00    -0.776 OA
HETATM   48  H11 UNL     1      -1.179  57.403  -6.413  1.00  0.00     0.167 HD
ENDBRANCH  45  47
ENDBRANCH   4  45
TORSDOF 10
ENDMDL
MODEL 2
REMARK minimizedAffinity -7.3587594
REMARK CNNscore 0.519756973
REMARK CNNaffinity 6.69817495
REMARK  10 active torsions:
REMARK  status: ('A' for Active; 'I' for Inactive)
REMARK    1  A    between atoms: C2_2  and  C4_4 
REMARK    2  A    between atoms: C7_7  and  C8_8 
REMARK    3  A    between atoms: C8_8  and  O2_10 
REMARK    4  A    between atoms: C21_23  and  O3_24 
REMARK    5  A    between atoms: O3_24  and  C22_25 
REMARK    6  A    between atoms: C24_28  and  O5_29 
REMARK    7  A    between atoms: C25_30  and  O6_31 
REMARK    8  A    between atoms: C26_32  and  O7_33 
REMARK    9  A    between atoms: C27_34  and  C29_36 
REMARK   10  A    between atoms: C29_36  and  O8_37 
ROOT
HETATM    1  C4  UNL     1       2.393  55.969  -9.092  1.00  0.00     0.019 C 
HETATM    2  C5  UNL     1       2.883  56.768  -7.855  1.00  0.00     0.011 C 
HETATM    3  C6  UNL     1       2.234  56.121  -6.619  1.00  0.00     0.021 C 
HETATM    4  C7  UNL     1       0.983  55.431  -7.171  1.00  0.00     0.050 C 
HETATM    5  C9  UNL     1       0.430  54.280  -6.313  1.00  0.00     0.022 C 
HETATM    6  C10 UNL     1      -0.673  53.507  -7.074  1.00  0.00     0.011 C 
HETATM    7  C11 UNL     1      -0.255  52.974  -8.494  1.00  0.00    -0.032 C 
HETATM    8  C12 UNL     1       0.765  51.817  -8.218  1.00  0.00     0.016 C 
HETATM    9  C13 UNL     1       0.440  54.142  -9.304  1.00  0.00     0.000 C 
HETATM   10  C14 UNL     1       0.897  53.675 -10.688  1.00  0.00     0.006 C 
HETATM   11  C15 UNL     1      -0.263  53.111 -11.506  1.00  0.00     0.006 C 
HETATM   12  C16 UNL     1      -1.023  51.970 -10.786  1.00  0.00     0.003 C 
HETATM   13  C17 UNL     1      -2.043  51.198 -11.730  1.00  0.00    -0.035 C 
HETATM   14  C18 UNL     1      -3.001  52.163 -12.486  1.00  0.00     0.016 C 
HETATM   15  C19 UNL     1      -1.189  50.505 -12.846  1.00  0.00     0.012 C 
HETATM   16  C20 UNL     1      -1.886  49.370 -13.569  1.00  0.00     0.034 C 
HETATM   17  C21 UNL     1      -2.519  48.298 -12.674  1.00  0.00     0.135 C 
HETATM   18  C27 UNL     1      -2.511  48.635 -11.137  1.00  0.00     0.008 C 
HETATM   19  C28 UNL     1      -3.545  47.679 -10.460  1.00  0.00     0.020 C 
HETATM   20  C30 UNL     1      -2.941  50.144 -10.959  1.00  0.00     0.007 C 
HETATM   21  C31 UNL     1      -3.301  50.565  -9.516  1.00  0.00     0.007 C 
HETATM   22  C32 UNL     1      -2.176  51.191  -8.699  1.00  0.00     0.011 C 
HETATM   23  C33 UNL     1      -1.524  52.427  -9.364  1.00  0.00    -0.032 C 
HETATM   24  C34 UNL     1      -2.611  53.537  -9.464  1.00  0.00     0.016 C 
HETATM   25  C35 UNL     1       1.548  54.827  -8.476  1.00  0.00     0.017 C 
ENDROOT
BRANCH  17  26
HETATM   26  O3  UNL     1      -3.895  48.136 -13.092  1.00  0.00    -0.352 OA
BRANCH  26  27
HETATM   27  C22 UNL     1      -4.151  46.964 -13.875  1.00  0.00     0.291 C 
HETATM   28  O4  UNL     1      -3.771  45.758 -13.205  1.00  0.00    -0.356 OA
HETATM   29  C23 UNL     1      -2.371  45.492 -13.318  1.00  0.00     0.205 C 
HETATM   30  C24 UNL     1      -2.001  45.133 -14.760  1.00  0.00     0.173 C 
HETATM   31  C25 UNL     1      -2.967  45.790 -15.756  1.00  0.00     0.182 C 
HETATM   32  C26 UNL     1      -3.412  47.151 -15.225  1.00  0.00     0.204 C 
BRANCH  30  33
HETATM   33  O5  UNL     1      -0.659  45.558 -15.022  1.00  0.00    -0.391 OA
HETATM   34  H37 UNL     1      -0.610  45.629 -15.999  1.00  0.00     0.210 HD
ENDBRANCH  30  33
BRANCH  31  35
HETATM   35  O6  UNL     1      -2.314  45.936 -17.029  1.00  0.00    -0.390 OA
HETATM   36  H39 UNL     1      -2.909  46.522 -17.545  1.00  0.00     0.210 HD
ENDBRANCH  31  35
BRANCH  32  37
HETATM   37  O7  UNL     1      -4.253  47.790 -16.207  1.00  0.00    -0.388 OA
HETATM   38  H41 UNL     1      -4.559  48.619 -15.790  1.00  0.00     0.210 HD
ENDBRANCH  32  37
ENDBRANCH  26  27
ENDBRANCH  17  26
BRANCH  18  39
HETATM   39  C29 UNL     1      -1.144  48.314 -10.481  1.00  0.00     0.176 C 
BRANCH  39  40
HETATM   40  O8  UNL     1      -0.515  47.215 -11.136  1.00  0.00    -0.400 OA
HETATM   41  H47 UNL     1       0.270  46.979 -10.610  1.00  0.00     0.209 HD
ENDBRANCH  39  40
ENDBRANCH  18  39
BRANCH   1  42
HETATM   42  C2  UNL     1       3.563  55.608  -9.999  1.00  0.00    -0.088 C 
HETATM   43  C1  UNL     1       4.481  54.664  -9.742  1.00  0.00     0.014 C 
HETATM   44  C3  UNL     1       3.646  56.415 -11.270  1.00  0.00     0.043 C 
ENDBRANCH   1  42
BRANCH   4  45
HETATM   45  C8  UNL     1      -0.108  56.511  -7.254  1.00  0.00     0.149 C 
HETATM   46  O1  UNL     1      -0.710  56.827  -8.271  1.00  0.00    -0.649 OA
BRANCH  45  47
HETATM   47  O2  UNL     1      -0.427  57.109  -6.099  1.00  0.00    -0.776 OA
HETATM   48  H11 UNL     1      -1.128  57.753  -6.343  1.00  0.00     0.167 HD
ENDBRANCH  45  47
ENDBRANCH   4  45
TORSDOF 10
ENDMDL
MODEL 3
REMARK minimizedAffinity -9.92564392
REMARK CNNscore 0.487190545
REMARK CNNaffinity 6.89072084
REMARK  10 active torsions:
REMARK  status: ('A' for Active; 'I' for Inactive)
REMARK    1  A    between atoms: C2_2  and  C4_4 
REMARK    2  A    between atoms: C7_7  and  C8_8 
REMARK    3  A    between atoms: C8_8  and  O2_10 
REMARK    4  A    between atoms: C21_23  and  O3_24 
REMARK    5  A    between atoms: O3_24  and  C22_25 
REMARK    6  A    between atoms: C24_28  and  O5_29 
REMARK    7  A    between atoms: C25_30  and  O6_31 
REMARK    8  A    between atoms: C26_32  and  O7_33 
REMARK    9  A    between atoms: C27_34  and  C29_36 
REMARK   10  A    between atoms: C29_36  and  O8_37 
ROOT
HETATM    1  C4  UNL     1      -8.451  44.848 -19.081  1.00  0.00     0.019 C 
HETATM    2  C5  UNL     1      -9.423  44.751 -17.875  1.00  0.00     0.011 C 
HETATM    3  C6  UNL     1      -9.514  46.158 -17.260  1.00  0.00     0.021 C 
HETATM    4  C7  UNL     1      -8.209  46.837 -17.684  1.00  0.00     0.050 C 
HETATM    5  C9  UNL     1      -8.235  48.375 -17.689  1.00  0.00     0.022 C 
HETATM    6  C10 UNL     1      -6.962  48.946 -18.358  1.00  0.00     0.011 C 
HETATM    7  C11 UNL     1      -6.669  48.403 -19.805  1.00  0.00    -0.032 C 
HETATM    8  C12 UNL     1      -7.776  49.034 -20.716  1.00  0.00     0.016 C 
HETATM    9  C13 UNL     1      -6.788  46.825 -19.802  1.00  0.00     0.000 C 
HETATM   10  C14 UNL     1      -6.540  46.238 -21.193  1.00  0.00     0.006 C 
HETATM   11  C15 UNL     1      -5.174  46.642 -21.744  1.00  0.00     0.006 C 
HETATM   12  C16 UNL     1      -4.952  48.174 -21.768  1.00  0.00     0.003 C 
HETATM   13  C17 UNL     1      -3.661  48.612 -22.586  1.00  0.00    -0.035 C 
HETATM   14  C18 UNL     1      -2.387  47.836 -22.147  1.00  0.00     0.016 C 
HETATM   15  C19 UNL     1      -3.907  48.192 -24.076  1.00  0.00     0.012 C 
HETATM   16  C20 UNL     1      -3.032  48.901 -25.090  1.00  0.00     0.034 C 
HETATM   17  C21 UNL     1      -3.002  50.431 -24.992  1.00  0.00     0.135 C 
HETATM   18  C27 UNL     1      -3.737  51.024 -23.734  1.00  0.00     0.008 C 
HETATM   19  C28 UNL     1      -3.243  52.498 -23.576  1.00  0.00     0.020 C 
HETATM   20  C30 UNL     1      -3.339  50.160 -22.473  1.00  0.00     0.007 C 
HETATM   21  C31 UNL     1      -3.703  50.777 -21.105  1.00  0.00     0.007 C 
HETATM   22  C32 UNL     1      -5.033  50.339 -20.502  1.00  0.00     0.011 C 
HETATM   23  C33 UNL     1      -5.181  48.807 -20.343  1.00  0.00    -0.032 C 
HETATM   24  C34 UNL     1      -4.105  48.333 -19.322  1.00  0.00     0.016 C 
HETATM   25  C35 UNL     1      -8.104  46.356 -19.148  1.00  0.00     0.017 C 
ENDROOT
BRANCH  17  26
HETATM   26  O3  UNL     1      -1.614  50.837 -24.935  1.00  0.00    -0.352 OA
BRANCH  26  27
HETATM   27  C22 UNL     1      -1.012  51.095 -26.209  1.00  0.00     0.291 C 
HETATM   28  O4  UNL     1       0.383  51.396 -26.110  1.00  0.00    -0.356 OA
HETATM   29  C23 UNL     1       0.620  52.761 -25.757  1.00  0.00     0.205 C 
HETATM   30  C24 UNL     1       0.217  53.696 -26.900  1.00  0.00     0.173 C 
HETATM   31  C25 UNL     1      -0.897  53.075 -27.754  1.00  0.00     0.182 C 
HETATM   32  C26 UNL     1      -1.822  52.239 -26.870  1.00  0.00     0.204 C 
BRANCH  30  33
HETATM   33  O5  UNL     1      -0.219  54.946 -26.354  1.00  0.00    -0.391 OA
HETATM   34  H37 UNL     1      -0.772  55.343 -27.061  1.00  0.00     0.210 HD
ENDBRANCH  30  33
BRANCH  31  35
HETATM   35  O6  UNL     1      -1.636  54.120 -28.409  1.00  0.00    -0.390 OA
HETATM   36  H39 UNL     1      -2.429  53.670 -28.772  1.00  0.00     0.210 HD
ENDBRANCH  31  35
BRANCH  32  37
HETATM   37  O7  UNL     1      -2.908  51.730 -27.670  1.00  0.00    -0.388 OA
HETATM   38  H41 UNL     1      -3.425  51.154 -27.073  1.00  0.00     0.210 HD
ENDBRANCH  32  37
ENDBRANCH  26  27
ENDBRANCH  17  26
BRANCH  18  39
HETATM   39  C29 UNL     1      -5.270  51.111 -23.947  1.00  0.00     0.176 C 
BRANCH  39  40
HETATM   40  O8  UNL     1      -5.767  52.380 -23.528  1.00  0.00    -0.400 OA
HETATM   41  H47 UNL     1      -6.739  52.334 -23.565  1.00  0.00     0.209 HD
ENDBRANCH  39  40
ENDBRANCH  18  39
BRANCH   1  42
HETATM   42  C2  UNL     1      -9.049  44.177 -20.311  1.00  0.00    -0.088 C 
HETATM   43  C1  UNL     1      -8.875  42.891 -20.654  1.00  0.00     0.014 C 
HETATM   44  C3  UNL     1      -9.887  45.083 -21.177  1.00  0.00     0.043 C 
ENDBRANCH   1  42
BRANCH   4  45
HETATM   45  C8  UNL     1      -7.140  46.397 -16.670  1.00  0.00     0.149 C 
HETATM   46  O1  UNL     1      -6.172  45.695 -16.928  1.00  0.00    -0.649 OA
BRANCH  45  47
HETATM   47  O2  UNL     1      -7.289  46.865 -15.424  1.00  0.00    -0.776 OA
HETATM   48  H11 UNL     1      -6.529  46.488 -14.930  1.00  0.00     0.167 HD
ENDBRANCH  45  47
ENDBRANCH   4  45
TORSDOF 10
ENDMDL
MODEL 4
REMARK minimizedAffinity -7.0814743
REMARK CNNscore 0.467296124
REMARK CNNaffinity 6.50264597
REMARK  10 active torsions:
REMARK  status: ('A' for Active; 'I' for Inactive)
REMARK    1  A    between atoms: C2_2  and  C4_4 
REMARK    2  A    between atoms: C7_7  and  C8_8 
REMARK    3  A    between atoms: C8_8  and  O2_10 
REMARK    4  A    between atoms: C21_23  and  O3_24 
REMARK    5  A    between atoms: O3_24  and  C22_25 
REMARK    6  A    between atoms: C24_28  and  O5_29 
REMARK    7  A    between atoms: C25_30  and  O6_31 
REMARK    8  A    between atoms: C26_32  and  O7_33 
REMARK    9  A    between atoms: C27_34  and  C29_36 
REMARK   10  A    between atoms: C29_36  and  O8_37 
ROOT
HETATM    1  C4  UNL     1       1.970  56.549  -6.670  1.00  0.00     0.019 C 
HETATM    2  C5  UNL     1       2.916  57.737  -6.351  1.00  0.00     0.011 C 
HETATM    3  C6  UNL     1       3.913  57.839  -7.518  1.00  0.00     0.021 C 
HETATM    4  C7  UNL     1       3.932  56.431  -8.118  1.00  0.00     0.050 C 
HETATM    5  C9  UNL     1       4.399  56.342  -9.582  1.00  0.00     0.022 C 
HETATM    6  C10 UNL     1       4.151  54.927 -10.154  1.00  0.00     0.011 C 
HETATM    7  C11 UNL     1       2.672  54.406 -10.023  1.00  0.00    -0.032 C 
HETATM    8  C12 UNL     1       1.837  55.270 -11.028  1.00  0.00     0.016 C 
HETATM    9  C13 UNL     1       2.168  54.638  -8.542  1.00  0.00     0.000 C 
HETATM   10  C14 UNL     1       0.721  54.175  -8.358  1.00  0.00     0.006 C 
HETATM   11  C15 UNL     1       0.546  52.703  -8.728  1.00  0.00     0.006 C 
HETATM   12  C16 UNL     1       1.032  52.369 -10.159  1.00  0.00     0.003 C 
HETATM   13  C17 UNL     1       0.605  50.918 -10.647  1.00  0.00    -0.035 C 
HETATM   14  C18 UNL     1       0.980  49.810  -9.621  1.00  0.00     0.016 C 
HETATM   15  C19 UNL     1      -0.961  50.907 -10.714  1.00  0.00     0.012 C 
HETATM   16  C20 UNL     1      -1.554  49.805 -11.569  1.00  0.00     0.034 C 
HETATM   17  C21 UNL     1      -0.984  49.681 -12.987  1.00  0.00     0.135 C 
HETATM   18  C27 UNL     1       0.263  50.596 -13.278  1.00  0.00     0.008 C 
HETATM   19  C28 UNL     1       0.945  50.034 -14.566  1.00  0.00     0.020 C 
HETATM   20  C30 UNL     1       1.241  50.509 -12.040  1.00  0.00     0.007 C 
HETATM   21  C31 UNL     1       2.657  51.080 -12.274  1.00  0.00     0.007 C 
HETATM   22  C32 UNL     1       2.876  52.529 -11.853  1.00  0.00     0.011 C 
HETATM   23  C33 UNL     1       2.528  52.817 -10.373  1.00  0.00    -0.032 C 
HETATM   24  C34 UNL     1       3.509  51.992  -9.489  1.00  0.00     0.016 C 
HETATM   25  C35 UNL     1       2.427  56.086  -8.074  1.00  0.00     0.017 C 
ENDROOT
BRANCH  17  26
HETATM   26  O3  UNL     1      -0.585  48.303 -13.179  1.00  0.00    -0.352 OA
BRANCH  26  27
HETATM   27  C22 UNL     1      -1.668  47.390 -13.392  1.00  0.00     0.291 C 
HETATM   28  O4  UNL     1      -1.552  46.202 -12.602  1.00  0.00    -0.356 OA
HETATM   29  C23 UNL     1      -0.669  45.244 -13.189  1.00  0.00     0.205 C 
HETATM   30  C24 UNL     1      -1.270  44.664 -14.472  1.00  0.00     0.173 C 
HETATM   31  C25 UNL     1      -2.223  45.667 -15.136  1.00  0.00     0.182 C 
HETATM   32  C26 UNL     1      -1.715  47.090 -14.912  1.00  0.00     0.204 C 
BRANCH  30  33
HETATM   33  O5  UNL     1      -0.213  44.317 -15.373  1.00  0.00    -0.391 OA
HETATM   34  H37 UNL     1      -0.640  44.296 -16.257  1.00  0.00     0.210 HD
ENDBRANCH  30  33
BRANCH  31  35
HETATM   35  O6  UNL     1      -2.313  45.381 -16.543  1.00  0.00    -0.390 OA
HETATM   36  H39 UNL     1      -2.774  46.160 -16.923  1.00  0.00     0.210 HD
ENDBRANCH  31  35
BRANCH  32  37
HETATM   37  O7  UNL     1      -2.574  48.015 -15.610  1.00  0.00    -0.388 OA
HETATM   38  H41 UNL     1      -2.244  48.905 -15.378  1.00  0.00     0.210 HD
ENDBRANCH  32  37
ENDBRANCH  26  27
ENDBRANCH  17  26
BRANCH  18  39
HETATM   39  C29 UNL     1      -0.153  52.050 -13.618  1.00  0.00     0.176 C 
BRANCH  39  40
HETATM   40  O8  UNL     1       0.687  52.591 -14.636  1.00  0.00    -0.400 OA
HETATM   41  H47 UNL     1       0.465  53.535 -14.719  1.00  0.00     0.209 HD
ENDBRANCH  39  40
ENDBRANCH  18  39
BRANCH   1  42
HETATM   42  C2  UNL     1       0.513  56.950  -6.468  1.00  0.00    -0.088 C 
HETATM   43  C1  UNL     1      -0.288  57.464  -7.414  1.00  0.00     0.014 C 
HETATM   44  C3  UNL     1      -0.011  56.736  -5.070  1.00  0.00     0.043 C 
ENDBRANCH   1  42
BRANCH   4  45
HETATM   45  C8  UNL     1       4.917  55.610  -7.269  1.00  0.00     0.149 C 
HETATM   46  O1  UNL     1       6.082  55.914  -7.052  1.00  0.00    -0.649 OA
BRANCH  45  47
HETATM   47  O2  UNL     1       4.420  54.500  -6.709  1.00  0.00    -0.776 OA
HETATM   48  H11 UNL     1       5.178  54.116  -6.215  1.00  0.00     0.167 HD
ENDBRANCH  45  47
ENDBRANCH   4  45
TORSDOF 10
ENDMDL
MODEL 5
REMARK minimizedAffinity -7.66548395
REMARK CNNscore 0.448258907
REMARK CNNaffinity 6.81126165
REMARK  10 active torsions:
REMARK  status: ('A' for Active; 'I' for Inactive)
REMARK    1  A    between atoms: C2_2  and  C4_4 
REMARK    2  A    between atoms: C7_7  and  C8_8 
REMARK    3  A    between atoms: C8_8  and  O2_10 
REMARK    4  A    between atoms: C21_23  and  O3_24 
REMARK    5  A    between atoms: O3_24  and  C22_25 
REMARK    6  A    between atoms: C24_28  and  O5_29 
REMARK    7  A    between atoms: C25_30  and  O6_31 
REMARK    8  A    between atoms: C26_32  and  O7_33 
REMARK    9  A    between atoms: C27_34  and  C29_36 
REMARK   10  A    between atoms: C29_36  and  O8_37 
ROOT
HETATM    1  C4  UNL     1      -1.133  51.890 -23.039  1.00  0.00     0.019 C 
HETATM    2  C5  UNL     1       0.318  52.364 -22.759  1.00  0.00     0.011 C 
HETATM    3  C6  UNL     1       0.885  51.443 -21.664  1.00  0.00     0.021 C 
HETATM    4  C7  UNL     1      -0.356  50.916 -20.938  1.00  0.00     0.050 C 
HETATM    5  C9  UNL     1      -0.163  49.597 -20.171  1.00  0.00     0.022 C 
HETATM    6  C10 UNL     1      -1.521  49.038 -19.684  1.00  0.00     0.011 C 
HETATM    7  C11 UNL     1      -2.608  48.860 -20.807  1.00  0.00    -0.032 C 
HETATM    8  C12 UNL     1      -2.105  47.662 -21.684  1.00  0.00     0.016 C 
HETATM    9  C13 UNL     1      -2.686  50.183 -21.671  1.00  0.00     0.000 C 
HETATM   10  C14 UNL     1      -3.710  50.060 -22.802  1.00  0.00     0.006 C 
HETATM   11  C15 UNL     1      -5.101  49.718 -22.271  1.00  0.00     0.006 C 
HETATM   12  C16 UNL     1      -5.126  48.444 -21.392  1.00  0.00     0.003 C 
HETATM   13  C17 UNL     1      -6.594  47.930 -21.068  1.00  0.00    -0.035 C 
HETATM   14  C18 UNL     1      -7.508  49.055 -20.504  1.00  0.00     0.016 C 
HETATM   15  C19 UNL     1      -7.241  47.519 -22.435  1.00  0.00     0.012 C 
HETATM   16  C20 UNL     1      -8.438  46.597 -22.322  1.00  0.00     0.034 C 
HETATM   17  C21 UNL     1      -8.238  45.346 -21.458  1.00  0.00     0.135 C 
HETATM   18  C27 UNL     1      -6.878  45.302 -20.668  1.00  0.00     0.008 C 
HETATM   19  C28 UNL     1      -7.039  44.220 -19.553  1.00  0.00     0.020 C 
HETATM   20  C30 UNL     1      -6.628  46.728 -20.035  1.00  0.00     0.007 C 
HETATM   21  C31 UNL     1      -5.515  46.792 -18.965  1.00  0.00     0.007 C 
HETATM   22  C32 UNL     1      -4.130  47.194 -19.458  1.00  0.00     0.011 C 
HETATM   23  C33 UNL     1      -4.094  48.548 -20.206  1.00  0.00    -0.032 C 
HETATM   24  C34 UNL     1      -4.494  49.658 -19.190  1.00  0.00     0.016 C 
HETATM   25  C35 UNL     1      -1.288  50.640 -22.138  1.00  0.00     0.017 C 
ENDROOT
BRANCH  17  26
HETATM   26  O3  UNL     1      -9.319  45.301 -20.497  1.00  0.00    -0.352 OA
BRANCH  26  27
HETATM   27  C22 UNL     1     -10.374  44.389 -20.824  1.00  0.00     0.291 C 
HETATM   28  O4  UNL     1      -9.890  43.101 -21.217  1.00  0.00    -0.356 OA
HETATM   29  C23 UNL     1      -9.480  43.069 -22.585  1.00  0.00     0.205 C 
HETATM   30  C24 UNL     1     -10.687  43.204 -23.518  1.00  0.00     0.173 C 
HETATM   31  C25 UNL     1     -11.819  43.991 -22.843  1.00  0.00     0.182 C 
HETATM   32  C26 UNL     1     -11.231  45.063 -21.926  1.00  0.00     0.204 C 
BRANCH  30  33
HETATM   33  O5  UNL     1     -10.281  43.863 -24.723  1.00  0.00    -0.391 OA
HETATM   34  H37 UNL     1     -11.112  44.225 -25.097  1.00  0.00     0.210 HD
ENDBRANCH  30  33
BRANCH  31  35
HETATM   35  O6  UNL     1     -12.651  44.592 -23.850  1.00  0.00    -0.390 OA
HETATM   36  H39 UNL     1     -13.221  45.219 -23.356  1.00  0.00     0.210 HD
ENDBRANCH  31  35
BRANCH  32  37
HETATM   37  O7  UNL     1     -12.303  45.845 -21.363  1.00  0.00    -0.388 OA
HETATM   38  H41 UNL     1     -11.876  46.465 -20.740  1.00  0.00     0.210 HD
ENDBRANCH  32  37
ENDBRANCH  26  27
ENDBRANCH  17  26
BRANCH  18  39
HETATM   39  C29 UNL     1      -5.705  44.823 -21.560  1.00  0.00     0.176 C 
BRANCH  39  40
HETATM   40  O8  UNL     1      -5.949  43.507 -22.051  1.00  0.00    -0.400 OA
HETATM   41  H47 UNL     1      -5.134  43.211 -22.495  1.00  0.00     0.209 HD
ENDBRANCH  39  40
ENDBRANCH  18  39
BRANCH   1  42
HETATM   42  C2  UNL     1      -1.375  51.749 -24.537  1.00  0.00    -0.088 C 
HETATM   43  C1  UNL     1      -0.619  51.029 -25.380  1.00  0.00     0.014 C 
HETATM   44  C3  UNL     1      -2.569  52.508 -25.056  1.00  0.00     0.043 C 
ENDBRANCH   1  42
BRANCH   4  45
HETATM   45  C8  UNL     1      -0.749  51.993 -19.913  1.00  0.00     0.149 C 
HETATM   46  O1  UNL     1      -0.073  52.971 -19.625  1.00  0.00    -0.649 OA
BRANCH  45  47
HETATM   47  O2  UNL     1      -1.947  51.839 -19.335  1.00  0.00    -0.776 OA
HETATM   48  H11 UNL     1      -2.024  52.606 -18.725  1.00  0.00     0.167 HD
ENDBRANCH  45  47
ENDBRANCH   4  45
TORSDOF 10
ENDMDL
MODEL 6
REMARK minimizedAffinity -7.35344315
REMARK CNNscore 0.397526771
REMARK CNNaffinity 6.46144295
REMARK  10 active torsions:
REMARK  status: ('A' for Active; 'I' for Inactive)
REMARK    1  A    between atoms: C2_2  and  C4_4 
REMARK    2  A    between atoms: C7_7  and  C8_8 
REMARK    3  A    between atoms: C8_8  and  O2_10 
REMARK    4  A    between atoms: C21_23  and  O3_24 
REMARK    5  A    between atoms: O3_24  and  C22_25 
REMARK    6  A    between atoms: C24_28  and  O5_29 
REMARK    7  A    between atoms: C25_30  and  O6_31 
REMARK    8  A    between atoms: C26_32  and  O7_33 
REMARK    9  A    between atoms: C27_34  and  C29_36 
REMARK   10  A    between atoms: C29_36  and  O8_37 
ROOT
HETATM    1  C4  UNL     1      -0.593  52.031 -10.173  1.00  0.00     0.019 C 
HETATM    2  C5  UNL     1      -0.913  50.810 -11.077  1.00  0.00     0.011 C 
HETATM    3  C6  UNL     1       0.431  50.149 -11.426  1.00  0.00     0.021 C 
HETATM    4  C7  UNL     1       1.456  51.275 -11.266  1.00  0.00     0.050 C 
HETATM    5  C9  UNL     1       2.905  50.820 -11.021  1.00  0.00     0.022 C 
HETATM    6  C10 UNL     1       3.802  52.021 -10.637  1.00  0.00     0.011 C 
HETATM    7  C11 UNL     1       3.287  52.873  -9.419  1.00  0.00    -0.032 C 
HETATM    8  C12 UNL     1       3.481  51.959  -8.162  1.00  0.00     0.016 C 
HETATM    9  C13 UNL     1       1.755  53.208  -9.628  1.00  0.00     0.000 C 
HETATM   10  C14 UNL     1       1.188  54.014  -8.458  1.00  0.00     0.006 C 
HETATM   11  C15 UNL     1       1.964  55.311  -8.236  1.00  0.00     0.006 C 
HETATM   12  C16 UNL     1       3.484  55.090  -8.040  1.00  0.00     0.003 C 
HETATM   13  C17 UNL     1       4.250  56.389  -7.539  1.00  0.00    -0.035 C 
HETATM   14  C18 UNL     1       3.942  57.638  -8.413  1.00  0.00     0.016 C 
HETATM   15  C19 UNL     1       3.681  56.728  -6.118  1.00  0.00     0.012 C 
HETATM   16  C20 UNL     1       4.563  57.631  -5.278  1.00  0.00     0.034 C 
HETATM   17  C21 UNL     1       6.028  57.199  -5.148  1.00  0.00     0.135 C 
HETATM   18  C27 UNL     1       6.440  55.986  -6.061  1.00  0.00     0.008 C 
HETATM   19  C28 UNL     1       8.002  55.975  -6.120  1.00  0.00     0.020 C 
HETATM   20  C30 UNL     1       5.825  56.215  -7.498  1.00  0.00     0.007 C 
HETATM   21  C31 UNL     1       6.383  55.300  -8.611  1.00  0.00     0.007 C 
HETATM   22  C32 UNL     1       5.590  54.030  -8.897  1.00  0.00     0.011 C 
HETATM   23  C33 UNL     1       4.102  54.278  -9.241  1.00  0.00    -0.032 C 
HETATM   24  C34 UNL     1       4.053  55.086 -10.570  1.00  0.00     0.016 C 
HETATM   25  C35 UNL     1       0.940  51.943  -9.972  1.00  0.00     0.017 C 
ENDROOT
BRANCH  17  26
HETATM   26  O3  UNL     1       6.851  58.334  -5.510  1.00  0.00    -0.352 OA
BRANCH  26  27
HETATM   27  C22 UNL     1       7.644  58.865  -4.441  1.00  0.00     0.291 C 
HETATM   28  O4  UNL     1       6.850  59.409  -3.382  1.00  0.00    -0.356 OA
HETATM   29  C23 UNL     1       6.401  60.735  -3.667  1.00  0.00     0.205 C 
HETATM   30  C24 UNL     1       7.575  61.719  -3.664  1.00  0.00     0.173 C 
HETATM   31  C25 UNL     1       8.884  61.015  -4.045  1.00  0.00     0.182 C 
HETATM   32  C26 UNL     1       8.602  59.912  -5.064  1.00  0.00     0.204 C 
BRANCH  30  33
HETATM   33  O5  UNL     1       7.301  62.782  -4.583  1.00  0.00    -0.391 OA
HETATM   34  H37 UNL     1       8.183  63.155  -4.796  1.00  0.00     0.210 HD
ENDBRANCH  30  33
BRANCH  31  35
HETATM   35  O6  UNL     1       9.804  61.978  -4.588  1.00  0.00    -0.390 OA
HETATM   36  H39 UNL     1      10.525  61.437  -4.977  1.00  0.00     0.210 HD
ENDBRANCH  31  35
BRANCH  32  37
HETATM   37  O7  UNL     1       9.849  59.315  -5.472  1.00  0.00    -0.388 OA
HETATM   38  H41 UNL     1       9.605  58.579  -6.067  1.00  0.00     0.210 HD
ENDBRANCH  32  37
ENDBRANCH  26  27
ENDBRANCH  17  26
BRANCH  18  39
HETATM   39  C29 UNL     1       6.030  54.627  -5.438  1.00  0.00     0.176 C 
BRANCH  39  40
HETATM   40  O8  UNL     1       7.078  54.108  -4.622  1.00  0.00    -0.400 OA
HETATM   41  H47 UNL     1       6.819  53.206  -4.361  1.00  0.00     0.209 HD
ENDBRANCH  39  40
ENDBRANCH  18  39
BRANCH   1  42
HETATM   42  C2  UNL     1      -1.494  52.042  -8.943  1.00  0.00    -0.088 C 
HETATM   43  C1  UNL     1      -1.976  53.142  -8.346  1.00  0.00     0.014 C 
HETATM   44  C3  UNL     1      -1.830  50.678  -8.397  1.00  0.00     0.043 C 
ENDBRANCH   1  42
BRANCH   4  45
HETATM   45  C8  UNL     1       1.437  52.069 -12.582  1.00  0.00     0.149 C 
HETATM   46  O1  UNL     1       1.820  51.647 -13.665  1.00  0.00    -0.649 OA
BRANCH  45  47
HETATM   47  O2  UNL     1       0.922  53.303 -12.512  1.00  0.00    -0.776 OA
HETATM   48  H11 UNL     1       0.991  53.648 -13.429  1.00  0.00     0.167 HD
ENDBRANCH  45  47
ENDBRANCH   4  45
TORSDOF 10
ENDMDL
MODEL 7
REMARK minimizedAffinity -7.68774843
REMARK CNNscore 0.383979917
REMARK CNNaffinity 6.84067678
REMARK  10 active torsions:
REMARK  status: ('A' for Active; 'I' for Inactive)
REMARK    1  A    between atoms: C2_2  and  C4_4 
REMARK    2  A    between atoms: C7_7  and  C8_8 
REMARK    3  A    between atoms: C8_8  and  O2_10 
REMARK    4  A    between atoms: C21_23  and  O3_24 
REMARK    5  A    between atoms: O3_24  and  C22_25 
REMARK    6  A    between atoms: C24_28  and  O5_29 
REMARK    7  A    between atoms: C25_30  and  O6_31 
REMARK    8  A    between atoms: C26_32  and  O7_33 
REMARK    9  A    between atoms: C27_34  and  C29_36 
REMARK   10  A    between atoms: C29_36  and  O8_37 
ROOT
HETATM    1  C4  UNL     1       2.567  56.247  -6.736  1.00  0.00     0.019 C 
HETATM    2  C5  UNL     1       3.668  57.328  -6.899  1.00  0.00     0.011 C 
HETATM    3  C6  UNL     1       3.882  57.523  -8.410  1.00  0.00     0.021 C 
HETATM    4  C7  UNL     1       3.407  56.205  -9.029  1.00  0.00     0.050 C 
HETATM    5  C9  UNL     1       2.996  56.281 -10.509  1.00  0.00     0.022 C 
HETATM    6  C10 UNL     1       2.312  54.968 -10.958  1.00  0.00     0.011 C 
HETATM    7  C11 UNL     1       1.089  54.519 -10.077  1.00  0.00    -0.032 C 
HETATM    8  C12 UNL     1      -0.047  55.552 -10.387  1.00  0.00     0.016 C 
HETATM    9  C13 UNL     1       1.495  54.586  -8.549  1.00  0.00     0.000 C 
HETATM   10  C14 UNL     1       0.333  54.187  -7.638  1.00  0.00     0.006 C 
HETATM   11  C15 UNL     1      -0.186  52.787  -7.963  1.00  0.00     0.006 C 
HETATM   12  C16 UNL     1      -0.593  52.614  -9.446  1.00  0.00     0.003 C 
HETATM   13  C17 UNL     1      -1.384  51.265  -9.730  1.00  0.00    -0.035 C 
HETATM   14  C18 UNL     1      -0.650  50.014  -9.167  1.00  0.00     0.016 C 
HETATM   15  C19 UNL     1      -2.727  51.352  -8.925  1.00  0.00     0.012 C 
HETATM   16  C20 UNL     1      -3.813  50.406  -9.396  1.00  0.00     0.034 C 
HETATM   17  C21 UNL     1      -4.118  50.434 -10.899  1.00  0.00     0.135 C 
HETATM   18  C27 UNL     1      -3.127  51.307 -11.755  1.00  0.00     0.008 C 
HETATM   19  C28 UNL     1      -3.320  50.878 -13.245  1.00  0.00     0.020 C 
HETATM   20  C30 UNL     1      -1.655  51.004 -11.269  1.00  0.00     0.007 C 
HETATM   21  C31 UNL     1      -0.532  51.519 -12.198  1.00  0.00     0.007 C 
HETATM   22  C32 UNL     1       0.049  52.886 -11.856  1.00  0.00     0.011 C 
HETATM   23  C33 UNL     1       0.591  53.000 -10.412  1.00  0.00    -0.032 C 
HETATM   24  C34 UNL     1       1.789  52.013 -10.279  1.00  0.00     0.016 C 
HETATM   25  C35 UNL     1       2.135  55.944  -8.192  1.00  0.00     0.017 C 
ENDROOT
BRANCH  17  26
HETATM   26  O3  UNL     1      -4.052  49.072 -11.384  1.00  0.00    -0.352 OA
BRANCH  26  27
HETATM   27  C22 UNL     1      -5.322  48.424 -11.527  1.00  0.00     0.291 C 
HETATM   28  O4  UNL     1      -6.422  49.302 -11.268  1.00  0.00    -0.356 OA
HETATM   29  C23 UNL     1      -6.686  49.443  -9.870  1.00  0.00     0.205 C 
HETATM   30  C24 UNL     1      -7.232  48.138  -9.285  1.00  0.00     0.173 C 
HETATM   31  C25 UNL     1      -6.726  46.925 -10.078  1.00  0.00     0.182 C 
HETATM   32  C26 UNL     1      -5.311  47.192 -10.587  1.00  0.00     0.204 C 
BRANCH  30  33
HETATM   33  O5  UNL     1      -6.832  48.032  -7.914  1.00  0.00    -0.391 OA
HETATM   34  H37 UNL     1      -6.893  47.073  -7.714  1.00  0.00     0.210 HD
ENDBRANCH  30  33
BRANCH  31  35
HETATM   35  O6  UNL     1      -6.747  45.760  -9.235  1.00  0.00    -0.390 OA
HETATM   36  H39 UNL     1      -6.242  45.085  -9.737  1.00  0.00     0.210 HD
ENDBRANCH  31  35
BRANCH  32  37
HETATM   37  O7  UNL     1      -4.819  46.014 -11.259  1.00  0.00    -0.388 OA
HETATM   38  H41 UNL     1      -3.945  46.264 -11.617  1.00  0.00     0.210 HD
ENDBRANCH  32  37
ENDBRANCH  26  27
ENDBRANCH  17  26
BRANCH  18  39
HETATM   39  C29 UNL     1      -3.485  52.814 -11.697  1.00  0.00     0.176 C 
BRANCH  39  40
HETATM   40  O8  UNL     1      -3.683  53.336 -13.009  1.00  0.00    -0.400 OA
HETATM   41  H47 UNL     1      -3.779  54.302 -12.922  1.00  0.00     0.209 HD
ENDBRANCH  39  40
ENDBRANCH  18  39
BRANCH   1  42
HETATM   42  C2  UNL     1       1.509  56.701  -5.737  1.00  0.00    -0.088 C 
HETATM   43  C1  UNL     1       0.276  56.184  -5.624  1.00  0.00     0.014 C 
HETATM   44  C3  UNL     1       1.940  57.830  -4.834  1.00  0.00     0.043 C 
ENDBRANCH   1  42
BRANCH   4  45
HETATM   45  C8  UNL     1       4.588  55.226  -8.927  1.00  0.00     0.149 C 
HETATM   46  O1  UNL     1       5.437  55.056  -9.791  1.00  0.00    -0.649 OA
BRANCH  45  47
HETATM   47  O2  UNL     1       4.689  54.550  -7.776  1.00  0.00    -0.776 OA
HETATM   48  H11 UNL     1       5.486  53.988  -7.892  1.00  0.00     0.167 HD
ENDBRANCH  45  47
ENDBRANCH   4  45
TORSDOF 10
ENDMDL
MODEL 8
REMARK minimizedAffinity -7.80211926
REMARK CNNscore 0.284758061
REMARK CNNaffinity 6.45821571
REMARK  10 active torsions:
REMARK  status: ('A' for Active; 'I' for Inactive)
REMARK    1  A    between atoms: C2_2  and  C4_4 
REMARK    2  A    between atoms: C7_7  and  C8_8 
REMARK    3  A    between atoms: C8_8  and  O2_10 
REMARK    4  A    between atoms: C21_23  and  O3_24 
REMARK    5  A    between atoms: O3_24  and  C22_25 
REMARK    6  A    between atoms: C24_28  and  O5_29 
REMARK    7  A    between atoms: C25_30  and  O6_31 
REMARK    8  A    between atoms: C26_32  and  O7_33 
REMARK    9  A    between atoms: C27_34  and  C29_36 
REMARK   10  A    between atoms: C29_36  and  O8_37 
ROOT
HETATM    1  C4  UNL     1      -1.568  52.173 -23.201  1.00  0.00     0.019 C 
HETATM    2  C5  UNL     1      -0.195  52.860 -23.428  1.00  0.00     0.011 C 
HETATM    3  C6  UNL     1       0.810  52.168 -22.489  1.00  0.00     0.021 C 
HETATM    4  C7  UNL     1      -0.060  51.587 -21.371  1.00  0.00     0.050 C 
HETATM    5  C9  UNL     1       0.560  50.414 -20.593  1.00  0.00     0.022 C 
HETATM    6  C10 UNL     1      -0.486  49.756 -19.663  1.00  0.00     0.011 C 
HETATM    7  C11 UNL     1      -1.813  49.296 -20.373  1.00  0.00    -0.032 C 
HETATM    8  C12 UNL     1      -1.405  48.068 -21.257  1.00  0.00     0.016 C 
HETATM    9  C13 UNL     1      -2.354  50.475 -21.279  1.00  0.00     0.000 C 
HETATM   10  C14 UNL     1      -3.631  50.077 -22.021  1.00  0.00     0.006 C 
HETATM   11  C15 UNL     1      -4.731  49.633 -21.057  1.00  0.00     0.006 C 
HETATM   12  C16 UNL     1      -4.290  48.491 -20.109  1.00  0.00     0.003 C 
HETATM   13  C17 UNL     1      -5.495  47.841 -19.302  1.00  0.00    -0.035 C 
HETATM   14  C18 UNL     1      -6.370  48.905 -18.580  1.00  0.00     0.016 C 
HETATM   15  C19 UNL     1      -6.442  47.178 -20.360  1.00  0.00     0.012 C 
HETATM   16  C20 UNL     1      -7.388  46.134 -19.802  1.00  0.00     0.034 C 
HETATM   17  C21 UNL     1      -6.743  45.041 -18.941  1.00  0.00     0.135 C 
HETATM   18  C27 UNL     1      -5.222  45.274 -18.611  1.00  0.00     0.008 C 
HETATM   19  C28 UNL     1      -4.871  44.334 -17.414  1.00  0.00     0.020 C 
HETATM   20  C30 UNL     1      -5.029  46.790 -18.211  1.00  0.00     0.007 C 
HETATM   21  C31 UNL     1      -3.676  47.133 -17.549  1.00  0.00     0.007 C 
HETATM   22  C32 UNL     1      -2.581  47.640 -18.481  1.00  0.00     0.011 C 
HETATM   23  C33 UNL     1      -2.985  48.879 -19.315  1.00  0.00    -0.032 C 
HETATM   24  C34 UNL     1      -3.240  50.052 -18.324  1.00  0.00     0.016 C 
HETATM   25  C35 UNL     1      -1.248  51.041 -22.195  1.00  0.00     0.017 C 
ENDROOT
BRANCH  17  26
HETATM   26  O3  UNL     1      -7.471  44.984 -17.691  1.00  0.00    -0.352 OA
BRANCH  26  27
HETATM   27  C22 UNL     1      -8.330  46.104 -17.446  1.00  0.00     0.291 C 
HETATM   28  O4  UNL     1      -7.840  46.961 -16.411  1.00  0.00    -0.356 OA
HETATM   29  C23 UNL     1      -8.156  46.472 -15.106  1.00  0.00     0.205 C 
HETATM   30  C24 UNL     1      -9.663  46.559 -14.844  1.00  0.00     0.173 C 
HETATM   31  C25 UNL     1     -10.456  46.465 -16.154  1.00  0.00     0.182 C 
HETATM   32  C26 UNL     1      -9.737  45.535 -17.130  1.00  0.00     0.204 C 
BRANCH  30  33
HETATM   33  O5  UNL     1     -10.048  45.502 -13.958  1.00  0.00    -0.391 OA
HETATM   34  H37 UNL     1     -11.012  45.394 -14.109  1.00  0.00     0.210 HD
ENDBRANCH  30  33
BRANCH  31  35
HETATM   35  O6  UNL     1     -11.780  45.978 -15.877  1.00  0.00    -0.390 OA
HETATM   36  H39 UNL     1     -12.154  45.767 -16.760  1.00  0.00     0.210 HD
ENDBRANCH  31  35
BRANCH  32  37
HETATM   37  O7  UNL     1     -10.534  45.394 -18.323  1.00  0.00    -0.388 OA
HETATM   38  H41 UNL     1      -9.999  44.848 -18.932  1.00  0.00     0.210 HD
ENDBRANCH  32  37
ENDBRANCH  26  27
ENDBRANCH  17  26
BRANCH  18  39
HETATM   39  C29 UNL     1      -4.303  44.835 -19.780  1.00  0.00     0.176 C 
BRANCH  39  40
HETATM   40  O8  UNL     1      -4.297  43.416 -19.911  1.00  0.00    -0.400 OA
HETATM   41  H47 UNL     1      -3.614  43.192 -20.569  1.00  0.00     0.209 HD
ENDBRANCH  39  40
ENDBRANCH  18  39
BRANCH   1  42
HETATM   42  C2  UNL     1      -2.215  51.809 -24.533  1.00  0.00    -0.088 C 
HETATM   43  C1  UNL     1      -3.419  52.227 -24.950  1.00  0.00     0.014 C 
HETATM   44  C3  UNL     1      -1.389  50.897 -25.405  1.00  0.00     0.043 C 
ENDBRANCH   1  42
BRANCH   4  45
HETATM   45  C8  UNL     1      -0.301  52.729 -20.370  1.00  0.00     0.149 C 
HETATM   46  O1  UNL     1       0.185  53.849 -20.450  1.00  0.00    -0.649 OA
BRANCH  45  47
HETATM   47  O2  UNL     1      -1.143  52.457 -19.366  1.00  0.00    -0.776 OA
HETATM   48  H11 UNL     1      -1.174  53.288 -18.842  1.00  0.00     0.167 HD
ENDBRANCH  45  47
ENDBRANCH   4  45
TORSDOF 10
ENDMDL
MODEL 9
REMARK minimizedAffinity -6.98492002
REMARK CNNscore 0.278099179
REMARK CNNaffinity 6.12357569
REMARK  10 active torsions:
REMARK  status: ('A' for Active; 'I' for Inactive)
REMARK    1  A    between atoms: C2_2  and  C4_4 
REMARK    2  A    between atoms: C7_7  and  C8_8 
REMARK    3  A    between atoms: C8_8  and  O2_10 
REMARK    4  A    between atoms: C21_23  and  O3_24 
REMARK    5  A    between atoms: O3_24  and  C22_25 
REMARK    6  A    between atoms: C24_28  and  O5_29 
REMARK    7  A    between atoms: C25_30  and  O6_31 
REMARK    8  A    between atoms: C26_32  and  O7_33 
REMARK    9  A    between atoms: C27_34  and  C29_36 
REMARK   10  A    between atoms: C29_36  and  O8_37 
ROOT
HETATM    1  C4  UNL     1       4.880  55.946  -6.990  1.00  0.00     0.019 C 
HETATM    2  C5  UNL     1       6.396  56.280  -6.970  1.00  0.00     0.011 C 
HETATM    3  C6  UNL     1       7.067  55.368  -8.013  1.00  0.00     0.021 C 
HETATM    4  C7  UNL     1       6.112  54.179  -8.141  1.00  0.00     0.050 C 
HETATM    5  C9  UNL     1       6.217  53.384  -9.454  1.00  0.00     0.022 C 
HETATM    6  C10 UNL     1       5.057  52.369  -9.578  1.00  0.00     0.011 C 
HETATM    7  C11 UNL     1       3.616  52.982  -9.429  1.00  0.00    -0.032 C 
HETATM    8  C12 UNL     1       3.391  53.832 -10.726  1.00  0.00     0.016 C 
HETATM    9  C13 UNL     1       3.575  53.909  -8.147  1.00  0.00     0.000 C 
HETATM   10  C14 UNL     1       2.202  54.559  -7.964  1.00  0.00     0.006 C 
HETATM   11  C15 UNL     1       1.090  53.516  -7.871  1.00  0.00     0.006 C 
HETATM   12  C16 UNL     1       1.059  52.544  -9.076  1.00  0.00     0.003 C 
HETATM   13  C17 UNL     1      -0.249  51.642  -9.125  1.00  0.00    -0.035 C 
HETATM   14  C18 UNL     1      -0.526  50.921  -7.775  1.00  0.00     0.016 C 
HETATM   15  C19 UNL     1      -1.460  52.615  -9.330  1.00  0.00     0.012 C 
HETATM   16  C20 UNL     1      -2.723  51.959  -9.852  1.00  0.00     0.034 C 
HETATM   17  C21 UNL     1      -2.555  51.087 -11.101  1.00  0.00     0.135 C 
HETATM   18  C27 UNL     1      -1.063  50.854 -11.546  1.00  0.00     0.008 C 
HETATM   19  C28 UNL     1      -1.069  49.636 -12.525  1.00  0.00     0.020 C 
HETATM   20  C30 UNL     1      -0.207  50.533 -10.257  1.00  0.00     0.007 C 
HETATM   21  C31 UNL     1       1.204  49.964 -10.524  1.00  0.00     0.007 C 
HETATM   22  C32 UNL     1       2.342  50.978 -10.557  1.00  0.00     0.011 C 
HETATM   23  C33 UNL     1       2.456  51.843  -9.279  1.00  0.00    -0.032 C 
HETATM   24  C34 UNL     1       2.802  50.892  -8.095  1.00  0.00     0.016 C 
HETATM   25  C35 UNL     1       4.750  54.909  -8.132  1.00  0.00     0.017 C 
ENDROOT
BRANCH  17  26
HETATM   26  O3  UNL     1      -3.146  49.797 -10.816  1.00  0.00    -0.352 OA
BRANCH  26  27
HETATM   27  C22 UNL     1      -4.494  49.640 -11.278  1.00  0.00     0.291 C 
HETATM   28  O4  UNL     1      -5.461  49.899 -10.256  1.00  0.00    -0.356 OA
HETATM   29  C23 UNL     1      -5.657  48.774  -9.396  1.00  0.00     0.205 C 
HETATM   30  C24 UNL     1      -6.348  47.631 -10.146  1.00  0.00     0.173 C 
HETATM   31  C25 UNL     1      -6.031  47.686 -11.647  1.00  0.00     0.182 C 
HETATM   32  C26 UNL     1      -4.611  48.207 -11.858  1.00  0.00     0.204 C 
BRANCH  30  33
HETATM   33  O5  UNL     1      -5.919  46.380  -9.597  1.00  0.00    -0.391 OA
HETATM   34  H37 UNL     1      -6.097  45.726 -10.307  1.00  0.00     0.210 HD
ENDBRANCH  30  33
BRANCH  31  35
HETATM   35  O6  UNL     1      -6.173  46.372 -12.213  1.00  0.00    -0.390 OA
HETATM   36  H39 UNL     1      -5.778  46.446 -13.109  1.00  0.00     0.210 HD
ENDBRANCH  31  35
BRANCH  32  37
HETATM   37  O7  UNL     1      -4.299  48.176 -13.265  1.00  0.00    -0.388 OA
HETATM   38  H41 UNL     1      -3.412  48.579 -13.346  1.00  0.00     0.210 HD
ENDBRANCH  32  37
ENDBRANCH  26  27
ENDBRANCH  17  26
BRANCH  18  39
HETATM   39  C29 UNL     1      -0.507  52.050 -12.358  1.00  0.00     0.176 C 
BRANCH  39  40
HETATM   40  O8  UNL     1      -1.569  52.793 -12.953  1.00  0.00    -0.400 OA
HETATM   41  H47 UNL     1      -1.162  53.450 -13.547  1.00  0.00     0.209 HD
ENDBRANCH  39  40
ENDBRANCH  18  39
BRANCH   1  42
HETATM   42  C2  UNL     1       4.049  57.221  -7.059  1.00  0.00    -0.088 C 
HETATM   43  C1  UNL     1       3.701  57.860  -8.187  1.00  0.00     0.014 C 
HETATM   44  C3  UNL     1       3.617  57.765  -5.720  1.00  0.00     0.043 C 
ENDBRANCH   1  42
BRANCH   4  45
HETATM   45  C8  UNL     1       6.457  53.218  -6.991  1.00  0.00     0.149 C 
HETATM   46  O1  UNL     1       6.156  52.033  -6.950  1.00  0.00    -0.649 OA
BRANCH  45  47
HETATM   47  O2  UNL     1       7.176  53.741  -5.989  1.00  0.00    -0.776 OA
HETATM   48  H11 UNL     1       7.298  52.995  -5.362  1.00  0.00     0.167 HD
ENDBRANCH  45  47
ENDBRANCH   4  45
TORSDOF 10
ENDMDL
