MODEL 1
REMARK minimizedAffinity -8.40721607
REMARK CNNscore 0.512344003
REMARK CNNaffinity 6.7524209
REMARK  6 active torsions:
REMARK  status: ('A' for Active; 'I' for Inactive)
REMARK    1  A    between atoms: C2_2  and  C3_3 
REMARK    2  A    between atoms: C6_6  and  O1_7 
REMARK    3  A    between atoms: C7_8  and  C8_9 
REMARK    4  A    between atoms: C8_9  and  C9_10 
REMARK    5  A    between atoms: C17_20  and  O4_21 
REMARK    6  A    between atoms: C26_33  and  O6_34 
ROOT
HETATM    1  C3  UNL     1      -1.976  52.612 -25.739  1.00  0.00     0.008 C 
HETATM    2  C4  UNL     1      -3.437  52.430 -25.351  1.00  0.00    -0.023 C 
HETATM    3  C5  UNL     1      -3.931  51.470 -24.549  1.00  0.00     0.003 C 
HETATM    4  C6  UNL     1      -5.385  51.288 -24.207  1.00  0.00     0.170 C 
HETATM    5  C7  UNL     1      -5.692  49.827 -23.797  1.00  0.00     0.164 C 
HETATM    6  O2  UNL     1      -5.032  49.549 -22.525  1.00  0.00    -0.312 OA
HETATM    7  C12 UNL     1      -4.292  48.401 -22.444  1.00  0.00     0.276 C 
HETATM    8  O3  UNL     1      -4.061  47.658 -23.394  1.00  0.00    -0.264 OA
HETATM    9  C13 UNL     1      -3.938  48.067 -20.959  1.00  0.00     0.095 C 
HETATM   10  C14 UNL     1      -3.026  46.826 -20.933  1.00  0.00     0.036 C 
HETATM   11  C15 UNL     1      -5.322  47.660 -20.441  1.00  0.00     0.002 C 
HETATM   12  C16 UNL     1      -5.830  47.721 -19.207  1.00  0.00     0.053 C 
HETATM   13  C17 UNL     1      -5.004  48.074 -18.070  1.00  0.00     0.140 C 
HETATM   14  N1  UNL     1      -3.955  48.771 -17.903  1.00  0.00    -0.333 N 
ATOM     15  H1  UNL     1      -3.535  48.784 -16.974  1.00  0.00     0.168 HD
HETATM   16  C18 UNL     1      -3.350  49.507 -18.893  1.00  0.00     0.097 C 
HETATM   17  C19 UNL     1      -3.237  49.219 -20.207  1.00  0.00     0.045 C 
HETATM   18  C20 UNL     1      -2.241  50.006 -21.024  1.00  0.00     0.194 C 
HETATM   19  O5  UNL     1      -2.090  49.766 -22.216  1.00  0.00    -0.287 OA
HETATM   20  C21 UNL     1      -1.356  51.003 -20.389  1.00  0.00     0.046 A 
HETATM   21  C22 UNL     1      -1.553  51.317 -19.054  1.00  0.00     0.032 A 
HETATM   22  C23 UNL     1      -0.701  52.211 -18.378  1.00  0.00     0.026 A 
HETATM   23  C24 UNL     1       0.395  52.784 -19.030  1.00  0.00    -0.027 A 
HETATM   24  C25 UNL     1       1.327  53.703 -18.291  1.00  0.00     0.051 C 
HETATM   25  C26 UNL     1       0.608  52.462 -20.371  1.00  0.00     0.086 A 
HETATM   26  C27 UNL     1      -0.285  51.624 -21.061  1.00  0.00     0.059 A 
HETATM   27  C28 UNL     1      -0.055  51.517 -22.513  1.00  0.00     0.163 C 
HETATM   28  O7  UNL     1       0.955  50.928 -22.893  1.00  0.00    -0.292 OA
HETATM   29  C29 UNL     1      -0.951  52.361 -23.401  1.00  0.00     0.084 C 
HETATM   30  C30 UNL     1      -0.951  51.868 -24.851  1.00  0.00     0.016 C 
HETATM   31  C31 UNL     1      -2.671  50.726 -18.321  1.00  0.00     0.210 C 
HETATM   32  O8  UNL     1      -3.028  51.233 -17.264  1.00  0.00    -0.285 OA
ENDROOT
BRANCH   5  33
HETATM   33  C8  UNL     1      -7.194  49.551 -23.572  1.00  0.00     0.039 C 
BRANCH  33  34
HETATM   34  C9  UNL     1      -7.799  48.389 -24.382  1.00  0.00    -0.020 C 
HETATM   35  C10 UNL     1      -6.747  47.816 -25.336  1.00  0.00     0.009 C 
HETATM   36  C11 UNL     1      -9.040  48.811 -25.172  1.00  0.00     0.009 C 
ENDBRANCH  33  34
ENDBRANCH   5  33
BRANCH   4  37
HETATM   37  O1  UNL     1      -5.726  52.182 -23.149  1.00  0.00    -0.389 OA
HETATM   38  H10 UNL     1      -5.064  52.892 -23.139  1.00  0.00     0.210 HD
ENDBRANCH   4  37
BRANCH   1  39
HETATM   39  C2  UNL     1      -1.836  52.224 -27.224  1.00  0.00     0.004 C 
HETATM   40  C1  UNL     1      -0.416  51.878 -27.649  1.00  0.00     0.006 C 
ENDBRANCH   1  39
BRANCH  13  41
HETATM   41  O4  UNL     1      -5.511  47.482 -16.976  1.00  0.00    -0.346 OA
HETATM   42  H26 UNL     1      -4.944  47.741 -16.226  1.00  0.00     0.219 HD
ENDBRANCH  13  41
BRANCH  25  43
HETATM   43  O6  UNL     1       1.707  53.002 -20.993  1.00  0.00    -0.359 OA
HETATM   44  H31 UNL     1       1.990  52.390 -21.713  1.00  0.00     0.217 HD
ENDBRANCH  25  43
TORSDOF 6
ENDMDL
MODEL 2
REMARK minimizedAffinity -8.54065514
REMARK CNNscore 0.49563989
REMARK CNNaffinity 6.09259176
REMARK  6 active torsions:
REMARK  status: ('A' for Active; 'I' for Inactive)
REMARK    1  A    between atoms: C2_2  and  C3_3 
REMARK    2  A    between atoms: C6_6  and  O1_7 
REMARK    3  A    between atoms: C7_8  and  C8_9 
REMARK    4  A    between atoms: C8_9  and  C9_10 
REMARK    5  A    between atoms: C17_20  and  O4_21 
REMARK    6  A    between atoms: C26_33  and  O6_34 
ROOT
HETATM    1  C3  UNL     1      -8.702  44.536 -22.037  1.00  0.00     0.008 C 
HETATM    2  C4  UNL     1      -8.637  43.706 -23.311  1.00  0.00    -0.023 C 
HETATM    3  C5  UNL     1      -8.739  44.173 -24.568  1.00  0.00     0.003 C 
HETATM    4  C6  UNL     1      -8.707  43.329 -25.814  1.00  0.00     0.170 C 
HETATM    5  C7  UNL     1      -9.424  44.031 -26.993  1.00  0.00     0.164 C 
HETATM    6  O2  UNL     1      -8.644  45.201 -27.385  1.00  0.00    -0.312 OA
HETATM    7  C12 UNL     1      -9.320  46.381 -27.528  1.00  0.00     0.276 C 
HETATM    8  O3  UNL     1     -10.504  46.540 -27.245  1.00  0.00    -0.264 OA
HETATM    9  C13 UNL     1      -8.442  47.442 -28.269  1.00  0.00     0.095 C 
HETATM   10  C14 UNL     1      -9.211  48.776 -28.317  1.00  0.00     0.036 C 
HETATM   11  C15 UNL     1      -8.431  46.841 -29.679  1.00  0.00     0.002 C 
HETATM   12  C16 UNL     1      -7.523  46.949 -30.653  1.00  0.00     0.053 C 
HETATM   13  C17 UNL     1      -6.400  47.858 -30.536  1.00  0.00     0.140 C 
HETATM   14  N1  UNL     1      -5.736  48.347 -29.571  1.00  0.00    -0.333 N 
ATOM     15  H1  UNL     1      -5.023  49.043 -29.787  1.00  0.00     0.168 HD
HETATM   16  C18 UNL     1      -5.917  48.000 -28.253  1.00  0.00     0.097 C 
HETATM   17  C19 UNL     1      -7.064  47.682 -27.616  1.00  0.00     0.045 C 
HETATM   18  C20 UNL     1      -7.059  47.671 -26.107  1.00  0.00     0.194 C 
HETATM   19  O5  UNL     1      -8.081  47.408 -25.485  1.00  0.00    -0.287 OA
HETATM   20  C21 UNL     1      -5.859  48.079 -25.347  1.00  0.00     0.046 A 
HETATM   21  C22 UNL     1      -4.685  48.330 -26.039  1.00  0.00     0.032 A 
HETATM   22  C23 UNL     1      -3.529  48.784 -25.377  1.00  0.00     0.026 A 
HETATM   23  C24 UNL     1      -3.542  49.029 -24.001  1.00  0.00    -0.027 A 
HETATM   24  C25 UNL     1      -2.317  49.556 -23.307  1.00  0.00     0.051 C 
HETATM   25  C26 UNL     1      -4.726  48.792 -23.299  1.00  0.00     0.086 A 
HETATM   26  C27 UNL     1      -5.857  48.272 -23.952  1.00  0.00     0.059 A 
HETATM   27  C28 UNL     1      -6.973  47.888 -23.069  1.00  0.00     0.163 C 
HETATM   28  O7  UNL     1      -7.587  48.787 -22.496  1.00  0.00    -0.292 OA
HETATM   29  C29 UNL     1      -7.103  46.411 -22.749  1.00  0.00     0.084 C 
HETATM   30  C30 UNL     1      -8.495  46.058 -22.220  1.00  0.00     0.016 C 
HETATM   31  C31 UNL     1      -4.625  48.113 -27.482  1.00  0.00     0.210 C 
HETATM   32  O8  UNL     1      -3.533  48.027 -28.030  1.00  0.00    -0.285 OA
ENDROOT
BRANCH   5  33
HETATM   33  C8  UNL     1      -9.544  43.151 -28.255  1.00  0.00     0.039 C 
BRANCH  33  34
HETATM   34  C9  UNL     1     -10.948  43.055 -28.883  1.00  0.00    -0.020 C 
HETATM   35  C10 UNL     1     -11.097  41.724 -29.624  1.00  0.00     0.009 C 
HETATM   36  C11 UNL     1     -11.242  44.216 -29.836  1.00  0.00     0.009 C 
ENDBRANCH  33  34
ENDBRANCH   5  33
BRANCH   4  37
HETATM   37  O1  UNL     1      -7.348  43.055 -26.151  1.00  0.00    -0.389 OA
HETATM   38  H10 UNL     1      -6.815  43.183 -25.351  1.00  0.00     0.210 HD
ENDBRANCH   4  37
BRANCH   1  39
HETATM   39  C2  UNL     1     -10.040  44.218 -21.340  1.00  0.00     0.004 C 
HETATM   40  C1  UNL     1     -11.263  44.775 -22.053  1.00  0.00     0.006 C 
ENDBRANCH   1  39
BRANCH  13  41
HETATM   41  O4  UNL     1      -6.040  48.247 -31.770  1.00  0.00    -0.346 OA
HETATM   42  H26 UNL     1      -5.279  48.850 -31.666  1.00  0.00     0.219 HD
ENDBRANCH  13  41
BRANCH  25  43
HETATM   43  O6  UNL     1      -4.740  49.068 -21.955  1.00  0.00    -0.359 OA
HETATM   44  H31 UNL     1      -5.663  49.294 -21.692  1.00  0.00     0.217 HD
ENDBRANCH  25  43
TORSDOF 6
ENDMDL
MODEL 3
REMARK minimizedAffinity -7.14684391
REMARK CNNscore 0.433715433
REMARK CNNaffinity 5.6006546
REMARK  6 active torsions:
REMARK  status: ('A' for Active; 'I' for Inactive)
REMARK    1  A    between atoms: C2_2  and  C3_3 
REMARK    2  A    between atoms: C6_6  and  O1_7 
REMARK    3  A    between atoms: C7_8  and  C8_9 
REMARK    4  A    between atoms: C8_9  and  C9_10 
REMARK    5  A    between atoms: C17_20  and  O4_21 
REMARK    6  A    between atoms: C26_33  and  O6_34 
ROOT
HETATM    1  C3  UNL     1     -10.872  46.208 -21.596  1.00  0.00     0.008 C 
HETATM    2  C4  UNL     1     -10.850  46.653 -23.052  1.00  0.00    -0.023 C 
HETATM    3  C5  UNL     1     -11.538  46.094 -24.063  1.00  0.00     0.003 C 
HETATM    4  C6  UNL     1     -11.475  46.528 -25.502  1.00  0.00     0.170 C 
HETATM    5  C7  UNL     1     -11.869  45.377 -26.460  1.00  0.00     0.164 C 
HETATM    6  O2  UNL     1     -13.288  45.085 -26.282  1.00  0.00    -0.312 OA
HETATM    7  C12 UNL     1     -13.638  43.774 -26.110  1.00  0.00     0.276 C 
HETATM    8  O3  UNL     1     -12.835  42.853 -25.988  1.00  0.00    -0.264 OA
HETATM    9  C13 UNL     1     -15.180  43.581 -26.275  1.00  0.00     0.095 C 
HETATM   10  C14 UNL     1     -15.531  42.111 -25.977  1.00  0.00     0.036 C 
HETATM   11  C15 UNL     1     -15.318  43.813 -27.784  1.00  0.00     0.002 C 
HETATM   12  C16 UNL     1     -16.357  44.261 -28.494  1.00  0.00     0.053 C 
HETATM   13  C17 UNL     1     -17.655  44.461 -27.882  1.00  0.00     0.140 C 
HETATM   14  N1  UNL     1     -18.065  44.732 -26.711  1.00  0.00    -0.333 N 
ATOM     15  H1  UNL     1     -19.072  44.739 -26.549  1.00  0.00     0.168 HD
HETATM   16  C18 UNL     1     -17.240  45.015 -25.649  1.00  0.00     0.097 C 
HETATM   17  C19 UNL     1     -16.028  44.493 -25.363  1.00  0.00     0.045 C 
HETATM   18  C20 UNL     1     -15.474  44.704 -23.974  1.00  0.00     0.194 C 
HETATM   19  O5  UNL     1     -14.387  44.233 -23.662  1.00  0.00    -0.287 OA
HETATM   20  C21 UNL     1     -16.269  45.387 -22.934  1.00  0.00     0.046 A 
HETATM   21  C22 UNL     1     -17.477  45.967 -23.290  1.00  0.00     0.032 A 
HETATM   22  C23 UNL     1     -18.308  46.574 -22.330  1.00  0.00     0.026 A 
HETATM   23  C24 UNL     1     -17.953  46.580 -20.978  1.00  0.00    -0.027 A 
HETATM   24  C25 UNL     1     -18.866  47.191 -19.951  1.00  0.00     0.051 C 
HETATM   25  C26 UNL     1     -16.745  45.986 -20.609  1.00  0.00     0.086 A 
HETATM   26  C27 UNL     1     -15.886  45.442 -21.580  1.00  0.00     0.059 A 
HETATM   27  C28 UNL     1     -14.563  45.021 -21.084  1.00  0.00     0.163 C 
HETATM   28  O7  UNL     1     -14.513  44.042 -20.341  1.00  0.00    -0.292 OA
HETATM   29  C29 UNL     1     -13.413  45.979 -21.331  1.00  0.00     0.084 C 
HETATM   30  C30 UNL     1     -12.052  45.292 -21.196  1.00  0.00     0.016 C 
HETATM   31  C31 UNL     1     -17.905  45.967 -24.687  1.00  0.00     0.210 C 
HETATM   32  O8  UNL     1     -18.789  46.737 -25.042  1.00  0.00    -0.285 OA
ENDROOT
BRANCH   5  33
HETATM   33  C8  UNL     1     -11.685  45.725 -27.953  1.00  0.00     0.039 C 
BRANCH  33  34
HETATM   34  C9  UNL     1     -10.374  46.444 -28.324  1.00  0.00    -0.020 C 
HETATM   35  C10 UNL     1     -10.686  47.727 -29.100  1.00  0.00     0.009 C 
HETATM   36  C11 UNL     1      -9.433  45.558 -29.143  1.00  0.00     0.009 C 
ENDBRANCH  33  34
ENDBRANCH   5  33
BRANCH   4  37
HETATM   37  O1  UNL     1     -12.341  47.646 -25.686  1.00  0.00    -0.389 OA
HETATM   38  H10 UNL     1     -12.493  48.047 -24.816  1.00  0.00     0.210 HD
ENDBRANCH   4  37
BRANCH   1  39
HETATM   39  C2  UNL     1      -9.509  45.558 -21.286  1.00  0.00     0.004 C 
HETATM   40  C1  UNL     1      -8.847  46.070 -20.016  1.00  0.00     0.006 C 
ENDBRANCH   1  39
BRANCH  13  41
HETATM   41  O4  UNL     1     -18.598  44.290 -28.823  1.00  0.00    -0.346 OA
HETATM   42  H26 UNL     1     -19.460  44.438 -28.390  1.00  0.00     0.219 HD
ENDBRANCH  13  41
BRANCH  25  43
HETATM   43  O6  UNL     1     -16.422  45.965 -19.275  1.00  0.00    -0.359 OA
HETATM   44  H31 UNL     1     -15.846  45.183 -19.106  1.00  0.00     0.217 HD
ENDBRANCH  25  43
TORSDOF 6
ENDMDL
MODEL 4
REMARK minimizedAffinity -6.26783991
REMARK CNNscore 0.280625463
REMARK CNNaffinity 6.10809278
REMARK  6 active torsions:
REMARK  status: ('A' for Active; 'I' for Inactive)
REMARK    1  A    between atoms: C2_2  and  C3_3 
REMARK    2  A    between atoms: C6_6  and  O1_7 
REMARK    3  A    between atoms: C7_8  and  C8_9 
REMARK    4  A    between atoms: C8_9  and  C9_10 
REMARK    5  A    between atoms: C17_20  and  O4_21 
REMARK    6  A    between atoms: C26_33  and  O6_34 
ROOT
HETATM    1  C3  UNL     1       0.649  50.586  -6.668  1.00  0.00     0.008 C 
HETATM    2  C4  UNL     1       1.094  51.832  -7.421  1.00  0.00    -0.023 C 
HETATM    3  C5  UNL     1       1.540  51.876  -8.689  1.00  0.00     0.003 C 
HETATM    4  C6  UNL     1       2.007  53.116  -9.402  1.00  0.00     0.170 C 
HETATM    5  C7  UNL     1       2.979  52.772 -10.557  1.00  0.00     0.164 C 
HETATM    6  O2  UNL     1       2.237  52.070 -11.600  1.00  0.00    -0.312 OA
HETATM    7  C12 UNL     1       2.782  50.911 -12.080  1.00  0.00     0.276 C 
HETATM    8  O3  UNL     1       3.785  50.374 -11.618  1.00  0.00    -0.264 OA
HETATM    9  C13 UNL     1       2.073  50.463 -13.399  1.00  0.00     0.095 C 
HETATM   10  C14 UNL     1       2.656  49.108 -13.842  1.00  0.00     0.036 C 
HETATM   11  C15 UNL     1       2.585  51.545 -14.357  1.00  0.00     0.002 C 
HETATM   12  C16 UNL     1       2.032  52.043 -15.466  1.00  0.00     0.053 C 
HETATM   13  C17 UNL     1       0.835  51.460 -16.036  1.00  0.00     0.140 C 
HETATM   14  N1  UNL     1      -0.156  50.812 -15.577  1.00  0.00    -0.333 N 
ATOM     15  H1  UNL     1      -0.838  50.447 -16.243  1.00  0.00     0.168 HD
HETATM   16  C18 UNL     1      -0.370  50.570 -14.241  1.00  0.00     0.097 C 
HETATM   17  C19 UNL     1       0.540  50.331 -13.273  1.00  0.00     0.045 C 
HETATM   18  C20 UNL     1       0.051  49.759 -11.964  1.00  0.00     0.194 C 
HETATM   19  O5  UNL     1       0.842  49.507 -11.064  1.00  0.00    -0.287 OA
HETATM   20  C21 UNL     1      -1.368  49.393 -11.777  1.00  0.00     0.046 A 
HETATM   21  C22 UNL     1      -2.278  49.719 -12.770  1.00  0.00     0.032 A 
HETATM   22  C23 UNL     1      -3.630  49.338 -12.676  1.00  0.00     0.026 A 
HETATM   23  C24 UNL     1      -4.088  48.587 -11.590  1.00  0.00    -0.027 A 
HETATM   24  C25 UNL     1      -5.523  48.145 -11.518  1.00  0.00     0.051 C 
HETATM   25  C26 UNL     1      -3.174  48.242 -10.593  1.00  0.00     0.086 A 
HETATM   26  C27 UNL     1      -1.841  48.684 -10.656  1.00  0.00     0.059 A 
HETATM   27  C28 UNL     1      -1.031  48.416  -9.453  1.00  0.00     0.163 C 
HETATM   28  O7  UNL     1      -0.742  47.246  -9.205  1.00  0.00    -0.292 OA
HETATM   29  C29 UNL     1      -0.841  49.576  -8.495  1.00  0.00     0.084 C 
HETATM   30  C30 UNL     1       0.338  49.351  -7.545  1.00  0.00     0.016 C 
HETATM   31  C31 UNL     1      -1.845  50.484 -13.937  1.00  0.00     0.210 C 
HETATM   32  O8  UNL     1      -2.686  51.035 -14.637  1.00  0.00    -0.285 OA
ENDROOT
BRANCH   5  33
HETATM   33  C8  UNL     1       3.599  54.014 -11.233  1.00  0.00     0.039 C 
BRANCH  33  34
HETATM   34  C9  UNL     1       3.938  55.194 -10.302  1.00  0.00    -0.020 C 
HETATM   35  C10 UNL     1       3.534  56.513 -10.965  1.00  0.00     0.009 C 
HETATM   36  C11 UNL     1       5.421  55.234  -9.926  1.00  0.00     0.009 C 
ENDBRANCH  33  34
ENDBRANCH   5  33
BRANCH   4  37
HETATM   37  O1  UNL     1       0.870  53.818  -9.902  1.00  0.00    -0.389 OA
HETATM   38  H10 UNL     1       0.097  53.523  -9.395  1.00  0.00     0.210 HD
ENDBRANCH   4  37
BRANCH   1  39
HETATM   39  C2  UNL     1       1.719  50.278  -5.602  1.00  0.00     0.004 C 
HETATM   40  C1  UNL     1       1.180  49.593  -4.355  1.00  0.00     0.006 C 
ENDBRANCH   1  39
BRANCH  13  41
HETATM   41  O4  UNL     1       0.847  51.676 -17.362  1.00  0.00    -0.346 OA
HETATM   42  H26 UNL     1       0.029  51.282 -17.721  1.00  0.00     0.219 HD
ENDBRANCH  13  41
BRANCH  25  43
HETATM   43  O6  UNL     1      -3.624  47.474  -9.548  1.00  0.00    -0.359 OA
HETATM   44  H31 UNL     1      -2.867  46.949  -9.198  1.00  0.00     0.217 HD
ENDBRANCH  25  43
TORSDOF 6
ENDMDL
MODEL 5
REMARK minimizedAffinity -6.38701153
REMARK CNNscore 0.27225101
REMARK CNNaffinity 6.19410467
REMARK  6 active torsions:
REMARK  status: ('A' for Active; 'I' for Inactive)
REMARK    1  A    between atoms: C2_2  and  C3_3 
REMARK    2  A    between atoms: C6_6  and  O1_7 
REMARK    3  A    between atoms: C7_8  and  C8_9 
REMARK    4  A    between atoms: C8_9  and  C9_10 
REMARK    5  A    between atoms: C17_20  and  O4_21 
REMARK    6  A    between atoms: C26_33  and  O6_34 
ROOT
HETATM    1  C3  UNL     1      -0.634  52.092  -3.655  1.00  0.00     0.008 C 
HETATM    2  C4  UNL     1      -0.400  50.897  -4.569  1.00  0.00    -0.023 C 
HETATM    3  C5  UNL     1      -0.679  50.836  -5.883  1.00  0.00     0.003 C 
HETATM    4  C6  UNL     1      -0.470  49.631  -6.760  1.00  0.00     0.170 C 
HETATM    5  C7  UNL     1      -1.401  49.662  -7.996  1.00  0.00     0.164 C 
HETATM    6  O2  UNL     1      -0.988  50.760  -8.866  1.00  0.00    -0.312 OA
HETATM    7  C12 UNL     1      -1.966  51.609  -9.307  1.00  0.00     0.276 C 
HETATM    8  O3  UNL     1      -3.135  51.571  -8.934  1.00  0.00    -0.264 OA
HETATM    9  C13 UNL     1      -1.444  52.504 -10.476  1.00  0.00     0.095 C 
HETATM   10  C14 UNL     1      -2.548  53.504 -10.868  1.00  0.00     0.036 C 
HETATM   11  C15 UNL     1      -1.329  51.453 -11.586  1.00  0.00     0.002 C 
HETATM   12  C16 UNL     1      -0.527  51.414 -12.654  1.00  0.00     0.053 C 
HETATM   13  C17 UNL     1       0.309  52.543 -13.008  1.00  0.00     0.140 C 
HETATM   14  N1  UNL     1       0.855  53.494 -12.367  1.00  0.00    -0.333 N 
ATOM     15  H1  UNL     1       1.341  54.213 -12.903  1.00  0.00     0.168 HD
HETATM   16  C18 UNL     1       0.832  53.617 -10.998  1.00  0.00     0.097 C 
HETATM   17  C19 UNL     1      -0.156  53.288 -10.140  1.00  0.00     0.045 C 
HETATM   18  C20 UNL     1      -0.084  53.828  -8.732  1.00  0.00     0.194 C 
HETATM   19  O5  UNL     1      -0.968  53.572  -7.924  1.00  0.00    -0.287 OA
HETATM   20  C21 UNL     1       0.990  54.759  -8.329  1.00  0.00     0.046 A 
HETATM   21  C22 UNL     1       2.020  55.014  -9.220  1.00  0.00     0.032 A 
HETATM   22  C23 UNL     1       3.036  55.941  -8.917  1.00  0.00     0.026 A 
HETATM   23  C24 UNL     1       3.015  56.658  -7.717  1.00  0.00    -0.027 A 
HETATM   24  C25 UNL     1       4.078  57.679  -7.419  1.00  0.00     0.051 C 
HETATM   25  C26 UNL     1       1.972  56.416  -6.821  1.00  0.00     0.086 A 
HETATM   26  C27 UNL     1       0.999  55.440  -7.097  1.00  0.00     0.059 A 
HETATM   27  C28 UNL     1       0.068  55.149  -5.991  1.00  0.00     0.163 C 
HETATM   28  O7  UNL     1      -0.742  56.019  -5.678  1.00  0.00    -0.292 OA
HETATM   29  C29 UNL     1       0.360  53.904  -5.174  1.00  0.00     0.084 C 
HETATM   30  C30 UNL     1      -0.859  53.445  -4.370  1.00  0.00     0.016 C 
HETATM   31  C31 UNL     1       2.075  54.308 -10.497  1.00  0.00     0.210 C 
HETATM   32  O8  UNL     1       3.126  54.294 -11.128  1.00  0.00    -0.285 OA
ENDROOT
BRANCH   5  33
HETATM   33  C8  UNL     1      -1.331  48.382  -8.856  1.00  0.00     0.039 C 
BRANCH  33  34
HETATM   34  C9  UNL     1      -2.681  47.793  -9.307  1.00  0.00    -0.020 C 
HETATM   35  C10 UNL     1      -3.001  48.254 -10.731  1.00  0.00     0.009 C 
HETATM   36  C11 UNL     1      -3.827  48.175  -8.367  1.00  0.00     0.009 C 
ENDBRANCH  33  34
ENDBRANCH   5  33
BRANCH   4  37
HETATM   37  O1  UNL     1       0.896  49.587  -7.168  1.00  0.00    -0.389 OA
HETATM   38  H10 UNL     1       1.407  50.121  -6.540  1.00  0.00     0.210 HD
ENDBRANCH   4  37
BRANCH   1  39
HETATM   39  C2  UNL     1      -1.804  51.739  -2.715  1.00  0.00     0.004 C 
HETATM   40  C1  UNL     1      -2.611  52.939  -2.244  1.00  0.00     0.006 C 
ENDBRANCH   1  39
BRANCH  13  41
HETATM   41  O4  UNL     1       0.497  52.532 -14.338  1.00  0.00    -0.346 OA
HETATM   42  H26 UNL     1       1.068  53.294 -14.550  1.00  0.00     0.219 HD
ENDBRANCH  13  41
BRANCH  25  43
HETATM   43  O6  UNL     1       1.940  57.151  -5.661  1.00  0.00    -0.359 OA
HETATM   44  H31 UNL     1       1.002  57.228  -5.367  1.00  0.00     0.217 HD
ENDBRANCH  25  43
TORSDOF 6
ENDMDL
MODEL 6
REMARK minimizedAffinity -7.40832806
REMARK CNNscore 0.271823257
REMARK CNNaffinity 5.44305944
REMARK  6 active torsions:
REMARK  status: ('A' for Active; 'I' for Inactive)
REMARK    1  A    between atoms: C2_2  and  C3_3 
REMARK    2  A    between atoms: C6_6  and  O1_7 
REMARK    3  A    between atoms: C7_8  and  C8_9 
REMARK    4  A    between atoms: C8_9  and  C9_10 
REMARK    5  A    between atoms: C17_20  and  O4_21 
REMARK    6  A    between atoms: C26_33  and  O6_34 
ROOT
HETATM    1  C3  UNL     1       7.857  65.617 -14.793  1.00  0.00     0.008 C 
HETATM    2  C4  UNL     1       8.225  66.358 -13.516  1.00  0.00    -0.023 C 
HETATM    3  C5  UNL     1       9.376  66.236 -12.832  1.00  0.00     0.003 C 
HETATM    4  C6  UNL     1       9.706  66.954 -11.551  1.00  0.00     0.170 C 
HETATM    5  C7  UNL     1      10.772  66.188 -10.730  1.00  0.00     0.164 C 
HETATM    6  O2  UNL     1      12.040  66.235 -11.452  1.00  0.00    -0.312 OA
HETATM    7  C12 UNL     1      12.708  65.052 -11.617  1.00  0.00     0.276 C 
HETATM    8  O3  UNL     1      12.261  63.954 -11.297  1.00  0.00    -0.264 OA
HETATM    9  C13 UNL     1      14.177  65.301 -12.090  1.00  0.00     0.095 C 
HETATM   10  C14 UNL     1      14.851  63.941 -12.353  1.00  0.00     0.036 C 
HETATM   11  C15 UNL     1      14.773  65.895 -10.809  1.00  0.00     0.002 C 
HETATM   12  C16 UNL     1      15.793  66.741 -10.648  1.00  0.00     0.053 C 
HETATM   13  C17 UNL     1      16.638  67.122 -11.762  1.00  0.00     0.140 C 
HETATM   14  N1  UNL     1      16.480  67.216 -13.018  1.00  0.00    -0.333 N 
ATOM     15  H1  UNL     1      17.297  67.442 -13.586  1.00  0.00     0.168 HD
HETATM   16  C18 UNL     1      15.281  67.032 -13.664  1.00  0.00     0.097 C 
HETATM   17  C19 UNL     1      14.288  66.168 -13.363  1.00  0.00     0.045 C 
HETATM   18  C20 UNL     1      13.228  65.912 -14.407  1.00  0.00     0.194 C 
HETATM   19  O5  UNL     1      12.319  65.121 -14.187  1.00  0.00    -0.287 OA
HETATM   20  C21 UNL     1      13.321  66.521 -15.750  1.00  0.00     0.046 A 
HETATM   21  C22 UNL     1      14.317  67.454 -15.991  1.00  0.00     0.032 A 
HETATM   22  C23 UNL     1      14.495  68.020 -17.268  1.00  0.00     0.026 A 
HETATM   23  C24 UNL     1      13.689  67.630 -18.342  1.00  0.00    -0.027 A 
HETATM   24  C25 UNL     1      13.913  68.205 -19.713  1.00  0.00     0.051 C 
HETATM   25  C26 UNL     1      12.693  66.680 -18.109  1.00  0.00     0.086 A 
HETATM   26  C27 UNL     1      12.474  66.170 -16.818  1.00  0.00     0.059 A 
HETATM   27  C28 UNL     1      11.275  65.324 -16.670  1.00  0.00     0.163 C 
HETATM   28  O7  UNL     1      11.278  64.223 -17.219  1.00  0.00    -0.292 OA
HETATM   29  C29 UNL     1      10.051  65.988 -16.068  1.00  0.00     0.084 C 
HETATM   30  C30 UNL     1       9.037  64.965 -15.552  1.00  0.00     0.016 C 
HETATM   31  C31 UNL     1      15.201  67.879 -14.908  1.00  0.00     0.210 C 
HETATM   32  O8  UNL     1      15.852  68.908 -15.037  1.00  0.00    -0.285 OA
ENDROOT
BRANCH   5  33
HETATM   33  C8  UNL     1      11.045  66.806  -9.342  1.00  0.00     0.039 C 
BRANCH  33  34
HETATM   34  C9  UNL     1      10.422  66.071  -8.140  1.00  0.00    -0.020 C 
HETATM   35  C10 UNL     1      10.777  64.582  -8.198  1.00  0.00     0.009 C 
HETATM   36  C11 UNL     1       8.902  66.240  -8.075  1.00  0.00     0.009 C 
ENDBRANCH  33  34
ENDBRANCH   5  33
BRANCH   4  37
HETATM   37  O1  UNL     1      10.167  68.267 -11.862  1.00  0.00    -0.389 OA
HETATM   38  H10 UNL     1       9.851  68.486 -12.753  1.00  0.00     0.210 HD
ENDBRANCH   4  37
BRANCH   1  39
HETATM   39  C2  UNL     1       6.765  64.588 -14.438  1.00  0.00     0.004 C 
HETATM   40  C1  UNL     1       7.120  63.678 -13.271  1.00  0.00     0.006 C 
ENDBRANCH   1  39
BRANCH  13  41
HETATM   41  O4  UNL     1      17.860  67.414 -11.288  1.00  0.00    -0.346 OA
HETATM   42  H26 UNL     1      18.406  67.674 -12.053  1.00  0.00     0.219 HD
ENDBRANCH  13  41
BRANCH  25  43
HETATM   43  O6  UNL     1      11.930  66.277 -19.177  1.00  0.00    -0.359 OA
HETATM   44  H31 UNL     1      11.619  65.356 -19.008  1.00  0.00     0.217 HD
ENDBRANCH  25  43
TORSDOF 6
ENDMDL
MODEL 7
REMARK minimizedAffinity -6.37005472
REMARK CNNscore 0.265582591
REMARK CNNaffinity 4.64847326
REMARK  6 active torsions:
REMARK  status: ('A' for Active; 'I' for Inactive)
REMARK    1  A    between atoms: C2_2  and  C3_3 
REMARK    2  A    between atoms: C6_6  and  O1_7 
REMARK    3  A    between atoms: C7_8  and  C8_9 
REMARK    4  A    between atoms: C8_9  and  C9_10 
REMARK    5  A    between atoms: C17_20  and  O4_21 
REMARK    6  A    between atoms: C26_33  and  O6_34 
ROOT
HETATM    1  C3  UNL     1      -7.839  44.772 -23.322  1.00  0.00     0.008 C 
HETATM    2  C4  UNL     1      -8.836  43.753 -22.785  1.00  0.00    -0.023 C 
HETATM    3  C5  UNL     1     -10.066  44.020 -22.312  1.00  0.00     0.003 C 
HETATM    4  C6  UNL     1     -11.021  43.001 -21.753  1.00  0.00     0.170 C 
HETATM    5  C7  UNL     1     -12.038  43.650 -20.782  1.00  0.00     0.164 C 
HETATM    6  O2  UNL     1     -12.922  44.525 -21.545  1.00  0.00    -0.312 OA
HETATM    7  C12 UNL     1     -13.113  45.791 -21.065  1.00  0.00     0.276 C 
HETATM    8  O3  UNL     1     -12.510  46.267 -20.106  1.00  0.00    -0.264 OA
HETATM    9  C13 UNL     1     -14.322  46.482 -21.774  1.00  0.00     0.095 C 
HETATM   10  C14 UNL     1     -14.432  47.933 -21.268  1.00  0.00     0.036 C 
HETATM   11  C15 UNL     1     -15.479  45.674 -21.176  1.00  0.00     0.002 C 
HETATM   12  C16 UNL     1     -16.689  45.407 -21.674  1.00  0.00     0.053 C 
HETATM   13  C17 UNL     1     -17.155  46.035 -22.894  1.00  0.00     0.140 C 
HETATM   14  N1  UNL     1     -16.597  46.506 -23.932  1.00  0.00    -0.333 N 
ATOM     15  H1  UNL     1     -17.187  46.971 -24.622  1.00  0.00     0.168 HD
HETATM   16  C18 UNL     1     -15.248  46.429 -24.188  1.00  0.00     0.097 C 
HETATM   17  C19 UNL     1     -14.222  46.496 -23.314  1.00  0.00     0.045 C 
HETATM   18  C20 UNL     1     -12.835  46.731 -23.864  1.00  0.00     0.194 C 
HETATM   19  O5  UNL     1     -11.875  46.818 -23.108  1.00  0.00    -0.287 OA
HETATM   20  C21 UNL     1     -12.619  46.965 -25.307  1.00  0.00     0.046 A 
HETATM   21  C22 UNL     1     -13.689  46.818 -26.174  1.00  0.00     0.032 A 
HETATM   22  C23 UNL     1     -13.559  47.091 -27.549  1.00  0.00     0.026 A 
HETATM   23  C24 UNL     1     -12.349  47.553 -28.075  1.00  0.00    -0.027 A 
HETATM   24  C25 UNL     1     -12.228  47.885 -29.536  1.00  0.00     0.051 C 
HETATM   25  C26 UNL     1     -11.270  47.716 -27.205  1.00  0.00     0.086 A 
HETATM   26  C27 UNL     1     -11.385  47.376 -25.845  1.00  0.00     0.059 A 
HETATM   27  C28 UNL     1     -10.126  47.413 -25.079  1.00  0.00     0.163 C 
HETATM   28  O7  UNL     1      -9.613  48.512 -24.869  1.00  0.00    -0.292 OA
HETATM   29  C29 UNL     1      -9.445  46.080 -24.835  1.00  0.00     0.084 C 
HETATM   30  C30 UNL     1      -8.429  46.152 -23.692  1.00  0.00     0.016 C 
HETATM   31  C31 UNL     1     -14.982  46.361 -25.671  1.00  0.00     0.210 C 
HETATM   32  O8  UNL     1     -15.815  45.935 -26.461  1.00  0.00    -0.285 OA
ENDROOT
BRANCH   5  33
HETATM   33  C8  UNL     1     -12.952  42.629 -20.071  1.00  0.00     0.039 C 
BRANCH  33  34
HETATM   34  C9  UNL     1     -12.587  42.293 -18.613  1.00  0.00    -0.020 C 
HETATM   35  C10 UNL     1     -11.898  43.494 -17.958  1.00  0.00     0.009 C 
HETATM   36  C11 UNL     1     -11.690  41.058 -18.504  1.00  0.00     0.009 C 
ENDBRANCH  33  34
ENDBRANCH   5  33
BRANCH   4  37
HETATM   37  O1  UNL     1     -11.703  42.366 -22.833  1.00  0.00    -0.389 OA
HETATM   38  H10 UNL     1     -11.169  42.495 -23.634  1.00  0.00     0.210 HD
ENDBRANCH   4  37
BRANCH   1  39
HETATM   39  C2  UNL     1      -6.696  44.893 -22.295  1.00  0.00     0.004 C 
HETATM   40  C1  UNL     1      -6.400  43.609 -21.535  1.00  0.00     0.006 C 
ENDBRANCH   1  39
BRANCH  13  41
HETATM   41  O4  UNL     1     -18.495  46.123 -22.841  1.00  0.00    -0.346 OA
HETATM   42  H26 UNL     1     -18.784  46.540 -23.675  1.00  0.00     0.219 HD
ENDBRANCH  13  41
BRANCH  25  43
HETATM   43  O6  UNL     1     -10.096  48.203 -27.724  1.00  0.00    -0.359 OA
HETATM   44  H31 UNL     1      -9.612  48.678 -27.007  1.00  0.00     0.217 HD
ENDBRANCH  25  43
TORSDOF 6
ENDMDL
MODEL 8
REMARK minimizedAffinity -6.67993355
REMARK CNNscore 0.260317832
REMARK CNNaffinity 5.74983835
REMARK  6 active torsions:
REMARK  status: ('A' for Active; 'I' for Inactive)
REMARK    1  A    between atoms: C2_2  and  C3_3 
REMARK    2  A    between atoms: C6_6  and  O1_7 
REMARK    3  A    between atoms: C7_8  and  C8_9 
REMARK    4  A    between atoms: C8_9  and  C9_10 
REMARK    5  A    between atoms: C17_20  and  O4_21 
REMARK    6  A    between atoms: C26_33  and  O6_34 
ROOT
HETATM    1  C3  UNL     1      -9.662  41.571 -21.382  1.00  0.00     0.008 C 
HETATM    2  C4  UNL     1      -9.893  42.743 -20.438  1.00  0.00    -0.023 C 
HETATM    3  C5  UNL     1      -9.155  43.865 -20.372  1.00  0.00     0.003 C 
HETATM    4  C6  UNL     1      -9.380  44.997 -19.406  1.00  0.00     0.170 C 
HETATM    5  C7  UNL     1      -8.082  45.807 -19.170  1.00  0.00     0.164 C 
HETATM    6  O2  UNL     1      -7.738  46.509 -20.402  1.00  0.00    -0.312 OA
HETATM    7  C12 UNL     1      -6.447  46.400 -20.843  1.00  0.00     0.276 C 
HETATM    8  O3  UNL     1      -5.601  45.670 -20.333  1.00  0.00    -0.264 OA
HETATM    9  C13 UNL     1      -6.143  47.457 -21.953  1.00  0.00     0.095 C 
HETATM   10  C14 UNL     1      -4.714  47.227 -22.480  1.00  0.00     0.036 C 
HETATM   11  C15 UNL     1      -6.147  48.737 -21.111  1.00  0.00     0.002 C 
HETATM   12  C16 UNL     1      -6.427  49.996 -21.460  1.00  0.00     0.053 C 
HETATM   13  C17 UNL     1      -6.638  50.362 -22.846  1.00  0.00     0.140 C 
HETATM   14  N1  UNL     1      -7.051  49.756 -23.883  1.00  0.00    -0.333 N 
ATOM     15  H1  UNL     1      -7.024  50.258 -24.770  1.00  0.00     0.168 HD
HETATM   16  C18 UNL     1      -7.531  48.468 -23.887  1.00  0.00     0.097 C 
HETATM   17  C19 UNL     1      -7.127  47.418 -23.143  1.00  0.00     0.045 C 
HETATM   18  C20 UNL     1      -7.568  46.037 -23.564  1.00  0.00     0.194 C 
HETATM   19  O5  UNL     1      -7.210  45.051 -22.931  1.00  0.00    -0.287 OA
HETATM   20  C21 UNL     1      -8.347  45.832 -24.803  1.00  0.00     0.046 A 
HETATM   21  C22 UNL     1      -8.798  46.943 -25.498  1.00  0.00     0.032 A 
HETATM   22  C23 UNL     1      -9.489  46.812 -26.718  1.00  0.00     0.026 A 
HETATM   23  C24 UNL     1      -9.711  45.552 -27.282  1.00  0.00    -0.027 A 
HETATM   24  C25 UNL     1     -10.410  45.421 -28.606  1.00  0.00     0.051 C 
HETATM   25  C26 UNL     1      -9.246  44.430 -26.594  1.00  0.00     0.086 A 
HETATM   26  C27 UNL     1      -8.619  44.561 -25.344  1.00  0.00     0.059 A 
HETATM   27  C28 UNL     1      -8.350  43.295 -24.638  1.00  0.00     0.163 C 
HETATM   28  O7  UNL     1      -7.493  42.547 -25.106  1.00  0.00    -0.292 OA
HETATM   29  C29 UNL     1      -9.328  42.912 -23.543  1.00  0.00     0.084 C 
HETATM   30  C30 UNL     1      -8.747  41.860 -22.595  1.00  0.00     0.016 C 
HETATM   31  C31 UNL     1      -8.572  48.283 -24.962  1.00  0.00     0.210 C 
HETATM   32  O8  UNL     1      -9.231  49.220 -25.397  1.00  0.00    -0.285 OA
ENDROOT
BRANCH   5  33
HETATM   33  C8  UNL     1      -8.221  46.893 -18.081  1.00  0.00     0.039 C 
BRANCH  33  34
HETATM   34  C9  UNL     1      -9.285  47.977 -18.336  1.00  0.00    -0.020 C 
HETATM   35  C10 UNL     1      -8.623  49.357 -18.382  1.00  0.00     0.009 C 
HETATM   36  C11 UNL     1     -10.394  47.967 -17.281  1.00  0.00     0.009 C 
ENDBRANCH  33  34
ENDBRANCH   5  33
BRANCH   4  37
HETATM   37  O1  UNL     1     -10.408  45.843 -19.918  1.00  0.00    -0.389 OA
HETATM   38  H10 UNL     1     -10.921  45.327 -20.560  1.00  0.00     0.210 HD
ENDBRANCH   4  37
BRANCH   1  39
HETATM   39  C2  UNL     1      -9.143  40.389 -20.540  1.00  0.00     0.004 C 
HETATM   40  C1  UNL     1      -7.632  40.214 -20.573  1.00  0.00     0.006 C 
ENDBRANCH   1  39
BRANCH  13  41
HETATM   41  O4  UNL     1      -6.279  51.647 -23.005  1.00  0.00    -0.346 OA
HETATM   42  H26 UNL     1      -6.438  51.871 -23.941  1.00  0.00     0.219 HD
ENDBRANCH  13  41
BRANCH  25  43
HETATM   43  O6  UNL     1      -9.437  43.199 -27.173  1.00  0.00    -0.359 OA
HETATM   44  H31 UNL     1      -8.722  42.595 -26.864  1.00  0.00     0.217 HD
ENDBRANCH  25  43
TORSDOF 6
ENDMDL
MODEL 9
REMARK minimizedAffinity -10.4097509
REMARK CNNscore 0.255167991
REMARK CNNaffinity 6.46265841
REMARK  6 active torsions:
REMARK  status: ('A' for Active; 'I' for Inactive)
REMARK    1  A    between atoms: C2_2  and  C3_3 
REMARK    2  A    between atoms: C6_6  and  O1_7 
REMARK    3  A    between atoms: C7_8  and  C8_9 
REMARK    4  A    between atoms: C8_9  and  C9_10 
REMARK    5  A    between atoms: C17_20  and  O4_21 
REMARK    6  A    between atoms: C26_33  and  O6_34 
ROOT
HETATM    1  C3  UNL     1      -0.441  49.784 -19.217  1.00  0.00     0.008 C 
HETATM    2  C4  UNL     1      -1.186  48.460 -19.315  1.00  0.00    -0.023 C 
HETATM    3  C5  UNL     1      -2.359  48.254 -19.938  1.00  0.00     0.003 C 
HETATM    4  C6  UNL     1      -3.095  46.942 -19.993  1.00  0.00     0.170 C 
HETATM    5  C7  UNL     1      -4.611  47.152 -20.228  1.00  0.00     0.164 C 
HETATM    6  O2  UNL     1      -4.807  47.679 -21.575  1.00  0.00    -0.312 OA
HETATM    7  C12 UNL     1      -5.613  48.777 -21.704  1.00  0.00     0.276 C 
HETATM    8  O3  UNL     1      -6.086  49.403 -20.760  1.00  0.00    -0.264 OA
HETATM    9  C13 UNL     1      -5.999  49.014 -23.200  1.00  0.00     0.095 C 
HETATM   10  C14 UNL     1      -6.823  50.312 -23.300  1.00  0.00     0.036 C 
HETATM   11  C15 UNL     1      -6.942  47.826 -23.423  1.00  0.00     0.002 C 
HETATM   12  C16 UNL     1      -7.238  47.162 -24.543  1.00  0.00     0.053 C 
HETATM   13  C17 UNL     1      -6.773  47.623 -25.836  1.00  0.00     0.140 C 
HETATM   14  N1  UNL     1      -5.777  48.297 -26.245  1.00  0.00    -0.333 N 
ATOM     15  H1  UNL     1      -5.743  48.544 -27.234  1.00  0.00     0.168 HD
HETATM   16  C18 UNL     1      -4.743  48.716 -25.441  1.00  0.00     0.097 C 
HETATM   17  C19 UNL     1      -4.789  49.115 -24.153  1.00  0.00     0.045 C 
HETATM   18  C20 UNL     1      -3.593  49.847 -23.594  1.00  0.00     0.194 C 
HETATM   19  O5  UNL     1      -3.596  50.247 -22.436  1.00  0.00    -0.287 OA
HETATM   20  C21 UNL     1      -2.442  50.192 -24.454  1.00  0.00     0.046 A 
HETATM   21  C22 UNL     1      -2.408  49.702 -25.750  1.00  0.00     0.032 A 
HETATM   22  C23 UNL     1      -1.370  50.050 -26.635  1.00  0.00     0.026 A 
HETATM   23  C24 UNL     1      -0.358  50.931 -26.241  1.00  0.00    -0.027 A 
HETATM   24  C25 UNL     1       0.722  51.333 -27.206  1.00  0.00     0.051 C 
HETATM   25  C26 UNL     1      -0.394  51.439 -24.942  1.00  0.00     0.086 A 
HETATM   26  C27 UNL     1      -1.393  51.035 -24.039  1.00  0.00     0.059 A 
HETATM   27  C28 UNL     1      -1.209  51.493 -22.650  1.00  0.00     0.163 C 
HETATM   28  O7  UNL     1      -1.339  52.694 -22.419  1.00  0.00    -0.292 OA
HETATM   29  C29 UNL     1      -0.628  50.483 -21.678  1.00  0.00     0.084 C 
HETATM   30  C30 UNL     1      -0.883  50.875 -20.221  1.00  0.00     0.016 C 
HETATM   31  C31 UNL     1      -3.454  48.797 -26.218  1.00  0.00     0.210 C 
HETATM   32  O8  UNL     1      -3.259  48.128 -27.226  1.00  0.00    -0.285 OA
ENDROOT
BRANCH   5  33
HETATM   33  C8  UNL     1      -5.434  45.849 -20.152  1.00  0.00     0.039 C 
BRANCH  33  34
HETATM   34  C9  UNL     1      -6.592  45.719 -21.160  1.00  0.00    -0.020 C 
HETATM   35  C10 UNL     1      -7.932  45.905 -20.443  1.00  0.00     0.009 C 
HETATM   36  C11 UNL     1      -6.578  44.377 -21.895  1.00  0.00     0.009 C 
ENDBRANCH  33  34
ENDBRANCH   5  33
BRANCH   4  37
HETATM   37  O1  UNL     1      -2.537  46.143 -21.033  1.00  0.00    -0.389 OA
HETATM   38  H10 UNL     1      -1.646  46.480 -21.218  1.00  0.00     0.210 HD
ENDBRANCH   4  37
BRANCH   1  39
HETATM   39  C2  UNL     1      -0.544  50.271 -17.758  1.00  0.00     0.004 C 
HETATM   40  C1  UNL     1       0.351  51.456 -17.430  1.00  0.00     0.006 C 
ENDBRANCH   1  39
BRANCH  13  41
HETATM   41  O4  UNL     1      -7.652  47.225 -26.770  1.00  0.00    -0.346 OA
HETATM   42  H26 UNL     1      -7.313  47.539 -27.630  1.00  0.00     0.219 HD
ENDBRANCH  13  41
BRANCH  25  43
HETATM   43  O6  UNL     1       0.583  52.330 -24.575  1.00  0.00    -0.359 OA
HETATM   44  H31 UNL     1       0.219  52.923 -23.876  1.00  0.00     0.217 HD
ENDBRANCH  25  43
TORSDOF 6
ENDMDL
