MODEL 1
REMARK minimizedAffinity -8.73058319
REMARK  14 active torsions:
REMARK  status: ('A' for Active; 'I' for Inactive)
REMARK    1  A    between atoms: C4_4  and  C5_5 
REMARK    2  A    between atoms: C5_5  and  C6_6 
REMARK    3  A    between atoms: C6_6  and  C7_7 
REMARK    4  A    between atoms: C9_10  and  C10_11 
REMARK    5  A    between atoms: C12_13  and  C13_14 
REMARK    6  A    between atoms: C13_14  and  C14_15 
REMARK    7  A    between atoms: C14_15  and  C15_16 
REMARK    8  A    between atoms: C17_18  and  C18_19 
REMARK    9  A    between atoms: C18_19  and  C19_20 
REMARK   10  A    between atoms: C19_20  and  C20_21 
REMARK   11  A    between atoms: C20_21  and  O2_22 
REMARK   12  A    between atoms: C22_24  and  C24_26 
REMARK   13  A    between atoms: C27_30  and  O4_32 
REMARK   14  A    between atoms: C30_34  and  O5_35 
ROOT
HETATM    1  C15 UNL     1      -2.387  51.213 -24.484  1.00  0.00    -0.006 C 
HETATM    2  C16 UNL     1      -3.347  52.354 -24.031  1.00  0.00     0.019 C 
HETATM    3  C17 UNL     1      -0.905  51.774 -24.809  1.00  0.00     0.026 C 
HETATM    4  C21 UNL     1      -0.650  51.942 -26.315  1.00  0.00    -0.066 C 
HETATM    5  C22 UNL     1       0.483  51.603 -26.983  1.00  0.00    -0.021 C 
HETATM    6  C23 UNL     1       0.681  51.746 -28.468  1.00  0.00     0.052 C 
HETATM    7  C25 UNL     1      -1.861  52.480 -27.032  1.00  0.00     0.038 C 
HETATM    8  C26 UNL     1      -3.006  51.469 -26.992  1.00  0.00     0.042 C 
HETATM    9  C27 UNL     1      -2.988  50.509 -25.770  1.00  0.00     0.062 C 
HETATM   10  C28 UNL     1      -2.265  49.198 -26.141  1.00  0.00     0.046 C 
ENDROOT
BRANCH   1  11
HETATM   11  C14 UNL     1      -2.235  50.233 -23.257  1.00  0.00     0.016 C 
BRANCH  11  12
HETATM   12  C13 UNL     1      -0.984  50.383 -22.376  1.00  0.00     0.028 C 
BRANCH  12  13
HETATM   13  C12 UNL     1      -1.355  50.569 -20.923  1.00  0.00    -0.022 C 
HETATM   14  C10 UNL     1      -0.907  51.503 -20.059  1.00  0.00    -0.059 C 
HETATM   15  C11 UNL     1       0.066  52.594 -20.438  1.00  0.00     0.046 C 
BRANCH  14  16
HETATM   16  C9  UNL     1      -1.388  51.606 -18.620  1.00  0.00     0.153 C 
HETATM   17  O1  UNL     1      -0.398  51.046 -17.731  1.00  0.00    -0.368 OA
HETATM   18  C7  UNL     1      -1.063  50.459 -16.587  1.00  0.00     0.084 C 
HETATM   19  C8  UNL     1      -0.830  48.946 -16.646  1.00  0.00     0.049 C 
HETATM   20  C30 UNL     1      -2.554  50.835 -16.739  1.00  0.00     0.155 C 
HETATM   21  C29 UNL     1      -2.707  50.945 -18.240  1.00  0.00     0.071 C 
BRANCH  18  22
HETATM   22  C6  UNL     1      -0.492  51.099 -15.303  1.00  0.00     0.044 C 
BRANCH  22  23
HETATM   23  C5  UNL     1       0.859  51.819 -15.448  1.00  0.00     0.030 C 
BRANCH  23  24
HETATM   24  C4  UNL     1       1.990  51.106 -14.755  1.00  0.00    -0.025 C 
HETATM   25  C2  UNL     1       3.315  51.311 -14.895  1.00  0.00    -0.091 C 
HETATM   26  C1  UNL     1       4.302  50.490 -14.104  1.00  0.00     0.042 C 
HETATM   27  C3  UNL     1       3.952  52.327 -15.800  1.00  0.00     0.042 C 
ENDBRANCH  23  24
ENDBRANCH  22  23
ENDBRANCH  18  22
BRANCH  20  28
HETATM   28  O5  UNL     1      -3.448  49.895 -16.170  1.00  0.00    -0.392 OA
HETATM   29  H50 UNL     1      -4.351  50.149 -16.430  1.00  0.00     0.210 HD
ENDBRANCH  20  28
ENDBRANCH  14  16
ENDBRANCH  12  13
ENDBRANCH  11  12
ENDBRANCH   1  11
BRANCH   3  30
HETATM   30  C18 UNL     1      -0.552  53.054 -23.996  1.00  0.00     0.012 C 
BRANCH  30  31
HETATM   31  C19 UNL     1       0.699  53.815 -24.453  1.00  0.00     0.027 C 
BRANCH  31  32
HETATM   32  C20 UNL     1       0.415  55.251 -24.878  1.00  0.00     0.164 C 
BRANCH  32  33
HETATM   33  O2  UNL     1       0.216  55.310 -26.286  1.00  0.00    -0.401 OA
HETATM   34  H34 UNL     1       1.028  54.978 -26.708  1.00  0.00     0.209 HD
ENDBRANCH  32  33
ENDBRANCH  31  32
ENDBRANCH  30  31
ENDBRANCH   3  30
BRANCH   9  35
HETATM   35  O4  UNL     1      -4.349  50.101 -25.549  1.00  0.00    -0.389 OA
HETATM   36  H46 UNL     1      -4.925  50.880 -25.568  1.00  0.00     0.210 HD
ENDBRANCH   9  35
BRANCH   5  37
HETATM   37  C24 UNL     1       1.694  51.021 -26.318  1.00  0.00     0.265 C 
HETATM   38  O3  UNL     1       2.832  51.093 -26.762  1.00  0.00    -0.302 OA
ENDBRANCH   5  37
TORSDOF 14
ENDMDL
MODEL 2
REMARK minimizedAffinity -8.59032059
REMARK  14 active torsions:
REMARK  status: ('A' for Active; 'I' for Inactive)
REMARK    1  A    between atoms: C4_4  and  C5_5 
REMARK    2  A    between atoms: C5_5  and  C6_6 
REMARK    3  A    between atoms: C6_6  and  C7_7 
REMARK    4  A    between atoms: C9_10  and  C10_11 
REMARK    5  A    between atoms: C12_13  and  C13_14 
REMARK    6  A    between atoms: C13_14  and  C14_15 
REMARK    7  A    between atoms: C14_15  and  C15_16 
REMARK    8  A    between atoms: C17_18  and  C18_19 
REMARK    9  A    between atoms: C18_19  and  C19_20 
REMARK   10  A    between atoms: C19_20  and  C20_21 
REMARK   11  A    between atoms: C20_21  and  O2_22 
REMARK   12  A    between atoms: C22_24  and  C24_26 
REMARK   13  A    between atoms: C27_30  and  O4_32 
REMARK   14  A    between atoms: C30_34  and  O5_35 
ROOT
HETATM    1  C15 UNL     1      -2.247  50.653 -24.942  1.00  0.00    -0.006 C 
HETATM    2  C16 UNL     1      -1.931  49.149 -24.687  1.00  0.00     0.019 C 
HETATM    3  C17 UNL     1      -0.949  51.453 -25.480  1.00  0.00     0.026 C 
HETATM    4  C21 UNL     1      -0.257  52.273 -24.380  1.00  0.00    -0.066 C 
HETATM    5  C22 UNL     1       0.228  53.536 -24.502  1.00  0.00    -0.021 C 
HETATM    6  C23 UNL     1       0.865  54.324 -23.388  1.00  0.00     0.052 C 
HETATM    7  C25 UNL     1      -0.228  51.538 -23.066  1.00  0.00     0.038 C 
HETATM    8  C26 UNL     1      -1.643  51.357 -22.517  1.00  0.00     0.042 C 
HETATM    9  C27 UNL     1      -2.762  51.311 -23.595  1.00  0.00     0.062 C 
HETATM   10  C28 UNL     1      -3.360  52.719 -23.794  1.00  0.00     0.046 C 
ENDROOT
BRANCH   1  11
HETATM   11  C14 UNL     1      -3.316  50.703 -26.101  1.00  0.00     0.016 C 
BRANCH  11  12
HETATM   12  C13 UNL     1      -2.880  50.217 -27.494  1.00  0.00     0.028 C 
BRANCH  12  13
HETATM   13  C12 UNL     1      -3.897  49.271 -28.087  1.00  0.00    -0.022 C 
HETATM   14  C10 UNL     1      -4.732  48.428 -27.443  1.00  0.00    -0.059 C 
HETATM   15  C11 UNL     1      -4.810  48.318 -25.939  1.00  0.00     0.046 C 
BRANCH  14  16
HETATM   16  C9  UNL     1      -5.742  47.546 -28.160  1.00  0.00     0.153 C 
HETATM   17  O1  UNL     1      -5.791  47.896 -29.559  1.00  0.00    -0.368 OA
HETATM   18  C7  UNL     1      -7.132  47.676 -30.058  1.00  0.00     0.084 C 
HETATM   19  C8  UNL     1      -7.716  49.044 -30.428  1.00  0.00     0.049 C 
HETATM   20  C30 UNL     1      -7.898  47.001 -28.898  1.00  0.00     0.155 C 
HETATM   21  C29 UNL     1      -7.188  47.550 -27.681  1.00  0.00     0.071 C 
BRANCH  18  22
HETATM   22  C6  UNL     1      -7.059  46.715 -31.264  1.00  0.00     0.044 C 
BRANCH  22  23
HETATM   23  C5  UNL     1      -7.130  47.367 -32.655  1.00  0.00     0.030 C 
BRANCH  23  24
HETATM   24  C4  UNL     1      -5.780  47.761 -33.196  1.00  0.00    -0.025 C 
HETATM   25  C2  UNL     1      -4.638  47.047 -33.187  1.00  0.00    -0.091 C 
HETATM   26  C1  UNL     1      -3.377  47.616 -33.787  1.00  0.00     0.042 C 
HETATM   27  C3  UNL     1      -4.474  45.667 -32.616  1.00  0.00     0.042 C 
ENDBRANCH  23  24
ENDBRANCH  22  23
ENDBRANCH  18  22
BRANCH  20  28
HETATM   28  O5  UNL     1      -9.288  47.275 -28.886  1.00  0.00    -0.392 OA
HETATM   29  H50 UNL     1      -9.653  46.919 -28.056  1.00  0.00     0.210 HD
ENDBRANCH  20  28
ENDBRANCH  14  16
ENDBRANCH  12  13
ENDBRANCH  11  12
ENDBRANCH   1  11
BRANCH   3  30
HETATM   30  C18 UNL     1       0.043  50.540 -26.258  1.00  0.00     0.012 C 
BRANCH  30  31
HETATM   31  C19 UNL     1       1.055  51.261 -27.157  1.00  0.00     0.027 C 
BRANCH  31  32
HETATM   32  C20 UNL     1       2.458  51.325 -26.563  1.00  0.00     0.164 C 
BRANCH  32  33
HETATM   33  O2  UNL     1       3.333  52.006 -27.456  1.00  0.00    -0.401 OA
HETATM   34  H34 UNL     1       3.334  51.511 -28.294  1.00  0.00     0.209 HD
ENDBRANCH  32  33
ENDBRANCH  31  32
ENDBRANCH  30  31
ENDBRANCH   3  30
BRANCH   9  35
HETATM   35  O4  UNL     1      -3.845  50.553 -23.029  1.00  0.00    -0.389 OA
HETATM   36  H46 UNL     1      -3.496  49.741 -22.632  1.00  0.00     0.210 HD
ENDBRANCH   9  35
BRANCH   5  37
HETATM   37  C24 UNL     1       0.179  54.323 -25.777  1.00  0.00     0.265 C 
HETATM   38  O3  UNL     1       0.315  55.538 -25.849  1.00  0.00    -0.302 OA
ENDBRANCH   5  37
TORSDOF 14
ENDMDL
MODEL 3
REMARK minimizedAffinity -8.51272297
REMARK  14 active torsions:
REMARK  status: ('A' for Active; 'I' for Inactive)
REMARK    1  A    between atoms: C4_4  and  C5_5 
REMARK    2  A    between atoms: C5_5  and  C6_6 
REMARK    3  A    between atoms: C6_6  and  C7_7 
REMARK    4  A    between atoms: C9_10  and  C10_11 
REMARK    5  A    between atoms: C12_13  and  C13_14 
REMARK    6  A    between atoms: C13_14  and  C14_15 
REMARK    7  A    between atoms: C14_15  and  C15_16 
REMARK    8  A    between atoms: C17_18  and  C18_19 
REMARK    9  A    between atoms: C18_19  and  C19_20 
REMARK   10  A    between atoms: C19_20  and  C20_21 
REMARK   11  A    between atoms: C20_21  and  O2_22 
REMARK   12  A    between atoms: C22_24  and  C24_26 
REMARK   13  A    between atoms: C27_30  and  O4_32 
REMARK   14  A    between atoms: C30_34  and  O5_35 
ROOT
HETATM    1  C15 UNL     1      -1.972  51.003 -26.301  1.00  0.00    -0.006 C 
HETATM    2  C16 UNL     1      -3.052  51.840 -27.048  1.00  0.00     0.019 C 
HETATM    3  C17 UNL     1      -2.144  51.103 -24.695  1.00  0.00     0.026 C 
HETATM    4  C21 UNL     1      -1.151  52.083 -24.050  1.00  0.00    -0.066 C 
HETATM    5  C22 UNL     1      -0.456  51.883 -22.900  1.00  0.00    -0.021 C 
HETATM    6  C23 UNL     1       0.540  52.852 -22.319  1.00  0.00     0.052 C 
HETATM    7  C25 UNL     1      -0.956  53.317 -24.890  1.00  0.00     0.038 C 
HETATM    8  C26 UNL     1      -0.277  52.969 -26.213  1.00  0.00     0.042 C 
HETATM    9  C27 UNL     1      -0.533  51.521 -26.718  1.00  0.00     0.062 C 
HETATM   10  C28 UNL     1       0.608  50.592 -26.254  1.00  0.00     0.046 C 
ENDROOT
BRANCH   1  11
HETATM   11  C14 UNL     1      -2.220  49.493 -26.685  1.00  0.00     0.016 C 
BRANCH  11  12
HETATM   12  C13 UNL     1      -3.608  48.901 -26.387  1.00  0.00     0.028 C 
BRANCH  12  13
HETATM   13  C12 UNL     1      -4.244  48.340 -27.637  1.00  0.00    -0.022 C 
HETATM   14  C10 UNL     1      -5.481  47.821 -27.784  1.00  0.00    -0.059 C 
HETATM   15  C11 UNL     1      -6.495  47.747 -26.668  1.00  0.00     0.046 C 
BRANCH  14  16
HETATM   16  C9  UNL     1      -6.020  47.317 -29.115  1.00  0.00     0.153 C 
HETATM   17  O1  UNL     1      -6.808  48.349 -29.746  1.00  0.00    -0.368 OA
HETATM   18  C7  UNL     1      -7.867  47.735 -30.517  1.00  0.00     0.084 C 
HETATM   19  C8  UNL     1      -9.197  48.117 -29.858  1.00  0.00     0.049 C 
HETATM   20  C30 UNL     1      -7.593  46.215 -30.457  1.00  0.00     0.155 C 
HETATM   21  C29 UNL     1      -6.890  46.067 -29.126  1.00  0.00     0.071 C 
BRANCH  18  22
HETATM   22  C6  UNL     1      -7.764  48.226 -31.977  1.00  0.00     0.044 C 
BRANCH  22  23
HETATM   23  C5  UNL     1      -7.158  47.235 -32.984  1.00  0.00     0.030 C 
BRANCH  23  24
HETATM   24  C4  UNL     1      -5.818  47.674 -33.516  1.00  0.00    -0.025 C 
HETATM   25  C2  UNL     1      -4.599  47.194 -33.203  1.00  0.00    -0.091 C 
HETATM   26  C1  UNL     1      -3.364  47.765 -33.850  1.00  0.00     0.042 C 
HETATM   27  C3  UNL     1      -4.320  46.086 -32.226  1.00  0.00     0.042 C 
ENDBRANCH  23  24
ENDBRANCH  22  23
ENDBRANCH  18  22
BRANCH  20  28
HETATM   28  O5  UNL     1      -8.757  45.413 -30.549  1.00  0.00    -0.392 OA
HETATM   29  H50 UNL     1      -8.497  44.492 -30.370  1.00  0.00     0.210 HD
ENDBRANCH  20  28
ENDBRANCH  14  16
ENDBRANCH  12  13
ENDBRANCH  11  12
ENDBRANCH   1  11
BRANCH   3  30
HETATM   30  C18 UNL     1      -3.615  51.369 -24.261  1.00  0.00     0.012 C 
BRANCH  30  31
HETATM   31  C19 UNL     1      -3.811  51.860 -22.821  1.00  0.00     0.027 C 
BRANCH  31  32
HETATM   32  C20 UNL     1      -4.557  50.867 -21.937  1.00  0.00     0.164 C 
BRANCH  32  33
HETATM   33  O2  UNL     1      -5.285  51.564 -20.932  1.00  0.00    -0.401 OA
HETATM   34  H34 UNL     1      -4.641  52.076 -20.411  1.00  0.00     0.209 HD
ENDBRANCH  32  33
ENDBRANCH  31  32
ENDBRANCH  30  31
ENDBRANCH   3  30
BRANCH   9  35
HETATM   35  O4  UNL     1      -0.390  51.554 -28.148  1.00  0.00    -0.389 OA
HETATM   36  H46 UNL     1      -0.888  52.305 -28.504  1.00  0.00     0.210 HD
ENDBRANCH   9  35
BRANCH   5  37
HETATM   37  C24 UNL     1      -0.583  50.650 -22.058  1.00  0.00     0.265 C 
HETATM   38  O3  UNL     1      -1.229  49.658 -22.371  1.00  0.00    -0.302 OA
ENDBRANCH   5  37
TORSDOF 14
ENDMDL
MODEL 4
REMARK minimizedAffinity -8.49755573
REMARK  14 active torsions:
REMARK  status: ('A' for Active; 'I' for Inactive)
REMARK    1  A    between atoms: C4_4  and  C5_5 
REMARK    2  A    between atoms: C5_5  and  C6_6 
REMARK    3  A    between atoms: C6_6  and  C7_7 
REMARK    4  A    between atoms: C9_10  and  C10_11 
REMARK    5  A    between atoms: C12_13  and  C13_14 
REMARK    6  A    between atoms: C13_14  and  C14_15 
REMARK    7  A    between atoms: C14_15  and  C15_16 
REMARK    8  A    between atoms: C17_18  and  C18_19 
REMARK    9  A    between atoms: C18_19  and  C19_20 
REMARK   10  A    between atoms: C19_20  and  C20_21 
REMARK   11  A    between atoms: C20_21  and  O2_22 
REMARK   12  A    between atoms: C22_24  and  C24_26 
REMARK   13  A    between atoms: C27_30  and  O4_32 
REMARK   14  A    between atoms: C30_34  and  O5_35 
ROOT
HETATM    1  C15 UNL     1      -2.253  50.996 -24.332  1.00  0.00    -0.006 C 
HETATM    2  C16 UNL     1      -3.099  52.133 -23.685  1.00  0.00     0.019 C 
HETATM    3  C17 UNL     1      -0.731  51.469 -24.611  1.00  0.00     0.026 C 
HETATM    4  C21 UNL     1      -0.484  51.843 -26.081  1.00  0.00    -0.066 C 
HETATM    5  C22 UNL     1       0.604  51.512 -26.824  1.00  0.00    -0.021 C 
HETATM    6  C23 UNL     1       0.792  51.864 -28.276  1.00  0.00     0.052 C 
HETATM    7  C25 UNL     1      -1.651  52.588 -26.674  1.00  0.00     0.038 C 
HETATM    8  C26 UNL     1      -2.882  51.686 -26.755  1.00  0.00     0.042 C 
HETATM    9  C27 UNL     1      -2.934  50.553 -25.693  1.00  0.00     0.062 C 
HETATM   10  C28 UNL     1      -2.338  49.256 -26.279  1.00  0.00     0.046 C 
ENDROOT
BRANCH   1  11
HETATM   11  C14 UNL     1      -2.172  49.830 -23.273  1.00  0.00     0.016 C 
BRANCH  11  12
HETATM   12  C13 UNL     1      -3.309  49.723 -22.243  1.00  0.00     0.028 C 
BRANCH  12  13
HETATM   13  C12 UNL     1      -2.869  50.225 -20.888  1.00  0.00    -0.022 C 
HETATM   14  C10 UNL     1      -1.991  49.662 -20.032  1.00  0.00    -0.059 C 
HETATM   15  C11 UNL     1      -1.239  48.385 -20.326  1.00  0.00     0.046 C 
BRANCH  14  16
HETATM   16  C9  UNL     1      -1.604  50.290 -18.702  1.00  0.00     0.153 C 
HETATM   17  O1  UNL     1      -0.724  49.403 -17.979  1.00  0.00    -0.368 OA
HETATM   18  C7  UNL     1      -0.946  49.565 -16.558  1.00  0.00     0.084 C 
HETATM   19  C8  UNL     1      -1.536  48.252 -16.032  1.00  0.00     0.049 C 
HETATM   20  C30 UNL     1      -1.929  50.750 -16.427  1.00  0.00     0.155 C 
HETATM   21  C29 UNL     1      -2.707  50.667 -17.722  1.00  0.00     0.071 C 
BRANCH  18  22
HETATM   22  C6  UNL     1       0.397  49.925 -15.886  1.00  0.00     0.044 C 
BRANCH  22  23
HETATM   23  C5  UNL     1       0.592  51.403 -15.511  1.00  0.00     0.030 C 
BRANCH  23  24
HETATM   24  C4  UNL     1       1.878  51.986 -16.037  1.00  0.00    -0.025 C 
HETATM   25  C2  UNL     1       3.115  51.881 -15.514  1.00  0.00    -0.091 C 
HETATM   26  C1  UNL     1       4.289  52.538 -16.193  1.00  0.00     0.042 C 
HETATM   27  C3  UNL     1       3.474  51.137 -14.259  1.00  0.00     0.042 C 
ENDBRANCH  23  24
ENDBRANCH  22  23
ENDBRANCH  18  22
BRANCH  20  28
HETATM   28  O5  UNL     1      -2.765  50.683 -15.286  1.00  0.00    -0.392 OA
HETATM   29  H50 UNL     1      -3.428  51.393 -15.363  1.00  0.00     0.210 HD
ENDBRANCH  20  28
ENDBRANCH  14  16
ENDBRANCH  12  13
ENDBRANCH  11  12
ENDBRANCH   1  11
BRANCH   3  30
HETATM   30  C18 UNL     1      -0.251  52.573 -23.624  1.00  0.00     0.012 C 
BRANCH  30  31
HETATM   31  C19 UNL     1       0.311  52.078 -22.286  1.00  0.00     0.027 C 
BRANCH  31  32
HETATM   32  C20 UNL     1       1.038  53.160 -21.496  1.00  0.00     0.164 C 
BRANCH  32  33
HETATM   33  O2  UNL     1       0.344  53.424 -20.281  1.00  0.00    -0.401 OA
HETATM   34  H34 UNL     1      -0.555  53.714 -20.518  1.00  0.00     0.209 HD
ENDBRANCH  32  33
ENDBRANCH  31  32
ENDBRANCH  30  31
ENDBRANCH   3  30
BRANCH   9  35
HETATM   35  O4  UNL     1      -4.322  50.236 -25.498  1.00  0.00    -0.389 OA
HETATM   36  H46 UNL     1      -4.826  51.056 -25.382  1.00  0.00     0.210 HD
ENDBRANCH   9  35
BRANCH   5  37
HETATM   37  C24 UNL     1       1.766  50.732 -26.289  1.00  0.00     0.265 C 
HETATM   38  O3  UNL     1       2.939  51.064 -26.408  1.00  0.00    -0.302 OA
ENDBRANCH   5  37
TORSDOF 14
ENDMDL
MODEL 5
REMARK minimizedAffinity -8.47643375
REMARK  14 active torsions:
REMARK  status: ('A' for Active; 'I' for Inactive)
REMARK    1  A    between atoms: C4_4  and  C5_5 
REMARK    2  A    between atoms: C5_5  and  C6_6 
REMARK    3  A    between atoms: C6_6  and  C7_7 
REMARK    4  A    between atoms: C9_10  and  C10_11 
REMARK    5  A    between atoms: C12_13  and  C13_14 
REMARK    6  A    between atoms: C13_14  and  C14_15 
REMARK    7  A    between atoms: C14_15  and  C15_16 
REMARK    8  A    between atoms: C17_18  and  C18_19 
REMARK    9  A    between atoms: C18_19  and  C19_20 
REMARK   10  A    between atoms: C19_20  and  C20_21 
REMARK   11  A    between atoms: C20_21  and  O2_22 
REMARK   12  A    between atoms: C22_24  and  C24_26 
REMARK   13  A    between atoms: C27_30  and  O4_32 
REMARK   14  A    between atoms: C30_34  and  O5_35 
ROOT
HETATM    1  C15 UNL     1      -8.142  48.041 -30.355  1.00  0.00    -0.006 C 
HETATM    2  C16 UNL     1      -8.300  49.494 -30.895  1.00  0.00     0.019 C 
HETATM    3  C17 UNL     1      -7.116  47.177 -31.258  1.00  0.00     0.026 C 
HETATM    4  C21 UNL     1      -7.834  46.230 -32.233  1.00  0.00    -0.066 C 
HETATM    5  C22 UNL     1      -7.493  44.943 -32.502  1.00  0.00    -0.021 C 
HETATM    6  C23 UNL     1      -8.246  44.032 -33.435  1.00  0.00     0.052 C 
HETATM    7  C25 UNL     1      -9.055  46.869 -32.838  1.00  0.00     0.038 C 
HETATM    8  C26 UNL     1     -10.117  47.126 -31.770  1.00  0.00     0.042 C 
HETATM    9  C27 UNL     1      -9.561  47.337 -30.334  1.00  0.00     0.062 C 
HETATM   10  C28 UNL     1      -9.567  45.999 -29.565  1.00  0.00     0.046 C 
ENDROOT
BRANCH   1  11
HETATM   11  C14 UNL     1      -7.488  48.158 -28.923  1.00  0.00     0.016 C 
BRANCH  11  12
HETATM   12  C13 UNL     1      -6.259  47.283 -28.628  1.00  0.00     0.028 C 
BRANCH  12  13
HETATM   13  C12 UNL     1      -5.021  48.126 -28.429  1.00  0.00    -0.022 C 
HETATM   14  C10 UNL     1      -4.492  48.574 -27.271  1.00  0.00    -0.059 C 
HETATM   15  C11 UNL     1      -5.068  48.257 -25.912  1.00  0.00     0.046 C 
BRANCH  14  16
HETATM   16  C9  UNL     1      -3.211  49.392 -27.202  1.00  0.00     0.153 C 
HETATM   17  O1  UNL     1      -3.010  49.872 -25.856  1.00  0.00    -0.368 OA
HETATM   18  C7  UNL     1      -2.336  51.153 -25.903  1.00  0.00     0.084 C 
HETATM   19  C8  UNL     1      -3.313  52.207 -25.372  1.00  0.00     0.049 C 
HETATM   20  C30 UNL     1      -1.978  51.375 -27.390  1.00  0.00     0.155 C 
HETATM   21  C29 UNL     1      -3.072  50.612 -28.103  1.00  0.00     0.071 C 
BRANCH  18  22
HETATM   22  C6  UNL     1      -1.044  51.062 -25.063  1.00  0.00     0.044 C 
BRANCH  22  23
HETATM   23  C5  UNL     1      -1.210  51.235 -23.544  1.00  0.00     0.030 C 
BRANCH  23  24
HETATM   24  C4  UNL     1      -0.252  52.235 -22.951  1.00  0.00    -0.025 C 
HETATM   25  C2  UNL     1       0.293  52.238 -21.719  1.00  0.00    -0.091 C 
HETATM   26  C1  UNL     1       1.243  53.333 -21.307  1.00  0.00     0.042 C 
HETATM   27  C3  UNL     1       0.046  51.210 -20.651  1.00  0.00     0.042 C 
ENDBRANCH  23  24
ENDBRANCH  22  23
ENDBRANCH  18  22
BRANCH  20  28
HETATM   28  O5  UNL     1      -1.926  52.737 -27.774  1.00  0.00    -0.392 OA
HETATM   29  H50 UNL     1      -1.826  52.768 -28.743  1.00  0.00     0.210 HD
ENDBRANCH  20  28
ENDBRANCH  14  16
ENDBRANCH  12  13
ENDBRANCH  11  12
ENDBRANCH   1  11
BRANCH   3  30
HETATM   30  C18 UNL     1      -6.042  48.057 -31.962  1.00  0.00     0.012 C 
BRANCH  30  31
HETATM   31  C19 UNL     1      -5.723  47.691 -33.417  1.00  0.00     0.027 C 
BRANCH  31  32
HETATM   32  C20 UNL     1      -4.229  47.621 -33.712  1.00  0.00     0.164 C 
BRANCH  32  33
HETATM   33  O2  UNL     1      -3.783  48.860 -34.253  1.00  0.00    -0.401 OA
HETATM   34  H34 UNL     1      -4.290  49.020 -35.069  1.00  0.00     0.209 HD
ENDBRANCH  32  33
ENDBRANCH  31  32
ENDBRANCH  30  31
ENDBRANCH   3  30
BRANCH   9  35
HETATM   35  O4  UNL     1     -10.527  48.140 -29.634  1.00  0.00    -0.389 OA
HETATM   36  H46 UNL     1     -10.783  48.892 -30.190  1.00  0.00     0.210 HD
ENDBRANCH   9  35
BRANCH   5  37
HETATM   37  C24 UNL     1      -6.314  44.251 -31.887  1.00  0.00     0.265 C 
HETATM   38  O3  UNL     1      -5.145  44.536 -32.115  1.00  0.00    -0.302 OA
ENDBRANCH   5  37
TORSDOF 14
ENDMDL
MODEL 6
REMARK minimizedAffinity -8.32639503
REMARK  14 active torsions:
REMARK  status: ('A' for Active; 'I' for Inactive)
REMARK    1  A    between atoms: C4_4  and  C5_5 
REMARK    2  A    between atoms: C5_5  and  C6_6 
REMARK    3  A    between atoms: C6_6  and  C7_7 
REMARK    4  A    between atoms: C9_10  and  C10_11 
REMARK    5  A    between atoms: C12_13  and  C13_14 
REMARK    6  A    between atoms: C13_14  and  C14_15 
REMARK    7  A    between atoms: C14_15  and  C15_16 
REMARK    8  A    between atoms: C17_18  and  C18_19 
REMARK    9  A    between atoms: C18_19  and  C19_20 
REMARK   10  A    between atoms: C19_20  and  C20_21 
REMARK   11  A    between atoms: C20_21  and  O2_22 
REMARK   12  A    between atoms: C22_24  and  C24_26 
REMARK   13  A    between atoms: C27_30  and  O4_32 
REMARK   14  A    between atoms: C30_34  and  O5_35 
ROOT
HETATM    1  C15 UNL     1      -2.022  50.918 -26.255  1.00  0.00    -0.006 C 
HETATM    2  C16 UNL     1      -3.093  51.733 -27.041  1.00  0.00     0.019 C 
HETATM    3  C17 UNL     1      -2.245  51.026 -24.657  1.00  0.00     0.026 C 
HETATM    4  C21 UNL     1      -1.289  52.026 -23.989  1.00  0.00    -0.066 C 
HETATM    5  C22 UNL     1      -0.626  51.846 -22.817  1.00  0.00    -0.021 C 
HETATM    6  C23 UNL     1       0.336  52.834 -22.213  1.00  0.00     0.052 C 
HETATM    7  C25 UNL     1      -1.087  53.258 -24.831  1.00  0.00     0.038 C 
HETATM    8  C26 UNL     1      -0.363  52.911 -26.131  1.00  0.00     0.042 C 
HETATM    9  C27 UNL     1      -0.580  51.456 -26.633  1.00  0.00     0.062 C 
HETATM   10  C28 UNL     1       0.561  50.549 -26.127  1.00  0.00     0.046 C 
ENDROOT
BRANCH   1  11
HETATM   11  C14 UNL     1      -2.235  49.402 -26.636  1.00  0.00     0.016 C 
BRANCH  11  12
HETATM   12  C13 UNL     1      -3.676  48.864 -26.643  1.00  0.00     0.028 C 
BRANCH  12  13
HETATM   13  C12 UNL     1      -4.205  48.732 -28.052  1.00  0.00    -0.022 C 
HETATM   14  C10 UNL     1      -5.355  48.158 -28.463  1.00  0.00    -0.059 C 
HETATM   15  C11 UNL     1      -6.369  47.553 -27.522  1.00  0.00     0.046 C 
BRANCH  14  16
HETATM   16  C9  UNL     1      -5.794  48.121 -29.919  1.00  0.00     0.153 C 
HETATM   17  O1  UNL     1      -5.841  46.754 -30.380  1.00  0.00    -0.368 OA
HETATM   18  C7  UNL     1      -5.509  46.716 -31.789  1.00  0.00     0.084 C 
HETATM   19  C8  UNL     1      -4.179  45.967 -31.928  1.00  0.00     0.049 C 
HETATM   20  C30 UNL     1      -5.403  48.194 -32.228  1.00  0.00     0.155 C 
HETATM   21  C29 UNL     1      -4.969  48.879 -30.952  1.00  0.00     0.071 C 
BRANCH  18  22
HETATM   22  C6  UNL     1      -6.663  46.026 -32.550  1.00  0.00     0.044 C 
BRANCH  22  23
HETATM   23  C5  UNL     1      -7.741  46.955 -33.130  1.00  0.00     0.030 C 
BRANCH  23  24
HETATM   24  C4  UNL     1      -9.112  46.706 -32.556  1.00  0.00    -0.025 C 
HETATM   25  C2  UNL     1      -9.739  47.379 -31.571  1.00  0.00    -0.091 C 
HETATM   26  C1  UNL     1     -11.124  46.978 -31.134  1.00  0.00     0.042 C 
HETATM   27  C3  UNL     1      -9.179  48.556 -30.823  1.00  0.00     0.042 C 
ENDBRANCH  23  24
ENDBRANCH  22  23
ENDBRANCH  18  22
BRANCH  20  28
HETATM   28  O5  UNL     1      -4.502  48.416 -33.298  1.00  0.00    -0.392 OA
HETATM   29  H50 UNL     1      -4.408  49.379 -33.410  1.00  0.00     0.210 HD
ENDBRANCH  20  28
ENDBRANCH  14  16
ENDBRANCH  12  13
ENDBRANCH  11  12
ENDBRANCH   1  11
BRANCH   3  30
HETATM   30  C18 UNL     1      -3.733  51.272 -24.270  1.00  0.00     0.012 C 
BRANCH  30  31
HETATM   31  C19 UNL     1      -3.992  51.647 -22.805  1.00  0.00     0.027 C 
BRANCH  31  32
HETATM   32  C20 UNL     1      -5.177  50.911 -22.190  1.00  0.00     0.164 C 
BRANCH  32  33
HETATM   33  O2  UNL     1      -6.355  51.171 -22.947  1.00  0.00    -0.401 OA
HETATM   34  H34 UNL     1      -6.501  52.134 -22.934  1.00  0.00     0.209 HD
ENDBRANCH  32  33
ENDBRANCH  31  32
ENDBRANCH  30  31
ENDBRANCH   3  30
BRANCH   9  35
HETATM   35  O4  UNL     1      -0.393  51.482 -28.058  1.00  0.00    -0.389 OA
HETATM   36  H46 UNL     1      -0.892  52.223 -28.434  1.00  0.00     0.210 HD
ENDBRANCH   9  35
BRANCH   5  37
HETATM   37  C24 UNL     1      -0.759  50.617 -21.970  1.00  0.00     0.265 C 
HETATM   38  O3  UNL     1      -1.210  49.548 -22.362  1.00  0.00    -0.302 OA
ENDBRANCH   5  37
TORSDOF 14
ENDMDL
MODEL 7
REMARK minimizedAffinity -8.22019482
REMARK  14 active torsions:
REMARK  status: ('A' for Active; 'I' for Inactive)
REMARK    1  A    between atoms: C4_4  and  C5_5 
REMARK    2  A    between atoms: C5_5  and  C6_6 
REMARK    3  A    between atoms: C6_6  and  C7_7 
REMARK    4  A    between atoms: C9_10  and  C10_11 
REMARK    5  A    between atoms: C12_13  and  C13_14 
REMARK    6  A    between atoms: C13_14  and  C14_15 
REMARK    7  A    between atoms: C14_15  and  C15_16 
REMARK    8  A    between atoms: C17_18  and  C18_19 
REMARK    9  A    between atoms: C18_19  and  C19_20 
REMARK   10  A    between atoms: C19_20  and  C20_21 
REMARK   11  A    between atoms: C20_21  and  O2_22 
REMARK   12  A    between atoms: C22_24  and  C24_26 
REMARK   13  A    between atoms: C27_30  and  O4_32 
REMARK   14  A    between atoms: C30_34  and  O5_35 
ROOT
HETATM    1  C15 UNL     1      -1.814  51.190 -23.883  1.00  0.00    -0.006 C 
HETATM    2  C16 UNL     1      -2.672  52.258 -23.141  1.00  0.00     0.019 C 
HETATM    3  C17 UNL     1      -0.387  51.792 -24.352  1.00  0.00     0.026 C 
HETATM    4  C21 UNL     1      -0.359  52.163 -25.843  1.00  0.00    -0.066 C 
HETATM    5  C22 UNL     1       0.654  51.918 -26.714  1.00  0.00    -0.021 C 
HETATM    6  C23 UNL     1       0.629  52.261 -28.180  1.00  0.00     0.052 C 
HETATM    7  C25 UNL     1      -1.653  52.791 -26.289  1.00  0.00     0.038 C 
HETATM    8  C26 UNL     1      -2.798  51.782 -26.212  1.00  0.00     0.042 C 
HETATM    9  C27 UNL     1      -2.615  50.666 -25.145  1.00  0.00     0.062 C 
HETATM   10  C28 UNL     1      -1.981  49.417 -25.794  1.00  0.00     0.046 C 
ENDROOT
BRANCH   1  11
HETATM   11  C14 UNL     1      -1.497  50.054 -22.836  1.00  0.00     0.016 C 
BRANCH  11  12
HETATM   12  C13 UNL     1      -2.128  50.176 -21.438  1.00  0.00     0.028 C 
BRANCH  12  13
HETATM   13  C12 UNL     1      -1.069  50.303 -20.368  1.00  0.00    -0.022 C 
HETATM   14  C10 UNL     1      -1.190  50.826 -19.130  1.00  0.00    -0.059 C 
HETATM   15  C11 UNL     1      -2.485  51.368 -18.575  1.00  0.00     0.046 C 
BRANCH  14  16
HETATM   16  C9  UNL     1      -0.048  50.863 -18.126  1.00  0.00     0.153 C 
HETATM   17  O1  UNL     1      -0.425  50.151 -16.929  1.00  0.00    -0.368 OA
HETATM   18  C7  UNL     1       0.220  50.763 -15.787  1.00  0.00     0.084 C 
HETATM   19  C8  UNL     1      -0.878  51.377 -14.912  1.00  0.00     0.049 C 
HETATM   20  C30 UNL     1       1.173  51.829 -16.375  1.00  0.00     0.155 C 
HETATM   21  C29 UNL     1       0.471  52.217 -17.657  1.00  0.00     0.071 C 
BRANCH  18  22
HETATM   22  C6  UNL     1       1.038  49.684 -15.045  1.00  0.00     0.044 C 
BRANCH  22  23
HETATM   23  C5  UNL     1       0.709  48.224 -15.397  1.00  0.00     0.030 C 
BRANCH  23  24
HETATM   24  C4  UNL     1       1.752  47.247 -14.918  1.00  0.00    -0.025 C 
HETATM   25  C2  UNL     1       1.564  46.054 -14.321  1.00  0.00    -0.091 C 
HETATM   26  C1  UNL     1       2.745  45.211 -13.914  1.00  0.00     0.042 C 
HETATM   27  C3  UNL     1       0.233  45.436 -14.001  1.00  0.00     0.042 C 
ENDBRANCH  23  24
ENDBRANCH  22  23
ENDBRANCH  18  22
BRANCH  20  28
HETATM   28  O5  UNL     1       1.397  52.937 -15.522  1.00  0.00    -0.392 OA
HETATM   29  H50 UNL     1       1.895  53.604 -16.027  1.00  0.00     0.210 HD
ENDBRANCH  20  28
ENDBRANCH  14  16
ENDBRANCH  12  13
ENDBRANCH  11  12
ENDBRANCH   1  11
BRANCH   3  30
HETATM   30  C18 UNL     1       0.109  52.951 -23.438  1.00  0.00     0.012 C 
BRANCH  30  31
HETATM   31  C19 UNL     1       1.001  52.542 -22.260  1.00  0.00     0.027 C 
BRANCH  31  32
HETATM   32  C20 UNL     1       1.188  53.647 -21.227  1.00  0.00     0.164 C 
BRANCH  32  33
HETATM   33  O2  UNL     1       1.913  54.730 -21.800  1.00  0.00    -0.401 OA
HETATM   34  H34 UNL     1       2.773  54.380 -22.092  1.00  0.00     0.209 HD
ENDBRANCH  32  33
ENDBRANCH  31  32
ENDBRANCH  30  31
ENDBRANCH   3  30
BRANCH   9  35
HETATM   35  O4  UNL     1      -3.934  50.229 -24.777  1.00  0.00    -0.389 OA
HETATM   36  H46 UNL     1      -4.492  51.004 -24.604  1.00  0.00     0.210 HD
ENDBRANCH   9  35
BRANCH   5  37
HETATM   37  C24 UNL     1       1.940  51.254 -26.324  1.00  0.00     0.265 C 
HETATM   38  O3  UNL     1       2.954  51.248 -27.010  1.00  0.00    -0.302 OA
ENDBRANCH   5  37
TORSDOF 14
ENDMDL
MODEL 8
REMARK minimizedAffinity -8.19610596
REMARK  14 active torsions:
REMARK  status: ('A' for Active; 'I' for Inactive)
REMARK    1  A    between atoms: C4_4  and  C5_5 
REMARK    2  A    between atoms: C5_5  and  C6_6 
REMARK    3  A    between atoms: C6_6  and  C7_7 
REMARK    4  A    between atoms: C9_10  and  C10_11 
REMARK    5  A    between atoms: C12_13  and  C13_14 
REMARK    6  A    between atoms: C13_14  and  C14_15 
REMARK    7  A    between atoms: C14_15  and  C15_16 
REMARK    8  A    between atoms: C17_18  and  C18_19 
REMARK    9  A    between atoms: C18_19  and  C19_20 
REMARK   10  A    between atoms: C19_20  and  C20_21 
REMARK   11  A    between atoms: C20_21  and  O2_22 
REMARK   12  A    between atoms: C22_24  and  C24_26 
REMARK   13  A    between atoms: C27_30  and  O4_32 
REMARK   14  A    between atoms: C30_34  and  O5_35 
ROOT
HETATM    1  C15 UNL     1      -7.730  47.163 -29.653  1.00  0.00    -0.006 C 
HETATM    2  C16 UNL     1      -6.911  45.898 -30.047  1.00  0.00     0.019 C 
HETATM    3  C17 UNL     1      -8.901  46.811 -28.593  1.00  0.00     0.026 C 
HETATM    4  C21 UNL     1     -10.285  46.700 -29.251  1.00  0.00    -0.066 C 
HETATM    5  C22 UNL     1     -11.450  47.198 -28.762  1.00  0.00    -0.021 C 
HETATM    6  C23 UNL     1     -12.784  47.104 -29.456  1.00  0.00     0.052 C 
HETATM    7  C25 UNL     1     -10.217  46.015 -30.590  1.00  0.00     0.038 C 
HETATM    8  C26 UNL     1      -9.433  46.863 -31.591  1.00  0.00     0.042 C 
HETATM    9  C27 UNL     1      -8.364  47.799 -30.959  1.00  0.00     0.062 C 
HETATM   10  C28 UNL     1      -8.965  49.201 -30.725  1.00  0.00     0.046 C 
ENDROOT
BRANCH   1  11
HETATM   11  C14 UNL     1      -6.734  48.137 -28.913  1.00  0.00     0.016 C 
BRANCH  11  12
HETATM   12  C13 UNL     1      -5.581  47.506 -28.116  1.00  0.00     0.028 C 
BRANCH  12  13
HETATM   13  C12 UNL     1      -4.420  48.464 -27.980  1.00  0.00    -0.022 C 
HETATM   14  C10 UNL     1      -3.835  48.913 -26.849  1.00  0.00    -0.059 C 
HETATM   15  C11 UNL     1      -4.250  48.478 -25.464  1.00  0.00     0.046 C 
BRANCH  14  16
HETATM   16  C9  UNL     1      -2.641  49.855 -26.847  1.00  0.00     0.153 C 
HETATM   17  O1  UNL     1      -2.295  50.203 -25.490  1.00  0.00    -0.368 OA
HETATM   18  C7  UNL     1      -1.760  51.548 -25.465  1.00  0.00     0.084 C 
HETATM   19  C8  UNL     1      -2.746  52.421 -24.682  1.00  0.00     0.049 C 
HETATM   20  C30 UNL     1      -1.642  51.972 -26.946  1.00  0.00     0.155 C 
HETATM   21  C29 UNL     1      -2.749  51.176 -27.599  1.00  0.00     0.071 C 
BRANCH  18  22
HETATM   22  C6  UNL     1      -0.357  51.509 -24.820  1.00  0.00     0.044 C 
BRANCH  22  23
HETATM   23  C5  UNL     1       0.017  52.715 -23.942  1.00  0.00     0.030 C 
BRANCH  23  24
HETATM   24  C4  UNL     1       0.081  52.385 -22.474  1.00  0.00    -0.025 C 
HETATM   25  C2  UNL     1       0.713  53.060 -21.494  1.00  0.00    -0.091 C 
HETATM   26  C1  UNL     1       0.657  52.569 -20.070  1.00  0.00     0.042 C 
HETATM   27  C3  UNL     1       1.508  54.322 -21.674  1.00  0.00     0.042 C 
ENDBRANCH  23  24
ENDBRANCH  22  23
ENDBRANCH  18  22
BRANCH  20  28
HETATM   28  O5  UNL     1      -1.775  53.366 -27.161  1.00  0.00    -0.392 OA
HETATM   29  H50 UNL     1      -1.818  53.515 -28.123  1.00  0.00     0.210 HD
ENDBRANCH  20  28
ENDBRANCH  14  16
ENDBRANCH  12  13
ENDBRANCH  11  12
ENDBRANCH   1  11
BRANCH   3  30
HETATM   30  C18 UNL     1      -8.560  45.579 -27.705  1.00  0.00     0.012 C 
BRANCH  30  31
HETATM   31  C19 UNL     1      -8.781  45.756 -26.198  1.00  0.00     0.027 C 
BRANCH  31  32
HETATM   32  C20 UNL     1      -8.344  47.120 -25.676  1.00  0.00     0.164 C 
BRANCH  32  33
HETATM   33  O2  UNL     1      -9.290  47.603 -24.728  1.00  0.00    -0.401 OA
HETATM   34  H34 UNL     1     -10.149  47.665 -25.182  1.00  0.00     0.209 HD
ENDBRANCH  32  33
ENDBRANCH  31  32
ENDBRANCH  30  31
ENDBRANCH   3  30
BRANCH   9  35
HETATM   35  O4  UNL     1      -7.363  48.018 -31.967  1.00  0.00    -0.389 OA
HETATM   36  H46 UNL     1      -7.116  47.168 -32.364  1.00  0.00     0.210 HD
ENDBRANCH   9  35
BRANCH   5  37
HETATM   37  C24 UNL     1     -11.557  47.927 -27.457  1.00  0.00     0.265 C 
HETATM   38  O3  UNL     1     -12.530  48.582 -27.105  1.00  0.00    -0.302 OA
ENDBRANCH   5  37
TORSDOF 14
ENDMDL
MODEL 9
REMARK minimizedAffinity -8.18654919
REMARK  14 active torsions:
REMARK  status: ('A' for Active; 'I' for Inactive)
REMARK    1  A    between atoms: C4_4  and  C5_5 
REMARK    2  A    between atoms: C5_5  and  C6_6 
REMARK    3  A    between atoms: C6_6  and  C7_7 
REMARK    4  A    between atoms: C9_10  and  C10_11 
REMARK    5  A    between atoms: C12_13  and  C13_14 
REMARK    6  A    between atoms: C13_14  and  C14_15 
REMARK    7  A    between atoms: C14_15  and  C15_16 
REMARK    8  A    between atoms: C17_18  and  C18_19 
REMARK    9  A    between atoms: C18_19  and  C19_20 
REMARK   10  A    between atoms: C19_20  and  C20_21 
REMARK   11  A    between atoms: C20_21  and  O2_22 
REMARK   12  A    between atoms: C22_24  and  C24_26 
REMARK   13  A    between atoms: C27_30  and  O4_32 
REMARK   14  A    between atoms: C30_34  and  O5_35 
ROOT
HETATM    1  C15 UNL     1      -2.490  51.001 -24.466  1.00  0.00    -0.006 C 
HETATM    2  C16 UNL     1      -3.510  52.070 -23.972  1.00  0.00     0.019 C 
HETATM    3  C17 UNL     1      -1.018  51.636 -24.684  1.00  0.00     0.026 C 
HETATM    4  C21 UNL     1      -0.708  51.926 -26.161  1.00  0.00    -0.066 C 
HETATM    5  C22 UNL     1       0.463  51.677 -26.802  1.00  0.00    -0.021 C 
HETATM    6  C23 UNL     1       0.717  51.938 -28.263  1.00  0.00     0.052 C 
HETATM    7  C25 UNL     1      -1.908  52.473 -26.889  1.00  0.00     0.038 C 
HETATM    8  C26 UNL     1      -3.014  51.423 -26.974  1.00  0.00     0.042 C 
HETATM    9  C27 UNL     1      -3.010  50.375 -25.825  1.00  0.00     0.062 C 
HETATM   10  C28 UNL     1      -2.223  49.121 -26.260  1.00  0.00     0.046 C 
ENDROOT
BRANCH   1  11
HETATM   11  C14 UNL     1      -2.351  49.937 -23.309  1.00  0.00     0.016 C 
BRANCH  11  12
HETATM   12  C13 UNL     1      -1.321  50.218 -22.202  1.00  0.00     0.028 C 
BRANCH  12  13
HETATM   13  C12 UNL     1      -1.877  49.883 -20.838  1.00  0.00    -0.022 C 
HETATM   14  C10 UNL     1      -1.691  50.542 -19.675  1.00  0.00    -0.059 C 
HETATM   15  C11 UNL     1      -0.878  51.809 -19.553  1.00  0.00     0.046 C 
BRANCH  14  16
HETATM   16  C9  UNL     1      -2.340  50.120 -18.365  1.00  0.00     0.153 C 
HETATM   17  O1  UNL     1      -2.097  51.121 -17.354  1.00  0.00    -0.368 OA
HETATM   18  C7  UNL     1      -2.006  50.479 -16.060  1.00  0.00     0.084 C 
HETATM   19  C8  UNL     1      -0.568  50.650 -15.561  1.00  0.00     0.049 C 
HETATM   20  C30 UNL     1      -2.373  48.998 -16.309  1.00  0.00     0.155 C 
HETATM   21  C29 UNL     1      -1.931  48.792 -17.740  1.00  0.00     0.071 C 
BRANCH  18  22
HETATM   22  C6  UNL     1      -3.045  51.122 -15.115  1.00  0.00     0.044 C 
BRANCH  22  23
HETATM   23  C5  UNL     1      -2.498  51.691 -13.796  1.00  0.00     0.030 C 
BRANCH  23  24
HETATM   24  C4  UNL     1      -3.171  51.115 -12.577  1.00  0.00    -0.025 C 
HETATM   25  C2  UNL     1      -3.804  51.772 -11.586  1.00  0.00    -0.091 C 
HETATM   26  C1  UNL     1      -4.424  51.013 -10.440  1.00  0.00     0.042 C 
HETATM   27  C3  UNL     1      -3.975  53.262 -11.494  1.00  0.00     0.042 C 
ENDBRANCH  23  24
ENDBRANCH  22  23
ENDBRANCH  18  22
BRANCH  20  28
HETATM   28  O5  UNL     1      -1.754  48.091 -15.413  1.00  0.00    -0.392 OA
HETATM   29  H50 UNL     1      -1.940  47.189 -15.730  1.00  0.00     0.210 HD
ENDBRANCH  20  28
ENDBRANCH  14  16
ENDBRANCH  12  13
ENDBRANCH  11  12
ENDBRANCH   1  11
BRANCH   3  30
HETATM   30  C18 UNL     1      -0.747  52.862 -23.765  1.00  0.00     0.012 C 
BRANCH  30  31
HETATM   31  C19 UNL     1       0.693  53.017 -23.259  1.00  0.00     0.027 C 
BRANCH  31  32
HETATM   32  C20 UNL     1       1.240  54.432 -23.408  1.00  0.00     0.164 C 
BRANCH  32  33
HETATM   33  O2  UNL     1       1.799  54.869 -22.173  1.00  0.00    -0.401 OA
HETATM   34  H34 UNL     1       1.089  54.840 -21.508  1.00  0.00     0.209 HD
ENDBRANCH  32  33
ENDBRANCH  31  32
ENDBRANCH  30  31
ENDBRANCH   3  30
BRANCH   9  35
HETATM   35  O4  UNL     1      -4.362  49.904 -25.695  1.00  0.00    -0.389 OA
HETATM   36  H46 UNL     1      -4.966  50.662 -25.681  1.00  0.00     0.210 HD
ENDBRANCH   9  35
BRANCH   5  37
HETATM   37  C24 UNL     1       1.667  51.090 -26.130  1.00  0.00     0.265 C 
HETATM   38  O3  UNL     1       2.799  51.103 -26.596  1.00  0.00    -0.302 OA
ENDBRANCH   5  37
TORSDOF 14
ENDMDL
