MODEL 1
REMARK minimizedAffinity -12.4440155
REMARK CNNscore 0.506494641
REMARK CNNaffinity 7.25952387
REMARK  7 active torsions:
REMARK  status: ('A' for Active; 'I' for Inactive)
REMARK    1  A    between atoms: C22_25  and  O4_26 
REMARK    2  A    between atoms: C23_27  and  O5_28 
REMARK    3  A    between atoms: C27_33  and  O7_34 
REMARK    4  A    between atoms: C28_35  and  C29_36 
REMARK    5  A    between atoms: C29_36  and  O8_37 
REMARK    6  A    between atoms: C30_38  and  C31_39 
REMARK    7  A    between atoms: C33_41  and  C34_42 
ROOT
HETATM    1  C1  UNL     1       2.328   7.267   8.394  1.00  0.00     0.046 C 
HETATM    2  C2  UNL     1       2.375   7.794   9.801  1.00  0.00    -0.056 C 
HETATM    3  C3  UNL     1       1.249   8.089  10.480  1.00  0.00    -0.004 C 
HETATM    4  C4  UNL     1       1.299   8.636  11.881  1.00  0.00     0.150 C 
HETATM    5  C5  UNL     1       0.019   8.488  12.689  1.00  0.00     0.270 C 
HETATM    6  O1  UNL     1      -0.465   9.419  13.325  1.00  0.00    -0.264 OA
HETATM    7  O2  UNL     1      -0.502   7.234  12.651  1.00  0.00    -0.315 OA
HETATM    8  C6  UNL     1      -1.676   6.940  13.446  1.00  0.00     0.139 C 
HETATM    9  C7  UNL     1      -1.409   7.042  14.949  1.00  0.00     0.065 C 
HETATM   10  C8  UNL     1      -2.649   7.426  15.763  1.00  0.00     0.131 C 
HETATM   11  C9  UNL     1      -2.775   8.926  16.131  1.00  0.00     0.059 C 
HETATM   12  C10 UNL     1      -1.692   9.429  17.057  1.00  0.00    -0.022 C 
HETATM   13  C11 UNL     1      -1.305  10.712  17.216  1.00  0.00    -0.087 C 
HETATM   14  C12 UNL     1      -1.972  11.883  16.544  1.00  0.00     0.043 C 
HETATM   15  C13 UNL     1      -0.125  11.059  18.118  1.00  0.00     0.041 C 
HETATM   16  C14 UNL     1       1.137  11.586  17.379  1.00  0.00     0.008 C 
HETATM   17  C15 UNL     1       2.266  11.838  18.384  1.00  0.00     0.014 C 
HETATM   18  C16 UNL     1       1.514  10.662  16.243  1.00  0.00    -0.022 C 
HETATM   19  C17 UNL     1       2.485   9.739  16.200  1.00  0.00    -0.003 C 
HETATM   20  C18 UNL     1       2.475   8.787  15.117  1.00  0.00     0.008 C 
HETATM   21  C19 UNL     1       2.812   9.049  13.846  1.00  0.00    -0.019 C 
HETATM   22  C20 UNL     1       3.558  10.238  13.307  1.00  0.00     0.206 C 
HETATM   23  O3  UNL     1       3.982   9.866  11.967  1.00  0.00    -0.375 OA
HETATM   24  C21 UNL     1       3.810   8.427  11.881  1.00  0.00     0.194 C 
HETATM   25  C22 UNL     1       3.749   7.907  10.425  1.00  0.00     0.179 C 
HETATM   26  C23 UNL     1       2.541   8.148  12.675  1.00  0.00     0.128 C 
HETATM   27  O6  UNL     1      -3.854   6.928  15.176  1.00  0.00    -0.349 OA
HETATM   28  C24 UNL     1      -4.127   7.231  13.804  1.00  0.00     0.170 C 
HETATM   29  C25 UNL     1      -2.906   7.730  13.021  1.00  0.00     0.101 C 
HETATM   30  C26 UNL     1      -5.274   8.247  13.715  1.00  0.00     0.100 C 
HETATM   31  C27 UNL     1      -6.568   7.668  14.289  1.00  0.00     0.132 C 
HETATM   32  C28 UNL     1      -6.906   6.329  13.614  1.00  0.00     0.071 C 
HETATM   33  C30 UNL     1      -5.686   5.393  13.673  1.00  0.00     0.162 C 
HETATM   34  O9  UNL     1      -4.520   6.025  13.136  1.00  0.00    -0.345 OA
ENDROOT
BRANCH  31  35
HETATM   35  O7  UNL     1      -6.460   7.533  15.709  1.00  0.00    -0.395 OA
HETATM   36  H36 UNL     1      -5.562   7.200  15.910  1.00  0.00     0.210 HD
ENDBRANCH  31  35
BRANCH  33  37
HETATM   37  C31 UNL     1      -5.870   4.108  12.873  1.00  0.00    -0.058 C 
HETATM   38  C32 UNL     1      -7.255   3.510  12.866  1.00  0.00     0.046 C 
HETATM   39  C33 UNL     1      -4.835   3.553  12.206  1.00  0.00    -0.018 C 
BRANCH  39  40
HETATM   40  C34 UNL     1      -4.852   2.280  11.394  1.00  0.00     0.000 C 
HETATM   41  C35 UNL     1      -3.572   1.482  11.639  1.00  0.00     0.013 C 
HETATM   42  C36 UNL     1      -6.078   1.442  11.757  1.00  0.00     0.013 C 
ENDBRANCH  39  40
ENDBRANCH  33  37
BRANCH  32  43
HETATM   43  C29 UNL     1      -8.152   5.682  14.230  1.00  0.00     0.174 C 
BRANCH  43  44
HETATM   44  O8  UNL     1      -8.096   4.267  14.068  1.00  0.00    -0.400 OA
HETATM   45  H40 UNL     1      -9.009   3.941  14.175  1.00  0.00     0.209 HD
ENDBRANCH  43  44
ENDBRANCH  32  43
BRANCH  26  46
HETATM   46  O5  UNL     1       2.461   6.779  13.055  1.00  0.00    -0.381 OA
HETATM   47  H30 UNL     1       3.201   6.585  13.655  1.00  0.00     0.211 HD
ENDBRANCH  26  46
BRANCH  25  48
HETATM   48  O4  UNL     1       4.576   8.719   9.592  1.00  0.00    -0.389 OA
HETATM   49  H29 UNL     1       4.557   9.609   9.998  1.00  0.00     0.210 HD
ENDBRANCH  25  48
TORSDOF 7
ENDMDL
MODEL 2
REMARK minimizedAffinity -10.2708664
REMARK CNNscore 0.429759085
REMARK CNNaffinity 6.91186666
REMARK  7 active torsions:
REMARK  status: ('A' for Active; 'I' for Inactive)
REMARK    1  A    between atoms: C22_25  and  O4_26 
REMARK    2  A    between atoms: C23_27  and  O5_28 
REMARK    3  A    between atoms: C27_33  and  O7_34 
REMARK    4  A    between atoms: C28_35  and  C29_36 
REMARK    5  A    between atoms: C29_36  and  O8_37 
REMARK    6  A    between atoms: C30_38  and  C31_39 
REMARK    7  A    between atoms: C33_41  and  C34_42 
ROOT
HETATM    1  C1  UNL     1      -9.764   8.454  15.549  1.00  0.00     0.046 C 
HETATM    2  C2  UNL     1      -8.514   7.759  15.091  1.00  0.00    -0.056 C 
HETATM    3  C3  UNL     1      -7.387   8.446  14.815  1.00  0.00    -0.004 C 
HETATM    4  C4  UNL     1      -6.142   7.750  14.336  1.00  0.00     0.150 C 
HETATM    5  C5  UNL     1      -4.848   8.530  14.507  1.00  0.00     0.270 C 
HETATM    6  O1  UNL     1      -4.027   8.643  13.601  1.00  0.00    -0.264 OA
HETATM    7  O2  UNL     1      -4.692   9.052  15.751  1.00  0.00    -0.315 OA
HETATM    8  C6  UNL     1      -3.463   9.748  16.068  1.00  0.00     0.139 C 
HETATM    9  C7  UNL     1      -2.241   8.827  16.042  1.00  0.00     0.065 C 
HETATM   10  C8  UNL     1      -0.940   9.552  15.681  1.00  0.00     0.131 C 
HETATM   11  C9  UNL     1      -0.500   9.449  14.199  1.00  0.00     0.059 C 
HETATM   12  C10 UNL     1      -0.147   8.049  13.755  1.00  0.00    -0.022 C 
HETATM   13  C11 UNL     1      -0.133   7.590  12.486  1.00  0.00    -0.087 C 
HETATM   14  C12 UNL     1      -0.386   8.450  11.276  1.00  0.00     0.043 C 
HETATM   15  C13 UNL     1       0.148   6.119  12.196  1.00  0.00     0.041 C 
HETATM   16  C14 UNL     1      -1.063   5.311  11.651  1.00  0.00     0.008 C 
HETATM   17  C15 UNL     1      -0.669   3.843  11.461  1.00  0.00     0.014 C 
HETATM   18  C16 UNL     1      -2.279   5.519  12.524  1.00  0.00    -0.022 C 
HETATM   19  C17 UNL     1      -2.792   4.704  13.456  1.00  0.00    -0.003 C 
HETATM   20  C18 UNL     1      -3.787   5.233  14.354  1.00  0.00     0.008 C 
HETATM   21  C19 UNL     1      -5.062   5.499  14.036  1.00  0.00    -0.019 C 
HETATM   22  C20 UNL     1      -5.836   5.039  12.832  1.00  0.00     0.206 C 
HETATM   23  O3  UNL     1      -7.235   5.279  13.144  1.00  0.00    -0.375 OA
HETATM   24  C21 UNL     1      -7.288   5.518  14.576  1.00  0.00     0.194 C 
HETATM   25  C22 UNL     1      -8.576   6.249  15.025  1.00  0.00     0.179 C 
HETATM   26  C23 UNL     1      -6.015   6.299  14.876  1.00  0.00     0.128 C 
HETATM   27  O6  UNL     1      -0.934  10.908  16.136  1.00  0.00    -0.349 OA
HETATM   28  C24 UNL     1      -2.022  11.762  15.764  1.00  0.00     0.170 C 
HETATM   29  C25 UNL     1      -3.254  11.012  15.244  1.00  0.00     0.101 C 
HETATM   30  C26 UNL     1      -1.543  12.792  14.731  1.00  0.00     0.100 C 
HETATM   31  C27 UNL     1      -0.467  13.704  15.321  1.00  0.00     0.132 C 
HETATM   32  C28 UNL     1      -0.965  14.354  16.623  1.00  0.00     0.071 C 
HETATM   33  C30 UNL     1      -1.500  13.271  17.575  1.00  0.00     0.162 C 
HETATM   34  O9  UNL     1      -2.483  12.453  16.932  1.00  0.00    -0.345 OA
ENDROOT
BRANCH  31  35
HETATM   35  O7  UNL     1       0.744  12.970  15.526  1.00  0.00    -0.395 OA
HETATM   36  H36 UNL     1       0.503  12.089  15.878  1.00  0.00     0.210 HD
ENDBRANCH  31  35
BRANCH  33  37
HETATM   37  C31 UNL     1      -2.176  13.838  18.818  1.00  0.00    -0.058 C 
HETATM   38  C32 UNL     1      -1.268  14.411  19.878  1.00  0.00     0.046 C 
HETATM   39  C33 UNL     1      -3.521  13.827  18.941  1.00  0.00    -0.018 C 
BRANCH  39  40
HETATM   40  C34 UNL     1      -4.334  14.327  20.112  1.00  0.00     0.000 C 
HETATM   41  C35 UNL     1      -4.817  15.753  19.847  1.00  0.00     0.013 C 
HETATM   42  C36 UNL     1      -5.524  13.401  20.359  1.00  0.00     0.013 C 
ENDBRANCH  39  40
ENDBRANCH  33  37
BRANCH  32  43
HETATM   43  C29 UNL     1       0.124  15.208  17.282  1.00  0.00     0.174 C 
BRANCH  43  44
HETATM   44  O8  UNL     1       1.167  14.370  17.775  1.00  0.00    -0.400 OA
HETATM   45  H40 UNL     1       1.653  14.895  18.438  1.00  0.00     0.209 HD
ENDBRANCH  43  44
ENDBRANCH  32  43
BRANCH  26  46
HETATM   46  O5  UNL     1      -5.692   6.243  16.261  1.00  0.00    -0.381 OA
HETATM   47  H30 UNL     1      -5.500   5.319  16.493  1.00  0.00     0.211 HD
ENDBRANCH  26  46
BRANCH  25  48
HETATM   48  O4  UNL     1      -9.662   5.862  14.184  1.00  0.00    -0.389 OA
HETATM   49  H29 UNL     1      -9.259   5.665  13.315  1.00  0.00     0.210 HD
ENDBRANCH  25  48
TORSDOF 7
ENDMDL
MODEL 3
REMARK minimizedAffinity -6.86318874
REMARK CNNscore 0.36151579
REMARK CNNaffinity 5.9736352
REMARK  7 active torsions:
REMARK  status: ('A' for Active; 'I' for Inactive)
REMARK    1  A    between atoms: C22_25  and  O4_26 
REMARK    2  A    between atoms: C23_27  and  O5_28 
REMARK    3  A    between atoms: C27_33  and  O7_34 
REMARK    4  A    between atoms: C28_35  and  C29_36 
REMARK    5  A    between atoms: C29_36  and  O8_37 
REMARK    6  A    between atoms: C30_38  and  C31_39 
REMARK    7  A    between atoms: C33_41  and  C34_42 
ROOT
HETATM    1  C1  UNL     1     -14.935  -3.783   5.836  1.00  0.00     0.046 C 
HETATM    2  C2  UNL     1     -14.689  -4.632   7.051  1.00  0.00    -0.056 C 
HETATM    3  C3  UNL     1     -14.521  -4.083   8.270  1.00  0.00    -0.004 C 
HETATM    4  C4  UNL     1     -14.252  -4.933   9.483  1.00  0.00     0.150 C 
HETATM    5  C5  UNL     1     -14.544  -4.274  10.823  1.00  0.00     0.270 C 
HETATM    6  O1  UNL     1     -13.748  -4.311  11.756  1.00  0.00    -0.264 OA
HETATM    7  O2  UNL     1     -15.762  -3.678  10.879  1.00  0.00    -0.315 OA
HETATM    8  C6  UNL     1     -16.195  -3.086  12.127  1.00  0.00     0.139 C 
HETATM    9  C7  UNL     1     -16.385  -4.123  13.236  1.00  0.00     0.065 C 
HETATM   10  C8  UNL     1     -16.154  -3.560  14.642  1.00  0.00     0.131 C 
HETATM   11  C9  UNL     1     -14.752  -3.817  15.249  1.00  0.00     0.059 C 
HETATM   12  C10 UNL     1     -14.444  -5.274  15.501  1.00  0.00    -0.022 C 
HETATM   13  C11 UNL     1     -13.219  -5.826  15.622  1.00  0.00    -0.087 C 
HETATM   14  C12 UNL     1     -11.936  -5.038  15.615  1.00  0.00     0.043 C 
HETATM   15  C13 UNL     1     -13.060  -7.335  15.776  1.00  0.00     0.041 C 
HETATM   16  C14 UNL     1     -12.411  -8.058  14.563  1.00  0.00     0.008 C 
HETATM   17  C15 UNL     1     -12.365  -9.568  14.815  1.00  0.00     0.014 C 
HETATM   18  C16 UNL     1     -13.103  -7.665  13.277  1.00  0.00    -0.022 C 
HETATM   19  C17 UNL     1     -14.008  -8.353  12.567  1.00  0.00    -0.003 C 
HETATM   20  C18 UNL     1     -14.734  -7.662  11.532  1.00  0.00     0.008 C 
HETATM   21  C19 UNL     1     -14.236  -7.296  10.342  1.00  0.00    -0.019 C 
HETATM   22  C20 UNL     1     -12.972  -7.766   9.678  1.00  0.00     0.206 C 
HETATM   23  O3  UNL     1     -13.083  -7.365   8.286  1.00  0.00    -0.375 OA
HETATM   24  C21 UNL     1     -14.477  -7.015   8.082  1.00  0.00     0.194 C 
HETATM   25  C22 UNL     1     -14.708  -6.129   6.835  1.00  0.00     0.179 C 
HETATM   26  C23 UNL     1     -14.893  -6.344   9.385  1.00  0.00     0.128 C 
HETATM   27  O6  UNL     1     -16.522  -2.181  14.738  1.00  0.00    -0.349 OA
HETATM   28  C24 UNL     1     -15.958  -1.253  13.803  1.00  0.00     0.170 C 
HETATM   29  C25 UNL     1     -15.328  -1.914  12.572  1.00  0.00     0.101 C 
HETATM   30  C26 UNL     1     -14.935  -0.356  14.515  1.00  0.00     0.100 C 
HETATM   31  C27 UNL     1     -15.604   0.486  15.602  1.00  0.00     0.132 C 
HETATM   32  C28 UNL     1     -16.786   1.278  15.020  1.00  0.00     0.071 C 
HETATM   33  C30 UNL     1     -17.725   0.328  14.257  1.00  0.00     0.162 C 
HETATM   34  O9  UNL     1     -17.011  -0.434  13.279  1.00  0.00    -0.345 OA
ENDROOT
BRANCH  31  35
HETATM   35  O7  UNL     1     -16.010  -0.347  16.692  1.00  0.00    -0.395 OA
HETATM   36  H36 UNL     1     -16.381  -1.171  16.316  1.00  0.00     0.210 HD
ENDBRANCH  31  35
BRANCH  33  37
HETATM   37  C31 UNL     1     -18.832   1.051  13.497  1.00  0.00    -0.058 C 
HETATM   38  C32 UNL     1     -20.248   0.631  13.806  1.00  0.00     0.046 C 
HETATM   39  C33 UNL     1     -18.539   2.021  12.604  1.00  0.00    -0.018 C 
BRANCH  39  40
HETATM   40  C34 UNL     1     -19.514   2.809  11.762  1.00  0.00     0.000 C 
HETATM   41  C35 UNL     1     -20.212   1.887  10.762  1.00  0.00     0.013 C 
HETATM   42  C36 UNL     1     -20.544   3.497  12.658  1.00  0.00     0.013 C 
ENDBRANCH  39  40
ENDBRANCH  33  37
BRANCH  32  43
HETATM   43  C29 UNL     1     -17.529   2.066  16.105  1.00  0.00     0.174 C 
BRANCH  43  44
HETATM   44  O8  UNL     1     -17.001   3.388  16.194  1.00  0.00    -0.400 OA
HETATM   45  H40 UNL     1     -17.265   3.731  17.067  1.00  0.00     0.209 HD
ENDBRANCH  43  44
ENDBRANCH  32  43
BRANCH  26  46
HETATM   46  O5  UNL     1     -16.310  -6.328   9.526  1.00  0.00    -0.381 OA
HETATM   47  H30 UNL     1     -16.621  -7.247   9.587  1.00  0.00     0.211 HD
ENDBRANCH  26  46
BRANCH  25  48
HETATM   48  O4  UNL     1     -13.758  -6.468   5.825  1.00  0.00    -0.389 OA
HETATM   49  H29 UNL     1     -12.962  -6.768   6.310  1.00  0.00     0.210 HD
ENDBRANCH  25  48
TORSDOF 7
ENDMDL
MODEL 4
REMARK minimizedAffinity -7.41292715
REMARK CNNscore 0.322753757
REMARK CNNaffinity 6.40305376
REMARK  7 active torsions:
REMARK  status: ('A' for Active; 'I' for Inactive)
REMARK    1  A    between atoms: C22_25  and  O4_26 
REMARK    2  A    between atoms: C23_27  and  O5_28 
REMARK    3  A    between atoms: C27_33  and  O7_34 
REMARK    4  A    between atoms: C28_35  and  C29_36 
REMARK    5  A    between atoms: C29_36  and  O8_37 
REMARK    6  A    between atoms: C30_38  and  C31_39 
REMARK    7  A    between atoms: C33_41  and  C34_42 
ROOT
HETATM    1  C1  UNL     1     -23.506  -1.787   9.492  1.00  0.00     0.046 C 
HETATM    2  C2  UNL     1     -22.813  -0.616  10.130  1.00  0.00    -0.056 C 
HETATM    3  C3  UNL     1     -21.835  -0.788  11.041  1.00  0.00    -0.004 C 
HETATM    4  C4  UNL     1     -21.156   0.386  11.694  1.00  0.00     0.150 C 
HETATM    5  C5  UNL     1     -19.801   0.095  12.320  1.00  0.00     0.270 C 
HETATM    6  O1  UNL     1     -19.509   0.469  13.452  1.00  0.00    -0.264 OA
HETATM    7  O2  UNL     1     -18.961  -0.585  11.498  1.00  0.00    -0.315 OA
HETATM    8  C6  UNL     1     -17.609  -0.852  11.944  1.00  0.00     0.139 C 
HETATM    9  C7  UNL     1     -16.786   0.425  12.124  1.00  0.00     0.065 C 
HETATM   10  C8  UNL     1     -15.690   0.298  13.188  1.00  0.00     0.131 C 
HETATM   11  C9  UNL     1     -16.044   0.855  14.590  1.00  0.00     0.059 C 
HETATM   12  C10 UNL     1     -16.265   2.349  14.624  1.00  0.00    -0.022 C 
HETATM   13  C11 UNL     1     -16.959   3.036  15.555  1.00  0.00    -0.087 C 
HETATM   14  C12 UNL     1     -17.561   2.413  16.787  1.00  0.00     0.043 C 
HETATM   15  C13 UNL     1     -17.183   4.537  15.405  1.00  0.00     0.041 C 
HETATM   16  C14 UNL     1     -18.651   4.961  15.122  1.00  0.00     0.008 C 
HETATM   17  C15 UNL     1     -18.731   6.479  14.931  1.00  0.00     0.014 C 
HETATM   18  C16 UNL     1     -19.225   4.160  13.975  1.00  0.00    -0.022 C 
HETATM   19  C17 UNL     1     -19.397   4.530  12.698  1.00  0.00    -0.003 C 
HETATM   20  C18 UNL     1     -19.699   3.509  11.726  1.00  0.00     0.008 C 
HETATM   21  C19 UNL     1     -20.877   2.883  11.594  1.00  0.00    -0.019 C 
HETATM   22  C20 UNL     1     -22.211   3.279  12.163  1.00  0.00     0.206 C 
HETATM   23  O3  UNL     1     -23.200   2.501  11.435  1.00  0.00    -0.375 OA
HETATM   24  C21 UNL     1     -22.510   1.967  10.274  1.00  0.00     0.194 C 
HETATM   25  C22 UNL     1     -23.231   0.753   9.642  1.00  0.00     0.179 C 
HETATM   26  C23 UNL     1     -21.111   1.642  10.781  1.00  0.00     0.128 C 
HETATM   27  O6  UNL     1     -15.169  -1.032  13.269  1.00  0.00    -0.349 OA
HETATM   28  C24 UNL     1     -16.084  -2.117  13.459  1.00  0.00     0.170 C 
HETATM   29  C25 UNL     1     -17.546  -1.760  13.166  1.00  0.00     0.101 C 
HETATM   30  C26 UNL     1     -15.941  -2.673  14.882  1.00  0.00     0.100 C 
HETATM   31  C27 UNL     1     -14.543  -3.248  15.111  1.00  0.00     0.132 C 
HETATM   32  C28 UNL     1     -14.202  -4.288  14.030  1.00  0.00     0.071 C 
HETATM   33  C30 UNL     1     -14.444  -3.686  12.634  1.00  0.00     0.162 C 
HETATM   34  O9  UNL     1     -15.767  -3.153  12.520  1.00  0.00    -0.345 OA
ENDROOT
BRANCH  31  35
HETATM   35  O7  UNL     1     -13.576  -2.194  15.154  1.00  0.00    -0.395 OA
HETATM   36  H36 UNL     1     -13.808  -1.548  14.456  1.00  0.00     0.210 HD
ENDBRANCH  31  35
BRANCH  33  37
HETATM   37  C31 UNL     1     -14.302  -4.700  11.505  1.00  0.00    -0.058 C 
HETATM   38  C32 UNL     1     -13.957  -6.113  11.907  1.00  0.00     0.046 C 
HETATM   39  C33 UNL     1     -14.487  -4.334  10.218  1.00  0.00    -0.018 C 
BRANCH  39  40
HETATM   40  C34 UNL     1     -14.361  -5.210   8.995  1.00  0.00     0.000 C 
HETATM   41  C35 UNL     1     -15.739  -5.708   8.559  1.00  0.00     0.013 C 
HETATM   42  C36 UNL     1     -13.695  -4.433   7.859  1.00  0.00     0.013 C 
ENDBRANCH  39  40
ENDBRANCH  33  37
BRANCH  32  43
HETATM   43  C29 UNL     1     -12.773  -4.819  14.184  1.00  0.00     0.174 C 
BRANCH  43  44
HETATM   44  O8  UNL     1     -12.395  -4.807  15.558  1.00  0.00    -0.400 OA
HETATM   45  H40 UNL     1     -11.421  -4.843  15.577  1.00  0.00     0.209 HD
ENDBRANCH  43  44
ENDBRANCH  32  43
BRANCH  26  46
HETATM   46  O5  UNL     1     -20.189   1.519   9.704  1.00  0.00    -0.381 OA
HETATM   47  H30 UNL     1     -20.119   2.382   9.263  1.00  0.00     0.211 HD
ENDBRANCH  26  46
BRANCH  25  48
HETATM   48  O4  UNL     1     -24.642   0.897   9.804  1.00  0.00    -0.389 OA
HETATM   49  H29 UNL     1     -24.756   1.400  10.636  1.00  0.00     0.210 HD
ENDBRANCH  25  48
TORSDOF 7
ENDMDL
MODEL 5
REMARK minimizedAffinity -11.4478865
REMARK CNNscore 0.299214363
REMARK CNNaffinity 7.04841185
REMARK  7 active torsions:
REMARK  status: ('A' for Active; 'I' for Inactive)
REMARK    1  A    between atoms: C22_25  and  O4_26 
REMARK    2  A    between atoms: C23_27  and  O5_28 
REMARK    3  A    between atoms: C27_33  and  O7_34 
REMARK    4  A    between atoms: C28_35  and  C29_36 
REMARK    5  A    between atoms: C29_36  and  O8_37 
REMARK    6  A    between atoms: C30_38  and  C31_39 
REMARK    7  A    between atoms: C33_41  and  C34_42 
ROOT
HETATM    1  C1  UNL     1      -9.298  10.644  15.818  1.00  0.00     0.046 C 
HETATM    2  C2  UNL     1      -8.879   9.291  15.316  1.00  0.00    -0.056 C 
HETATM    3  C3  UNL     1      -7.650   9.079  14.805  1.00  0.00    -0.004 C 
HETATM    4  C4  UNL     1      -7.240   7.728  14.284  1.00  0.00     0.150 C 
HETATM    5  C5  UNL     1      -5.741   7.495  14.177  1.00  0.00     0.270 C 
HETATM    6  O1  UNL     1      -5.222   7.022  13.171  1.00  0.00    -0.264 OA
HETATM    7  O2  UNL     1      -5.059   7.834  15.302  1.00  0.00    -0.315 OA
HETATM    8  C6  UNL     1      -3.634   7.583  15.359  1.00  0.00     0.139 C 
HETATM    9  C7  UNL     1      -3.298   6.091  15.318  1.00  0.00     0.065 C 
HETATM   10  C8  UNL     1      -1.929   5.793  14.697  1.00  0.00     0.131 C 
HETATM   11  C9  UNL     1      -1.943   5.381  13.203  1.00  0.00     0.059 C 
HETATM   12  C10 UNL     1      -2.641   4.069  12.929  1.00  0.00    -0.022 C 
HETATM   13  C11 UNL     1      -3.160   3.668  11.750  1.00  0.00    -0.087 C 
HETATM   14  C12 UNL     1      -3.039   4.447  10.467  1.00  0.00     0.043 C 
HETATM   15  C13 UNL     1      -3.928   2.354  11.648  1.00  0.00     0.041 C 
HETATM   16  C14 UNL     1      -5.452   2.500  11.381  1.00  0.00     0.008 C 
HETATM   17  C15 UNL     1      -6.116   1.119  11.362  1.00  0.00     0.014 C 
HETATM   18  C16 UNL     1      -6.074   3.473  12.357  1.00  0.00    -0.022 C 
HETATM   19  C17 UNL     1      -6.797   3.213  13.455  1.00  0.00    -0.003 C 
HETATM   20  C18 UNL     1      -7.044   4.289  14.382  1.00  0.00     0.008 C 
HETATM   21  C19 UNL     1      -7.899   5.304  14.188  1.00  0.00    -0.019 C 
HETATM   22  C20 UNL     1      -8.999   5.412  13.169  1.00  0.00     0.206 C 
HETATM   23  O3  UNL     1      -9.843   6.509  13.613  1.00  0.00    -0.375 OA
HETATM   24  C21 UNL     1      -9.462   6.773  14.989  1.00  0.00     0.194 C 
HETATM   25  C22 UNL     1      -9.889   8.176  15.481  1.00  0.00     0.179 C 
HETATM   26  C23 UNL     1      -7.954   6.558  15.012  1.00  0.00     0.128 C 
HETATM   27  O6  UNL     1      -0.986   6.839  14.943  1.00  0.00    -0.349 OA
HETATM   28  C24 UNL     1      -1.339   8.180  14.586  1.00  0.00     0.170 C 
HETATM   29  C25 UNL     1      -2.838   8.385  14.338  1.00  0.00     0.101 C 
HETATM   30  C26 UNL     1      -0.526   8.623  13.362  1.00  0.00     0.100 C 
HETATM   31  C27 UNL     1       0.971   8.644  13.674  1.00  0.00     0.132 C 
HETATM   32  C28 UNL     1       1.251   9.505  14.917  1.00  0.00     0.071 C 
HETATM   33  C30 UNL     1       0.346   9.055  16.077  1.00  0.00     0.162 C 
HETATM   34  O9  UNL     1      -1.031   9.044  15.688  1.00  0.00    -0.345 OA
ENDROOT
BRANCH  31  35
HETATM   35  O7  UNL     1       1.461   7.310  13.833  1.00  0.00    -0.395 OA
HETATM   36  H36 UNL     1       0.792   6.804  14.338  1.00  0.00     0.210 HD
ENDBRANCH  31  35
BRANCH  33  37
HETATM   37  C31 UNL     1       0.429   9.966  17.297  1.00  0.00    -0.058 C 
HETATM   38  C32 UNL     1       1.812  10.289  17.805  1.00  0.00     0.046 C 
HETATM   39  C33 UNL     1      -0.691  10.455  17.873  1.00  0.00    -0.018 C 
BRANCH  39  40
HETATM   40  C34 UNL     1      -0.775  11.344  19.090  1.00  0.00     0.000 C 
HETATM   41  C35 UNL     1       0.314  10.968  20.094  1.00  0.00     0.013 C 
HETATM   42  C36 UNL     1      -0.635  12.810  18.680  1.00  0.00     0.013 C 
ENDBRANCH  39  40
ENDBRANCH  33  37
BRANCH  32  43
HETATM   43  C29 UNL     1       2.734   9.476  15.304  1.00  0.00     0.174 C 
BRANCH  43  44
HETATM   44  O8  UNL     1       3.070   8.201  15.846  1.00  0.00    -0.400 OA
HETATM   45  H40 UNL     1       3.894   8.325  16.352  1.00  0.00     0.209 HD
ENDBRANCH  43  44
ENDBRANCH  32  43
BRANCH  26  46
HETATM   46  O5  UNL     1      -7.484   6.352  16.340  1.00  0.00    -0.381 OA
HETATM   47  H30 UNL     1      -7.876   5.531  16.679  1.00  0.00     0.211 HD
ENDBRANCH  26  46
BRANCH  25  48
HETATM   48  O4  UNL     1     -11.110   8.554  14.848  1.00  0.00    -0.389 OA
HETATM   49  H29 UNL     1     -11.095   8.115  13.973  1.00  0.00     0.210 HD
ENDBRANCH  25  48
TORSDOF 7
ENDMDL
MODEL 6
REMARK minimizedAffinity -8.53848934
REMARK CNNscore 0.299127281
REMARK CNNaffinity 6.24514055
REMARK  7 active torsions:
REMARK  status: ('A' for Active; 'I' for Inactive)
REMARK    1  A    between atoms: C22_25  and  O4_26 
REMARK    2  A    between atoms: C23_27  and  O5_28 
REMARK    3  A    between atoms: C27_33  and  O7_34 
REMARK    4  A    between atoms: C28_35  and  C29_36 
REMARK    5  A    between atoms: C29_36  and  O8_37 
REMARK    6  A    between atoms: C30_38  and  C31_39 
REMARK    7  A    between atoms: C33_41  and  C34_42 
ROOT
HETATM    1  C1  UNL     1      -7.089  13.490  21.359  1.00  0.00     0.046 C 
HETATM    2  C2  UNL     1      -5.900  13.928  20.551  1.00  0.00    -0.056 C 
HETATM    3  C3  UNL     1      -5.093  13.035  19.945  1.00  0.00    -0.004 C 
HETATM    4  C4  UNL     1      -3.891  13.475  19.153  1.00  0.00     0.150 C 
HETATM    5  C5  UNL     1      -3.352  12.457  18.160  1.00  0.00     0.270 C 
HETATM    6  O1  UNL     1      -2.158  12.186  18.084  1.00  0.00    -0.264 OA
HETATM    7  O2  UNL     1      -4.312  11.914  17.368  1.00  0.00    -0.315 OA
HETATM    8  C6  UNL     1      -3.918  10.991  16.324  1.00  0.00     0.139 C 
HETATM    9  C7  UNL     1      -3.064  11.656  15.242  1.00  0.00     0.065 C 
HETATM   10  C8  UNL     1      -2.091  10.691  14.556  1.00  0.00     0.131 C 
HETATM   11  C9  UNL     1      -0.637  10.706  15.092  1.00  0.00     0.059 C 
HETATM   12  C10 UNL     1       0.091  12.011  14.867  1.00  0.00    -0.022 C 
HETATM   13  C11 UNL     1       1.164  12.459  15.552  1.00  0.00    -0.087 C 
HETATM   14  C12 UNL     1       1.876  11.665  16.615  1.00  0.00     0.043 C 
HETATM   15  C13 UNL     1       1.734  13.847  15.279  1.00  0.00     0.041 C 
HETATM   16  C14 UNL     1       1.547  14.875  16.429  1.00  0.00     0.008 C 
HETATM   17  C15 UNL     1       2.104  16.239  16.008  1.00  0.00     0.014 C 
HETATM   18  C16 UNL     1       0.105  14.909  16.884  1.00  0.00    -0.022 C 
HETATM   19  C17 UNL     1      -0.845  15.808  16.594  1.00  0.00    -0.003 C 
HETATM   20  C18 UNL     1      -2.213  15.483  16.911  1.00  0.00     0.008 C 
HETATM   21  C19 UNL     1      -2.747  15.471  18.141  1.00  0.00    -0.019 C 
HETATM   22  C20 UNL     1      -2.193  16.074  19.401  1.00  0.00     0.206 C 
HETATM   23  O3  UNL     1      -3.299  16.111  20.343  1.00  0.00    -0.375 OA
HETATM   24  C21 UNL     1      -4.499  15.886  19.556  1.00  0.00     0.194 C 
HETATM   25  C22 UNL     1      -5.706  15.422  20.405  1.00  0.00     0.179 C 
HETATM   26  C23 UNL     1      -4.076  14.872  18.502  1.00  0.00     0.128 C 
HETATM   27  O6  UNL     1      -2.610   9.360  14.488  1.00  0.00    -0.349 OA
HETATM   28  C24 UNL     1      -3.059   8.735  15.696  1.00  0.00     0.170 C 
HETATM   29  C25 UNL     1      -3.287   9.711  16.856  1.00  0.00     0.101 C 
HETATM   30  C26 UNL     1      -2.074   7.632  16.106  1.00  0.00     0.100 C 
HETATM   31  C27 UNL     1      -2.013   6.527  15.051  1.00  0.00     0.132 C 
HETATM   32  C28 UNL     1      -3.421   5.986  14.754  1.00  0.00     0.071 C 
HETATM   33  C30 UNL     1      -4.370   7.153  14.428  1.00  0.00     0.162 C 
HETATM   34  O9  UNL     1      -4.344   8.146  15.457  1.00  0.00    -0.345 OA
ENDROOT
BRANCH  31  35
HETATM   35  O7  UNL     1      -1.371   7.010  13.867  1.00  0.00    -0.395 OA
HETATM   36  H36 UNL     1      -1.691   7.921  13.705  1.00  0.00     0.210 HD
ENDBRANCH  31  35
BRANCH  33  37
HETATM   37  C31 UNL     1      -5.828   6.728  14.293  1.00  0.00    -0.058 C 
HETATM   38  C32 UNL     1      -6.868   7.748  14.685  1.00  0.00     0.046 C 
HETATM   39  C33 UNL     1      -6.151   5.499  13.835  1.00  0.00    -0.018 C 
BRANCH  39  40
HETATM   40  C34 UNL     1      -7.538   4.925  13.667  1.00  0.00     0.000 C 
HETATM   41  C35 UNL     1      -8.167   5.438  12.371  1.00  0.00     0.013 C 
HETATM   42  C36 UNL     1      -7.476   3.398  13.657  1.00  0.00     0.013 C 
ENDBRANCH  39  40
ENDBRANCH  33  37
BRANCH  32  43
HETATM   43  C29 UNL     1      -3.402   4.936  13.637  1.00  0.00     0.174 C 
BRANCH  43  44
HETATM   44  O8  UNL     1      -3.096   5.557  12.391  1.00  0.00    -0.400 OA
HETATM   45  H40 UNL     1      -3.398   4.944  11.696  1.00  0.00     0.209 HD
ENDBRANCH  43  44
ENDBRANCH  32  43
BRANCH  26  46
HETATM   46  O5  UNL     1      -4.981  14.864  17.403  1.00  0.00    -0.381 OA
HETATM   47  H30 UNL     1      -4.943  15.732  16.969  1.00  0.00     0.211 HD
ENDBRANCH  26  46
BRANCH  25  48
HETATM   48  O4  UNL     1      -5.636  16.013  21.701  1.00  0.00    -0.389 OA
HETATM   49  H29 UNL     1      -4.681  16.127  21.882  1.00  0.00     0.210 HD
ENDBRANCH  25  48
TORSDOF 7
ENDMDL
MODEL 7
REMARK minimizedAffinity -6.63631582
REMARK CNNscore 0.27900061
REMARK CNNaffinity 6.15046692
REMARK  7 active torsions:
REMARK  status: ('A' for Active; 'I' for Inactive)
REMARK    1  A    between atoms: C22_25  and  O4_26 
REMARK    2  A    between atoms: C23_27  and  O5_28 
REMARK    3  A    between atoms: C27_33  and  O7_34 
REMARK    4  A    between atoms: C28_35  and  C29_36 
REMARK    5  A    between atoms: C29_36  and  O8_37 
REMARK    6  A    between atoms: C30_38  and  C31_39 
REMARK    7  A    between atoms: C33_41  and  C34_42 
ROOT
HETATM    1  C1  UNL     1      -9.428  -6.639  -1.785  1.00  0.00     0.046 C 
HETATM    2  C2  UNL     1      -8.750  -7.961  -2.011  1.00  0.00    -0.056 C 
HETATM    3  C3  UNL     1      -7.752  -8.385  -1.211  1.00  0.00    -0.004 C 
HETATM    4  C4  UNL     1      -7.060  -9.700  -1.452  1.00  0.00     0.150 C 
HETATM    5  C5  UNL     1      -6.309 -10.274  -0.260  1.00  0.00     0.270 C 
HETATM    6  O1  UNL     1      -5.162 -10.700  -0.353  1.00  0.00    -0.264 OA
HETATM    7  O2  UNL     1      -7.040 -10.286   0.884  1.00  0.00    -0.315 OA
HETATM    8  C6  UNL     1      -6.469 -10.883   2.073  1.00  0.00     0.139 C 
HETATM    9  C7  UNL     1      -6.236 -12.388   1.922  1.00  0.00     0.065 C 
HETATM   10  C8  UNL     1      -5.076 -12.913   2.774  1.00  0.00     0.131 C 
HETATM   11  C9  UNL     1      -3.721 -13.077   2.039  1.00  0.00     0.059 C 
HETATM   12  C10 UNL     1      -3.732 -14.121   0.947  1.00  0.00    -0.022 C 
HETATM   13  C11 UNL     1      -2.880 -14.199  -0.096  1.00  0.00    -0.087 C 
HETATM   14  C12 UNL     1      -1.697 -13.287  -0.288  1.00  0.00     0.043 C 
HETATM   15  C13 UNL     1      -3.075 -15.254  -1.181  1.00  0.00     0.041 C 
HETATM   16  C14 UNL     1      -3.497 -14.701  -2.571  1.00  0.00     0.008 C 
HETATM   17  C15 UNL     1      -3.720 -15.859  -3.549  1.00  0.00     0.014 C 
HETATM   18  C16 UNL     1      -4.678 -13.766  -2.436  1.00  0.00    -0.022 C 
HETATM   19  C17 UNL     1      -5.971 -14.006  -2.694  1.00  0.00    -0.003 C 
HETATM   20  C18 UNL     1      -6.949 -13.057  -2.226  1.00  0.00     0.008 C 
HETATM   21  C19 UNL     1      -7.177 -11.846  -2.756  1.00  0.00    -0.019 C 
HETATM   22  C20 UNL     1      -6.737 -11.319  -4.094  1.00  0.00     0.206 C 
HETATM   23  O3  UNL     1      -7.538 -10.130  -4.334  1.00  0.00    -0.375 OA
HETATM   24  C21 UNL     1      -8.623 -10.180  -3.369  1.00  0.00     0.194 C 
HETATM   25  C22 UNL     1      -9.298  -8.807  -3.140  1.00  0.00     0.179 C 
HETATM   26  C23 UNL     1      -7.986 -10.758  -2.112  1.00  0.00     0.128 C 
HETATM   27  O6  UNL     1      -4.926 -12.179   3.992  1.00  0.00    -0.349 OA
HETATM   28  C24 UNL     1      -4.801 -10.754   3.924  1.00  0.00     0.170 C 
HETATM   29  C25 UNL     1      -5.231 -10.154   2.580  1.00  0.00     0.101 C 
HETATM   30  C26 UNL     1      -3.361 -10.342   4.260  1.00  0.00     0.100 C 
HETATM   31  C27 UNL     1      -2.997 -10.734   5.693  1.00  0.00     0.132 C 
HETATM   32  C28 UNL     1      -4.025 -10.168   6.686  1.00  0.00     0.071 C 
HETATM   33  C30 UNL     1      -5.447 -10.554   6.241  1.00  0.00     0.162 C 
HETATM   34  O9  UNL     1      -5.690 -10.169   4.885  1.00  0.00    -0.345 OA
ENDROOT
BRANCH  31  35
HETATM   35  O7  UNL     1      -2.885 -12.156   5.801  1.00  0.00    -0.395 OA
HETATM   36  H36 UNL     1      -3.612 -12.554   5.281  1.00  0.00     0.210 HD
ENDBRANCH  31  35
BRANCH  33  37
HETATM   37  C31 UNL     1      -6.541  -9.888   7.067  1.00  0.00    -0.058 C 
HETATM   38  C32 UNL     1      -6.382  -8.411   7.333  1.00  0.00     0.046 C 
HETATM   39  C33 UNL     1      -7.596 -10.599   7.522  1.00  0.00    -0.018 C 
BRANCH  39  40
HETATM   40  C34 UNL     1      -8.742 -10.092   8.365  1.00  0.00     0.000 C 
HETATM   41  C35 UNL     1     -10.070 -10.612   7.816  1.00  0.00     0.013 C 
HETATM   42  C36 UNL     1      -8.559 -10.533   9.818  1.00  0.00     0.013 C 
ENDBRANCH  39  40
ENDBRANCH  33  37
BRANCH  32  43
HETATM   43  C29 UNL     1      -3.734 -10.617   8.122  1.00  0.00     0.174 C 
BRANCH  43  44
HETATM   44  O8  UNL     1      -3.310  -9.502   8.904  1.00  0.00    -0.400 OA
HETATM   45  H40 UNL     1      -2.848  -9.869   9.680  1.00  0.00     0.209 HD
ENDBRANCH  43  44
ENDBRANCH  32  43
BRANCH  26  46
HETATM   46  O5  UNL     1      -8.973 -11.271  -1.224  1.00  0.00    -0.381 OA
HETATM   47  H30 UNL     1      -9.421 -12.014  -1.663  1.00  0.00     0.211 HD
ENDBRANCH  26  46
BRANCH  25  48
HETATM   48  O4  UNL     1      -9.266  -8.050  -4.349  1.00  0.00    -0.389 OA
HETATM   49  H29 UNL     1      -8.456  -8.341  -4.815  1.00  0.00     0.210 HD
ENDBRANCH  25  48
TORSDOF 7
ENDMDL
MODEL 8
REMARK minimizedAffinity -7.33538389
REMARK CNNscore 0.263634503
REMARK CNNaffinity 5.42477751
REMARK  7 active torsions:
REMARK  status: ('A' for Active; 'I' for Inactive)
REMARK    1  A    between atoms: C22_25  and  O4_26 
REMARK    2  A    between atoms: C23_27  and  O5_28 
REMARK    3  A    between atoms: C27_33  and  O7_34 
REMARK    4  A    between atoms: C28_35  and  C29_36 
REMARK    5  A    between atoms: C29_36  and  O8_37 
REMARK    6  A    between atoms: C30_38  and  C31_39 
REMARK    7  A    between atoms: C33_41  and  C34_42 
ROOT
HETATM    1  C1  UNL     1       3.947   7.357   9.885  1.00  0.00     0.046 C 
HETATM    2  C2  UNL     1       4.798   7.692  11.077  1.00  0.00    -0.056 C 
HETATM    3  C3  UNL     1       4.612   8.828  11.777  1.00  0.00    -0.004 C 
HETATM    4  C4  UNL     1       5.479   9.172  12.958  1.00  0.00     0.150 C 
HETATM    5  C5  UNL     1       4.899  10.197  13.921  1.00  0.00     0.270 C 
HETATM    6  O1  UNL     1       5.551  11.153  14.330  1.00  0.00    -0.264 OA
HETATM    7  O2  UNL     1       3.620   9.929  14.290  1.00  0.00    -0.315 OA
HETATM    8  C6  UNL     1       2.980  10.784  15.268  1.00  0.00     0.139 C 
HETATM    9  C7  UNL     1       3.647  10.705  16.643  1.00  0.00     0.065 C 
HETATM   10  C8  UNL     1       3.508  11.994  17.461  1.00  0.00     0.131 C 
HETATM   11  C9  UNL     1       4.724  12.954  17.415  1.00  0.00     0.059 C 
HETATM   12  C10 UNL     1       5.981  12.390  18.034  1.00  0.00    -0.022 C 
HETATM   13  C11 UNL     1       7.246  12.792  17.789  1.00  0.00    -0.087 C 
HETATM   14  C12 UNL     1       7.603  13.957  16.904  1.00  0.00     0.043 C 
HETATM   15  C13 UNL     1       8.428  12.058  18.414  1.00  0.00     0.041 C 
HETATM   16  C14 UNL     1       9.314  11.263  17.416  1.00  0.00     0.008 C 
HETATM   17  C15 UNL     1      10.424  10.526  18.173  1.00  0.00     0.014 C 
HETATM   18  C16 UNL     1       8.463  10.372  16.541  1.00  0.00    -0.022 C 
HETATM   19  C17 UNL     1       8.257   9.050  16.638  1.00  0.00    -0.003 C 
HETATM   20  C18 UNL     1       7.188   8.467  15.867  1.00  0.00     0.008 C 
HETATM   21  C19 UNL     1       7.206   8.260  14.542  1.00  0.00    -0.019 C 
HETATM   22  C20 UNL     1       8.389   8.272  13.614  1.00  0.00     0.206 C 
HETATM   23  O3  UNL     1       7.936   7.638  12.387  1.00  0.00    -0.375 OA
HETATM   24  C21 UNL     1       6.688   6.974  12.719  1.00  0.00     0.194 C 
HETATM   25  C22 UNL     1       5.820   6.652  11.480  1.00  0.00     0.179 C 
HETATM   26  C23 UNL     1       6.008   7.917  13.704  1.00  0.00     0.128 C 
HETATM   27  O6  UNL     1       2.286  12.682  17.180  1.00  0.00    -0.349 OA
HETATM   28  C24 UNL     1       1.973  12.998  15.818  1.00  0.00     0.170 C 
HETATM   29  C25 UNL     1       2.803  12.219  14.791  1.00  0.00     0.101 C 
HETATM   30  C26 UNL     1       2.117  14.510  15.591  1.00  0.00     0.100 C 
HETATM   31  C27 UNL     1       1.123  15.293  16.450  1.00  0.00     0.132 C 
HETATM   32  C28 UNL     1      -0.310  14.789  16.213  1.00  0.00     0.071 C 
HETATM   33  C30 UNL     1      -0.360  13.260  16.381  1.00  0.00     0.162 C 
HETATM   34  O9  UNL     1       0.617  12.615  15.558  1.00  0.00    -0.345 OA
ENDROOT
BRANCH  31  35
HETATM   35  O7  UNL     1       1.492  15.210  17.830  1.00  0.00    -0.395 OA
HETATM   36  H36 UNL     1       1.782  14.291  18.007  1.00  0.00     0.210 HD
ENDBRANCH  31  35
BRANCH  33  37
HETATM   37  C31 UNL     1      -1.702  12.652  15.993  1.00  0.00    -0.058 C 
HETATM   38  C32 UNL     1      -2.149  12.858  14.567  1.00  0.00     0.046 C 
HETATM   39  C33 UNL     1      -2.435  11.960  16.892  1.00  0.00    -0.018 C 
BRANCH  39  40
HETATM   40  C34 UNL     1      -3.785  11.320  16.668  1.00  0.00     0.000 C 
HETATM   41  C35 UNL     1      -4.809  12.380  16.263  1.00  0.00     0.013 C 
HETATM   42  C36 UNL     1      -3.683  10.242  15.590  1.00  0.00     0.013 C 
ENDBRANCH  39  40
ENDBRANCH  33  37
BRANCH  32  43
HETATM   43  C29 UNL     1      -1.318  15.497  17.124  1.00  0.00     0.174 C 
BRANCH  43  44
HETATM   44  O8  UNL     1      -1.207  14.997  18.455  1.00  0.00    -0.400 OA
HETATM   45  H40 UNL     1      -2.040  15.226  18.906  1.00  0.00     0.209 HD
ENDBRANCH  43  44
ENDBRANCH  32  43
BRANCH  26  46
HETATM   46  O5  UNL     1       5.002   7.242  14.451  1.00  0.00    -0.381 OA
HETATM   47  H30 UNL     1       5.430   6.556  14.990  1.00  0.00     0.211 HD
ENDBRANCH  26  46
BRANCH  25  48
HETATM   48  O4  UNL     1       6.665   6.370  10.365  1.00  0.00    -0.389 OA
HETATM   49  H29 UNL     1       7.472   6.904  10.511  1.00  0.00     0.210 HD
ENDBRANCH  25  48
TORSDOF 7
ENDMDL
MODEL 9
REMARK minimizedAffinity -7.04064274
REMARK CNNscore 0.247663945
REMARK CNNaffinity 6.08052874
REMARK  7 active torsions:
REMARK  status: ('A' for Active; 'I' for Inactive)
REMARK    1  A    between atoms: C22_25  and  O4_26 
REMARK    2  A    between atoms: C23_27  and  O5_28 
REMARK    3  A    between atoms: C27_33  and  O7_34 
REMARK    4  A    between atoms: C28_35  and  C29_36 
REMARK    5  A    between atoms: C29_36  and  O8_37 
REMARK    6  A    between atoms: C30_38  and  C31_39 
REMARK    7  A    between atoms: C33_41  and  C34_42 
ROOT
HETATM    1  C1  UNL     1      -1.612 -10.649   2.385  1.00  0.00     0.046 C 
HETATM    2  C2  UNL     1      -2.982 -10.782   2.988  1.00  0.00    -0.056 C 
HETATM    3  C3  UNL     1      -4.040 -10.117   2.483  1.00  0.00    -0.004 C 
HETATM    4  C4  UNL     1      -5.408 -10.236   3.101  1.00  0.00     0.150 C 
HETATM    5  C5  UNL     1      -6.569  -9.839   2.203  1.00  0.00     0.270 C 
HETATM    6  O1  UNL     1      -7.468  -9.095   2.586  1.00  0.00    -0.264 OA
HETATM    7  O2  UNL     1      -6.517 -10.404   0.969  1.00  0.00    -0.315 OA
HETATM    8  C6  UNL     1      -7.608 -10.171   0.046  1.00  0.00     0.139 C 
HETATM    9  C7  UNL     1      -8.928 -10.776   0.531  1.00  0.00     0.065 C 
HETATM   10  C8  UNL     1     -10.163 -10.023   0.026  1.00  0.00     0.131 C 
HETATM   11  C9  UNL     1     -10.779  -9.000   1.013  1.00  0.00     0.059 C 
HETATM   12  C10 UNL     1     -11.349  -9.618   2.269  1.00  0.00    -0.022 C 
HETATM   13  C11 UNL     1     -11.563  -8.991   3.445  1.00  0.00    -0.087 C 
HETATM   14  C12 UNL     1     -11.346  -7.517   3.666  1.00  0.00     0.043 C 
HETATM   15  C13 UNL     1     -12.052  -9.771   4.661  1.00  0.00     0.041 C 
HETATM   16  C14 UNL     1     -11.019  -9.911   5.814  1.00  0.00     0.008 C 
HETATM   17  C15 UNL     1     -11.608 -10.763   6.943  1.00  0.00     0.014 C 
HETATM   18  C16 UNL     1      -9.695 -10.412   5.285  1.00  0.00    -0.022 C 
HETATM   19  C17 UNL     1      -9.182 -11.650   5.344  1.00  0.00    -0.003 C 
HETATM   20  C18 UNL     1      -8.034 -11.953   4.527  1.00  0.00     0.008 C 
HETATM   21  C19 UNL     1      -6.780 -11.536   4.758  1.00  0.00    -0.019 C 
HETATM   22  C20 UNL     1      -6.211 -10.957   6.023  1.00  0.00     0.206 C 
HETATM   23  O3  UNL     1      -4.767 -11.022   5.874  1.00  0.00    -0.375 OA
HETATM   24  C21 UNL     1      -4.522 -11.917   4.756  1.00  0.00     0.194 C 
HETATM   25  C22 UNL     1      -3.112 -11.753   4.141  1.00  0.00     0.179 C 
HETATM   26  C23 UNL     1      -5.648 -11.614   3.776  1.00  0.00     0.128 C 
HETATM   27  O6  UNL     1      -9.952  -9.444  -1.265  1.00  0.00    -0.349 OA
HETATM   28  C24 UNL     1      -8.818  -8.590  -1.457  1.00  0.00     0.170 C 
HETATM   29  C25 UNL     1      -7.754  -8.710  -0.359  1.00  0.00     0.101 C 
HETATM   30  C26 UNL     1      -9.282  -7.134  -1.599  1.00  0.00     0.100 C 
HETATM   31  C27 UNL     1     -10.165  -6.956  -2.835  1.00  0.00     0.132 C 
HETATM   32  C28 UNL     1      -9.447  -7.476  -4.091  1.00  0.00     0.071 C 
HETATM   33  C30 UNL     1      -8.942  -8.909  -3.847  1.00  0.00     0.162 C 
HETATM   34  O9  UNL     1      -8.146  -8.984  -2.660  1.00  0.00    -0.345 OA
ENDROOT
BRANCH  31  35
HETATM   35  O7  UNL     1     -11.425  -7.604  -2.639  1.00  0.00    -0.395 OA
HETATM   36  H36 UNL     1     -11.255  -8.459  -2.192  1.00  0.00     0.210 HD
ENDBRANCH  31  35
BRANCH  33  37
HETATM   37  C31 UNL     1      -8.064  -9.442  -4.974  1.00  0.00    -0.058 C 
HETATM   38  C32 UNL     1      -7.438  -8.415  -5.885  1.00  0.00     0.046 C 
HETATM   39  C33 UNL     1      -7.864 -10.769  -5.127  1.00  0.00    -0.018 C 
BRANCH  39  40
HETATM   40  C34 UNL     1      -7.046 -11.449  -6.199  1.00  0.00     0.000 C 
HETATM   41  C35 UNL     1      -5.988 -12.350  -5.562  1.00  0.00     0.013 C 
HETATM   42  C36 UNL     1      -7.957 -12.267  -7.115  1.00  0.00     0.013 C 
ENDBRANCH  39  40
ENDBRANCH  33  37
BRANCH  32  43
HETATM   43  C29 UNL     1     -10.341  -7.389  -5.333  1.00  0.00     0.174 C 
BRANCH  43  44
HETATM   44  O8  UNL     1     -11.169  -6.232  -5.255  1.00  0.00    -0.400 OA
HETATM   45  H40 UNL     1     -11.911  -6.381  -5.871  1.00  0.00     0.209 HD
ENDBRANCH  43  44
ENDBRANCH  32  43
BRANCH  26  46
HETATM   46  O5  UNL     1      -5.815 -12.675   2.841  1.00  0.00    -0.381 OA
HETATM   47  H30 UNL     1      -6.091 -13.470   3.327  1.00  0.00     0.211 HD
ENDBRANCH  26  46
BRANCH  25  48
HETATM   48  O4  UNL     1      -2.184 -11.392   5.163  1.00  0.00    -0.389 OA
HETATM   49  H29 UNL     1      -2.705 -10.883   5.817  1.00  0.00     0.210 HD
ENDBRANCH  25  48
TORSDOF 7
ENDMDL
