MODEL 1
REMARK minimizedAffinity -7.70514393
REMARK CNNscore 0.634920657
REMARK CNNaffinity 7.50967789
REMARK  12 active torsions:
REMARK  status: ('A' for Active; 'I' for Inactive)
REMARK    1  A    between atoms: O1_2  and  C2_3 
REMARK    2  A    between atoms: C2_3  and  C5_6 
REMARK    3  A    between atoms: C6_7  and  C7_8 
REMARK    4  A    between atoms: C7_8  and  C8_9 
REMARK    5  A    between atoms: C8_9  and  C10_11 
REMARK    6  A    between atoms: C28_30  and  O3_31 
REMARK    7  A    between atoms: O3_31  and  C29_32 
REMARK    8  A    between atoms: C30_34  and  C31_35 
REMARK    9  A    between atoms: C31_35  and  O5_36 
REMARK   10  A    between atoms: C32_37  and  O6_38 
REMARK   11  A    between atoms: C33_39  and  O7_40 
REMARK   12  A    between atoms: C34_41  and  O8_42 
ROOT
HETATM    1  C10 UNL     1       2.971  55.956  -7.462  1.00  0.00    -0.002 C 
HETATM    2  C11 UNL     1       1.990  57.142  -7.162  1.00  0.00     0.006 C 
HETATM    3  C12 UNL     1       0.577  56.707  -7.628  1.00  0.00     0.011 C 
HETATM    4  C13 UNL     1       0.703  55.188  -7.828  1.00  0.00    -0.029 C 
HETATM    5  C14 UNL     1       0.622  54.589  -6.364  1.00  0.00     0.016 C 
HETATM    6  C15 UNL     1      -0.383  54.422  -8.671  1.00  0.00     0.028 C 
HETATM    7  C16 UNL     1      -1.487  55.141  -9.393  1.00  0.00    -0.021 C 
HETATM    8  C17 UNL     1      -2.179  54.497 -10.354  1.00  0.00     0.008 C 
HETATM    9  C18 UNL     1      -1.817  53.082 -10.836  1.00  0.00     0.092 C 
HETATM   10  O2  UNL     1      -0.776  53.338 -11.794  1.00  0.00    -0.374 OA
HETATM   11  C19 UNL     1       0.455  53.427 -11.039  1.00  0.00     0.179 C 
HETATM   12  C20 UNL     1       0.144  53.197  -9.518  1.00  0.00    -0.004 C 
HETATM   13  C21 UNL     1       1.368  52.583  -8.828  1.00  0.00     0.014 C 
HETATM   14  C22 UNL     1       2.528  53.585  -8.570  1.00  0.00     0.011 C 
HETATM   15  C23 UNL     1       2.132  55.083  -8.461  1.00  0.00    -0.032 C 
HETATM   16  C24 UNL     1       2.203  55.789  -9.850  1.00  0.00     0.016 C 
HETATM   17  C25 UNL     1      -1.061  52.254  -9.764  1.00  0.00     0.036 C 
HETATM   18  C26 UNL     1      -1.985  51.796  -8.635  1.00  0.00     0.011 C 
HETATM   19  C27 UNL     1      -3.170  51.006  -9.198  1.00  0.00     0.033 C 
HETATM   20  C28 UNL     1      -3.928  51.772 -10.302  1.00  0.00     0.136 C 
HETATM   21  C35 UNL     1      -2.989  52.253 -11.456  1.00  0.00     0.014 C 
HETATM   22  C36 UNL     1      -2.445  51.040 -12.263  1.00  0.00     0.021 C 
HETATM   23  C37 UNL     1      -3.810  53.082 -12.477  1.00  0.00     0.021 C 
ENDROOT
BRANCH  20  24
HETATM   24  O3  UNL     1      -4.954  50.952 -10.874  1.00  0.00    -0.352 OA
BRANCH  24  25
HETATM   25  C29 UNL     1      -5.314  49.805 -10.100  1.00  0.00     0.292 C 
HETATM   26  O4  UNL     1      -4.599  48.666 -10.577  1.00  0.00    -0.348 OA
HETATM   27  C30 UNL     1      -4.756  47.524  -9.720  1.00  0.00     0.179 C 
HETATM   28  C32 UNL     1      -6.221  47.309  -9.278  1.00  0.00     0.180 C 
HETATM   29  C33 UNL     1      -7.185  48.082 -10.187  1.00  0.00     0.183 C 
HETATM   30  C34 UNL     1      -6.830  49.577 -10.285  1.00  0.00     0.204 C 
BRANCH  27  31
HETATM   31  C31 UNL     1      -4.224  46.312 -10.492  1.00  0.00     0.198 C 
BRANCH  31  32
HETATM   32  O5  UNL     1      -2.804  46.261 -10.426  1.00  0.00    -0.398 OA
HETATM   33  H48 UNL     1      -2.522  45.515 -10.984  1.00  0.00     0.209 HD
ENDBRANCH  31  32
ENDBRANCH  27  31
BRANCH  28  34
HETATM   34  O6  UNL     1      -6.412  47.791  -7.933  1.00  0.00    -0.390 OA
HETATM   35  H50 UNL     1      -5.895  47.209  -7.347  1.00  0.00     0.210 HD
ENDBRANCH  28  34
BRANCH  29  36
HETATM   36  O7  UNL     1      -8.530  47.941  -9.699  1.00  0.00    -0.390 OA
HETATM   37  H52 UNL     1      -8.440  48.040  -8.726  1.00  0.00     0.210 HD
ENDBRANCH  29  36
BRANCH  30  38
HETATM   38  O8  UNL     1      -7.576  50.342  -9.320  1.00  0.00    -0.388 OA
HETATM   39  H54 UNL     1      -8.510  50.098  -9.473  1.00  0.00     0.210 HD
ENDBRANCH  30  38
ENDBRANCH  24  25
ENDBRANCH  20  24
BRANCH   1  40
HETATM   40  C8  UNL     1       4.397  56.454  -7.857  1.00  0.00    -0.010 C 
HETATM   41  C9  UNL     1       5.394  55.295  -7.983  1.00  0.00     0.010 C 
BRANCH  40  42
HETATM   42  C7  UNL     1       4.916  57.487  -6.817  1.00  0.00     0.031 C 
BRANCH  42  43
HETATM   43  C6  UNL     1       6.315  57.318  -6.267  1.00  0.00    -0.027 C 
HETATM   44  C5  UNL     1       6.923  58.076  -5.338  1.00  0.00     0.006 C 
BRANCH  44  45
HETATM   45  C2  UNL     1       8.318  57.899  -4.761  1.00  0.00     0.070 C 
HETATM   46  C3  UNL     1       8.382  57.503  -3.277  1.00  0.00     0.050 C 
HETATM   47  C4  UNL     1       9.063  59.233  -4.932  1.00  0.00     0.050 C 
BRANCH  45  48
HETATM   48  O1  UNL     1       9.035  56.962  -5.586  1.00  0.00    -0.382 OA
HETATM   49  C1  UNL     1       9.839  56.011  -4.901  1.00  0.00     0.202 C 
ENDBRANCH  45  48
ENDBRANCH  44  45
ENDBRANCH  42  43
ENDBRANCH  40  42
ENDBRANCH   1  40
TORSDOF 12
ENDMDL
MODEL 2
REMARK minimizedAffinity -7.83577156
REMARK CNNscore 0.593699038
REMARK CNNaffinity 7.2259984
REMARK  12 active torsions:
REMARK  status: ('A' for Active; 'I' for Inactive)
REMARK    1  A    between atoms: O1_2  and  C2_3 
REMARK    2  A    between atoms: C2_3  and  C5_6 
REMARK    3  A    between atoms: C6_7  and  C7_8 
REMARK    4  A    between atoms: C7_8  and  C8_9 
REMARK    5  A    between atoms: C8_9  and  C10_11 
REMARK    6  A    between atoms: C28_30  and  O3_31 
REMARK    7  A    between atoms: O3_31  and  C29_32 
REMARK    8  A    between atoms: C30_34  and  C31_35 
REMARK    9  A    between atoms: C31_35  and  O5_36 
REMARK   10  A    between atoms: C32_37  and  O6_38 
REMARK   11  A    between atoms: C33_39  and  O7_40 
REMARK   12  A    between atoms: C34_41  and  O8_42 
ROOT
HETATM    1  C10 UNL     1     -10.282  47.163 -18.582  1.00  0.00    -0.002 C 
HETATM    2  C11 UNL     1      -9.753  47.078 -17.109  1.00  0.00     0.006 C 
HETATM    3  C12 UNL     1      -8.262  47.501 -17.123  1.00  0.00     0.011 C 
HETATM    4  C13 UNL     1      -8.079  48.164 -18.498  1.00  0.00    -0.029 C 
HETATM    5  C14 UNL     1      -8.693  49.612 -18.324  1.00  0.00     0.016 C 
HETATM    6  C15 UNL     1      -6.627  48.375 -19.072  1.00  0.00     0.028 C 
HETATM    7  C16 UNL     1      -5.408  47.844 -18.374  1.00  0.00    -0.021 C 
HETATM    8  C17 UNL     1      -4.244  47.754 -19.049  1.00  0.00     0.008 C 
HETATM    9  C18 UNL     1      -4.127  48.062 -20.551  1.00  0.00     0.092 C 
HETATM   10  O2  UNL     1      -4.544  46.826 -21.155  1.00  0.00    -0.374 OA
HETATM   11  C19 UNL     1      -5.988  46.879 -21.228  1.00  0.00     0.179 C 
HETATM   12  C20 UNL     1      -6.484  48.246 -20.640  1.00  0.00    -0.004 C 
HETATM   13  C21 UNL     1      -7.801  48.650 -21.312  1.00  0.00     0.014 C 
HETATM   14  C22 UNL     1      -9.041  47.846 -20.827  1.00  0.00     0.011 C 
HETATM   15  C23 UNL     1      -8.947  47.228 -19.405  1.00  0.00    -0.032 C 
HETATM   16  C24 UNL     1      -8.375  45.778 -19.456  1.00  0.00     0.016 C 
HETATM   17  C25 UNL     1      -5.221  49.042 -21.054  1.00  0.00     0.036 C 
HETATM   18  C26 UNL     1      -4.966  50.475 -20.586  1.00  0.00     0.011 C 
HETATM   19  C27 UNL     1      -3.574  50.943 -21.020  1.00  0.00     0.033 C 
HETATM   20  C28 UNL     1      -2.455  49.976 -20.581  1.00  0.00     0.136 C 
HETATM   21  C35 UNL     1      -2.712  48.505 -21.047  1.00  0.00     0.014 C 
HETATM   22  C36 UNL     1      -2.605  48.393 -22.594  1.00  0.00     0.021 C 
HETATM   23  C37 UNL     1      -1.590  47.588 -20.497  1.00  0.00     0.021 C 
ENDROOT
BRANCH  20  24
HETATM   24  O3  UNL     1      -1.189  50.396 -21.105  1.00  0.00    -0.352 OA
BRANCH  24  25
HETATM   25  C29 UNL     1      -0.773  51.704 -20.705  1.00  0.00     0.292 C 
HETATM   26  O4  UNL     1       0.051  52.272 -21.721  1.00  0.00    -0.348 OA
HETATM   27  C30 UNL     1       0.339  53.658 -21.480  1.00  0.00     0.179 C 
HETATM   28  C32 UNL     1       0.729  53.938 -20.011  1.00  0.00     0.180 C 
HETATM   29  C33 UNL     1       1.128  52.641 -19.296  1.00  0.00     0.183 C 
HETATM   30  C34 UNL     1       0.045  51.553 -19.403  1.00  0.00     0.204 C 
BRANCH  27  31
HETATM   31  C31 UNL     1       1.467  54.052 -22.440  1.00  0.00     0.198 C 
BRANCH  31  32
HETATM   32  O5  UNL     1       2.127  55.224 -21.980  1.00  0.00    -0.398 OA
HETATM   33  H48 UNL     1       2.785  55.463 -22.658  1.00  0.00     0.209 HD
ENDBRANCH  31  32
ENDBRANCH  27  31
BRANCH  28  34
HETATM   34  O6  UNL     1      -0.388  54.502 -19.297  1.00  0.00    -0.390 OA
HETATM   35  H50 UNL     1      -0.551  55.385 -19.676  1.00  0.00     0.210 HD
ENDBRANCH  28  34
BRANCH  29  36
HETATM   36  O7  UNL     1       1.396  52.914 -17.909  1.00  0.00    -0.390 OA
HETATM   37  H52 UNL     1       0.676  53.528 -17.646  1.00  0.00     0.210 HD
ENDBRANCH  29  36
BRANCH  30  38
HETATM   38  O8  UNL     1      -0.825  51.584 -18.255  1.00  0.00    -0.388 OA
HETATM   39  H54 UNL     1      -0.226  51.538 -17.484  1.00  0.00     0.210 HD
ENDBRANCH  30  38
ENDBRANCH  24  25
ENDBRANCH  20  24
BRANCH   1  40
HETATM   40  C8  UNL     1     -11.346  46.063 -18.893  1.00  0.00    -0.010 C 
HETATM   41  C9  UNL     1     -11.735  46.045 -20.377  1.00  0.00     0.010 C 
BRANCH  40  42
HETATM   42  C7  UNL     1     -12.613  46.275 -18.017  1.00  0.00     0.031 C 
BRANCH  42  43
HETATM   43  C6  UNL     1     -13.881  46.757 -18.686  1.00  0.00    -0.027 C 
HETATM   44  C5  UNL     1     -15.048  46.097 -18.795  1.00  0.00     0.006 C 
BRANCH  44  45
HETATM   45  C2  UNL     1     -16.334  46.583 -19.442  1.00  0.00     0.070 C 
HETATM   46  C3  UNL     1     -16.287  46.763 -20.968  1.00  0.00     0.050 C 
HETATM   47  C4  UNL     1     -16.685  47.941 -18.811  1.00  0.00     0.050 C 
BRANCH  45  48
HETATM   48  O1  UNL     1     -17.402  45.702 -19.050  1.00  0.00    -0.382 OA
HETATM   49  C1  UNL     1     -17.726  44.663 -19.963  1.00  0.00     0.202 C 
ENDBRANCH  45  48
ENDBRANCH  44  45
ENDBRANCH  42  43
ENDBRANCH  40  42
ENDBRANCH   1  40
TORSDOF 12
ENDMDL
MODEL 3
REMARK minimizedAffinity -7.8378334
REMARK CNNscore 0.484570414
REMARK CNNaffinity 6.79410362
REMARK  12 active torsions:
REMARK  status: ('A' for Active; 'I' for Inactive)
REMARK    1  A    between atoms: O1_2  and  C2_3 
REMARK    2  A    between atoms: C2_3  and  C5_6 
REMARK    3  A    between atoms: C6_7  and  C7_8 
REMARK    4  A    between atoms: C7_8  and  C8_9 
REMARK    5  A    between atoms: C8_9  and  C10_11 
REMARK    6  A    between atoms: C28_30  and  O3_31 
REMARK    7  A    between atoms: O3_31  and  C29_32 
REMARK    8  A    between atoms: C30_34  and  C31_35 
REMARK    9  A    between atoms: C31_35  and  O5_36 
REMARK   10  A    between atoms: C32_37  and  O6_38 
REMARK   11  A    between atoms: C33_39  and  O7_40 
REMARK   12  A    between atoms: C34_41  and  O8_42 
ROOT
HETATM    1  C10 UNL     1       5.515  55.837  -7.802  1.00  0.00    -0.002 C 
HETATM    2  C11 UNL     1       6.604  55.234  -8.754  1.00  0.00     0.006 C 
HETATM    3  C12 UNL     1       5.885  54.278  -9.740  1.00  0.00     0.011 C 
HETATM    4  C13 UNL     1       4.398  54.636  -9.583  1.00  0.00    -0.029 C 
HETATM    5  C14 UNL     1       4.219  55.963 -10.427  1.00  0.00     0.016 C 
HETATM    6  C15 UNL     1       3.299  53.637 -10.107  1.00  0.00     0.028 C 
HETATM    7  C16 UNL     1       3.647  52.282 -10.655  1.00  0.00    -0.021 C 
HETATM    8  C17 UNL     1       2.683  51.349 -10.776  1.00  0.00     0.008 C 
HETATM    9  C18 UNL     1       1.247  51.563 -10.268  1.00  0.00     0.092 C 
HETATM   10  O2  UNL     1       1.358  51.230  -8.874  1.00  0.00    -0.374 OA
HETATM   11  C19 UNL     1       1.805  52.433  -8.205  1.00  0.00     0.179 C 
HETATM   12  C20 UNL     1       1.964  53.581  -9.263  1.00  0.00    -0.004 C 
HETATM   13  C21 UNL     1       1.723  54.938  -8.592  1.00  0.00     0.014 C 
HETATM   14  C22 UNL     1       2.895  55.428  -7.695  1.00  0.00     0.011 C 
HETATM   15  C23 UNL     1       4.303  54.868  -8.037  1.00  0.00    -0.032 C 
HETATM   16  C24 UNL     1       4.603  53.564  -7.236  1.00  0.00     0.016 C 
HETATM   17  C25 UNL     1       0.847  53.061 -10.202  1.00  0.00     0.036 C 
HETATM   18  C26 UNL     1       0.605  53.652 -11.591  1.00  0.00     0.011 C 
HETATM   19  C27 UNL     1      -0.451  52.839 -12.344  1.00  0.00     0.033 C 
HETATM   20  C28 UNL     1      -0.120  51.333 -12.398  1.00  0.00     0.136 C 
HETATM   21  C35 UNL     1       0.139  50.722 -10.982  1.00  0.00     0.014 C 
HETATM   22  C36 UNL     1      -1.171  50.703 -10.144  1.00  0.00     0.021 C 
HETATM   23  C37 UNL     1       0.545  49.233 -11.130  1.00  0.00     0.021 C 
ENDROOT
BRANCH  20  24
HETATM   24  O3  UNL     1      -1.188  50.601 -13.012  1.00  0.00    -0.352 OA
BRANCH  24  25
HETATM   25  C29 UNL     1      -0.961  50.225 -14.372  1.00  0.00     0.292 C 
HETATM   26  O4  UNL     1      -0.058  51.149 -14.976  1.00  0.00    -0.348 OA
HETATM   27  C30 UNL     1       0.374  50.721 -16.277  1.00  0.00     0.179 C 
HETATM   28  C32 UNL     1      -0.791  50.194 -17.147  1.00  0.00     0.180 C 
HETATM   29  C33 UNL     1      -2.142  50.654 -16.585  1.00  0.00     0.183 C 
HETATM   30  C34 UNL     1      -2.320  50.281 -15.102  1.00  0.00     0.204 C 
BRANCH  27  31
HETATM   31  C31 UNL     1       1.062  51.922 -16.936  1.00  0.00     0.198 C 
BRANCH  31  32
HETATM   32  O5  UNL     1       1.221  52.981 -16.001  1.00  0.00    -0.398 OA
HETATM   33  H48 UNL     1       1.600  53.734 -16.489  1.00  0.00     0.209 HD
ENDBRANCH  31  32
ENDBRANCH  27  31
BRANCH  28  34
HETATM   34  O6  UNL     1      -0.793  48.753 -17.159  1.00  0.00    -0.390 OA
HETATM   35  H50 UNL     1       0.010  48.472 -17.634  1.00  0.00     0.210 HD
ENDBRANCH  28  34
BRANCH  29  36
HETATM   36  O7  UNL     1      -3.210  50.075 -17.356  1.00  0.00    -0.390 OA
HETATM   37  H52 UNL     1      -2.922  49.147 -17.498  1.00  0.00     0.210 HD
ENDBRANCH  29  36
BRANCH  30  38
HETATM   38  O8  UNL     1      -3.014  49.026 -14.972  1.00  0.00    -0.388 OA
HETATM   39  H54 UNL     1      -3.828  49.132 -15.503  1.00  0.00     0.210 HD
ENDBRANCH  30  38
ENDBRANCH  24  25
ENDBRANCH  20  24
BRANCH   1  40
HETATM   40  C8  UNL     1       6.060  56.081  -6.359  1.00  0.00    -0.010 C 
HETATM   41  C9  UNL     1       6.206  57.576  -6.046  1.00  0.00     0.010 C 
BRANCH  40  42
HETATM   42  C7  UNL     1       7.427  55.366  -6.170  1.00  0.00     0.031 C 
BRANCH  42  43
HETATM   43  C6  UNL     1       8.655  56.211  -5.910  1.00  0.00    -0.027 C 
HETATM   44  C5  UNL     1       9.041  56.751  -4.741  1.00  0.00     0.006 C 
BRANCH  44  45
HETATM   45  C2  UNL     1      10.285  57.579  -4.465  1.00  0.00     0.070 C 
HETATM   46  C3  UNL     1      11.624  56.833  -4.581  1.00  0.00     0.050 C 
HETATM   47  C4  UNL     1      10.167  58.130  -3.034  1.00  0.00     0.050 C 
BRANCH  45  48
HETATM   48  O1  UNL     1      10.256  58.740  -5.315  1.00  0.00    -0.382 OA
HETATM   49  C1  UNL     1      10.198  59.998  -4.658  1.00  0.00     0.202 C 
ENDBRANCH  45  48
ENDBRANCH  44  45
ENDBRANCH  42  43
ENDBRANCH  40  42
ENDBRANCH   1  40
TORSDOF 12
ENDMDL
MODEL 4
REMARK minimizedAffinity -7.82063961
REMARK CNNscore 0.466201633
REMARK CNNaffinity 7.44451952
REMARK  12 active torsions:
REMARK  status: ('A' for Active; 'I' for Inactive)
REMARK    1  A    between atoms: O1_2  and  C2_3 
REMARK    2  A    between atoms: C2_3  and  C5_6 
REMARK    3  A    between atoms: C6_7  and  C7_8 
REMARK    4  A    between atoms: C7_8  and  C8_9 
REMARK    5  A    between atoms: C8_9  and  C10_11 
REMARK    6  A    between atoms: C28_30  and  O3_31 
REMARK    7  A    between atoms: O3_31  and  C29_32 
REMARK    8  A    between atoms: C30_34  and  C31_35 
REMARK    9  A    between atoms: C31_35  and  O5_36 
REMARK   10  A    between atoms: C32_37  and  O6_38 
REMARK   11  A    between atoms: C33_39  and  O7_40 
REMARK   12  A    between atoms: C34_41  and  O8_42 
ROOT
HETATM    1  C10 UNL     1      -1.597  50.402 -21.950  1.00  0.00    -0.002 C 
HETATM    2  C11 UNL     1      -0.461  49.966 -20.962  1.00  0.00     0.006 C 
HETATM    3  C12 UNL     1      -0.997  48.772 -20.132  1.00  0.00     0.011 C 
HETATM    4  C13 UNL     1      -2.250  48.321 -20.900  1.00  0.00    -0.029 C 
HETATM    5  C14 UNL     1      -1.686  47.478 -22.116  1.00  0.00     0.016 C 
HETATM    6  C15 UNL     1      -3.308  47.398 -20.187  1.00  0.00     0.028 C 
HETATM    7  C16 UNL     1      -3.200  47.033 -18.734  1.00  0.00    -0.021 C 
HETATM    8  C17 UNL     1      -4.275  46.533 -18.094  1.00  0.00     0.008 C 
HETATM    9  C18 UNL     1      -5.660  46.423 -18.753  1.00  0.00     0.092 C 
HETATM   10  O2  UNL     1      -6.197  47.744 -18.569  1.00  0.00    -0.374 OA
HETATM   11  C19 UNL     1      -5.703  48.538 -19.673  1.00  0.00     0.179 C 
HETATM   12  C20 UNL     1      -4.815  47.636 -20.600  1.00  0.00    -0.004 C 
HETATM   13  C21 UNL     1      -4.877  48.157 -22.040  1.00  0.00     0.014 C 
HETATM   14  C22 UNL     1      -4.050  49.449 -22.292  1.00  0.00     0.011 C 
HETATM   15  C23 UNL     1      -2.856  49.699 -21.330  1.00  0.00    -0.032 C 
HETATM   16  C24 UNL     1      -3.290  50.551 -20.098  1.00  0.00     0.016 C 
HETATM   17  C25 UNL     1      -5.587  46.327 -20.300  1.00  0.00     0.036 C 
HETATM   18  C26 UNL     1      -5.090  44.958 -20.767  1.00  0.00     0.011 C 
HETATM   19  C27 UNL     1      -5.968  43.843 -20.192  1.00  0.00     0.033 C 
HETATM   20  C28 UNL     1      -6.108  43.923 -18.658  1.00  0.00     0.136 C 
HETATM   21  C35 UNL     1      -6.606  45.323 -18.171  1.00  0.00     0.014 C 
HETATM   22  C36 UNL     1      -8.078  45.566 -18.611  1.00  0.00     0.021 C 
HETATM   23  C37 UNL     1      -6.640  45.347 -16.621  1.00  0.00     0.021 C 
ENDROOT
BRANCH  20  24
HETATM   24  O3  UNL     1      -7.025  42.931 -18.181  1.00  0.00    -0.352 OA
BRANCH  24  25
HETATM   25  C29 UNL     1      -6.434  41.674 -17.842  1.00  0.00     0.292 C 
HETATM   26  O4  UNL     1      -5.018  41.761 -17.981  1.00  0.00    -0.348 OA
HETATM   27  C30 UNL     1      -4.346  40.602 -17.465  1.00  0.00     0.179 C 
HETATM   28  C32 UNL     1      -5.021  39.281 -17.896  1.00  0.00     0.180 C 
HETATM   29  C33 UNL     1      -5.953  39.511 -19.093  1.00  0.00     0.183 C 
HETATM   30  C34 UNL     1      -6.985  40.622 -18.830  1.00  0.00     0.204 C 
BRANCH  27  31
HETATM   31  C31 UNL     1      -2.895  40.672 -17.956  1.00  0.00     0.198 C 
BRANCH  31  32
HETATM   32  O5  UNL     1      -2.842  41.172 -19.286  1.00  0.00    -0.398 OA
HETATM   33  H48 UNL     1      -1.911  41.132 -19.566  1.00  0.00     0.209 HD
ENDBRANCH  31  32
ENDBRANCH  27  31
BRANCH  28  34
HETATM   34  O6  UNL     1      -5.819  38.753 -16.819  1.00  0.00    -0.390 OA
HETATM   35  H50 UNL     1      -5.203  38.489 -16.112  1.00  0.00     0.210 HD
ENDBRANCH  28  34
BRANCH  29  36
HETATM   36  O7  UNL     1      -6.639  38.288 -19.415  1.00  0.00    -0.390 OA
HETATM   37  H52 UNL     1      -6.892  37.921 -18.540  1.00  0.00     0.210 HD
ENDBRANCH  29  36
BRANCH  30  38
HETATM   38  O8  UNL     1      -8.219  40.066 -18.337  1.00  0.00    -0.388 OA
HETATM   39  H54 UNL     1      -8.464  39.379 -18.989  1.00  0.00     0.210 HD
ENDBRANCH  30  38
ENDBRANCH  24  25
ENDBRANCH  20  24
BRANCH   1  40
HETATM   40  C8  UNL     1      -1.601  51.943 -22.203  1.00  0.00    -0.010 C 
HETATM   41  C9  UNL     1      -2.692  52.358 -23.198  1.00  0.00     0.010 C 
BRANCH  40  42
HETATM   42  C7  UNL     1      -0.210  52.409 -22.718  1.00  0.00     0.031 C 
BRANCH  42  43
HETATM   43  C6  UNL     1       0.014  52.500 -24.212  1.00  0.00    -0.027 C 
HETATM   44  C5  UNL     1       0.800  51.714 -24.969  1.00  0.00     0.006 C 
BRANCH  44  45
HETATM   45  C2  UNL     1       1.010  51.782 -26.472  1.00  0.00     0.070 C 
HETATM   46  C3  UNL     1       2.462  51.619 -26.952  1.00  0.00     0.050 C 
HETATM   47  C4  UNL     1       0.501  53.153 -26.949  1.00  0.00     0.050 C 
BRANCH  45  48
HETATM   48  O1  UNL     1       0.140  50.821 -27.097  1.00  0.00    -0.382 OA
HETATM   49  C1  UNL     1      -1.146  51.291 -27.474  1.00  0.00     0.202 C 
ENDBRANCH  45  48
ENDBRANCH  44  45
ENDBRANCH  42  43
ENDBRANCH  40  42
ENDBRANCH   1  40
TORSDOF 12
ENDMDL
MODEL 5
REMARK minimizedAffinity -7.90149736
REMARK CNNscore 0.416316211
REMARK CNNaffinity 7.07392836
REMARK  12 active torsions:
REMARK  status: ('A' for Active; 'I' for Inactive)
REMARK    1  A    between atoms: O1_2  and  C2_3 
REMARK    2  A    between atoms: C2_3  and  C5_6 
REMARK    3  A    between atoms: C6_7  and  C7_8 
REMARK    4  A    between atoms: C7_8  and  C8_9 
REMARK    5  A    between atoms: C8_9  and  C10_11 
REMARK    6  A    between atoms: C28_30  and  O3_31 
REMARK    7  A    between atoms: O3_31  and  C29_32 
REMARK    8  A    between atoms: C30_34  and  C31_35 
REMARK    9  A    between atoms: C31_35  and  O5_36 
REMARK   10  A    between atoms: C32_37  and  O6_38 
REMARK   11  A    between atoms: C33_39  and  O7_40 
REMARK   12  A    between atoms: C34_41  and  O8_42 
ROOT
HETATM    1  C10 UNL     1      -1.455  50.175 -21.389  1.00  0.00    -0.002 C 
HETATM    2  C11 UNL     1      -0.777  48.762 -21.379  1.00  0.00     0.006 C 
HETATM    3  C12 UNL     1      -1.906  47.703 -21.465  1.00  0.00     0.011 C 
HETATM    4  C13 UNL     1      -3.141  48.512 -21.894  1.00  0.00    -0.029 C 
HETATM    5  C14 UNL     1      -2.952  48.727 -23.451  1.00  0.00     0.016 C 
HETATM    6  C15 UNL     1      -4.577  47.893 -21.713  1.00  0.00     0.028 C 
HETATM    7  C16 UNL     1      -4.799  46.577 -21.024  1.00  0.00    -0.021 C 
HETATM    8  C17 UNL     1      -6.036  46.250 -20.601  1.00  0.00     0.008 C 
HETATM    9  C18 UNL     1      -7.228  47.219 -20.684  1.00  0.00     0.092 C 
HETATM   10  O2  UNL     1      -7.061  48.018 -19.501  1.00  0.00    -0.374 OA
HETATM   11  C19 UNL     1      -6.140  49.076 -19.854  1.00  0.00     0.179 C 
HETATM   12  C20 UNL     1      -5.727  48.918 -21.359  1.00  0.00    -0.004 C 
HETATM   13  C21 UNL     1      -5.390  50.292 -21.949  1.00  0.00     0.014 C 
HETATM   14  C22 UNL     1      -4.016  50.864 -21.500  1.00  0.00     0.011 C 
HETATM   15  C23 UNL     1      -2.948  49.824 -21.060  1.00  0.00    -0.032 C 
HETATM   16  C24 UNL     1      -3.023  49.552 -19.527  1.00  0.00     0.016 C 
HETATM   17  C25 UNL     1      -7.066  48.280 -21.805  1.00  0.00     0.036 C 
HETATM   18  C26 UNL     1      -7.264  47.678 -23.197  1.00  0.00     0.011 C 
HETATM   19  C27 UNL     1      -8.625  46.985 -23.295  1.00  0.00     0.033 C 
HETATM   20  C28 UNL     1      -8.851  45.951 -22.173  1.00  0.00     0.136 C 
HETATM   21  C35 UNL     1      -8.642  46.555 -20.745  1.00  0.00     0.014 C 
HETATM   22  C36 UNL     1      -9.756  47.589 -20.417  1.00  0.00     0.021 C 
HETATM   23  C37 UNL     1      -8.805  45.437 -19.684  1.00  0.00     0.021 C 
ENDROOT
BRANCH  20  24
HETATM   24  O3  UNL     1     -10.177  45.413 -22.240  1.00  0.00    -0.352 OA
BRANCH  24  25
HETATM   25  C29 UNL     1     -10.247  43.998 -22.438  1.00  0.00     0.292 C 
HETATM   26  O4  UNL     1      -9.403  43.629 -23.527  1.00  0.00    -0.348 OA
HETATM   27  C30 UNL     1      -9.266  42.206 -23.654  1.00  0.00     0.179 C 
HETATM   28  C32 UNL     1     -10.616  41.464 -23.518  1.00  0.00     0.180 C 
HETATM   29  C33 UNL     1     -11.791  42.429 -23.715  1.00  0.00     0.183 C 
HETATM   30  C34 UNL     1     -11.712  43.650 -22.781  1.00  0.00     0.204 C 
BRANCH  27  31
HETATM   31  C31 UNL     1      -8.621  41.940 -25.019  1.00  0.00     0.198 C 
BRANCH  31  32
HETATM   32  O5  UNL     1      -7.373  42.614 -25.120  1.00  0.00    -0.398 OA
HETATM   33  H48 UNL     1      -7.043  42.464 -26.024  1.00  0.00     0.209 HD
ENDBRANCH  31  32
ENDBRANCH  27  31
BRANCH  28  34
HETATM   34  O6  UNL     1     -10.739  40.890 -22.202  1.00  0.00    -0.390 OA
HETATM   35  H50 UNL     1     -10.069  40.186 -22.134  1.00  0.00     0.210 HD
ENDBRANCH  28  34
BRANCH  29  36
HETATM   36  O7  UNL     1     -13.031  41.735 -23.491  1.00  0.00    -0.390 OA
HETATM   37  H52 UNL     1     -12.854  41.185 -22.697  1.00  0.00     0.210 HD
ENDBRANCH  29  36
BRANCH  30  38
HETATM   38  O8  UNL     1     -12.470  43.421 -21.577  1.00  0.00    -0.388 OA
HETATM   39  H54 UNL     1     -13.359  43.156 -21.886  1.00  0.00     0.210 HD
ENDBRANCH  30  38
ENDBRANCH  24  25
ENDBRANCH  20  24
BRANCH   1  40
HETATM   40  C8  UNL     1      -0.678  51.209 -20.515  1.00  0.00    -0.010 C 
HETATM   41  C9  UNL     1      -1.570  51.830 -19.432  1.00  0.00     0.010 C 
BRANCH  40  42
HETATM   42  C7  UNL     1      -0.076  52.329 -21.410  1.00  0.00     0.031 C 
BRANCH  42  43
HETATM   43  C6  UNL     1      -0.165  52.179 -22.913  1.00  0.00    -0.027 C 
HETATM   44  C5  UNL     1       0.706  52.635 -23.831  1.00  0.00     0.006 C 
BRANCH  44  45
HETATM   45  C2  UNL     1       0.638  52.467 -25.340  1.00  0.00     0.070 C 
HETATM   46  C3  UNL     1      -0.127  53.562 -26.101  1.00  0.00     0.050 C 
HETATM   47  C4  UNL     1      -0.047  51.120 -25.625  1.00  0.00     0.050 C 
BRANCH  45  48
HETATM   48  O1  UNL     1       1.978  52.318 -25.842  1.00  0.00    -0.382 OA
HETATM   49  C1  UNL     1       2.112  51.632 -27.079  1.00  0.00     0.202 C 
ENDBRANCH  45  48
ENDBRANCH  44  45
ENDBRANCH  42  43
ENDBRANCH  40  42
ENDBRANCH   1  40
TORSDOF 12
ENDMDL
MODEL 6
REMARK minimizedAffinity -9.08556843
REMARK CNNscore 0.355512738
REMARK CNNaffinity 6.90490294
REMARK  12 active torsions:
REMARK  status: ('A' for Active; 'I' for Inactive)
REMARK    1  A    between atoms: O1_2  and  C2_3 
REMARK    2  A    between atoms: C2_3  and  C5_6 
REMARK    3  A    between atoms: C6_7  and  C7_8 
REMARK    4  A    between atoms: C7_8  and  C8_9 
REMARK    5  A    between atoms: C8_9  and  C10_11 
REMARK    6  A    between atoms: C28_30  and  O3_31 
REMARK    7  A    between atoms: O3_31  and  C29_32 
REMARK    8  A    between atoms: C30_34  and  C31_35 
REMARK    9  A    between atoms: C31_35  and  O5_36 
REMARK   10  A    between atoms: C32_37  and  O6_38 
REMARK   11  A    between atoms: C33_39  and  O7_40 
REMARK   12  A    between atoms: C34_41  and  O8_42 
ROOT
HETATM    1  C10 UNL     1      -1.153  51.068 -20.223  1.00  0.00    -0.002 C 
HETATM    2  C11 UNL     1      -0.258  49.820 -20.540  1.00  0.00     0.006 C 
HETATM    3  C12 UNL     1      -1.180  48.722 -21.128  1.00  0.00     0.011 C 
HETATM    4  C13 UNL     1      -2.474  49.474 -21.480  1.00  0.00    -0.029 C 
HETATM    5  C14 UNL     1      -2.146  50.209 -22.843  1.00  0.00     0.016 C 
HETATM    6  C15 UNL     1      -3.800  48.664 -21.732  1.00  0.00     0.028 C 
HETATM    7  C16 UNL     1      -3.879  47.178 -21.527  1.00  0.00    -0.021 C 
HETATM    8  C17 UNL     1      -5.086  46.586 -21.429  1.00  0.00     0.008 C 
HETATM    9  C18 UNL     1      -6.403  47.379 -21.400  1.00  0.00     0.092 C 
HETATM   10  O2  UNL     1      -6.507  47.759 -20.018  1.00  0.00    -0.374 OA
HETATM   11  C19 UNL     1      -5.738  48.976 -19.875  1.00  0.00     0.179 C 
HETATM   12  C20 UNL     1      -5.135  49.371 -21.269  1.00  0.00    -0.004 C 
HETATM   13  C21 UNL     1      -4.963  50.893 -21.345  1.00  0.00     0.014 C 
HETATM   14  C22 UNL     1      -3.762  51.445 -20.526  1.00  0.00     0.011 C 
HETATM   15  C23 UNL     1      -2.596  50.453 -20.263  1.00  0.00    -0.032 C 
HETATM   16  C24 UNL     1      -2.798  49.685 -18.921  1.00  0.00     0.016 C 
HETATM   17  C25 UNL     1      -6.292  48.760 -22.099  1.00  0.00     0.036 C 
HETATM   18  C26 UNL     1      -6.228  48.630 -23.621  1.00  0.00     0.011 C 
HETATM   19  C27 UNL     1      -7.437  47.851 -24.145  1.00  0.00     0.033 C 
HETATM   20  C28 UNL     1      -7.616  46.486 -23.448  1.00  0.00     0.136 C 
HETATM   21  C35 UNL     1      -7.673  46.608 -21.890  1.00  0.00     0.014 C 
HETATM   22  C36 UNL     1      -8.972  47.338 -21.443  1.00  0.00     0.021 C 
HETATM   23  C37 UNL     1      -7.770  45.193 -21.265  1.00  0.00     0.021 C 
ENDROOT
BRANCH  20  24
HETATM   24  O3  UNL     1      -8.819  45.846 -23.890  1.00  0.00    -0.352 OA
BRANCH  24  25
HETATM   25  C29 UNL     1      -9.240  46.195 -25.211  1.00  0.00     0.292 C 
HETATM   26  O4  UNL     1      -8.095  46.400 -26.036  1.00  0.00    -0.348 OA
HETATM   27  C30 UNL     1      -8.440  46.554 -27.421  1.00  0.00     0.179 C 
HETATM   28  C32 UNL     1      -9.646  47.498 -27.633  1.00  0.00     0.180 C 
HETATM   29  C33 UNL     1      -9.892  48.356 -26.386  1.00  0.00     0.183 C 
HETATM   30  C34 UNL     1     -10.044  47.510 -25.110  1.00  0.00     0.204 C 
BRANCH  27  31
HETATM   31  C31 UNL     1      -7.191  47.079 -28.137  1.00  0.00     0.198 C 
BRANCH  31  32
HETATM   32  O5  UNL     1      -7.199  48.501 -28.178  1.00  0.00    -0.398 OA
HETATM   33  H48 UNL     1      -6.422  48.773 -28.697  1.00  0.00     0.209 HD
ENDBRANCH  31  32
ENDBRANCH  27  31
BRANCH  28  34
HETATM   34  O6  UNL     1     -10.843  46.732 -27.876  1.00  0.00    -0.390 OA
HETATM   35  H50 UNL     1     -10.727  46.291 -28.737  1.00  0.00     0.210 HD
ENDBRANCH  28  34
BRANCH  29  36
HETATM   36  O7  UNL     1     -11.073  49.156 -26.573  1.00  0.00    -0.390 OA
HETATM   37  H52 UNL     1     -11.712  48.540 -26.992  1.00  0.00     0.210 HD
ENDBRANCH  29  36
BRANCH  30  38
HETATM   38  O8  UNL     1     -11.433  47.232 -24.845  1.00  0.00    -0.388 OA
HETATM   39  H54 UNL     1     -11.870  48.107 -24.851  1.00  0.00     0.210 HD
ENDBRANCH  30  38
ENDBRANCH  24  25
ENDBRANCH  20  24
BRANCH   1  40
HETATM   40  C8  UNL     1      -0.661  51.842 -18.960  1.00  0.00    -0.010 C 
HETATM   41  C9  UNL     1       0.648  52.598 -19.223  1.00  0.00     0.010 C 
BRANCH  40  42
HETATM   42  C7  UNL     1      -0.475  50.864 -17.765  1.00  0.00     0.031 C 
BRANCH  42  43
HETATM   43  C6  UNL     1       0.748  51.019 -16.889  1.00  0.00    -0.027 C 
HETATM   44  C5  UNL     1       0.780  51.208 -15.557  1.00  0.00     0.006 C 
BRANCH  44  45
HETATM   45  C2  UNL     1       2.003  51.338 -14.666  1.00  0.00     0.070 C 
HETATM   46  C3  UNL     1       3.238  51.984 -15.316  1.00  0.00     0.050 C 
HETATM   47  C4  UNL     1       2.392  49.923 -14.203  1.00  0.00     0.050 C 
BRANCH  45  48
HETATM   48  O1  UNL     1       1.620  52.032 -13.465  1.00  0.00    -0.382 OA
HETATM   49  C1  UNL     1       2.545  51.980 -12.388  1.00  0.00     0.202 C 
ENDBRANCH  45  48
ENDBRANCH  44  45
ENDBRANCH  42  43
ENDBRANCH  40  42
ENDBRANCH   1  40
TORSDOF 12
ENDMDL
MODEL 7
REMARK minimizedAffinity -8.73112583
REMARK CNNscore 0.331932217
REMARK CNNaffinity 7.2463603
REMARK  12 active torsions:
REMARK  status: ('A' for Active; 'I' for Inactive)
REMARK    1  A    between atoms: O1_2  and  C2_3 
REMARK    2  A    between atoms: C2_3  and  C5_6 
REMARK    3  A    between atoms: C6_7  and  C7_8 
REMARK    4  A    between atoms: C7_8  and  C8_9 
REMARK    5  A    between atoms: C8_9  and  C10_11 
REMARK    6  A    between atoms: C28_30  and  O3_31 
REMARK    7  A    between atoms: O3_31  and  C29_32 
REMARK    8  A    between atoms: C30_34  and  C31_35 
REMARK    9  A    between atoms: C31_35  and  O5_36 
REMARK   10  A    between atoms: C32_37  and  O6_38 
REMARK   11  A    between atoms: C33_39  and  O7_40 
REMARK   12  A    between atoms: C34_41  and  O8_42 
ROOT
HETATM    1  C10 UNL     1      -3.343  50.273 -24.162  1.00  0.00    -0.002 C 
HETATM    2  C11 UNL     1      -4.377  51.344 -23.672  1.00  0.00     0.006 C 
HETATM    3  C12 UNL     1      -4.565  51.146 -22.146  1.00  0.00     0.011 C 
HETATM    4  C13 UNL     1      -3.387  50.246 -21.741  1.00  0.00    -0.029 C 
HETATM    5  C14 UNL     1      -2.148  51.228 -21.662  1.00  0.00     0.016 C 
HETATM    6  C15 UNL     1      -3.426  49.487 -20.362  1.00  0.00     0.028 C 
HETATM    7  C16 UNL     1      -4.634  49.516 -19.469  1.00  0.00    -0.021 C 
HETATM    8  C17 UNL     1      -4.751  48.604 -18.483  1.00  0.00     0.008 C 
HETATM    9  C18 UNL     1      -3.755  47.447 -18.296  1.00  0.00     0.092 C 
HETATM   10  O2  UNL     1      -4.241  46.465 -19.227  1.00  0.00    -0.374 OA
HETATM   11  C19 UNL     1      -3.656  46.799 -20.508  1.00  0.00     0.179 C 
HETATM   12  C20 UNL     1      -2.742  48.063 -20.342  1.00  0.00    -0.004 C 
HETATM   13  C21 UNL     1      -1.612  48.022 -21.378  1.00  0.00     0.014 C 
HETATM   14  C22 UNL     1      -2.055  48.375 -22.826  1.00  0.00     0.011 C 
HETATM   15  C23 UNL     1      -3.322  49.265 -22.960  1.00  0.00    -0.032 C 
HETATM   16  C24 UNL     1      -4.613  48.397 -23.073  1.00  0.00     0.016 C 
HETATM   17  C25 UNL     1      -2.350  47.761 -18.875  1.00  0.00     0.036 C 
HETATM   18  C26 UNL     1      -1.583  48.761 -18.009  1.00  0.00     0.011 C 
HETATM   19  C27 UNL     1      -1.478  48.255 -16.568  1.00  0.00     0.033 C 
HETATM   20  C28 UNL     1      -2.849  47.887 -15.963  1.00  0.00     0.136 C 
HETATM   21  C35 UNL     1      -3.645  46.871 -16.847  1.00  0.00     0.014 C 
HETATM   22  C36 UNL     1      -2.946  45.482 -16.852  1.00  0.00     0.021 C 
HETATM   23  C37 UNL     1      -5.037  46.619 -16.214  1.00  0.00     0.021 C 
ENDROOT
BRANCH  20  24
HETATM   24  O3  UNL     1      -2.689  47.315 -14.659  1.00  0.00    -0.352 OA
BRANCH  24  25
HETATM   25  C29 UNL     1      -2.659  48.257 -13.584  1.00  0.00     0.292 C 
HETATM   26  O4  UNL     1      -2.982  49.555 -14.080  1.00  0.00    -0.348 OA
HETATM   27  C30 UNL     1      -3.169  50.512 -13.027  1.00  0.00     0.179 C 
HETATM   28  C32 UNL     1      -2.076  50.420 -11.938  1.00  0.00     0.180 C 
HETATM   29  C33 UNL     1      -0.854  49.651 -12.456  1.00  0.00     0.183 C 
HETATM   30  C34 UNL     1      -1.224  48.266 -13.014  1.00  0.00     0.204 C 
BRANCH  27  31
HETATM   31  C31 UNL     1      -3.187  51.898 -13.681  1.00  0.00     0.198 C 
BRANCH  31  32
HETATM   32  O5  UNL     1      -3.562  51.799 -15.049  1.00  0.00    -0.398 OA
HETATM   33  H48 UNL     1      -3.493  52.694 -15.427  1.00  0.00     0.209 HD
ENDBRANCH  31  32
ENDBRANCH  27  31
BRANCH  28  34
HETATM   34  O6  UNL     1      -2.578  49.714 -10.786  1.00  0.00    -0.390 OA
HETATM   35  H50 UNL     1      -3.268  50.274 -10.388  1.00  0.00     0.210 HD
ENDBRANCH  28  34
BRANCH  29  36
HETATM   36  O7  UNL     1       0.107  49.499 -11.397  1.00  0.00    -0.390 OA
HETATM   37  H52 UNL     1      -0.438  49.268 -10.613  1.00  0.00     0.210 HD
ENDBRANCH  29  36
BRANCH  30  38
HETATM   38  O8  UNL     1      -1.078  47.252 -12.001  1.00  0.00    -0.388 OA
HETATM   39  H54 UNL     1      -0.168  47.364 -11.662  1.00  0.00     0.210 HD
ENDBRANCH  30  38
ENDBRANCH  24  25
ENDBRANCH  20  24
BRANCH   1  40
HETATM   40  C8  UNL     1      -3.653  49.770 -25.607  1.00  0.00    -0.010 C 
HETATM   41  C9  UNL     1      -4.286  48.372 -25.604  1.00  0.00     0.010 C 
BRANCH  40  42
HETATM   42  C7  UNL     1      -2.357  49.761 -26.465  1.00  0.00     0.031 C 
BRANCH  42  43
HETATM   43  C6  UNL     1      -1.174  50.579 -25.996  1.00  0.00    -0.027 C 
HETATM   44  C5  UNL     1      -0.177  51.079 -26.749  1.00  0.00     0.006 C 
BRANCH  44  45
HETATM   45  C2  UNL     1       1.000  51.922 -26.290  1.00  0.00     0.070 C 
HETATM   46  C3  UNL     1       2.393  51.332 -26.566  1.00  0.00     0.050 C 
HETATM   47  C4  UNL     1       0.861  52.125 -24.771  1.00  0.00     0.050 C 
BRANCH  45  48
HETATM   48  O1  UNL     1       0.866  53.238 -26.857  1.00  0.00    -0.382 OA
HETATM   49  C1  UNL     1       0.103  54.171 -26.105  1.00  0.00     0.202 C 
ENDBRANCH  45  48
ENDBRANCH  44  45
ENDBRANCH  42  43
ENDBRANCH  40  42
ENDBRANCH   1  40
TORSDOF 12
ENDMDL
MODEL 8
REMARK minimizedAffinity -8.2968235
REMARK CNNscore 0.330936968
REMARK CNNaffinity 6.93772316
REMARK  12 active torsions:
REMARK  status: ('A' for Active; 'I' for Inactive)
REMARK    1  A    between atoms: O1_2  and  C2_3 
REMARK    2  A    between atoms: C2_3  and  C5_6 
REMARK    3  A    between atoms: C6_7  and  C7_8 
REMARK    4  A    between atoms: C7_8  and  C8_9 
REMARK    5  A    between atoms: C8_9  and  C10_11 
REMARK    6  A    between atoms: C28_30  and  O3_31 
REMARK    7  A    between atoms: O3_31  and  C29_32 
REMARK    8  A    between atoms: C30_34  and  C31_35 
REMARK    9  A    between atoms: C31_35  and  O5_36 
REMARK   10  A    between atoms: C32_37  and  O6_38 
REMARK   11  A    between atoms: C33_39  and  O7_40 
REMARK   12  A    between atoms: C34_41  and  O8_42 
ROOT
HETATM    1  C10 UNL     1      -1.513  50.280 -20.283  1.00  0.00    -0.002 C 
HETATM    2  C11 UNL     1      -0.745  48.915 -20.355  1.00  0.00     0.006 C 
HETATM    3  C12 UNL     1      -1.687  47.886 -21.032  1.00  0.00     0.011 C 
HETATM    4  C13 UNL     1      -2.792  48.752 -21.657  1.00  0.00    -0.029 C 
HETATM    5  C14 UNL     1      -2.143  49.327 -22.982  1.00  0.00     0.016 C 
HETATM    6  C15 UNL     1      -4.149  48.083 -22.095  1.00  0.00     0.028 C 
HETATM    7  C16 UNL     1      -4.454  46.639 -21.816  1.00  0.00    -0.021 C 
HETATM    8  C17 UNL     1      -5.726  46.202 -21.903  1.00  0.00     0.008 C 
HETATM    9  C18 UNL     1      -6.915  47.142 -22.162  1.00  0.00     0.092 C 
HETATM   10  O2  UNL     1      -7.204  47.647 -20.848  1.00  0.00    -0.374 OA
HETATM   11  C19 UNL     1      -6.321  48.774 -20.643  1.00  0.00     0.179 C 
HETATM   12  C20 UNL     1      -5.441  48.977 -21.926  1.00  0.00    -0.004 C 
HETATM   13  C21 UNL     1      -5.063  50.457 -22.064  1.00  0.00     0.014 C 
HETATM   14  C22 UNL     1      -3.960  50.932 -21.077  1.00  0.00     0.011 C 
HETATM   15  C23 UNL     1      -2.995  49.836 -20.546  1.00  0.00    -0.032 C 
HETATM   16  C24 UNL     1      -3.523  49.213 -19.218  1.00  0.00     0.016 C 
HETATM   17  C25 UNL     1      -6.507  48.438 -22.913  1.00  0.00     0.036 C 
HETATM   18  C26 UNL     1      -6.199  48.174 -24.387  1.00  0.00     0.011 C 
HETATM   19  C27 UNL     1      -7.390  47.500 -25.073  1.00  0.00     0.033 C 
HETATM   20  C28 UNL     1      -7.862  46.229 -24.337  1.00  0.00     0.136 C 
HETATM   21  C35 UNL     1      -8.170  46.487 -22.825  1.00  0.00     0.014 C 
HETATM   22  C36 UNL     1      -9.421  47.397 -22.667  1.00  0.00     0.021 C 
HETATM   23  C37 UNL     1      -8.555  45.149 -22.142  1.00  0.00     0.021 C 
ENDROOT
BRANCH  20  24
HETATM   24  O3  UNL     1      -9.044  45.698 -24.949  1.00  0.00    -0.352 OA
BRANCH  24  25
HETATM   25  C29 UNL     1      -9.238  46.074 -26.315  1.00  0.00     0.292 C 
HETATM   26  O4  UNL     1     -10.484  46.755 -26.448  1.00  0.00    -0.348 OA
HETATM   27  C30 UNL     1     -10.652  47.338 -27.749  1.00  0.00     0.179 C 
HETATM   28  C32 UNL     1     -10.243  46.377 -28.889  1.00  0.00     0.180 C 
HETATM   29  C33 UNL     1     -10.177  44.930 -28.385  1.00  0.00     0.183 C 
HETATM   30  C34 UNL     1      -9.268  44.777 -27.153  1.00  0.00     0.204 C 
BRANCH  27  31
HETATM   31  C31 UNL     1     -12.124  47.747 -27.868  1.00  0.00     0.198 C 
BRANCH  31  32
HETATM   32  O5  UNL     1     -12.380  48.920 -27.107  1.00  0.00    -0.398 OA
HETATM   33  H48 UNL     1     -13.336  49.093 -27.166  1.00  0.00     0.209 HD
ENDBRANCH  31  32
ENDBRANCH  27  31
BRANCH  28  34
HETATM   34  O6  UNL     1      -8.936  46.723 -29.388  1.00  0.00    -0.390 OA
HETATM   35  H50 UNL     1      -9.019  47.592 -29.822  1.00  0.00     0.210 HD
ENDBRANCH  28  34
BRANCH  29  36
HETATM   36  O7  UNL     1      -9.705  44.071 -29.438  1.00  0.00    -0.390 OA
HETATM   37  H52 UNL     1      -8.972  44.580 -29.847  1.00  0.00     0.210 HD
ENDBRANCH  29  36
BRANCH  30  38
HETATM   38  O8  UNL     1      -7.934  44.401 -27.547  1.00  0.00    -0.388 OA
HETATM   39  H54 UNL     1      -8.052  43.611 -28.111  1.00  0.00     0.210 HD
ENDBRANCH  30  38
ENDBRANCH  24  25
ENDBRANCH  20  24
BRANCH   1  40
HETATM   40  C8  UNL     1      -1.150  51.095 -19.002  1.00  0.00    -0.010 C 
HETATM   41  C9  UNL     1      -0.327  52.347 -19.333  1.00  0.00     0.010 C 
BRANCH  40  42
HETATM   42  C7  UNL     1      -0.371  50.202 -17.996  1.00  0.00     0.031 C 
BRANCH  42  43
HETATM   43  C6  UNL     1       0.632  50.858 -17.073  1.00  0.00    -0.027 C 
HETATM   44  C5  UNL     1       0.695  50.759 -15.732  1.00  0.00     0.006 C 
BRANCH  44  45
HETATM   45  C2  UNL     1       1.714  51.393 -14.801  1.00  0.00     0.070 C 
HETATM   46  C3  UNL     1       2.713  50.426 -14.144  1.00  0.00     0.050 C 
HETATM   47  C4  UNL     1       0.936  52.108 -13.683  1.00  0.00     0.050 C 
BRANCH  45  48
HETATM   48  O1  UNL     1       2.392  52.443 -15.515  1.00  0.00    -0.382 OA
HETATM   49  C1  UNL     1       3.797  52.296 -15.660  1.00  0.00     0.202 C 
ENDBRANCH  45  48
ENDBRANCH  44  45
ENDBRANCH  42  43
ENDBRANCH  40  42
ENDBRANCH   1  40
TORSDOF 12
ENDMDL
MODEL 9
REMARK minimizedAffinity -9.27475739
REMARK CNNscore 0.314455062
REMARK CNNaffinity 7.06100845
REMARK  12 active torsions:
REMARK  status: ('A' for Active; 'I' for Inactive)
REMARK    1  A    between atoms: O1_2  and  C2_3 
REMARK    2  A    between atoms: C2_3  and  C5_6 
REMARK    3  A    between atoms: C6_7  and  C7_8 
REMARK    4  A    between atoms: C7_8  and  C8_9 
REMARK    5  A    between atoms: C8_9  and  C10_11 
REMARK    6  A    between atoms: C28_30  and  O3_31 
REMARK    7  A    between atoms: O3_31  and  C29_32 
REMARK    8  A    between atoms: C30_34  and  C31_35 
REMARK    9  A    between atoms: C31_35  and  O5_36 
REMARK   10  A    between atoms: C32_37  and  O6_38 
REMARK   11  A    between atoms: C33_39  and  O7_40 
REMARK   12  A    between atoms: C34_41  and  O8_42 
ROOT
HETATM    1  C10 UNL     1       0.024  51.585 -20.314  1.00  0.00    -0.002 C 
HETATM    2  C11 UNL     1      -0.684  52.432 -19.202  1.00  0.00     0.006 C 
HETATM    3  C12 UNL     1      -2.085  51.812 -18.965  1.00  0.00     0.011 C 
HETATM    4  C13 UNL     1      -2.003  50.439 -19.653  1.00  0.00    -0.029 C 
HETATM    5  C14 UNL     1      -1.210  49.530 -18.628  1.00  0.00     0.016 C 
HETATM    6  C15 UNL     1      -3.329  49.658 -19.989  1.00  0.00     0.028 C 
HETATM    7  C16 UNL     1      -4.688  50.258 -19.768  1.00  0.00    -0.021 C 
HETATM    8  C17 UNL     1      -5.762  49.705 -20.366  1.00  0.00     0.008 C 
HETATM    9  C18 UNL     1      -5.651  48.546 -21.371  1.00  0.00     0.092 C 
HETATM   10  O2  UNL     1      -5.349  49.228 -22.599  1.00  0.00    -0.374 OA
HETATM   11  C19 UNL     1      -3.915  49.416 -22.615  1.00  0.00     0.179 C 
HETATM   12  C20 UNL     1      -3.300  48.795 -21.313  1.00  0.00    -0.004 C 
HETATM   13  C21 UNL     1      -1.866  48.328 -21.590  1.00  0.00     0.014 C 
HETATM   14  C22 UNL     1      -0.824  49.478 -21.687  1.00  0.00     0.011 C 
HETATM   15  C23 UNL     1      -1.178  50.791 -20.937  1.00  0.00    -0.032 C 
HETATM   16  C24 UNL     1      -1.945  51.783 -21.864  1.00  0.00     0.016 C 
HETATM   17  C25 UNL     1      -4.374  47.689 -21.165  1.00  0.00     0.036 C 
HETATM   18  C26 UNL     1      -4.472  46.803 -19.922  1.00  0.00     0.011 C 
HETATM   19  C27 UNL     1      -5.718  45.916 -19.991  1.00  0.00     0.033 C 
HETATM   20  C28 UNL     1      -7.011  46.721 -20.240  1.00  0.00     0.136 C 
HETATM   21  C35 UNL     1      -6.917  47.638 -21.503  1.00  0.00     0.014 C 
HETATM   22  C36 UNL     1      -6.852  46.781 -22.800  1.00  0.00     0.021 C 
HETATM   23  C37 UNL     1      -8.218  48.470 -21.634  1.00  0.00     0.021 C 
ENDROOT
BRANCH  20  24
HETATM   24  O3  UNL     1      -8.130  45.842 -20.408  1.00  0.00    -0.352 OA
BRANCH  24  25
HETATM   25  C29 UNL     1      -9.154  45.969 -19.418  1.00  0.00     0.292 C 
HETATM   26  O4  UNL     1     -10.209  46.783 -19.928  1.00  0.00    -0.348 OA
HETATM   27  C30 UNL     1     -11.359  46.788 -19.069  1.00  0.00     0.179 C 
HETATM   28  C32 UNL     1     -10.987  46.958 -17.578  1.00  0.00     0.180 C 
HETATM   29  C33 UNL     1      -9.562  47.504 -17.430  1.00  0.00     0.183 C 
HETATM   30  C34 UNL     1      -8.525  46.654 -18.185  1.00  0.00     0.204 C 
BRANCH  27  31
HETATM   31  C31 UNL     1     -12.269  47.924 -19.549  1.00  0.00     0.198 C 
BRANCH  31  32
HETATM   32  O5  UNL     1     -13.162  47.458 -20.553  1.00  0.00    -0.398 OA
HETATM   33  H48 UNL     1     -13.666  48.231 -20.864  1.00  0.00     0.209 HD
ENDBRANCH  31  32
ENDBRANCH  27  31
BRANCH  28  34
HETATM   34  O6  UNL     1     -11.038  45.686 -16.903  1.00  0.00    -0.390 OA
HETATM   35  H50 UNL     1     -11.972  45.408 -16.889  1.00  0.00     0.210 HD
ENDBRANCH  28  34
BRANCH  29  36
HETATM   36  O7  UNL     1      -9.208  47.565 -16.038  1.00  0.00    -0.390 OA
HETATM   37  H52 UNL     1      -9.551  46.722 -15.669  1.00  0.00     0.210 HD
ENDBRANCH  29  36
BRANCH  30  38
HETATM   38  O8  UNL     1      -7.936  45.672 -17.310  1.00  0.00    -0.388 OA
HETATM   39  H54 UNL     1      -7.614  46.182 -16.540  1.00  0.00     0.210 HD
ENDBRANCH  30  38
ENDBRANCH  24  25
ENDBRANCH  20  24
BRANCH   1  40
HETATM   40  C8  UNL     1       0.946  52.458 -21.223  1.00  0.00    -0.010 C 
HETATM   41  C9  UNL     1       1.448  53.712 -20.496  1.00  0.00     0.010 C 
BRANCH  40  42
HETATM   42  C7  UNL     1       0.195  52.865 -22.522  1.00  0.00     0.031 C 
BRANCH  42  43
HETATM   43  C6  UNL     1       0.689  52.320 -23.844  1.00  0.00    -0.027 C 
HETATM   44  C5  UNL     1       0.209  52.594 -25.070  1.00  0.00     0.006 C 
BRANCH  44  45
HETATM   45  C2  UNL     1       0.715  52.071 -26.404  1.00  0.00     0.070 C 
HETATM   46  C3  UNL     1      -0.117  50.945 -27.040  1.00  0.00     0.050 C 
HETATM   47  C4  UNL     1       2.143  51.542 -26.183  1.00  0.00     0.050 C 
BRANCH  45  48
HETATM   48  O1  UNL     1       0.864  53.185 -27.303  1.00  0.00    -0.382 OA
HETATM   49  C1  UNL     1      -0.327  53.668 -27.907  1.00  0.00     0.202 C 
ENDBRANCH  45  48
ENDBRANCH  44  45
ENDBRANCH  42  43
ENDBRANCH  40  42
ENDBRANCH   1  40
TORSDOF 12
ENDMDL
