MODEL 1
REMARK minimizedAffinity -6.96531582
REMARK CNNscore 0.487667561
REMARK CNNaffinity 6.75773811
REMARK  8 active torsions:
REMARK  status: ('A' for Active; 'I' for Inactive)
REMARK    1  A    between atoms: C4_4  and  C5_5 
REMARK    2  A    between atoms: C5_5  and  C6_6 
REMARK    3  A    between atoms: C6_6  and  C7_7 
REMARK    4  A    between atoms: C7_7  and  C9_9 
REMARK    5  A    between atoms: C21_21  and  C22_22 
REMARK    6  A    between atoms: C22_22  and  C23_23 
REMARK    7  A    between atoms: C23_23  and  C24_24 
REMARK    8  A    between atoms: C24_24  and  O1_25 
ROOT
HETATM    1  C9  UNL     1      -1.327  11.880  17.538  1.00  0.00    -0.002 C 
HETATM    2  C10 UNL     1      -2.444  12.837  17.027  1.00  0.00     0.006 C 
HETATM    3  C11 UNL     1      -3.305  12.023  16.024  1.00  0.00     0.011 C 
HETATM    4  C12 UNL     1      -2.489  10.737  15.763  1.00  0.00    -0.032 C 
HETATM    5  C13 UNL     1      -1.423  11.146  14.693  1.00  0.00     0.016 C 
HETATM    6  C14 UNL     1      -3.299   9.487  15.323  1.00  0.00     0.003 C 
HETATM    7  C15 UNL     1      -4.129   9.653  14.031  1.00  0.00     0.010 C 
HETATM    8  C16 UNL     1      -4.755   8.336  13.558  1.00  0.00     0.035 C 
HETATM    9  C17 UNL     1      -4.935   7.370  14.707  1.00  0.00    -0.073 C 
HETATM   10  C18 UNL     1      -6.148   6.963  15.166  1.00  0.00    -0.085 C 
HETATM   11  C19 UNL     1      -6.344   5.967  16.289  1.00  0.00     0.043 C 
HETATM   12  C20 UNL     1      -7.474   7.447  14.624  1.00  0.00     0.043 C 
HETATM   13  C21 UNL     1      -3.590   6.948  15.356  1.00  0.00     0.023 C 
HETATM   14  C25 UNL     1      -2.487   8.123  15.337  1.00  0.00    -0.032 C 
HETATM   15  C26 UNL     1      -1.545   7.988  14.112  1.00  0.00     0.016 C 
HETATM   16  C27 UNL     1      -1.574   8.010  16.618  1.00  0.00     0.011 C 
HETATM   17  C28 UNL     1      -0.906   9.310  17.124  1.00  0.00     0.011 C 
HETATM   18  C29 UNL     1      -1.906  10.473  17.205  1.00  0.00    -0.032 C 
HETATM   19  C30 UNL     1      -2.973  10.086  18.278  1.00  0.00     0.016 C 
ENDROOT
BRANCH   1  20
HETATM   20  C7  UNL     1      -0.773  12.150  18.971  1.00  0.00    -0.014 C 
HETATM   21  C8  UNL     1      -0.660  13.630  19.352  1.00  0.00     0.010 C 
BRANCH  20  22
HETATM   22  C6  UNL     1       0.609  11.447  19.119  1.00  0.00     0.008 C 
BRANCH  22  23
HETATM   23  C5  UNL     1       0.801  10.592  20.380  1.00  0.00     0.028 C 
BRANCH  23  24
HETATM   24  C4  UNL     1       2.169  10.654  20.999  1.00  0.00    -0.025 C 
HETATM   25  C2  UNL     1       2.718   9.769  21.855  1.00  0.00    -0.091 C 
HETATM   26  C1  UNL     1       4.104   9.985  22.401  1.00  0.00     0.042 C 
HETATM   27  C3  UNL     1       2.048   8.513  22.336  1.00  0.00     0.042 C 
ENDBRANCH  23  24
ENDBRANCH  22  23
ENDBRANCH  20  22
ENDBRANCH   1  20
BRANCH  13  28
HETATM   28  C22 UNL     1      -3.175   5.568  14.782  1.00  0.00     0.012 C 
BRANCH  28  29
HETATM   29  C23 UNL     1      -3.940   5.154  13.519  1.00  0.00     0.027 C 
BRANCH  29  30
HETATM   30  C24 UNL     1      -3.117   4.232  12.626  1.00  0.00     0.164 C 
BRANCH  30  31
HETATM   31  O1  UNL     1      -3.714   4.142  11.342  1.00  0.00    -0.401 OA
HETATM   32  H42 UNL     1      -3.157   3.551  10.807  1.00  0.00     0.209 HD
ENDBRANCH  30  31
ENDBRANCH  29  30
ENDBRANCH  28  29
ENDBRANCH  13  28
TORSDOF 8
ENDMDL
MODEL 2
REMARK minimizedAffinity -7.40918493
REMARK CNNscore 0.485510975
REMARK CNNaffinity 6.80151796
REMARK  8 active torsions:
REMARK  status: ('A' for Active; 'I' for Inactive)
REMARK    1  A    between atoms: C4_4  and  C5_5 
REMARK    2  A    between atoms: C5_5  and  C6_6 
REMARK    3  A    between atoms: C6_6  and  C7_7 
REMARK    4  A    between atoms: C7_7  and  C9_9 
REMARK    5  A    between atoms: C21_21  and  C22_22 
REMARK    6  A    between atoms: C22_22  and  C23_23 
REMARK    7  A    between atoms: C23_23  and  C24_24 
REMARK    8  A    between atoms: C24_24  and  O1_25 
ROOT
HETATM    1  C9  UNL     1       0.766   7.298  10.879  1.00  0.00    -0.002 C 
HETATM    2  C10 UNL     1      -0.045   6.047  10.432  1.00  0.00     0.006 C 
HETATM    3  C11 UNL     1      -1.020   5.710  11.593  1.00  0.00     0.011 C 
HETATM    4  C12 UNL     1      -0.534   6.578  12.775  1.00  0.00    -0.032 C 
HETATM    5  C13 UNL     1       0.661   5.782  13.396  1.00  0.00     0.016 C 
HETATM    6  C14 UNL     1      -1.602   6.943  13.843  1.00  0.00     0.003 C 
HETATM    7  C15 UNL     1      -2.286   5.744  14.536  1.00  0.00     0.010 C 
HETATM    8  C16 UNL     1      -3.190   6.171  15.698  1.00  0.00     0.035 C 
HETATM    9  C17 UNL     1      -3.672   7.593  15.525  1.00  0.00    -0.073 C 
HETATM   10  C18 UNL     1      -4.974   7.927  15.317  1.00  0.00    -0.085 C 
HETATM   11  C19 UNL     1      -5.477   9.348  15.181  1.00  0.00     0.043 C 
HETATM   12  C20 UNL     1      -6.103   6.930  15.193  1.00  0.00     0.043 C 
HETATM   13  C21 UNL     1      -2.515   8.628  15.534  1.00  0.00     0.023 C 
HETATM   14  C25 UNL     1      -1.156   8.056  14.883  1.00  0.00    -0.032 C 
HETATM   15  C26 UNL     1      -0.205   7.495  15.973  1.00  0.00     0.016 C 
HETATM   16  C27 UNL     1      -0.378   9.229  14.172  1.00  0.00     0.011 C 
HETATM   17  C28 UNL     1       0.560   8.846  13.004  1.00  0.00     0.011 C 
HETATM   18  C29 UNL     1      -0.123   7.895  12.010  1.00  0.00    -0.032 C 
HETATM   19  C30 UNL     1      -1.314   8.677  11.372  1.00  0.00     0.016 C 
ENDROOT
BRANCH   1  20
HETATM   20  C7  UNL     1       1.283   8.240   9.747  1.00  0.00    -0.014 C 
HETATM   21  C8  UNL     1       0.343   8.380   8.544  1.00  0.00     0.010 C 
BRANCH  20  22
HETATM   22  C6  UNL     1       2.686   7.749   9.282  1.00  0.00     0.008 C 
BRANCH  22  23
HETATM   23  C5  UNL     1       2.922   6.232   9.336  1.00  0.00     0.028 C 
BRANCH  23  24
HETATM   24  C4  UNL     1       3.022   5.548   8.001  1.00  0.00    -0.025 C 
HETATM   25  C2  UNL     1       3.613   4.366   7.734  1.00  0.00    -0.091 C 
HETATM   26  C1  UNL     1       3.641   3.821   6.331  1.00  0.00     0.042 C 
HETATM   27  C3  UNL     1       4.274   3.486   8.757  1.00  0.00     0.042 C 
ENDBRANCH  23  24
ENDBRANCH  22  23
ENDBRANCH  20  22
ENDBRANCH   1  20
BRANCH  13  28
HETATM   28  C22 UNL     1      -2.422   9.253  16.950  1.00  0.00     0.012 C 
BRANCH  28  29
HETATM   29  C23 UNL     1      -2.320  10.783  16.959  1.00  0.00     0.027 C 
BRANCH  29  30
HETATM   30  C24 UNL     1      -3.608  11.441  17.442  1.00  0.00     0.164 C 
BRANCH  30  31
HETATM   31  O1  UNL     1      -3.728  11.297  18.849  1.00  0.00    -0.401 OA
HETATM   32  H42 UNL     1      -4.556  11.732  19.112  1.00  0.00     0.209 HD
ENDBRANCH  30  31
ENDBRANCH  29  30
ENDBRANCH  28  29
ENDBRANCH  13  28
TORSDOF 8
ENDMDL
MODEL 3
REMARK minimizedAffinity -5.72555161
REMARK CNNscore 0.344436705
REMARK CNNaffinity 6.18682241
REMARK  8 active torsions:
REMARK  status: ('A' for Active; 'I' for Inactive)
REMARK    1  A    between atoms: C4_4  and  C5_5 
REMARK    2  A    between atoms: C5_5  and  C6_6 
REMARK    3  A    between atoms: C6_6  and  C7_7 
REMARK    4  A    between atoms: C7_7  and  C9_9 
REMARK    5  A    between atoms: C21_21  and  C22_22 
REMARK    6  A    between atoms: C22_22  and  C23_23 
REMARK    7  A    between atoms: C23_23  and  C24_24 
REMARK    8  A    between atoms: C24_24  and  O1_25 
ROOT
HETATM    1  C9  UNL     1     -15.204   6.209  23.366  1.00  0.00    -0.002 C 
HETATM    2  C10 UNL     1     -16.450   6.840  24.053  1.00  0.00     0.006 C 
HETATM    3  C11 UNL     1     -16.008   8.231  24.586  1.00  0.00     0.011 C 
HETATM    4  C12 UNL     1     -14.469   8.227  24.459  1.00  0.00    -0.032 C 
HETATM    5  C13 UNL     1     -13.962   7.454  25.722  1.00  0.00     0.016 C 
HETATM    6  C14 UNL     1     -13.788   9.616  24.319  1.00  0.00     0.003 C 
HETATM    7  C15 UNL     1     -14.050  10.604  25.478  1.00  0.00     0.010 C 
HETATM    8  C16 UNL     1     -13.207  11.881  25.366  1.00  0.00     0.035 C 
HETATM    9  C17 UNL     1     -12.808  12.152  23.934  1.00  0.00    -0.073 C 
HETATM   10  C18 UNL     1     -13.246  13.223  23.220  1.00  0.00    -0.085 C 
HETATM   11  C19 UNL     1     -12.825  13.529  21.798  1.00  0.00     0.043 C 
HETATM   12  C20 UNL     1     -14.215  14.260  23.741  1.00  0.00     0.043 C 
HETATM   13  C21 UNL     1     -11.905  11.039  23.338  1.00  0.00     0.023 C 
HETATM   14  C25 UNL     1     -12.255   9.573  23.909  1.00  0.00    -0.032 C 
HETATM   15  C26 UNL     1     -11.337   9.203  25.105  1.00  0.00     0.016 C 
HETATM   16  C27 UNL     1     -11.989   8.494  22.791  1.00  0.00     0.011 C 
HETATM   17  C28 UNL     1     -12.803   7.181  22.870  1.00  0.00     0.011 C 
HETATM   18  C29 UNL     1     -14.298   7.448  23.098  1.00  0.00    -0.032 C 
HETATM   19  C30 UNL     1     -14.825   8.210  21.841  1.00  0.00     0.016 C 
ENDROOT
BRANCH   1  20
HETATM   20  C7  UNL     1     -15.476   5.206  22.202  1.00  0.00    -0.014 C 
HETATM   21  C8  UNL     1     -16.949   4.825  22.011  1.00  0.00     0.010 C 
BRANCH  20  22
HETATM   22  C6  UNL     1     -14.612   3.930  22.422  1.00  0.00     0.008 C 
BRANCH  22  23
HETATM   23  C5  UNL     1     -13.928   3.805  23.791  1.00  0.00     0.028 C 
BRANCH  23  24
HETATM   24  C4  UNL     1     -12.818   2.794  23.868  1.00  0.00    -0.025 C 
HETATM   25  C2  UNL     1     -12.406   2.117  24.958  1.00  0.00    -0.091 C 
HETATM   26  C1  UNL     1     -11.262   1.143  24.871  1.00  0.00     0.042 C 
HETATM   27  C3  UNL     1     -13.018   2.238  26.326  1.00  0.00     0.042 C 
ENDBRANCH  23  24
ENDBRANCH  22  23
ENDBRANCH  20  22
ENDBRANCH   1  20
BRANCH  13  28
HETATM   28  C22 UNL     1     -10.428  11.505  23.420  1.00  0.00     0.012 C 
BRANCH  28  29
HETATM   29  C23 UNL     1     -10.168  12.598  24.463  1.00  0.00     0.027 C 
BRANCH  29  30
HETATM   30  C24 UNL     1      -8.940  13.436  24.121  1.00  0.00     0.164 C 
BRANCH  30  31
HETATM   31  O1  UNL     1      -7.913  12.603  23.605  1.00  0.00    -0.401 OA
HETATM   32  H42 UNL     1      -7.156  13.177  23.398  1.00  0.00     0.209 HD
ENDBRANCH  30  31
ENDBRANCH  29  30
ENDBRANCH  28  29
ENDBRANCH  13  28
TORSDOF 8
ENDMDL
MODEL 4
REMARK minimizedAffinity -5.96386242
REMARK CNNscore 0.341755927
REMARK CNNaffinity 6.59039164
REMARK  8 active torsions:
REMARK  status: ('A' for Active; 'I' for Inactive)
REMARK    1  A    between atoms: C4_4  and  C5_5 
REMARK    2  A    between atoms: C5_5  and  C6_6 
REMARK    3  A    between atoms: C6_6  and  C7_7 
REMARK    4  A    between atoms: C7_7  and  C9_9 
REMARK    5  A    between atoms: C21_21  and  C22_22 
REMARK    6  A    between atoms: C22_22  and  C23_23 
REMARK    7  A    between atoms: C23_23  and  C24_24 
REMARK    8  A    between atoms: C24_24  and  O1_25 
ROOT
HETATM    1  C9  UNL     1      -9.699   7.835  14.860  1.00  0.00    -0.002 C 
HETATM    2  C10 UNL     1      -9.707   8.365  16.323  1.00  0.00     0.006 C 
HETATM    3  C11 UNL     1     -10.957   9.277  16.460  1.00  0.00     0.011 C 
HETATM    4  C12 UNL     1     -11.451   9.481  15.011  1.00  0.00    -0.032 C 
HETATM    5  C13 UNL     1     -10.544  10.617  14.432  1.00  0.00     0.016 C 
HETATM    6  C14 UNL     1     -12.961   9.803  14.839  1.00  0.00     0.003 C 
HETATM    7  C15 UNL     1     -13.457  11.071  15.570  1.00  0.00     0.010 C 
HETATM    8  C16 UNL     1     -14.905  11.429  15.213  1.00  0.00     0.035 C 
HETATM    9  C17 UNL     1     -15.675  10.211  14.755  1.00  0.00    -0.073 C 
HETATM   10  C18 UNL     1     -16.721   9.679  15.441  1.00  0.00    -0.085 C 
HETATM   11  C19 UNL     1     -17.525   8.484  14.976  1.00  0.00     0.043 C 
HETATM   12  C20 UNL     1     -17.228  10.201  16.766  1.00  0.00     0.043 C 
HETATM   13  C21 UNL     1     -15.099   9.587  13.455  1.00  0.00     0.023 C 
HETATM   14  C25 UNL     1     -13.497   9.729  13.347  1.00  0.00    -0.032 C 
HETATM   15  C26 UNL     1     -13.099  10.978  12.517  1.00  0.00     0.016 C 
HETATM   16  C27 UNL     1     -12.908   8.480  12.586  1.00  0.00     0.011 C 
HETATM   17  C28 UNL     1     -11.444   8.089  12.900  1.00  0.00     0.011 C 
HETATM   18  C29 UNL     1     -11.175   8.048  14.411  1.00  0.00    -0.032 C 
HETATM   19  C30 UNL     1     -12.065   6.911  15.005  1.00  0.00     0.016 C 
ENDROOT
BRANCH   1  20
HETATM   20  C7  UNL     1      -9.030   6.445  14.620  1.00  0.00    -0.014 C 
HETATM   21  C8  UNL     1      -8.150   5.946  15.772  1.00  0.00     0.010 C 
BRANCH  20  22
HETATM   22  C6  UNL     1      -8.210   6.500  13.297  1.00  0.00     0.008 C 
BRANCH  22  23
HETATM   23  C5  UNL     1      -6.867   5.754  13.303  1.00  0.00     0.028 C 
BRANCH  23  24
HETATM   24  C4  UNL     1      -6.878   4.403  12.646  1.00  0.00    -0.025 C 
HETATM   25  C2  UNL     1      -5.810   3.664  12.284  1.00  0.00    -0.091 C 
HETATM   26  C1  UNL     1      -5.991   2.327  11.617  1.00  0.00     0.042 C 
HETATM   27  C3  UNL     1      -4.377   4.062  12.503  1.00  0.00     0.042 C 
ENDBRANCH  23  24
ENDBRANCH  22  23
ENDBRANCH  20  22
ENDBRANCH   1  20
BRANCH  13  28
HETATM   28  C22 UNL     1     -15.944  10.083  12.253  1.00  0.00     0.012 C 
BRANCH  28  29
HETATM   29  C23 UNL     1     -16.569   8.961  11.415  1.00  0.00     0.027 C 
BRANCH  29  30
HETATM   30  C24 UNL     1     -17.859   9.404  10.733  1.00  0.00     0.164 C 
BRANCH  30  31
HETATM   31  O1  UNL     1     -18.770   8.318  10.666  1.00  0.00    -0.401 OA
HETATM   32  H42 UNL     1     -19.574   8.645  10.230  1.00  0.00     0.209 HD
ENDBRANCH  30  31
ENDBRANCH  29  30
ENDBRANCH  28  29
ENDBRANCH  13  28
TORSDOF 8
ENDMDL
MODEL 5
REMARK minimizedAffinity -6.01470137
REMARK CNNscore 0.285029173
REMARK CNNaffinity 6.04486847
REMARK  8 active torsions:
REMARK  status: ('A' for Active; 'I' for Inactive)
REMARK    1  A    between atoms: C4_4  and  C5_5 
REMARK    2  A    between atoms: C5_5  and  C6_6 
REMARK    3  A    between atoms: C6_6  and  C7_7 
REMARK    4  A    between atoms: C7_7  and  C9_9 
REMARK    5  A    between atoms: C21_21  and  C22_22 
REMARK    6  A    between atoms: C22_22  and  C23_23 
REMARK    7  A    between atoms: C23_23  and  C24_24 
REMARK    8  A    between atoms: C24_24  and  O1_25 
ROOT
HETATM    1  C9  UNL     1     -12.152  10.741  23.816  1.00  0.00    -0.002 C 
HETATM    2  C10 UNL     1     -13.029  11.497  24.856  1.00  0.00     0.006 C 
HETATM    3  C11 UNL     1     -14.057  10.469  25.404  1.00  0.00     0.011 C 
HETATM    4  C12 UNL     1     -13.937   9.254  24.457  1.00  0.00    -0.032 C 
HETATM    5  C13 UNL     1     -14.804   9.628  23.210  1.00  0.00     0.016 C 
HETATM    6  C14 UNL     1     -14.342   7.878  25.052  1.00  0.00     0.003 C 
HETATM    7  C15 UNL     1     -15.791   7.781  25.577  1.00  0.00     0.010 C 
HETATM    8  C16 UNL     1     -16.179   6.354  25.981  1.00  0.00     0.035 C 
HETATM    9  C17 UNL     1     -14.961   5.536  26.344  1.00  0.00    -0.073 C 
HETATM   10  C18 UNL     1     -14.714   5.067  27.597  1.00  0.00    -0.085 C 
HETATM   11  C19 UNL     1     -13.520   4.215  27.968  1.00  0.00     0.043 C 
HETATM   12  C20 UNL     1     -15.595   5.331  28.797  1.00  0.00     0.043 C 
HETATM   13  C21 UNL     1     -13.982   5.349  25.154  1.00  0.00     0.023 C 
HETATM   14  C25 UNL     1     -13.946   6.622  24.166  1.00  0.00    -0.032 C 
HETATM   15  C26 UNL     1     -14.906   6.425  22.963  1.00  0.00     0.016 C 
HETATM   16  C27 UNL     1     -12.498   6.779  23.561  1.00  0.00     0.011 C 
HETATM   17  C28 UNL     1     -12.066   8.198  23.123  1.00  0.00     0.011 C 
HETATM   18  C29 UNL     1     -12.380   9.248  24.199  1.00  0.00    -0.032 C 
HETATM   19  C30 UNL     1     -11.513   8.897  25.450  1.00  0.00     0.016 C 
ENDROOT
BRANCH   1  20
HETATM   20  C7  UNL     1     -10.691  11.256  23.623  1.00  0.00    -0.014 C 
HETATM   21  C8  UNL     1     -10.323  12.481  24.467  1.00  0.00     0.010 C 
BRANCH  20  22
HETATM   22  C6  UNL     1     -10.455  11.550  22.112  1.00  0.00     0.008 C 
BRANCH  22  23
HETATM   23  C5  UNL     1     -10.075  12.995  21.756  1.00  0.00     0.028 C 
BRANCH  23  24
HETATM   24  C4  UNL     1      -8.806  13.151  20.966  1.00  0.00    -0.025 C 
HETATM   25  C2  UNL     1      -7.563  13.346  21.451  1.00  0.00    -0.091 C 
HETATM   26  C1  UNL     1      -6.390  13.500  20.520  1.00  0.00     0.042 C 
HETATM   27  C3  UNL     1      -7.212  13.418  22.911  1.00  0.00     0.042 C 
ENDBRANCH  23  24
ENDBRANCH  22  23
ENDBRANCH  20  22
ENDBRANCH   1  20
BRANCH  13  28
HETATM   28  C22 UNL     1     -14.236   3.957  24.519  1.00  0.00     0.012 C 
BRANCH  28  29
HETATM   29  C23 UNL     1     -12.962   3.164  24.207  1.00  0.00     0.027 C 
BRANCH  29  30
HETATM   30  C24 UNL     1     -12.864   1.887  25.036  1.00  0.00     0.164 C 
BRANCH  30  31
HETATM   31  O1  UNL     1     -13.907   0.994  24.676  1.00  0.00    -0.401 OA
HETATM   32  H42 UNL     1     -13.804   0.198  25.222  1.00  0.00     0.209 HD
ENDBRANCH  30  31
ENDBRANCH  29  30
ENDBRANCH  28  29
ENDBRANCH  13  28
TORSDOF 8
ENDMDL
MODEL 6
REMARK minimizedAffinity -5.59331942
REMARK CNNscore 0.219314218
REMARK CNNaffinity 5.932899
REMARK  8 active torsions:
REMARK  status: ('A' for Active; 'I' for Inactive)
REMARK    1  A    between atoms: C4_4  and  C5_5 
REMARK    2  A    between atoms: C5_5  and  C6_6 
REMARK    3  A    between atoms: C6_6  and  C7_7 
REMARK    4  A    between atoms: C7_7  and  C9_9 
REMARK    5  A    between atoms: C21_21  and  C22_22 
REMARK    6  A    between atoms: C22_22  and  C23_23 
REMARK    7  A    between atoms: C23_23  and  C24_24 
REMARK    8  A    between atoms: C24_24  and  O1_25 
ROOT
HETATM    1  C9  UNL     1      -2.144  10.313  16.535  1.00  0.00    -0.002 C 
HETATM    2  C10 UNL     1      -2.281   9.595  17.910  1.00  0.00     0.006 C 
HETATM    3  C11 UNL     1      -3.155  10.513  18.808  1.00  0.00     0.011 C 
HETATM    4  C12 UNL     1      -3.239  11.848  18.036  1.00  0.00    -0.032 C 
HETATM    5  C13 UNL     1      -1.906  12.594  18.374  1.00  0.00     0.016 C 
HETATM    6  C14 UNL     1      -4.484  12.731  18.324  1.00  0.00     0.003 C 
HETATM    7  C15 UNL     1      -4.672  13.156  19.797  1.00  0.00     0.010 C 
HETATM    8  C16 UNL     1      -5.809  14.167  19.980  1.00  0.00     0.035 C 
HETATM    9  C17 UNL     1      -6.827  14.056  18.868  1.00  0.00    -0.073 C 
HETATM   10  C18 UNL     1      -8.109  13.646  19.058  1.00  0.00    -0.085 C 
HETATM   11  C19 UNL     1      -9.150  13.566  17.962  1.00  0.00     0.043 C 
HETATM   12  C20 UNL     1      -8.678  13.210  20.389  1.00  0.00     0.043 C 
HETATM   13  C21 UNL     1      -6.234  14.388  17.472  1.00  0.00     0.023 C 
HETATM   14  C25 UNL     1      -4.691  13.946  17.324  1.00  0.00    -0.032 C 
HETATM   15  C26 UNL     1      -3.736  15.129  17.632  1.00  0.00     0.016 C 
HETATM   16  C27 UNL     1      -4.406  13.518  15.833  1.00  0.00     0.011 C 
HETATM   17  C28 UNL     1      -3.256  12.512  15.596  1.00  0.00     0.011 C 
HETATM   18  C29 UNL     1      -3.337  11.314  16.554  1.00  0.00    -0.032 C 
HETATM   19  C30 UNL     1      -4.659  10.550  16.223  1.00  0.00     0.016 C 
ENDROOT
BRANCH   1  20
HETATM   20  C7  UNL     1      -1.942   9.402  15.284  1.00  0.00    -0.014 C 
HETATM   21  C8  UNL     1      -2.235  10.078  13.940  1.00  0.00     0.010 C 
BRANCH  20  22
HETATM   22  C6  UNL     1      -2.814   8.121  15.447  1.00  0.00     0.008 C 
BRANCH  22  23
HETATM   23  C5  UNL     1      -3.163   7.374  14.151  1.00  0.00     0.028 C 
BRANCH  23  24
HETATM   24  C4  UNL     1      -4.625   7.088  13.946  1.00  0.00    -0.025 C 
HETATM   25  C2  UNL     1      -5.171   5.969  13.431  1.00  0.00    -0.091 C 
HETATM   26  C1  UNL     1      -6.664   5.843  13.277  1.00  0.00     0.042 C 
HETATM   27  C3  UNL     1      -4.395   4.763  12.980  1.00  0.00     0.042 C 
ENDBRANCH  23  24
ENDBRANCH  22  23
ENDBRANCH  20  22
ENDBRANCH   1  20
BRANCH  13  28
HETATM   28  C22 UNL     1      -6.595  15.854  17.118  1.00  0.00     0.012 C 
BRANCH  28  29
HETATM   29  C23 UNL     1      -7.690  15.995  16.054  1.00  0.00     0.027 C 
BRANCH  29  30
HETATM   30  C24 UNL     1      -7.225  15.514  14.684  1.00  0.00     0.164 C 
BRANCH  30  31
HETATM   31  O1  UNL     1      -7.905  14.317  14.335  1.00  0.00    -0.401 OA
HETATM   32  H42 UNL     1      -7.582  14.050  13.458  1.00  0.00     0.209 HD
ENDBRANCH  30  31
ENDBRANCH  29  30
ENDBRANCH  28  29
ENDBRANCH  13  28
TORSDOF 8
ENDMDL
MODEL 7
REMARK minimizedAffinity -7.34232664
REMARK CNNscore 0.213911042
REMARK CNNaffinity 6.75606728
REMARK  8 active torsions:
REMARK  status: ('A' for Active; 'I' for Inactive)
REMARK    1  A    between atoms: C4_4  and  C5_5 
REMARK    2  A    between atoms: C5_5  and  C6_6 
REMARK    3  A    between atoms: C6_6  and  C7_7 
REMARK    4  A    between atoms: C7_7  and  C9_9 
REMARK    5  A    between atoms: C21_21  and  C22_22 
REMARK    6  A    between atoms: C22_22  and  C23_23 
REMARK    7  A    between atoms: C23_23  and  C24_24 
REMARK    8  A    between atoms: C24_24  and  O1_25 
ROOT
HETATM    1  C9  UNL     1      -0.171   7.185  13.210  1.00  0.00    -0.002 C 
HETATM    2  C10 UNL     1       0.074   5.823  13.923  1.00  0.00     0.006 C 
HETATM    3  C11 UNL     1      -1.250   5.457  14.650  1.00  0.00     0.011 C 
HETATM    4  C12 UNL     1      -2.100   6.745  14.585  1.00  0.00    -0.032 C 
HETATM    5  C13 UNL     1      -1.571   7.638  15.755  1.00  0.00     0.016 C 
HETATM    6  C14 UNL     1      -3.640   6.554  14.654  1.00  0.00     0.003 C 
HETATM    7  C15 UNL     1      -4.165   5.841  15.920  1.00  0.00     0.010 C 
HETATM    8  C16 UNL     1      -5.696   5.849  16.009  1.00  0.00     0.035 C 
HETATM    9  C17 UNL     1      -6.326   5.981  14.641  1.00  0.00    -0.073 C 
HETATM   10  C18 UNL     1      -7.069   5.004  14.056  1.00  0.00    -0.085 C 
HETATM   11  C19 UNL     1      -7.737   5.136  12.705  1.00  0.00     0.043 C 
HETATM   12  C20 UNL     1      -7.333   3.648  14.670  1.00  0.00     0.043 C 
HETATM   13  C21 UNL     1      -5.972   7.321  13.942  1.00  0.00     0.023 C 
HETATM   14  C25 UNL     1      -4.492   7.847  14.303  1.00  0.00    -0.032 C 
HETATM   15  C26 UNL     1      -4.528   8.863  15.475  1.00  0.00     0.016 C 
HETATM   16  C27 UNL     1      -3.888   8.614  13.065  1.00  0.00     0.011 C 
HETATM   17  C28 UNL     1      -2.347   8.649  12.940  1.00  0.00     0.011 C 
HETATM   18  C29 UNL     1      -1.725   7.259  13.141  1.00  0.00    -0.032 C 
HETATM   19  C30 UNL     1      -2.235   6.356  11.974  1.00  0.00     0.016 C 
ENDROOT
BRANCH   1  20
HETATM   20  C7  UNL     1       0.656   7.457  11.915  1.00  0.00    -0.014 C 
HETATM   21  C8  UNL     1      -0.008   8.409  10.913  1.00  0.00     0.010 C 
BRANCH  20  22
HETATM   22  C6  UNL     1       0.986   6.097  11.231  1.00  0.00     0.008 C 
BRANCH  22  23
HETATM   23  C5  UNL     1       2.344   6.012  10.518  1.00  0.00     0.028 C 
BRANCH  23  24
HETATM   24  C4  UNL     1       2.793   7.272   9.834  1.00  0.00    -0.025 C 
HETATM   25  C2  UNL     1       2.755   7.541   8.513  1.00  0.00    -0.091 C 
HETATM   26  C1  UNL     1       3.261   8.855   7.981  1.00  0.00     0.042 C 
HETATM   27  C3  UNL     1       2.218   6.609   7.463  1.00  0.00     0.042 C 
ENDBRANCH  23  24
ENDBRANCH  22  23
ENDBRANCH  20  22
ENDBRANCH   1  20
BRANCH  13  28
HETATM   28  C22 UNL     1      -7.151   8.309  14.142  1.00  0.00     0.012 C 
BRANCH  28  29
HETATM   29  C23 UNL     1      -7.938   8.098  15.441  1.00  0.00     0.027 C 
BRANCH  29  30
HETATM   30  C24 UNL     1      -9.426   7.885  15.182  1.00  0.00     0.164 C 
BRANCH  30  31
HETATM   31  O1  UNL     1      -9.818   6.600  15.639  1.00  0.00    -0.401 OA
HETATM   32  H42 UNL     1     -10.769   6.510  15.459  1.00  0.00     0.209 HD
ENDBRANCH  30  31
ENDBRANCH  29  30
ENDBRANCH  28  29
ENDBRANCH  13  28
TORSDOF 8
ENDMDL
MODEL 8
REMARK minimizedAffinity -5.8269453
REMARK CNNscore 0.208564013
REMARK CNNaffinity 5.97198534
REMARK  8 active torsions:
REMARK  status: ('A' for Active; 'I' for Inactive)
REMARK    1  A    between atoms: C4_4  and  C5_5 
REMARK    2  A    between atoms: C5_5  and  C6_6 
REMARK    3  A    between atoms: C6_6  and  C7_7 
REMARK    4  A    between atoms: C7_7  and  C9_9 
REMARK    5  A    between atoms: C21_21  and  C22_22 
REMARK    6  A    between atoms: C22_22  and  C23_23 
REMARK    7  A    between atoms: C23_23  and  C24_24 
REMARK    8  A    between atoms: C24_24  and  O1_25 
ROOT
HETATM    1  C9  UNL     1      -1.693   7.557  14.186  1.00  0.00    -0.002 C 
HETATM    2  C10 UNL     1      -2.135   6.778  15.459  1.00  0.00     0.006 C 
HETATM    3  C11 UNL     1      -2.182   7.809  16.619  1.00  0.00     0.011 C 
HETATM    4  C12 UNL     1      -1.484   9.066  16.053  1.00  0.00    -0.032 C 
HETATM    5  C13 UNL     1       0.047   8.784  16.214  1.00  0.00     0.016 C 
HETATM    6  C14 UNL     1      -1.891  10.423  16.689  1.00  0.00     0.003 C 
HETATM    7  C15 UNL     1      -1.660  10.539  18.213  1.00  0.00     0.010 C 
HETATM    8  C16 UNL     1      -1.912  11.957  18.741  1.00  0.00     0.035 C 
HETATM    9  C17 UNL     1      -2.864  12.716  17.846  1.00  0.00    -0.073 C 
HETATM   10  C18 UNL     1      -4.106  13.112  18.232  1.00  0.00    -0.085 C 
HETATM   11  C19 UNL     1      -5.056  13.906  17.361  1.00  0.00     0.043 C 
HETATM   12  C20 UNL     1      -4.717  12.817  19.583  1.00  0.00     0.043 C 
HETATM   13  C21 UNL     1      -2.305  12.930  16.414  1.00  0.00     0.023 C 
HETATM   14  C25 UNL     1      -1.382  11.709  15.911  1.00  0.00    -0.032 C 
HETATM   15  C26 UNL     1       0.121  11.996  16.171  1.00  0.00     0.016 C 
HETATM   16  C27 UNL     1      -1.539  11.536  14.351  1.00  0.00     0.011 C 
HETATM   17  C28 UNL     1      -1.279  10.128  13.768  1.00  0.00     0.011 C 
HETATM   18  C29 UNL     1      -2.007   9.035  14.565  1.00  0.00    -0.032 C 
HETATM   19  C30 UNL     1      -3.538   9.295  14.407  1.00  0.00     0.016 C 
ENDROOT
BRANCH   1  20
HETATM   20  C7  UNL     1      -2.195   7.006  12.815  1.00  0.00    -0.014 C 
HETATM   21  C8  UNL     1      -3.346   5.997  12.909  1.00  0.00     0.010 C 
BRANCH  20  22
HETATM   22  C6  UNL     1      -0.991   6.382  12.050  1.00  0.00     0.008 C 
BRANCH  22  23
HETATM   23  C5  UNL     1      -0.282   7.301  11.042  1.00  0.00     0.028 C 
BRANCH  23  24
HETATM   24  C4  UNL     1       0.900   6.695  10.339  1.00  0.00    -0.025 C 
HETATM   25  C2  UNL     1       1.470   7.117   9.193  1.00  0.00    -0.091 C 
HETATM   26  C1  UNL     1       2.648   6.387   8.606  1.00  0.00     0.042 C 
HETATM   27  C3  UNL     1       1.026   8.318   8.405  1.00  0.00     0.042 C 
ENDBRANCH  23  24
ENDBRANCH  22  23
ENDBRANCH  20  22
ENDBRANCH   1  20
BRANCH  13  28
HETATM   28  C22 UNL     1      -1.710  14.360  16.325  1.00  0.00     0.012 C 
BRANCH  28  29
HETATM   29  C23 UNL     1      -1.065  14.857  17.624  1.00  0.00     0.027 C 
BRANCH  29  30
HETATM   30  C24 UNL     1      -1.411  16.314  17.916  1.00  0.00     0.164 C 
BRANCH  30  31
HETATM   31  O1  UNL     1      -2.808  16.518  17.767  1.00  0.00    -0.401 OA
HETATM   32  H42 UNL     1      -2.983  17.453  17.966  1.00  0.00     0.209 HD
ENDBRANCH  30  31
ENDBRANCH  29  30
ENDBRANCH  28  29
ENDBRANCH  13  28
TORSDOF 8
ENDMDL
MODEL 9
REMARK minimizedAffinity -5.88192415
REMARK CNNscore 0.206540793
REMARK CNNaffinity 6.05711126
REMARK  8 active torsions:
REMARK  status: ('A' for Active; 'I' for Inactive)
REMARK    1  A    between atoms: C4_4  and  C5_5 
REMARK    2  A    between atoms: C5_5  and  C6_6 
REMARK    3  A    between atoms: C6_6  and  C7_7 
REMARK    4  A    between atoms: C7_7  and  C9_9 
REMARK    5  A    between atoms: C21_21  and  C22_22 
REMARK    6  A    between atoms: C22_22  and  C23_23 
REMARK    7  A    between atoms: C23_23  and  C24_24 
REMARK    8  A    between atoms: C24_24  and  O1_25 
ROOT
HETATM    1  C9  UNL     1     -10.589   7.742  14.955  1.00  0.00    -0.002 C 
HETATM    2  C10 UNL     1     -10.939   8.012  13.462  1.00  0.00     0.006 C 
HETATM    3  C11 UNL     1     -11.495   9.461  13.390  1.00  0.00     0.011 C 
HETATM    4  C12 UNL     1     -11.728   9.863  14.863  1.00  0.00    -0.032 C 
HETATM    5  C13 UNL     1     -13.108   9.230  15.241  1.00  0.00     0.016 C 
HETATM    6  C14 UNL     1     -11.686  11.385  15.174  1.00  0.00     0.003 C 
HETATM    7  C15 UNL     1     -12.705  12.250  14.400  1.00  0.00     0.010 C 
HETATM    8  C16 UNL     1     -12.733  13.705  14.885  1.00  0.00     0.035 C 
HETATM    9  C17 UNL     1     -11.421  14.095  15.525  1.00  0.00    -0.073 C 
HETATM   10  C18 UNL     1     -10.576  15.025  15.006  1.00  0.00    -0.085 C 
HETATM   11  C19 UNL     1      -9.279  15.455  15.655  1.00  0.00     0.043 C 
HETATM   12  C20 UNL     1     -10.811  15.762  13.707  1.00  0.00     0.043 C 
HETATM   13  C21 UNL     1     -11.102  13.268  16.800  1.00  0.00     0.023 C 
HETATM   14  C25 UNL     1     -11.644  11.753  16.717  1.00  0.00    -0.032 C 
HETATM   15  C26 UNL     1     -13.035  11.617  17.392  1.00  0.00     0.016 C 
HETATM   16  C27 UNL     1     -10.668  10.800  17.509  1.00  0.00     0.011 C 
HETATM   17  C28 UNL     1     -10.617   9.318  17.068  1.00  0.00     0.011 C 
HETATM   18  C29 UNL     1     -10.480   9.179  15.545  1.00  0.00    -0.032 C 
HETATM   19  C30 UNL     1      -9.102   9.797  15.150  1.00  0.00     0.016 C 
ENDROOT
BRANCH   1  20
HETATM   20  C7  UNL     1      -9.441   6.723  15.233  1.00  0.00    -0.014 C 
HETATM   21  C8  UNL     1      -8.600   7.022  16.480  1.00  0.00     0.010 C 
BRANCH  20  22
HETATM   22  C6  UNL     1      -8.528   6.634  13.974  1.00  0.00     0.008 C 
BRANCH  22  23
HETATM   23  C5  UNL     1      -8.495   5.276  13.258  1.00  0.00     0.028 C 
BRANCH  23  24
HETATM   24  C4  UNL     1      -7.147   4.849  12.748  1.00  0.00    -0.025 C 
HETATM   25  C2  UNL     1      -6.708   3.588  12.564  1.00  0.00    -0.091 C 
HETATM   26  C1  UNL     1      -5.315   3.326  12.056  1.00  0.00     0.042 C 
HETATM   27  C3  UNL     1      -7.521   2.350  12.819  1.00  0.00     0.042 C 
ENDBRANCH  23  24
ENDBRANCH  22  23
ENDBRANCH  20  22
ENDBRANCH   1  20
BRANCH  13  28
HETATM   28  C22 UNL     1     -11.502  14.104  18.044  1.00  0.00     0.012 C 
BRANCH  28  29
HETATM   29  C23 UNL     1     -10.635  13.848  19.282  1.00  0.00     0.027 C 
BRANCH  29  30
HETATM   30  C24 UNL     1      -9.146  13.848  18.950  1.00  0.00     0.164 C 
BRANCH  30  31
HETATM   31  O1  UNL     1      -8.416  13.232  20.000  1.00  0.00    -0.401 OA
HETATM   32  H42 UNL     1      -7.478  13.250  19.745  1.00  0.00     0.209 HD
ENDBRANCH  30  31
ENDBRANCH  29  30
ENDBRANCH  28  29
ENDBRANCH  13  28
TORSDOF 8
ENDMDL
