MODEL 1
REMARK minimizedAffinity -6.47612238
REMARK CNNscore 0.324590147
REMARK CNNaffinity 5.87648535
REMARK  4 active torsions:
REMARK  status: ('A' for Active; 'I' for Inactive)
REMARK    1  A    between atoms: C4_4  and  C5_5 
REMARK    2  A    between atoms: C5_5  and  C6_6 
REMARK    3  A    between atoms: C6_6  and  C7_7 
REMARK    4  A    between atoms: C7_7  and  C9_9 
ROOT
HETATM    1  C9  UNL     1     -13.591   7.827  23.457  1.00  0.00    -0.001 C 
HETATM    2  C10 UNL     1     -12.163   7.285  23.755  1.00  0.00     0.007 C 
HETATM    3  C11 UNL     1     -11.191   8.477  23.736  1.00  0.00     0.024 C 
HETATM    4  C12 UNL     1     -12.082   9.686  23.566  1.00  0.00     0.092 C 
HETATM    5  C13 UNL     1     -12.552  10.247  24.934  1.00  0.00     0.272 C 
HETATM    6  O1  UNL     1     -12.667   9.648  25.988  1.00  0.00    -0.264 OA
HETATM    7  O2  UNL     1     -12.827  11.593  24.778  1.00  0.00    -0.305 OA
HETATM    8  C14 UNL     1     -12.571  11.971  23.403  1.00  0.00     0.113 C 
HETATM    9  C15 UNL     1     -13.888  11.688  22.614  1.00  0.00     0.043 C 
HETATM   10  C16 UNL     1     -14.430  10.245  22.809  1.00  0.00     0.014 C 
HETATM   11  C17 UNL     1     -13.304   9.181  22.732  1.00  0.00    -0.020 C 
HETATM   12  C18 UNL     1     -12.954   8.940  21.241  1.00  0.00     0.017 C 
HETATM   13  C19 UNL     1     -11.547  10.952  23.022  1.00  0.00     0.137 A 
HETATM   14  O3  UNL     1     -10.851  11.019  21.794  1.00  0.00    -0.364 OA
HETATM   15  C20 UNL     1     -10.078  11.279  22.988  1.00  0.00     0.162 A 
HETATM   16  C21 UNL     1      -9.615  12.689  23.137  1.00  0.00     0.041 C 
HETATM   17  C22 UNL     1     -10.610  13.549  23.947  1.00  0.00     0.010 C 
HETATM   18  C23 UNL     1     -10.095  15.007  24.102  1.00  0.00     0.056 C 
HETATM   19  C24 UNL     1      -8.738  15.087  24.809  1.00  0.00     0.018 C 
HETATM   20  C25 UNL     1     -11.124  15.845  24.858  1.00  0.00     0.131 C 
HETATM   21  O4  UNL     1     -10.825  16.586  25.794  1.00  0.00    -0.298 OA
HETATM   22  C26 UNL     1     -12.535  15.805  24.331  1.00  0.00     0.079 C 
HETATM   23  C27 UNL     1     -13.000  14.361  24.213  1.00  0.00     0.020 C 
HETATM   24  C28 UNL     1     -12.067  13.463  23.343  1.00  0.00    -0.004 C 
HETATM   25  C29 UNL     1     -12.103  13.990  21.884  1.00  0.00     0.019 C 
ENDROOT
BRANCH   1  26
HETATM   26  C7  UNL     1     -14.493   6.766  22.765  1.00  0.00    -0.014 C 
HETATM   27  C8  UNL     1     -15.828   6.557  23.485  1.00  0.00     0.010 C 
BRANCH  26  28
HETATM   28  C6  UNL     1     -13.791   5.399  22.522  1.00  0.00     0.008 C 
BRANCH  28  29
HETATM   29  C5  UNL     1     -14.080   4.252  23.506  1.00  0.00     0.028 C 
BRANCH  29  30
HETATM   30  C4  UNL     1     -12.872   3.448  23.889  1.00  0.00    -0.025 C 
HETATM   31  C2  UNL     1     -12.826   2.263  24.529  1.00  0.00    -0.091 C 
HETATM   32  C1  UNL     1     -14.013   1.473  25.003  1.00  0.00     0.042 C 
HETATM   33  C3  UNL     1     -11.498   1.619  24.842  1.00  0.00     0.042 C 
ENDBRANCH  29  30
ENDBRANCH  28  29
ENDBRANCH  26  28
ENDBRANCH   1  26
TORSDOF 4
ENDMDL
MODEL 2
REMARK minimizedAffinity -7.15854311
REMARK CNNscore 0.290656328
REMARK CNNaffinity 6.13655281
REMARK  4 active torsions:
REMARK  status: ('A' for Active; 'I' for Inactive)
REMARK    1  A    between atoms: C4_4  and  C5_5 
REMARK    2  A    between atoms: C5_5  and  C6_6 
REMARK    3  A    between atoms: C6_6  and  C7_7 
REMARK    4  A    between atoms: C7_7  and  C9_9 
ROOT
HETATM    1  C9  UNL     1      -3.540  12.707  17.152  1.00  0.00    -0.001 C 
HETATM    2  C10 UNL     1      -2.236  13.301  17.760  1.00  0.00     0.007 C 
HETATM    3  C11 UNL     1      -1.047  12.504  17.199  1.00  0.00     0.024 C 
HETATM    4  C12 UNL     1      -1.665  11.568  16.186  1.00  0.00     0.092 C 
HETATM    5  C13 UNL     1      -1.740  12.215  14.779  1.00  0.00     0.272 C 
HETATM    6  O1  UNL     1      -1.787  13.400  14.502  1.00  0.00    -0.264 OA
HETATM    7  O2  UNL     1      -1.736  11.203  13.836  1.00  0.00    -0.305 OA
HETATM    8  C14 UNL     1      -1.662   9.926  14.515  1.00  0.00     0.113 C 
HETATM    9  C15 UNL     1      -3.131   9.513  14.843  1.00  0.00     0.043 C 
HETATM   10  C16 UNL     1      -3.932  10.612  15.595  1.00  0.00     0.014 C 
HETATM   11  C17 UNL     1      -3.101  11.269  16.727  1.00  0.00    -0.020 C 
HETATM   12  C18 UNL     1      -3.095  10.316  17.950  1.00  0.00     0.017 C 
HETATM   13  C19 UNL     1      -0.975  10.325  15.781  1.00  0.00     0.137 A 
HETATM   14  O3  UNL     1      -0.521   9.367  16.715  1.00  0.00    -0.364 OA
HETATM   15  C20 UNL     1       0.497  10.094  15.991  1.00  0.00     0.162 A 
HETATM   16  C21 UNL     1       1.279   9.275  15.020  1.00  0.00     0.041 C 
HETATM   17  C22 UNL     1       0.665   9.302  13.603  1.00  0.00     0.010 C 
HETATM   18  C23 UNL     1       1.507   8.455  12.609  1.00  0.00     0.056 C 
HETATM   19  C24 UNL     1       2.955   8.941  12.491  1.00  0.00     0.018 C 
HETATM   20  C25 UNL     1       0.845   8.456  11.232  1.00  0.00     0.131 C 
HETATM   21  O4  UNL     1       1.467   8.667  10.192  1.00  0.00    -0.298 OA
HETATM   22  C26 UNL     1      -0.613   8.078  11.192  1.00  0.00     0.079 C 
HETATM   23  C27 UNL     1      -1.398   8.943  12.166  1.00  0.00     0.020 C 
HETATM   24  C28 UNL     1      -0.862   8.896  13.631  1.00  0.00    -0.004 C 
HETATM   25  C29 UNL     1      -1.050   7.454  14.173  1.00  0.00     0.019 C 
ENDROOT
BRANCH   1  26
HETATM   26  C7  UNL     1      -4.765  12.886  18.093  1.00  0.00    -0.014 C 
HETATM   27  C8  UNL     1      -5.685  14.033  17.664  1.00  0.00     0.010 C 
BRANCH  26  28
HETATM   28  C6  UNL     1      -4.394  13.026  19.597  1.00  0.00     0.008 C 
BRANCH  28  29
HETATM   29  C5  UNL     1      -5.029  14.179  20.394  1.00  0.00     0.028 C 
BRANCH  29  30
HETATM   30  C4  UNL     1      -5.703  13.753  21.666  1.00  0.00    -0.025 C 
HETATM   31  C2  UNL     1      -6.992  13.408  21.853  1.00  0.00    -0.091 C 
HETATM   32  C1  UNL     1      -8.055  13.373  20.792  1.00  0.00     0.042 C 
HETATM   33  C3  UNL     1      -7.485  13.024  23.226  1.00  0.00     0.042 C 
ENDBRANCH  29  30
ENDBRANCH  28  29
ENDBRANCH  26  28
ENDBRANCH   1  26
TORSDOF 4
ENDMDL
MODEL 3
REMARK minimizedAffinity -7.1478138
REMARK CNNscore 0.264534861
REMARK CNNaffinity 5.80140877
REMARK  4 active torsions:
REMARK  status: ('A' for Active; 'I' for Inactive)
REMARK    1  A    between atoms: C4_4  and  C5_5 
REMARK    2  A    between atoms: C5_5  and  C6_6 
REMARK    3  A    between atoms: C6_6  and  C7_7 
REMARK    4  A    between atoms: C7_7  and  C9_9 
ROOT
HETATM    1  C9  UNL     1      -3.327 -11.857   3.693  1.00  0.00    -0.001 C 
HETATM    2  C10 UNL     1      -2.232 -12.472   4.612  1.00  0.00     0.007 C 
HETATM    3  C11 UNL     1      -2.587 -12.128   6.068  1.00  0.00     0.024 C 
HETATM    4  C12 UNL     1      -3.934 -11.448   5.976  1.00  0.00     0.092 C 
HETATM    5  C13 UNL     1      -5.098 -12.469   6.061  1.00  0.00     0.272 C 
HETATM    6  O1  UNL     1      -5.080 -13.650   5.765  1.00  0.00    -0.264 OA
HETATM    7  O2  UNL     1      -6.213 -11.815   6.555  1.00  0.00    -0.305 OA
HETATM    8  C14 UNL     1      -5.873 -10.430   6.807  1.00  0.00     0.113 C 
HETATM    9  C15 UNL     1      -6.111  -9.665   5.468  1.00  0.00     0.043 C 
HETATM   10  C16 UNL     1      -5.389 -10.306   4.250  1.00  0.00     0.014 C 
HETATM   11  C17 UNL     1      -3.937 -10.729   4.587  1.00  0.00    -0.020 C 
HETATM   12  C18 UNL     1      -3.037  -9.467   4.564  1.00  0.00     0.017 C 
HETATM   13  C19 UNL     1      -4.403 -10.545   7.048  1.00  0.00     0.137 A 
HETATM   14  O3  UNL     1      -3.637  -9.451   7.511  1.00  0.00    -0.364 OA
HETATM   15  C20 UNL     1      -3.824 -10.545   8.438  1.00  0.00     0.162 A 
HETATM   16  C21 UNL     1      -4.685 -10.227   9.614  1.00  0.00     0.041 C 
HETATM   17  C22 UNL     1      -6.170 -10.570   9.362  1.00  0.00     0.010 C 
HETATM   18  C23 UNL     1      -7.040 -10.246  10.608  1.00  0.00     0.056 C 
HETATM   19  C24 UNL     1      -6.598 -11.011  11.859  1.00  0.00     0.018 C 
HETATM   20  C25 UNL     1      -8.509 -10.543  10.310  1.00  0.00     0.131 C 
HETATM   21  O4  UNL     1      -9.232 -11.178  11.076  1.00  0.00    -0.298 OA
HETATM   22  C26 UNL     1      -9.074  -9.925   9.056  1.00  0.00     0.079 C 
HETATM   23  C27 UNL     1      -8.200 -10.284   7.865  1.00  0.00     0.020 C 
HETATM   24  C28 UNL     1      -6.699  -9.892   8.037  1.00  0.00    -0.004 C 
HETATM   25  C29 UNL     1      -6.605  -8.346   8.121  1.00  0.00     0.019 C 
ENDROOT
BRANCH   1  26
HETATM   26  C7  UNL     1      -2.782 -11.502   2.281  1.00  0.00    -0.014 C 
HETATM   27  C8  UNL     1      -1.397 -10.849   2.322  1.00  0.00     0.010 C 
BRANCH  26  28
HETATM   28  C6  UNL     1      -3.756 -10.648   1.421  1.00  0.00     0.008 C 
BRANCH  28  29
HETATM   29  C5  UNL     1      -4.791 -11.385   0.553  1.00  0.00     0.028 C 
BRANCH  29  30
HETATM   30  C4  UNL     1      -5.563 -10.495  -0.377  1.00  0.00    -0.025 C 
HETATM   31  C2  UNL     1      -5.509 -10.445  -1.723  1.00  0.00    -0.091 C 
HETATM   32  C1  UNL     1      -4.640 -11.302  -2.600  1.00  0.00     0.042 C 
HETATM   33  C3  UNL     1      -6.359  -9.457  -2.482  1.00  0.00     0.042 C 
ENDBRANCH  29  30
ENDBRANCH  28  29
ENDBRANCH  26  28
ENDBRANCH   1  26
TORSDOF 4
ENDMDL
MODEL 4
REMARK minimizedAffinity -7.14096642
REMARK CNNscore 0.231080145
REMARK CNNaffinity 6.23743868
REMARK  4 active torsions:
REMARK  status: ('A' for Active; 'I' for Inactive)
REMARK    1  A    between atoms: C4_4  and  C5_5 
REMARK    2  A    between atoms: C5_5  and  C6_6 
REMARK    3  A    between atoms: C6_6  and  C7_7 
REMARK    4  A    between atoms: C7_7  and  C9_9 
ROOT
HETATM    1  C9  UNL     1      -1.156   7.310  13.562  1.00  0.00    -0.001 C 
HETATM    2  C10 UNL     1      -1.194   6.430  14.845  1.00  0.00     0.007 C 
HETATM    3  C11 UNL     1      -1.532   7.343  16.035  1.00  0.00     0.024 C 
HETATM    4  C12 UNL     1      -1.815   8.689  15.409  1.00  0.00     0.092 C 
HETATM    5  C13 UNL     1      -3.310   8.838  15.024  1.00  0.00     0.272 C 
HETATM    6  O1  UNL     1      -4.108   7.956  14.765  1.00  0.00    -0.264 OA
HETATM    7  O2  UNL     1      -3.626  10.185  15.027  1.00  0.00    -0.305 OA
HETATM    8  C14 UNL     1      -2.446  10.944  15.389  1.00  0.00     0.113 C 
HETATM    9  C15 UNL     1      -1.665  11.207  14.063  1.00  0.00     0.043 C 
HETATM   10  C16 UNL     1      -1.390   9.920  13.239  1.00  0.00     0.014 C 
HETATM   11  C17 UNL     1      -0.914   8.745  14.132  1.00  0.00    -0.020 C 
HETATM   12  C18 UNL     1       0.586   8.955  14.465  1.00  0.00     0.017 C 
HETATM   13  C19 UNL     1      -1.703   9.933  16.199  1.00  0.00     0.137 A 
HETATM   14  O3  UNL     1      -0.539  10.270  16.926  1.00  0.00    -0.364 OA
HETATM   15  C20 UNL     1      -1.716   9.957  17.704  1.00  0.00     0.162 A 
HETATM   16  C21 UNL     1      -2.308  11.114  18.435  1.00  0.00     0.041 C 
HETATM   17  C22 UNL     1      -3.401  11.831  17.611  1.00  0.00     0.010 C 
HETATM   18  C23 UNL     1      -4.012  13.020  18.403  1.00  0.00     0.056 C 
HETATM   19  C24 UNL     1      -4.646  12.590  19.729  1.00  0.00     0.018 C 
HETATM   20  C25 UNL     1      -5.048  13.741  17.542  1.00  0.00     0.131 C 
HETATM   21  O4  UNL     1      -6.164  14.050  17.958  1.00  0.00    -0.298 OA
HETATM   22  C26 UNL     1      -4.600  14.157  16.165  1.00  0.00     0.079 C 
HETATM   23  C27 UNL     1      -4.026  12.959  15.424  1.00  0.00     0.020 C 
HETATM   24  C28 UNL     1      -2.866  12.240  16.182  1.00  0.00    -0.004 C 
HETATM   25  C29 UNL     1      -1.670  13.223  16.290  1.00  0.00     0.019 C 
ENDROOT
BRANCH   1  26
HETATM   26  C7  UNL     1      -0.189   6.742  12.485  1.00  0.00    -0.014 C 
HETATM   27  C8  UNL     1       1.120   6.212  13.078  1.00  0.00     0.010 C 
BRANCH  26  28
HETATM   28  C6  UNL     1       0.107   7.724  11.316  1.00  0.00     0.008 C 
BRANCH  28  29
HETATM   29  C5  UNL     1       1.512   7.700  10.689  1.00  0.00     0.028 C 
BRANCH  29  30
HETATM   30  C4  UNL     1       1.583   7.006   9.360  1.00  0.00    -0.025 C 
HETATM   31  C2  UNL     1       2.209   7.411   8.238  1.00  0.00    -0.091 C 
HETATM   32  C1  UNL     1       2.995   8.682   8.080  1.00  0.00     0.042 C 
HETATM   33  C3  UNL     1       2.147   6.571   6.987  1.00  0.00     0.042 C 
ENDBRANCH  29  30
ENDBRANCH  28  29
ENDBRANCH  26  28
ENDBRANCH   1  26
TORSDOF 4
ENDMDL
MODEL 5
REMARK minimizedAffinity -6.61061239
REMARK CNNscore 0.201036602
REMARK CNNaffinity 5.86431551
REMARK  4 active torsions:
REMARK  status: ('A' for Active; 'I' for Inactive)
REMARK    1  A    between atoms: C4_4  and  C5_5 
REMARK    2  A    between atoms: C5_5  and  C6_6 
REMARK    3  A    between atoms: C6_6  and  C7_7 
REMARK    4  A    between atoms: C7_7  and  C9_9 
ROOT
HETATM    1  C9  UNL     1      -3.350 -11.877   3.625  1.00  0.00    -0.001 C 
HETATM    2  C10 UNL     1      -2.251 -12.497   4.536  1.00  0.00     0.007 C 
HETATM    3  C11 UNL     1      -2.602 -12.163   5.996  1.00  0.00     0.024 C 
HETATM    4  C12 UNL     1      -3.950 -11.484   5.913  1.00  0.00     0.092 C 
HETATM    5  C13 UNL     1      -5.112 -12.508   5.994  1.00  0.00     0.272 C 
HETATM    6  O1  UNL     1      -5.094 -13.687   5.690  1.00  0.00    -0.264 OA
HETATM    7  O2  UNL     1      -6.226 -11.859   6.496  1.00  0.00    -0.305 OA
HETATM    8  C14 UNL     1      -5.888 -10.475   6.756  1.00  0.00     0.113 C 
HETATM    9  C15 UNL     1      -6.131  -9.701   5.423  1.00  0.00     0.043 C 
HETATM   10  C16 UNL     1      -5.413 -10.333   4.199  1.00  0.00     0.014 C 
HETATM   11  C17 UNL     1      -3.958 -10.757   4.529  1.00  0.00    -0.020 C 
HETATM   12  C18 UNL     1      -3.061  -9.493   4.510  1.00  0.00     0.017 C 
HETATM   13  C19 UNL     1      -4.417 -10.589   6.992  1.00  0.00     0.137 A 
HETATM   14  O3  UNL     1      -3.651  -9.498   7.460  1.00  0.00    -0.364 OA
HETATM   15  C20 UNL     1      -3.834 -10.598   8.380  1.00  0.00     0.162 A 
HETATM   16  C21 UNL     1      -4.692 -10.289   9.560  1.00  0.00     0.041 C 
HETATM   17  C22 UNL     1      -6.177 -10.633   9.311  1.00  0.00     0.010 C 
HETATM   18  C23 UNL     1      -7.044 -10.318  10.562  1.00  0.00     0.056 C 
HETATM   19  C24 UNL     1      -6.597 -11.091  11.807  1.00  0.00     0.018 C 
HETATM   20  C25 UNL     1      -8.513 -10.616  10.266  1.00  0.00     0.131 C 
HETATM   21  O4  UNL     1      -9.232 -11.256  11.031  1.00  0.00    -0.298 OA
HETATM   22  C26 UNL     1      -9.083  -9.990   9.019  1.00  0.00     0.079 C 
HETATM   23  C27 UNL     1      -8.212 -10.340   7.822  1.00  0.00     0.020 C 
HETATM   24  C28 UNL     1      -6.711  -9.947   7.992  1.00  0.00    -0.004 C 
HETATM   25  C29 UNL     1      -6.619  -8.401   8.086  1.00  0.00     0.019 C 
ENDROOT
BRANCH   1  26
HETATM   26  C7  UNL     1      -2.810 -11.512   2.214  1.00  0.00    -0.014 C 
HETATM   27  C8  UNL     1      -3.373 -12.410   1.108  1.00  0.00     0.010 C 
BRANCH  26  28
HETATM   28  C6  UNL     1      -1.258 -11.455   2.124  1.00  0.00     0.008 C 
BRANCH  28  29
HETATM   29  C5  UNL     1      -0.538 -12.555   1.324  1.00  0.00     0.028 C 
BRANCH  29  30
HETATM   30  C4  UNL     1       0.461 -13.343   2.119  1.00  0.00    -0.025 C 
HETATM   31  C2  UNL     1       1.713 -12.992   2.471  1.00  0.00    -0.091 C 
HETATM   32  C1  UNL     1       2.389 -11.692   2.133  1.00  0.00     0.042 C 
HETATM   33  C3  UNL     1       2.576 -13.942   3.264  1.00  0.00     0.042 C 
ENDBRANCH  29  30
ENDBRANCH  28  29
ENDBRANCH  26  28
ENDBRANCH   1  26
TORSDOF 4
ENDMDL
MODEL 6
REMARK minimizedAffinity -6.29091978
REMARK CNNscore 0.193251729
REMARK CNNaffinity 5.79276896
REMARK  4 active torsions:
REMARK  status: ('A' for Active; 'I' for Inactive)
REMARK    1  A    between atoms: C4_4  and  C5_5 
REMARK    2  A    between atoms: C5_5  and  C6_6 
REMARK    3  A    between atoms: C6_6  and  C7_7 
REMARK    4  A    between atoms: C7_7  and  C9_9 
ROOT
HETATM    1  C9  UNL     1     -17.172  -0.704  14.001  1.00  0.00    -0.001 C 
HETATM    2  C10 UNL     1     -16.395   0.430  13.270  1.00  0.00     0.007 C 
HETATM    3  C11 UNL     1     -15.577  -0.212  12.137  1.00  0.00     0.024 C 
HETATM    4  C12 UNL     1     -15.996  -1.665  12.146  1.00  0.00     0.092 C 
HETATM    5  C13 UNL     1     -17.225  -1.911  11.234  1.00  0.00     0.272 C 
HETATM    6  O1  UNL     1     -18.086  -1.115  10.906  1.00  0.00    -0.264 OA
HETATM    7  O2  UNL     1     -17.198  -3.230  10.818  1.00  0.00    -0.305 OA
HETATM    8  C14 UNL     1     -16.035  -3.880  11.387  1.00  0.00     0.113 C 
HETATM    9  C15 UNL     1     -16.466  -4.410  12.790  1.00  0.00     0.043 C 
HETATM   10  C16 UNL     1     -17.118  -3.325  13.691  1.00  0.00     0.014 C 
HETATM   11  C17 UNL     1     -16.348  -1.980  13.636  1.00  0.00    -0.020 C 
HETATM   12  C18 UNL     1     -15.091  -2.095  14.538  1.00  0.00     0.017 C 
HETATM   13  C19 UNL     1     -15.125  -2.709  11.567  1.00  0.00     0.137 A 
HETATM   14  O3  UNL     1     -13.773  -2.869  11.947  1.00  0.00    -0.364 OA
HETATM   15  C20 UNL     1     -14.014  -2.411  10.597  1.00  0.00     0.162 A 
HETATM   16  C21 UNL     1     -13.659  -3.393   9.532  1.00  0.00     0.041 C 
HETATM   17  C22 UNL     1     -14.856  -4.283   9.132  1.00  0.00     0.010 C 
HETATM   18  C23 UNL     1     -14.464  -5.283   8.010  1.00  0.00     0.056 C 
HETATM   19  C24 UNL     1     -13.965  -4.588   6.739  1.00  0.00     0.018 C 
HETATM   20  C25 UNL     1     -15.652  -6.184   7.676  1.00  0.00     0.131 C 
HETATM   21  O4  UNL     1     -16.015  -6.411   6.523  1.00  0.00    -0.298 OA
HETATM   22  C26 UNL     1     -16.310  -6.880   8.840  1.00  0.00     0.079 C 
HETATM   23  C27 UNL     1     -16.691  -5.860   9.902  1.00  0.00     0.020 C 
HETATM   24  C28 UNL     1     -15.499  -4.981  10.395  1.00  0.00    -0.004 C 
HETATM   25  C29 UNL     1     -14.475  -5.903  11.109  1.00  0.00     0.019 C 
ENDROOT
BRANCH   1  26
HETATM   26  C7  UNL     1     -17.439  -0.367  15.494  1.00  0.00    -0.014 C 
HETATM   27  C8  UNL     1     -18.904  -0.560  15.897  1.00  0.00     0.010 C 
BRANCH  26  28
HETATM   28  C6  UNL     1     -16.943   1.043  15.926  1.00  0.00     0.008 C 
BRANCH  28  29
HETATM   29  C5  UNL     1     -17.996   2.087  16.334  1.00  0.00     0.028 C 
BRANCH  29  30
HETATM   30  C4  UNL     1     -17.861   3.407  15.632  1.00  0.00    -0.025 C 
HETATM   31  C2  UNL     1     -16.772   3.928  15.033  1.00  0.00    -0.091 C 
HETATM   32  C1  UNL     1     -15.423   3.271  14.938  1.00  0.00     0.042 C 
HETATM   33  C3  UNL     1     -16.835   5.292  14.393  1.00  0.00     0.042 C 
ENDBRANCH  29  30
ENDBRANCH  28  29
ENDBRANCH  26  28
ENDBRANCH   1  26
TORSDOF 4
ENDMDL
MODEL 7
REMARK minimizedAffinity -7.53412914
REMARK CNNscore 0.190339014
REMARK CNNaffinity 5.85183096
REMARK  4 active torsions:
REMARK  status: ('A' for Active; 'I' for Inactive)
REMARK    1  A    between atoms: C4_4  and  C5_5 
REMARK    2  A    between atoms: C5_5  and  C6_6 
REMARK    3  A    between atoms: C6_6  and  C7_7 
REMARK    4  A    between atoms: C7_7  and  C9_9 
ROOT
HETATM    1  C9  UNL     1       6.499  10.244  14.877  1.00  0.00    -0.001 C 
HETATM    2  C10 UNL     1       7.570  10.283  13.748  1.00  0.00     0.007 C 
HETATM    3  C11 UNL     1       6.972   9.604  12.505  1.00  0.00     0.024 C 
HETATM    4  C12 UNL     1       5.539   9.312  12.888  1.00  0.00     0.092 C 
HETATM    5  C13 UNL     1       4.601  10.497  12.542  1.00  0.00     0.272 C 
HETATM    6  O1  UNL     1       4.891  11.675  12.438  1.00  0.00    -0.264 OA
HETATM    7  O2  UNL     1       3.325   9.998  12.350  1.00  0.00    -0.305 OA
HETATM    8  C14 UNL     1       3.347   8.563  12.541  1.00  0.00     0.113 C 
HETATM    9  C15 UNL     1       3.132   8.316  14.068  1.00  0.00     0.043 C 
HETATM   10  C16 UNL     1       4.115   9.113  14.969  1.00  0.00     0.014 C 
HETATM   11  C17 UNL     1       5.569   9.069  14.432  1.00  0.00    -0.020 C 
HETATM   12  C18 UNL     1       6.194   7.703  14.813  1.00  0.00     0.017 C 
HETATM   13  C19 UNL     1       4.768   8.258  12.194  1.00  0.00     0.137 A 
HETATM   14  O3  UNL     1       5.236   6.931  12.068  1.00  0.00    -0.364 OA
HETATM   15  C20 UNL     1       5.155   7.704  10.849  1.00  0.00     0.162 A 
HETATM   16  C21 UNL     1       4.106   7.251   9.890  1.00  0.00     0.041 C 
HETATM   17  C22 UNL     1       2.763   7.985  10.100  1.00  0.00     0.010 C 
HETATM   18  C23 UNL     1       1.696   7.506   9.077  1.00  0.00     0.056 C 
HETATM   19  C24 UNL     1       2.120   7.733   7.623  1.00  0.00     0.018 C 
HETATM   20  C25 UNL     1       0.366   8.208   9.345  1.00  0.00     0.131 C 
HETATM   21  O4  UNL     1      -0.307   8.728   8.456  1.00  0.00    -0.298 OA
HETATM   22  C26 UNL     1      -0.149   8.147  10.761  1.00  0.00     0.079 C 
HETATM   23  C27 UNL     1       0.923   8.640  11.721  1.00  0.00     0.020 C 
HETATM   24  C28 UNL     1       2.281   7.881  11.601  1.00  0.00    -0.004 C 
HETATM   25  C29 UNL     1       2.054   6.404  12.018  1.00  0.00     0.019 C 
ENDROOT
BRANCH   1  26
HETATM   26  C7  UNL     1       7.136  10.220  16.294  1.00  0.00    -0.014 C 
HETATM   27  C8  UNL     1       6.382  11.091  17.303  1.00  0.00     0.010 C 
BRANCH  26  28
HETATM   28  C6  UNL     1       8.653  10.562  16.314  1.00  0.00     0.008 C 
BRANCH  28  29
HETATM   29  C5  UNL     1       9.537   9.873  17.368  1.00  0.00     0.028 C 
BRANCH  29  30
HETATM   30  C4  UNL     1       9.736  10.671  18.624  1.00  0.00    -0.025 C 
HETATM   31  C2  UNL     1      10.841  11.326  19.031  1.00  0.00    -0.091 C 
HETATM   32  C1  UNL     1      12.144  11.400  18.285  1.00  0.00     0.042 C 
HETATM   33  C3  UNL     1      10.848  12.062  20.347  1.00  0.00     0.042 C 
ENDBRANCH  29  30
ENDBRANCH  28  29
ENDBRANCH  26  28
ENDBRANCH   1  26
TORSDOF 4
ENDMDL
MODEL 8
REMARK minimizedAffinity -6.61490679
REMARK CNNscore 0.182323307
REMARK CNNaffinity 5.80451632
REMARK  4 active torsions:
REMARK  status: ('A' for Active; 'I' for Inactive)
REMARK    1  A    between atoms: C4_4  and  C5_5 
REMARK    2  A    between atoms: C5_5  and  C6_6 
REMARK    3  A    between atoms: C6_6  and  C7_7 
REMARK    4  A    between atoms: C7_7  and  C9_9 
ROOT
HETATM    1  C9  UNL     1     -13.720   7.948  23.692  1.00  0.00    -0.001 C 
HETATM    2  C10 UNL     1     -13.414   7.397  22.269  1.00  0.00     0.007 C 
HETATM    3  C11 UNL     1     -12.542   8.433  21.539  1.00  0.00     0.024 C 
HETATM    4  C12 UNL     1     -12.250   9.484  22.585  1.00  0.00     0.092 C 
HETATM    5  C13 UNL     1     -10.967   9.150  23.389  1.00  0.00     0.272 C 
HETATM    6  O1  UNL     1     -10.471   8.056  23.586  1.00  0.00    -0.264 OA
HETATM    7  O2  UNL     1     -10.436  10.335  23.867  1.00  0.00    -0.305 OA
HETATM    8  C14 UNL     1     -11.273  11.435  23.436  1.00  0.00     0.113 C 
HETATM    9  C15 UNL     1     -12.391  11.589  24.514  1.00  0.00     0.043 C 
HETATM   10  C16 UNL     1     -13.149  10.267  24.816  1.00  0.00     0.014 C 
HETATM   11  C17 UNL     1     -13.500   9.486  23.524  1.00  0.00    -0.020 C 
HETATM   12  C18 UNL     1     -14.741  10.147  22.871  1.00  0.00     0.017 C 
HETATM   13  C19 UNL     1     -11.871  10.858  22.194  1.00  0.00     0.137 A 
HETATM   14  O3  UNL     1     -12.647  11.640  21.309  1.00  0.00    -0.364 OA
HETATM   15  C20 UNL     1     -11.354  11.213  20.826  1.00  0.00     0.162 A 
HETATM   16  C21 UNL     1     -10.357  12.310  20.657  1.00  0.00     0.041 C 
HETATM   17  C22 UNL     1      -9.492  12.515  21.921  1.00  0.00     0.010 C 
HETATM   18  C23 UNL     1      -8.452  13.651  21.711  1.00  0.00     0.056 C 
HETATM   19  C24 UNL     1      -7.500  13.378  20.543  1.00  0.00     0.018 C 
HETATM   20  C25 UNL     1      -7.651  13.867  22.994  1.00  0.00     0.131 C 
HETATM   21  O4  UNL     1      -6.425  13.960  23.009  1.00  0.00    -0.298 OA
HETATM   22  C26 UNL     1      -8.452  14.067  24.255  1.00  0.00     0.079 C 
HETATM   23  C27 UNL     1      -9.442  12.925  24.426  1.00  0.00     0.020 C 
HETATM   24  C28 UNL     1     -10.391  12.720  23.204  1.00  0.00    -0.004 C 
HETATM   25  C29 UNL     1     -11.289  13.978  23.066  1.00  0.00     0.019 C 
ENDROOT
BRANCH   1  26
HETATM   26  C7  UNL     1     -15.074   7.425  24.248  1.00  0.00    -0.014 C 
HETATM   27  C8  UNL     1     -15.005   7.045  25.730  1.00  0.00     0.010 C 
BRANCH  26  28
HETATM   28  C6  UNL     1     -15.693   6.262  23.421  1.00  0.00     0.008 C 
BRANCH  28  29
HETATM   29  C5  UNL     1     -15.644   4.844  24.017  1.00  0.00     0.028 C 
BRANCH  29  30
HETATM   30  C4  UNL     1     -14.369   4.102  23.741  1.00  0.00    -0.025 C 
HETATM   31  C2  UNL     1     -13.574   3.452  24.614  1.00  0.00    -0.091 C 
HETATM   32  C1  UNL     1     -13.811   3.329  26.093  1.00  0.00     0.042 C 
HETATM   33  C3  UNL     1     -12.312   2.778  24.138  1.00  0.00     0.042 C 
ENDBRANCH  29  30
ENDBRANCH  28  29
ENDBRANCH  26  28
ENDBRANCH   1  26
TORSDOF 4
ENDMDL
MODEL 9
REMARK minimizedAffinity -7.4898448
REMARK CNNscore 0.176844075
REMARK CNNaffinity 5.74536896
REMARK  4 active torsions:
REMARK  status: ('A' for Active; 'I' for Inactive)
REMARK    1  A    between atoms: C4_4  and  C5_5 
REMARK    2  A    between atoms: C5_5  and  C6_6 
REMARK    3  A    between atoms: C6_6  and  C7_7 
REMARK    4  A    between atoms: C7_7  and  C9_9 
ROOT
HETATM    1  C9  UNL     1     -13.718   6.822  24.470  1.00  0.00    -0.001 C 
HETATM    2  C10 UNL     1     -13.611   6.294  23.009  1.00  0.00     0.007 C 
HETATM    3  C11 UNL     1     -13.033   7.423  22.139  1.00  0.00     0.024 C 
HETATM    4  C12 UNL     1     -12.692   8.520  23.123  1.00  0.00     0.092 C 
HETATM    5  C13 UNL     1     -11.250   8.368  23.671  1.00  0.00     0.272 C 
HETATM    6  O1  UNL     1     -10.587   7.350  23.763  1.00  0.00    -0.264 OA
HETATM    7  O2  UNL     1     -10.798   9.618  24.054  1.00  0.00    -0.305 OA
HETATM    8  C14 UNL     1     -11.837  10.593  23.796  1.00  0.00     0.113 C 
HETATM    9  C15 UNL     1     -12.747  10.617  25.065  1.00  0.00     0.043 C 
HETATM   10  C16 UNL     1     -13.256   9.212  25.490  1.00  0.00     0.014 C 
HETATM   11  C17 UNL     1     -13.736   8.372  24.278  1.00  0.00    -0.020 C 
HETATM   12  C18 UNL     1     -15.151   8.857  23.872  1.00  0.00     0.017 C 
HETATM   13  C19 UNL     1     -12.575   9.925  22.681  1.00  0.00     0.137 A 
HETATM   14  O3  UNL     1     -13.597  10.585  21.963  1.00  0.00    -0.364 OA
HETATM   15  C20 UNL     1     -12.371  10.323  21.244  1.00  0.00     0.162 A 
HETATM   16  C21 UNL     1     -11.574  11.538  20.904  1.00  0.00     0.041 C 
HETATM   17  C22 UNL     1     -10.525  11.873  21.986  1.00  0.00     0.010 C 
HETATM   18  C23 UNL     1      -9.699  13.131  21.598  1.00  0.00     0.056 C 
HETATM   19  C24 UNL     1      -8.952  12.967  20.270  1.00  0.00     0.018 C 
HETATM   20  C25 UNL     1      -8.709  13.468  22.712  1.00  0.00     0.131 C 
HETATM   21  O4  UNL     1      -7.524  13.721  22.499  1.00  0.00    -0.298 OA
HETATM   22  C26 UNL     1      -9.281  13.583  24.101  1.00  0.00     0.079 C 
HETATM   23  C27 UNL     1     -10.065  12.324  24.442  1.00  0.00     0.020 C 
HETATM   24  C28 UNL     1     -11.189  11.979  23.416  1.00  0.00    -0.004 C 
HETATM   25  C29 UNL     1     -12.253  13.107  23.459  1.00  0.00     0.019 C 
ENDROOT
BRANCH   1  26
HETATM   26  C7  UNL     1     -14.865   6.136  25.262  1.00  0.00    -0.014 C 
HETATM   27  C8  UNL     1     -14.757   6.349  26.775  1.00  0.00     0.010 C 
BRANCH  26  28
HETATM   28  C6  UNL     1     -15.042   4.624  24.942  1.00  0.00     0.008 C 
BRANCH  28  29
HETATM   29  C5  UNL     1     -14.335   3.604  25.852  1.00  0.00     0.028 C 
BRANCH  29  30
HETATM   30  C4  UNL     1     -13.240   2.830  25.179  1.00  0.00    -0.025 C 
HETATM   31  C2  UNL     1     -12.321   2.021  25.741  1.00  0.00    -0.091 C 
HETATM   32  C1  UNL     1     -12.202   1.712  27.207  1.00  0.00     0.042 C 
HETATM   33  C3  UNL     1     -11.281   1.342  24.886  1.00  0.00     0.042 C 
ENDBRANCH  29  30
ENDBRANCH  28  29
ENDBRANCH  26  28
ENDBRANCH   1  26
TORSDOF 4
ENDMDL
