MODEL 1
REMARK minimizedAffinity -6.45003366
REMARK CNNscore 0.557370782
REMARK CNNaffinity 5.92077255
REMARK  9 active torsions:
REMARK  status: ('A' for Active; 'I' for Inactive)
REMARK    1  A    between atoms: C2_2  and  C3_3 
REMARK    2  A    between atoms: C3_3  and  C5_5 
REMARK    3  A    between atoms: C3_3  and  C6_7 
REMARK    4  A    between atoms: C5_5  and  O1_6 
REMARK    5  A    between atoms: C7_8  and  O2_9 
REMARK    6  A    between atoms: C18_22  and  O5_23 
REMARK    7  A    between atoms: O5_23  and  C19_24 
REMARK    8  A    between atoms: C19_24  and  C20_26 
REMARK    9  A    between atoms: C29_36  and  O8_37 
ROOT
HETATM    1  C6  UNL     1     -13.901  11.576  -2.496  1.00  0.00     0.023 A 
HETATM    2  C7  UNL     1     -12.740  12.150  -3.073  1.00  0.00     0.076 A 
HETATM    3  C8  UNL     1     -11.930  13.058  -2.389  1.00  0.00     0.053 A 
HETATM    4  C9  UNL     1     -12.249  13.432  -1.085  1.00  0.00     0.034 A 
HETATM    5  C10 UNL     1     -11.383  14.399  -0.388  1.00  0.00     0.192 A 
HETATM    6  O3  UNL     1     -10.445  14.918  -0.984  1.00  0.00    -0.287 OA
HETATM    7  C11 UNL     1     -11.675  14.731   1.031  1.00  0.00     0.035 A 
HETATM    8  C12 UNL     1     -12.773  14.242   1.627  1.00  0.00     0.131 A 
HETATM    9  O4  UNL     1     -13.155  14.558   2.910  1.00  0.00    -0.336 OA
HETATM   10  C13 UNL     1     -12.249  15.262   3.781  1.00  0.00     0.065 C 
HETATM   11  C14 UNL     1     -13.177  15.996   4.772  1.00  0.00     0.046 C 
HETATM   12  C15 UNL     1     -11.481  14.202   4.577  1.00  0.00     0.046 C 
HETATM   13  C16 UNL     1     -11.391  16.294   2.989  1.00  0.00     0.031 C 
HETATM   14  C17 UNL     1     -10.391  17.122   3.818  1.00  0.00     0.041 C 
HETATM   15  C18 UNL     1      -9.012  16.482   4.011  1.00  0.00     0.136 C 
HETATM   16  C23 UNL     1      -8.387  16.044   2.679  1.00  0.00     0.012 C 
HETATM   17  C24 UNL     1      -7.947  17.216   1.792  1.00  0.00     0.012 C 
HETATM   18  C25 UNL     1      -9.346  15.100   1.942  1.00  0.00     0.017 C 
HETATM   19  C26 UNL     1     -10.744  15.706   1.711  1.00  0.00     0.033 C 
HETATM   20  C27 UNL     1     -13.696  13.316   0.906  1.00  0.00     0.219 A 
HETATM   21  O7  UNL     1     -14.715  12.883   1.439  1.00  0.00    -0.284 OA
HETATM   22  C28 UNL     1     -13.373  12.903  -0.472  1.00  0.00     0.065 A 
HETATM   23  C29 UNL     1     -14.194  11.984  -1.173  1.00  0.00     0.091 A 
ENDROOT
BRANCH   1  24
HETATM   24  C3  UNL     1     -14.761  10.560  -3.319  1.00  0.00     0.027 C 
HETATM   25  C4  UNL     1     -16.260  10.877  -3.041  1.00  0.00     0.027 C 
BRANCH  24  26
HETATM   26  C2  UNL     1     -14.492  10.667  -4.834  1.00  0.00    -0.021 C 
HETATM   27  C1  UNL     1     -14.679   9.712  -5.757  1.00  0.00     0.008 C 
ENDBRANCH  24  26
BRANCH  24  28
HETATM   28  C5  UNL     1     -14.567   9.041  -2.977  1.00  0.00     0.182 C 
BRANCH  28  29
HETATM   29  O1  UNL     1     -13.235   8.717  -2.546  1.00  0.00    -0.399 OA
HETATM   30  H9  UNL     1     -12.689   8.627  -3.344  1.00  0.00     0.209 HD
ENDBRANCH  28  29
ENDBRANCH  24  28
ENDBRANCH   1  24
BRANCH   2  31
HETATM   31  O2  UNL     1     -12.371  11.816  -4.350  1.00  0.00    -0.360 OA
HETATM   32  H10 UNL     1     -11.492  12.172  -4.554  1.00  0.00     0.217 HD
ENDBRANCH   2  31
BRANCH  23  33
HETATM   33  O8  UNL     1     -15.308  11.474  -0.557  1.00  0.00    -0.359 OA
HETATM   34  H36 UNL     1     -15.395  11.848   0.350  1.00  0.00     0.217 HD
ENDBRANCH  23  33
BRANCH  15  35
HETATM   35  O5  UNL     1      -8.134  17.426   4.652  1.00  0.00    -0.315 OA
BRANCH  35  36
HETATM   36  C19 UNL     1      -7.938  17.255   5.992  1.00  0.00     0.262 C 
HETATM   37  O6  UNL     1      -8.829  17.053   6.806  1.00  0.00    -0.265 OA
BRANCH  36  38
HETATM   38  C20 UNL     1      -6.460  17.381   6.320  1.00  0.00     0.077 C 
HETATM   39  C21 UNL     1      -6.267  18.213   7.586  1.00  0.00     0.020 C 
HETATM   40  C22 UNL     1      -5.694  17.997   5.151  1.00  0.00     0.020 C 
ENDBRANCH  36  38
ENDBRANCH  35  36
ENDBRANCH  15  35
TORSDOF 9
ENDMDL
MODEL 2
REMARK minimizedAffinity -6.44276142
REMARK CNNscore 0.394772857
REMARK CNNaffinity 5.77338648
REMARK  9 active torsions:
REMARK  status: ('A' for Active; 'I' for Inactive)
REMARK    1  A    between atoms: C2_2  and  C3_3 
REMARK    2  A    between atoms: C3_3  and  C5_5 
REMARK    3  A    between atoms: C3_3  and  C6_7 
REMARK    4  A    between atoms: C5_5  and  O1_6 
REMARK    5  A    between atoms: C7_8  and  O2_9 
REMARK    6  A    between atoms: C18_22  and  O5_23 
REMARK    7  A    between atoms: O5_23  and  C19_24 
REMARK    8  A    between atoms: C19_24  and  C20_26 
REMARK    9  A    between atoms: C29_36  and  O8_37 
ROOT
HETATM    1  C6  UNL     1     -18.467  11.201  10.321  1.00  0.00     0.023 A 
HETATM    2  C7  UNL     1     -17.955  12.375  10.930  1.00  0.00     0.076 A 
HETATM    3  C8  UNL     1     -16.864  12.356  11.801  1.00  0.00     0.053 A 
HETATM    4  C9  UNL     1     -16.231  11.150  12.099  1.00  0.00     0.034 A 
HETATM    5  C10 UNL     1     -15.087  11.156  13.027  1.00  0.00     0.192 A 
HETATM    6  O3  UNL     1     -14.757  12.199  13.582  1.00  0.00    -0.287 OA
HETATM    7  C11 UNL     1     -14.360   9.884  13.278  1.00  0.00     0.035 A 
HETATM    8  C12 UNL     1     -14.810   8.735  12.753  1.00  0.00     0.131 A 
HETATM    9  O4  UNL     1     -14.241   7.506  12.995  1.00  0.00    -0.336 OA
HETATM   10  C13 UNL     1     -12.961   7.419  13.651  1.00  0.00     0.065 C 
HETATM   11  C14 UNL     1     -12.980   6.031  14.326  1.00  0.00     0.046 C 
HETATM   12  C15 UNL     1     -11.897   7.376  12.550  1.00  0.00     0.046 C 
HETATM   13  C16 UNL     1     -12.802   8.534  14.729  1.00  0.00     0.031 C 
HETATM   14  C17 UNL     1     -11.475   8.535  15.511  1.00  0.00     0.041 C 
HETATM   15  C18 UNL     1     -10.334   9.327  14.865  1.00  0.00     0.136 C 
HETATM   16  C23 UNL     1     -10.757  10.759  14.505  1.00  0.00     0.012 C 
HETATM   17  C24 UNL     1     -10.970  11.663  15.727  1.00  0.00     0.012 C 
HETATM   18  C25 UNL     1     -11.997  10.722  13.602  1.00  0.00     0.017 C 
HETATM   19  C26 UNL     1     -13.179   9.945  14.216  1.00  0.00     0.033 C 
HETATM   20  C27 UNL     1     -16.011   8.707  11.867  1.00  0.00     0.219 A 
HETATM   21  O7  UNL     1     -16.441   7.655  11.401  1.00  0.00    -0.284 OA
HETATM   22  C28 UNL     1     -16.691   9.973  11.533  1.00  0.00     0.065 A 
HETATM   23  C29 UNL     1     -17.802   9.998  10.653  1.00  0.00     0.091 A 
ENDROOT
BRANCH   1  24
HETATM   24  C3  UNL     1     -19.692  11.296   9.350  1.00  0.00     0.027 C 
HETATM   25  C4  UNL     1     -20.969  10.935  10.165  1.00  0.00     0.027 C 
BRANCH  24  26
HETATM   26  C2  UNL     1     -19.851  12.710   8.756  1.00  0.00    -0.021 C 
HETATM   27  C1  UNL     1     -19.779  13.055   7.461  1.00  0.00     0.008 C 
ENDBRANCH  24  26
BRANCH  24  28
HETATM   28  C5  UNL     1     -19.679  10.333   8.112  1.00  0.00     0.182 C 
BRANCH  28  29
HETATM   29  O1  UNL     1     -18.370  10.141   7.550  1.00  0.00    -0.399 OA
HETATM   30  H9  UNL     1     -18.187  10.906   6.981  1.00  0.00     0.209 HD
ENDBRANCH  28  29
ENDBRANCH  24  28
ENDBRANCH   1  24
BRANCH   2  31
HETATM   31  O2  UNL     1     -18.531  13.591  10.670  1.00  0.00    -0.360 OA
HETATM   32  H10 UNL     1     -17.992  14.308  11.039  1.00  0.00     0.217 HD
ENDBRANCH   2  31
BRANCH  23  33
HETATM   33  O8  UNL     1     -18.251   8.823  10.106  1.00  0.00    -0.359 OA
HETATM   34  H36 UNL     1     -17.706   8.068  10.428  1.00  0.00     0.217 HD
ENDBRANCH  23  33
BRANCH  15  35
HETATM   35  O5  UNL     1      -9.219   9.385  15.774  1.00  0.00    -0.315 OA
BRANCH  35  36
HETATM   36  C19 UNL     1      -8.813   8.196  16.307  1.00  0.00     0.262 C 
HETATM   37  O6  UNL     1      -9.223   7.729  17.361  1.00  0.00    -0.265 OA
BRANCH  36  38
HETATM   38  C20 UNL     1      -7.762   7.559  15.414  1.00  0.00     0.077 C 
HETATM   39  C21 UNL     1      -7.126   6.362  16.115  1.00  0.00     0.020 C 
HETATM   40  C22 UNL     1      -6.695   8.579  15.018  1.00  0.00     0.020 C 
ENDBRANCH  36  38
ENDBRANCH  35  36
ENDBRANCH  15  35
TORSDOF 9
ENDMDL
MODEL 3
REMARK minimizedAffinity -6.45124149
REMARK CNNscore 0.350517869
REMARK CNNaffinity 5.41258478
REMARK  9 active torsions:
REMARK  status: ('A' for Active; 'I' for Inactive)
REMARK    1  A    between atoms: C2_2  and  C3_3 
REMARK    2  A    between atoms: C3_3  and  C5_5 
REMARK    3  A    between atoms: C3_3  and  C6_7 
REMARK    4  A    between atoms: C5_5  and  O1_6 
REMARK    5  A    between atoms: C7_8  and  O2_9 
REMARK    6  A    between atoms: C18_22  and  O5_23 
REMARK    7  A    between atoms: O5_23  and  C19_24 
REMARK    8  A    between atoms: C19_24  and  C20_26 
REMARK    9  A    between atoms: C29_36  and  O8_37 
ROOT
HETATM    1  C6  UNL     1     -16.797  -0.416  13.369  1.00  0.00     0.023 A 
HETATM    2  C7  UNL     1     -16.615  -0.835  12.027  1.00  0.00     0.076 A 
HETATM    3  C8  UNL     1     -15.846  -1.950  11.685  1.00  0.00     0.053 A 
HETATM    4  C9  UNL     1     -15.223  -2.700  12.681  1.00  0.00     0.034 A 
HETATM    5  C10 UNL     1     -14.411  -3.865  12.293  1.00  0.00     0.192 A 
HETATM    6  O3  UNL     1     -14.229  -4.114  11.106  1.00  0.00    -0.287 OA
HETATM    7  C11 UNL     1     -13.818  -4.714  13.360  1.00  0.00     0.035 A 
HETATM    8  C12 UNL     1     -13.931  -4.357  14.647  1.00  0.00     0.131 A 
HETATM    9  O4  UNL     1     -13.351  -5.044  15.688  1.00  0.00    -0.336 OA
HETATM   10  C13 UNL     1     -12.775  -6.345  15.463  1.00  0.00     0.065 C 
HETATM   11  C14 UNL     1     -11.702  -6.475  16.565  1.00  0.00     0.046 C 
HETATM   12  C15 UNL     1     -13.867  -7.375  15.768  1.00  0.00     0.046 C 
HETATM   13  C16 UNL     1     -12.110  -6.433  14.056  1.00  0.00     0.031 C 
HETATM   14  C17 UNL     1     -11.445  -7.777  13.704  1.00  0.00     0.041 C 
HETATM   15  C18 UNL     1     -12.370  -8.819  13.069  1.00  0.00     0.136 C 
HETATM   16  C23 UNL     1     -13.134  -8.255  11.863  1.00  0.00     0.012 C 
HETATM   17  C24 UNL     1     -12.245  -7.996  10.639  1.00  0.00     0.012 C 
HETATM   18  C25 UNL     1     -13.908  -6.998  12.280  1.00  0.00     0.017 C 
HETATM   19  C26 UNL     1     -13.015  -5.912  12.913  1.00  0.00     0.033 C 
HETATM   20  C27 UNL     1     -14.694  -3.138  15.047  1.00  0.00     0.219 A 
HETATM   21  O7  UNL     1     -14.783  -2.793  16.224  1.00  0.00    -0.284 OA
HETATM   22  C28 UNL     1     -15.367  -2.334  14.010  1.00  0.00     0.065 A 
HETATM   23  C29 UNL     1     -16.145  -1.199  14.351  1.00  0.00     0.091 A 
ENDROOT
BRANCH   1  24
HETATM   24  C3  UNL     1     -17.677   0.841  13.682  1.00  0.00     0.027 C 
HETATM   25  C4  UNL     1     -18.429   0.570  15.018  1.00  0.00     0.027 C 
BRANCH  24  26
HETATM   26  C2  UNL     1     -16.827   2.120  13.827  1.00  0.00    -0.021 C 
HETATM   27  C1  UNL     1     -15.621   2.227  14.406  1.00  0.00     0.008 C 
ENDBRANCH  24  26
BRANCH  24  28
HETATM   28  C5  UNL     1     -18.780   1.202  12.626  1.00  0.00     0.182 C 
BRANCH  28  29
HETATM   29  O1  UNL     1     -18.927   2.616  12.411  1.00  0.00    -0.399 OA
HETATM   30  H9  UNL     1     -19.477   2.960  13.134  1.00  0.00     0.209 HD
ENDBRANCH  28  29
ENDBRANCH  24  28
ENDBRANCH   1  24
BRANCH   2  31
HETATM   31  O2  UNL     1     -17.208  -0.142  11.005  1.00  0.00    -0.360 OA
HETATM   32  H10 UNL     1     -17.112  -0.623  10.167  1.00  0.00     0.217 HD
ENDBRANCH   2  31
BRANCH  23  33
HETATM   33  O8  UNL     1     -16.272  -0.844  15.670  1.00  0.00    -0.359 OA
HETATM   34  H36 UNL     1     -15.762  -1.467  16.239  1.00  0.00     0.217 HD
ENDBRANCH  23  33
BRANCH  15  35
HETATM   35  O5  UNL     1     -11.590  -9.952  12.641  1.00  0.00    -0.315 OA
BRANCH  35  36
HETATM   36  C19 UNL     1     -10.258  -9.913  12.936  1.00  0.00     0.262 C 
HETATM   37  O6  UNL     1      -9.456  -9.136  12.436  1.00  0.00    -0.265 OA
BRANCH  36  38
HETATM   38  C20 UNL     1      -9.920 -10.992  13.951  1.00  0.00     0.077 C 
HETATM   39  C21 UNL     1      -9.885 -10.403  15.359  1.00  0.00     0.020 C 
HETATM   40  C22 UNL     1      -8.587 -11.657  13.613  1.00  0.00     0.020 C 
ENDBRANCH  36  38
ENDBRANCH  35  36
ENDBRANCH  15  35
TORSDOF 9
ENDMDL
MODEL 4
REMARK minimizedAffinity -6.30579472
REMARK CNNscore 0.338295072
REMARK CNNaffinity 5.91889954
REMARK  9 active torsions:
REMARK  status: ('A' for Active; 'I' for Inactive)
REMARK    1  A    between atoms: C2_2  and  C3_3 
REMARK    2  A    between atoms: C3_3  and  C5_5 
REMARK    3  A    between atoms: C3_3  and  C6_7 
REMARK    4  A    between atoms: C5_5  and  O1_6 
REMARK    5  A    between atoms: C7_8  and  O2_9 
REMARK    6  A    between atoms: C18_22  and  O5_23 
REMARK    7  A    between atoms: O5_23  and  C19_24 
REMARK    8  A    between atoms: C19_24  and  C20_26 
REMARK    9  A    between atoms: C29_36  and  O8_37 
ROOT
HETATM    1  C6  UNL     1      -6.999  -9.529   7.366  1.00  0.00     0.023 A 
HETATM    2  C7  UNL     1      -6.060 -10.110   6.476  1.00  0.00     0.076 A 
HETATM    3  C8  UNL     1      -6.301 -10.237   5.106  1.00  0.00     0.053 A 
HETATM    4  C9  UNL     1      -7.501  -9.782   4.563  1.00  0.00     0.034 A 
HETATM    5  C10 UNL     1      -7.734  -9.935   3.117  1.00  0.00     0.192 A 
HETATM    6  O3  UNL     1      -6.911 -10.526   2.426  1.00  0.00    -0.287 OA
HETATM    7  C11 UNL     1      -8.977  -9.372   2.527  1.00  0.00     0.035 A 
HETATM    8  C12 UNL     1      -9.917  -8.834   3.318  1.00  0.00     0.131 A 
HETATM    9  O4  UNL     1     -11.124  -8.358   2.862  1.00  0.00    -0.336 OA
HETATM   10  C13 UNL     1     -11.349  -8.196   1.449  1.00  0.00     0.065 C 
HETATM   11  C14 UNL     1     -12.880  -8.322   1.296  1.00  0.00     0.046 C 
HETATM   12  C15 UNL     1     -10.974  -6.752   1.100  1.00  0.00     0.046 C 
HETATM   13  C16 UNL     1     -10.637  -9.316   0.630  1.00  0.00     0.031 C 
HETATM   14  C17 UNL     1     -10.817  -9.257  -0.898  1.00  0.00     0.041 C 
HETATM   15  C18 UNL     1      -9.797  -8.393  -1.645  1.00  0.00     0.136 C 
HETATM   16  C23 UNL     1      -8.351  -8.760  -1.279  1.00  0.00     0.012 C 
HETATM   17  C24 UNL     1      -7.906 -10.123  -1.825  1.00  0.00     0.012 C 
HETATM   18  C25 UNL     1      -8.161  -8.666   0.241  1.00  0.00     0.017 C 
HETATM   19  C26 UNL     1      -9.159  -9.531   1.037  1.00  0.00     0.033 C 
HETATM   20  C27 UNL     1      -9.721  -8.737   4.795  1.00  0.00     0.219 A 
HETATM   21  O7  UNL     1     -10.587  -8.265   5.528  1.00  0.00    -0.284 OA
HETATM   22  C28 UNL     1      -8.455  -9.206   5.388  1.00  0.00     0.065 A 
HETATM   23  C29 UNL     1      -8.206  -9.084   6.779  1.00  0.00     0.091 A 
ENDROOT
BRANCH   1  24
HETATM   24  C3  UNL     1      -6.661  -9.415   8.890  1.00  0.00     0.027 C 
HETATM   25  C4  UNL     1      -7.481 -10.506   9.638  1.00  0.00     0.027 C 
BRANCH  24  26
HETATM   26  C2  UNL     1      -5.159  -9.627   9.168  1.00  0.00    -0.021 C 
HETATM   27  C1  UNL     1      -4.594  -9.965  10.337  1.00  0.00     0.008 C 
ENDBRANCH  24  26
BRANCH  24  28
HETATM   28  C5  UNL     1      -7.015  -8.052   9.584  1.00  0.00     0.182 C 
BRANCH  28  29
HETATM   29  O1  UNL     1      -8.226  -8.101  10.357  1.00  0.00    -0.399 OA
HETATM   30  H9  UNL     1      -8.966  -8.000   9.737  1.00  0.00     0.209 HD
ENDBRANCH  28  29
ENDBRANCH  24  28
ENDBRANCH   1  24
BRANCH   2  31
HETATM   31  O2  UNL     1      -4.859 -10.570   6.948  1.00  0.00    -0.360 OA
HETATM   32  H10 UNL     1      -4.272 -10.806   6.213  1.00  0.00     0.217 HD
ENDBRANCH   2  31
BRANCH  23  33
HETATM   33  O8  UNL     1      -9.163  -8.520   7.584  1.00  0.00    -0.359 OA
HETATM   34  H36 UNL     1      -9.951  -8.266   7.048  1.00  0.00     0.217 HD
ENDBRANCH  23  33
BRANCH  15  35
HETATM   35  O5  UNL     1      -9.976  -8.561  -3.064  1.00  0.00    -0.315 OA
BRANCH  35  36
HETATM   36  C19 UNL     1     -10.597  -7.539  -3.719  1.00  0.00     0.262 C 
HETATM   37  O6  UNL     1     -11.760  -7.201  -3.541  1.00  0.00    -0.265 OA
BRANCH  36  38
HETATM   38  C20 UNL     1      -9.642  -6.904  -4.715  1.00  0.00     0.077 C 
HETATM   39  C21 UNL     1      -8.344  -7.704  -4.789  1.00  0.00     0.020 C 
HETATM   40  C22 UNL     1      -9.357  -5.450  -4.345  1.00  0.00     0.020 C 
ENDBRANCH  36  38
ENDBRANCH  35  36
ENDBRANCH  15  35
TORSDOF 9
ENDMDL
MODEL 5
REMARK minimizedAffinity -10.07306
REMARK CNNscore 0.323037118
REMARK CNNaffinity 6.70530081
REMARK  9 active torsions:
REMARK  status: ('A' for Active; 'I' for Inactive)
REMARK    1  A    between atoms: C2_2  and  C3_3 
REMARK    2  A    between atoms: C3_3  and  C5_5 
REMARK    3  A    between atoms: C3_3  and  C6_7 
REMARK    4  A    between atoms: C5_5  and  O1_6 
REMARK    5  A    between atoms: C7_8  and  O2_9 
REMARK    6  A    between atoms: C18_22  and  O5_23 
REMARK    7  A    between atoms: O5_23  and  C19_24 
REMARK    8  A    between atoms: C19_24  and  C20_26 
REMARK    9  A    between atoms: C29_36  and  O8_37 
ROOT
HETATM    1  C6  UNL     1      -5.446   4.579  13.071  1.00  0.00     0.023 A 
HETATM    2  C7  UNL     1      -5.224   5.554  14.076  1.00  0.00     0.076 A 
HETATM    3  C8  UNL     1      -3.997   6.198  14.243  1.00  0.00     0.053 A 
HETATM    4  C9  UNL     1      -2.929   5.893  13.400  1.00  0.00     0.034 A 
HETATM    5  C10 UNL     1      -1.643   6.581  13.601  1.00  0.00     0.192 A 
HETATM    6  O3  UNL     1      -1.503   7.348  14.547  1.00  0.00    -0.287 OA
HETATM    7  C11 UNL     1      -0.532   6.318  12.649  1.00  0.00     0.035 A 
HETATM    8  C12 UNL     1      -0.668   5.388  11.693  1.00  0.00     0.131 A 
HETATM    9  O4  UNL     1       0.333   5.032  10.820  1.00  0.00    -0.336 OA
HETATM   10  C13 UNL     1       1.533   5.824  10.735  1.00  0.00     0.065 C 
HETATM   11  C14 UNL     1       2.605   4.829  10.242  1.00  0.00     0.046 C 
HETATM   12  C15 UNL     1       1.314   6.848   9.616  1.00  0.00     0.046 C 
HETATM   13  C16 UNL     1       1.934   6.394  12.129  1.00  0.00     0.031 C 
HETATM   14  C17 UNL     1       3.214   7.250  12.168  1.00  0.00     0.041 C 
HETATM   15  C18 UNL     1       3.014   8.742  11.881  1.00  0.00     0.136 C 
HETATM   16  C23 UNL     1       1.918   9.357  12.762  1.00  0.00     0.012 C 
HETATM   17  C24 UNL     1       2.315   9.484  14.240  1.00  0.00     0.012 C 
HETATM   18  C25 UNL     1       0.611   8.572  12.589  1.00  0.00     0.017 C 
HETATM   19  C26 UNL     1       0.759   7.065  12.881  1.00  0.00     0.033 C 
HETATM   20  C27 UNL     1      -1.946   4.635  11.524  1.00  0.00     0.219 A 
HETATM   21  O7  UNL     1      -2.070   3.766  10.663  1.00  0.00    -0.284 OA
HETATM   22  C28 UNL     1      -3.090   4.947  12.400  1.00  0.00     0.065 A 
HETATM   23  C29 UNL     1      -4.337   4.293  12.239  1.00  0.00     0.091 A 
ENDROOT
BRANCH   1  24
HETATM   24  C3  UNL     1      -6.849   3.899  12.938  1.00  0.00     0.027 C 
HETATM   25  C4  UNL     1      -7.413   3.695  14.375  1.00  0.00     0.027 C 
BRANCH  24  26
HETATM   26  C2  UNL     1      -7.835   4.760  12.123  1.00  0.00    -0.021 C 
HETATM   27  C1  UNL     1      -8.768   5.595  12.606  1.00  0.00     0.008 C 
ENDBRANCH  24  26
BRANCH  24  28
HETATM   28  C5  UNL     1      -6.880   2.487  12.254  1.00  0.00     0.182 C 
BRANCH  28  29
HETATM   29  O1  UNL     1      -8.035   1.706  12.604  1.00  0.00    -0.399 OA
HETATM   30  H9  UNL     1      -7.858   1.304  13.471  1.00  0.00     0.209 HD
ENDBRANCH  28  29
ENDBRANCH  24  28
ENDBRANCH   1  24
BRANCH   2  31
HETATM   31  O2  UNL     1      -6.237   5.901  14.931  1.00  0.00    -0.360 OA
HETATM   32  H10 UNL     1      -5.984   6.671  15.464  1.00  0.00     0.217 HD
ENDBRANCH   2  31
BRANCH  23  33
HETATM   33  O8  UNL     1      -4.479   3.352  11.251  1.00  0.00    -0.359 OA
HETATM   34  H36 UNL     1      -3.632   3.248  10.758  1.00  0.00     0.217 HD
ENDBRANCH  23  33
BRANCH  15  35
HETATM   35  O5  UNL     1       4.250   9.443  12.115  1.00  0.00    -0.315 OA
BRANCH  35  36
HETATM   36  C19 UNL     1       5.281   9.147  11.271  1.00  0.00     0.262 C 
HETATM   37  O6  UNL     1       5.405   9.597  10.140  1.00  0.00    -0.265 OA
BRANCH  36  38
HETATM   38  C20 UNL     1       6.228   8.163  11.934  1.00  0.00     0.077 C 
HETATM   39  C21 UNL     1       7.362   8.907  12.634  1.00  0.00     0.020 C 
HETATM   40  C22 UNL     1       6.786   7.173  10.911  1.00  0.00     0.020 C 
ENDBRANCH  36  38
ENDBRANCH  35  36
ENDBRANCH  15  35
TORSDOF 9
ENDMDL
MODEL 6
REMARK minimizedAffinity -6.18071079
REMARK CNNscore 0.321924448
REMARK CNNaffinity 5.43348551
REMARK  9 active torsions:
REMARK  status: ('A' for Active; 'I' for Inactive)
REMARK    1  A    between atoms: C2_2  and  C3_3 
REMARK    2  A    between atoms: C3_3  and  C5_5 
REMARK    3  A    between atoms: C3_3  and  C6_7 
REMARK    4  A    between atoms: C5_5  and  O1_6 
REMARK    5  A    between atoms: C7_8  and  O2_9 
REMARK    6  A    between atoms: C18_22  and  O5_23 
REMARK    7  A    between atoms: O5_23  and  C19_24 
REMARK    8  A    between atoms: C19_24  and  C20_26 
REMARK    9  A    between atoms: C29_36  and  O8_37 
ROOT
HETATM    1  C6  UNL     1     -16.330  -0.665  12.637  1.00  0.00     0.023 A 
HETATM    2  C7  UNL     1     -17.265  -0.123  11.718  1.00  0.00     0.076 A 
HETATM    3  C8  UNL     1     -17.676   1.211  11.762  1.00  0.00     0.053 A 
HETATM    4  C9  UNL     1     -17.162   2.068  12.735  1.00  0.00     0.034 A 
HETATM    5  C10 UNL     1     -17.618   3.468  12.765  1.00  0.00     0.192 A 
HETATM    6  O3  UNL     1     -18.494   3.841  11.992  1.00  0.00    -0.287 OA
HETATM    7  C11 UNL     1     -17.006   4.400  13.747  1.00  0.00     0.035 A 
HETATM    8  C12 UNL     1     -16.137   3.944  14.661  1.00  0.00     0.131 A 
HETATM    9  O4  UNL     1     -15.582   4.724  15.649  1.00  0.00    -0.336 OA
HETATM   10  C13 UNL     1     -15.730   6.156  15.608  1.00  0.00     0.065 C 
HETATM   11  C14 UNL     1     -15.619   6.586  17.086  1.00  0.00     0.046 C 
HETATM   12  C15 UNL     1     -14.503   6.711  14.878  1.00  0.00     0.046 C 
HETATM   13  C16 UNL     1     -17.122   6.564  15.037  1.00  0.00     0.031 C 
HETATM   14  C17 UNL     1     -17.405   8.076  14.957  1.00  0.00     0.041 C 
HETATM   15  C18 UNL     1     -16.940   8.762  13.669  1.00  0.00     0.136 C 
HETATM   16  C23 UNL     1     -17.454   8.043  12.413  1.00  0.00     0.012 C 
HETATM   17  C24 UNL     1     -18.966   8.195  12.194  1.00  0.00     0.012 C 
HETATM   18  C25 UNL     1     -17.030   6.570  12.449  1.00  0.00     0.017 C 
HETATM   19  C26 UNL     1     -17.487   5.831  13.723  1.00  0.00     0.033 C 
HETATM   20  C27 UNL     1     -15.720   2.511  14.683  1.00  0.00     0.219 A 
HETATM   21  O7  UNL     1     -14.940   2.082  15.531  1.00  0.00    -0.284 OA
HETATM   22  C28 UNL     1     -16.246   1.590  13.659  1.00  0.00     0.065 A 
HETATM   23  C29 UNL     1     -15.836   0.234  13.611  1.00  0.00     0.091 A 
ENDROOT
BRANCH   1  24
HETATM   24  C3  UNL     1     -15.910  -2.169  12.526  1.00  0.00     0.027 C 
HETATM   25  C4  UNL     1     -15.427  -2.628  13.933  1.00  0.00     0.027 C 
BRANCH  24  26
HETATM   26  C2  UNL     1     -17.081  -3.065  12.073  1.00  0.00    -0.021 C 
HETATM   27  C1  UNL     1     -17.630  -4.082  12.754  1.00  0.00     0.008 C 
ENDBRANCH  24  26
BRANCH  24  28
HETATM   28  C5  UNL     1     -14.738  -2.497  11.536  1.00  0.00     0.182 C 
BRANCH  28  29
HETATM   29  O1  UNL     1     -13.437  -2.412  12.139  1.00  0.00    -0.399 OA
HETATM   30  H9  UNL     1     -13.189  -1.473  12.154  1.00  0.00     0.209 HD
ENDBRANCH  28  29
ENDBRANCH  24  28
ENDBRANCH   1  24
BRANCH   2  31
HETATM   31  O2  UNL     1     -17.799  -0.913  10.736  1.00  0.00    -0.360 OA
HETATM   32  H10 UNL     1     -18.306  -0.377  10.105  1.00  0.00     0.217 HD
ENDBRANCH   2  31
BRANCH  23  33
HETATM   33  O8  UNL     1     -14.935  -0.227  14.537  1.00  0.00    -0.359 OA
HETATM   34  H36 UNL     1     -14.684   0.497  15.157  1.00  0.00     0.217 HD
ENDBRANCH  23  33
BRANCH  15  35
HETATM   35  O5  UNL     1     -17.413  10.122  13.655  1.00  0.00    -0.315 OA
BRANCH  35  36
HETATM   36  C19 UNL     1     -16.643  11.023  12.978  1.00  0.00     0.262 C 
HETATM   37  O6  UNL     1     -17.024  11.683  12.021  1.00  0.00    -0.265 OA
BRANCH  36  38
HETATM   38  C20 UNL     1     -15.246  11.061  13.572  1.00  0.00     0.077 C 
HETATM   39  C21 UNL     1     -15.196  12.029  14.751  1.00  0.00     0.020 C 
HETATM   40  C22 UNL     1     -14.216  11.450  12.513  1.00  0.00     0.020 C 
ENDBRANCH  36  38
ENDBRANCH  35  36
ENDBRANCH  15  35
TORSDOF 9
ENDMDL
MODEL 7
REMARK minimizedAffinity -8.24164677
REMARK CNNscore 0.31317395
REMARK CNNaffinity 6.73645401
REMARK  9 active torsions:
REMARK  status: ('A' for Active; 'I' for Inactive)
REMARK    1  A    between atoms: C2_2  and  C3_3 
REMARK    2  A    between atoms: C3_3  and  C5_5 
REMARK    3  A    between atoms: C3_3  and  C6_7 
REMARK    4  A    between atoms: C5_5  and  O1_6 
REMARK    5  A    between atoms: C7_8  and  O2_9 
REMARK    6  A    between atoms: C18_22  and  O5_23 
REMARK    7  A    between atoms: O5_23  and  C19_24 
REMARK    8  A    between atoms: C19_24  and  C20_26 
REMARK    9  A    between atoms: C29_36  and  O8_37 
ROOT
HETATM    1  C6  UNL     1      -4.315   5.845  13.519  1.00  0.00     0.023 A 
HETATM    2  C7  UNL     1      -5.205   4.895  12.955  1.00  0.00     0.076 A 
HETATM    3  C8  UNL     1      -6.593   5.021  13.040  1.00  0.00     0.053 A 
HETATM    4  C9  UNL     1      -7.155   6.114  13.698  1.00  0.00     0.034 A 
HETATM    5  C10 UNL     1      -8.622   6.218  13.781  1.00  0.00     0.192 A 
HETATM    6  O3  UNL     1      -9.324   5.313  13.344  1.00  0.00    -0.287 OA
HETATM    7  C11 UNL     1      -9.220   7.427  14.406  1.00  0.00     0.035 A 
HETATM    8  C12 UNL     1      -8.435   8.348  14.982  1.00  0.00     0.131 A 
HETATM    9  O4  UNL     1      -8.910   9.456  15.646  1.00  0.00    -0.336 OA
HETATM   10  C13 UNL     1     -10.302   9.812  15.551  1.00  0.00     0.065 C 
HETATM   11  C14 UNL     1     -10.579  10.590  16.855  1.00  0.00     0.046 C 
HETATM   12  C15 UNL     1     -10.431  10.806  14.392  1.00  0.00     0.046 C 
HETATM   13  C16 UNL     1     -11.208   8.545  15.483  1.00  0.00     0.031 C 
HETATM   14  C17 UNL     1     -12.724   8.800  15.393  1.00  0.00     0.041 C 
HETATM   15  C18 UNL     1     -13.276   8.978  13.976  1.00  0.00     0.136 C 
HETATM   16  C23 UNL     1     -12.858   7.830  13.045  1.00  0.00     0.012 C 
HETATM   17  C24 UNL     1     -13.546   6.497  13.367  1.00  0.00     0.012 C 
HETATM   18  C25 UNL     1     -11.330   7.696  13.040  1.00  0.00     0.017 C 
HETATM   19  C26 UNL     1     -10.728   7.501  14.445  1.00  0.00     0.033 C 
HETATM   20  C27 UNL     1      -6.948   8.217  14.964  1.00  0.00     0.219 A 
HETATM   21  O7  UNL     1      -6.224   9.047  15.509  1.00  0.00    -0.284 OA
HETATM   22  C28 UNL     1      -6.333   7.072  14.268  1.00  0.00     0.065 A 
HETATM   23  C29 UNL     1      -4.924   6.937  14.182  1.00  0.00     0.091 A 
ENDROOT
BRANCH   1  24
HETATM   24  C3  UNL     1      -2.769   5.644  13.382  1.00  0.00     0.027 C 
HETATM   25  C4  UNL     1      -2.533   4.421  12.448  1.00  0.00     0.027 C 
BRANCH  24  26
HETATM   26  C2  UNL     1      -2.075   6.884  12.783  1.00  0.00    -0.021 C 
HETATM   27  C1  UNL     1      -0.879   6.926  12.176  1.00  0.00     0.008 C 
ENDBRANCH  24  26
BRANCH  24  28
HETATM   28  C5  UNL     1      -1.984   5.337  14.706  1.00  0.00     0.182 C 
BRANCH  28  29
HETATM   29  O1  UNL     1      -1.742   6.503  15.511  1.00  0.00    -0.399 OA
HETATM   30  H9  UNL     1      -0.969   6.956  15.134  1.00  0.00     0.209 HD
ENDBRANCH  28  29
ENDBRANCH  24  28
ENDBRANCH   1  24
BRANCH   2  31
HETATM   31  O2  UNL     1      -4.712   3.803  12.291  1.00  0.00    -0.360 OA
HETATM   32  H10 UNL     1      -5.428   3.325  11.843  1.00  0.00     0.217 HD
ENDBRANCH   2  31
BRANCH  23  33
HETATM   33  O8  UNL     1      -4.122   7.888  14.759  1.00  0.00    -0.359 OA
HETATM   34  H36 UNL     1      -4.675   8.581  15.191  1.00  0.00     0.217 HD
ENDBRANCH  23  33
BRANCH  15  35
HETATM   35  O5  UNL     1     -14.714   9.038  14.027  1.00  0.00    -0.315 OA
BRANCH  35  36
HETATM   36  C19 UNL     1     -15.328   9.691  12.999  1.00  0.00     0.262 C 
HETATM   37  O6  UNL     1     -15.177  10.877  12.737  1.00  0.00    -0.265 OA
BRANCH  36  38
HETATM   38  C20 UNL     1     -16.241   8.735  12.249  1.00  0.00     0.077 C 
HETATM   39  C21 UNL     1     -17.111   9.502  11.257  1.00  0.00     0.020 C 
HETATM   40  C22 UNL     1     -17.109   7.938  13.222  1.00  0.00     0.020 C 
ENDBRANCH  36  38
ENDBRANCH  35  36
ENDBRANCH  15  35
TORSDOF 9
ENDMDL
MODEL 8
REMARK minimizedAffinity -6.67124701
REMARK CNNscore 0.310846508
REMARK CNNaffinity 6.20431137
REMARK  9 active torsions:
REMARK  status: ('A' for Active; 'I' for Inactive)
REMARK    1  A    between atoms: C2_2  and  C3_3 
REMARK    2  A    between atoms: C3_3  and  C5_5 
REMARK    3  A    between atoms: C3_3  and  C6_7 
REMARK    4  A    between atoms: C5_5  and  O1_6 
REMARK    5  A    between atoms: C7_8  and  O2_9 
REMARK    6  A    between atoms: C18_22  and  O5_23 
REMARK    7  A    between atoms: O5_23  and  C19_24 
REMARK    8  A    between atoms: C19_24  and  C20_26 
REMARK    9  A    between atoms: C29_36  and  O8_37 
ROOT
HETATM    1  C6  UNL     1      -5.781   7.059  14.540  1.00  0.00     0.023 A 
HETATM    2  C7  UNL     1      -5.869   8.279  15.257  1.00  0.00     0.076 A 
HETATM    3  C8  UNL     1      -7.079   8.948  15.458  1.00  0.00     0.053 A 
HETATM    4  C9  UNL     1      -8.262   8.419  14.946  1.00  0.00     0.034 A 
HETATM    5  C10 UNL     1      -9.522   9.149  15.164  1.00  0.00     0.192 A 
HETATM    6  O3  UNL     1      -9.506  10.242  15.720  1.00  0.00    -0.287 OA
HETATM    7  C11 UNL     1     -10.794   8.541  14.692  1.00  0.00     0.035 A 
HETATM    8  C12 UNL     1     -10.777   7.403  13.984  1.00  0.00     0.131 A 
HETATM    9  O4  UNL     1     -11.899   6.814  13.448  1.00  0.00    -0.336 OA
HETATM   10  C13 UNL     1     -13.208   7.277  13.830  1.00  0.00     0.065 C 
HETATM   11  C14 UNL     1     -14.099   6.917  12.621  1.00  0.00     0.046 C 
HETATM   12  C15 UNL     1     -13.664   6.407  15.006  1.00  0.00     0.046 C 
HETATM   13  C16 UNL     1     -13.219   8.819  14.060  1.00  0.00     0.031 C 
HETATM   14  C17 UNL     1     -14.573   9.434  14.460  1.00  0.00     0.041 C 
HETATM   15  C18 UNL     1     -14.869   9.447  15.962  1.00  0.00     0.136 C 
HETATM   16  C23 UNL     1     -13.724  10.074  16.771  1.00  0.00     0.012 C 
HETATM   17  C24 UNL     1     -13.590  11.590  16.574  1.00  0.00     0.012 C 
HETATM   18  C25 UNL     1     -12.411   9.342  16.463  1.00  0.00     0.017 C 
HETATM   19  C26 UNL     1     -12.063   9.314  14.962  1.00  0.00     0.033 C 
HETATM   20  C27 UNL     1      -9.496   6.691  13.697  1.00  0.00     0.219 A 
HETATM   21  O7  UNL     1      -9.471   5.659  13.029  1.00  0.00    -0.284 OA
HETATM   22  C28 UNL     1      -8.234   7.230  14.235  1.00  0.00     0.065 A 
HETATM   23  C29 UNL     1      -7.003   6.557  14.031  1.00  0.00     0.091 A 
ENDROOT
BRANCH   1  24
HETATM   24  C3  UNL     1      -4.393   6.360  14.356  1.00  0.00     0.027 C 
HETATM   25  C4  UNL     1      -4.596   5.154  13.392  1.00  0.00     0.027 C 
BRANCH  24  26
HETATM   26  C2  UNL     1      -3.338   7.315  13.762  1.00  0.00    -0.021 C 
HETATM   27  C1  UNL     1      -2.238   6.975  13.073  1.00  0.00     0.008 C 
ENDBRANCH  24  26
BRANCH  24  28
HETATM   28  C5  UNL     1      -3.729   5.774  15.652  1.00  0.00     0.182 C 
BRANCH  28  29
HETATM   29  O1  UNL     1      -3.103   6.772  16.476  1.00  0.00    -0.399 OA
HETATM   30  H9  UNL     1      -2.231   6.957  16.089  1.00  0.00     0.209 HD
ENDBRANCH  28  29
ENDBRANCH  24  28
ENDBRANCH   1  24
BRANCH   2  31
HETATM   31  O2  UNL     1      -4.741   8.845  15.790  1.00  0.00    -0.360 OA
HETATM   32  H10 UNL     1      -4.974   9.590  16.367  1.00  0.00     0.217 HD
ENDBRANCH   2  31
BRANCH  23  33
HETATM   33  O8  UNL     1      -6.989   5.385  13.319  1.00  0.00    -0.359 OA
HETATM   34  H36 UNL     1      -7.900   5.160  13.019  1.00  0.00     0.217 HD
ENDBRANCH  23  33
BRANCH  15  35
HETATM   35  O5  UNL     1     -16.076  10.195  16.205  1.00  0.00    -0.315 OA
BRANCH  35  36
HETATM   36  C19 UNL     1     -17.174   9.469  16.561  1.00  0.00     0.262 C 
HETATM   37  O6  UNL     1     -17.377   9.017  17.680  1.00  0.00    -0.265 OA
BRANCH  36  38
HETATM   38  C20 UNL     1     -18.087   9.285  15.361  1.00  0.00     0.077 C 
HETATM   39  C21 UNL     1     -19.499   9.763  15.690  1.00  0.00     0.020 C 
HETATM   40  C22 UNL     1     -18.105   7.825  14.911  1.00  0.00     0.020 C 
ENDBRANCH  36  38
ENDBRANCH  35  36
ENDBRANCH  15  35
TORSDOF 9
ENDMDL
MODEL 9
REMARK minimizedAffinity -6.14722252
REMARK CNNscore 0.302366972
REMARK CNNaffinity 5.96886969
REMARK  9 active torsions:
REMARK  status: ('A' for Active; 'I' for Inactive)
REMARK    1  A    between atoms: C2_2  and  C3_3 
REMARK    2  A    between atoms: C3_3  and  C5_5 
REMARK    3  A    between atoms: C3_3  and  C6_7 
REMARK    4  A    between atoms: C5_5  and  O1_6 
REMARK    5  A    between atoms: C7_8  and  O2_9 
REMARK    6  A    between atoms: C18_22  and  O5_23 
REMARK    7  A    between atoms: O5_23  and  C19_24 
REMARK    8  A    between atoms: C19_24  and  C20_26 
REMARK    9  A    between atoms: C29_36  and  O8_37 
ROOT
HETATM    1  C6  UNL     1      -1.753   9.073  14.860  1.00  0.00     0.023 A 
HETATM    2  C7  UNL     1      -2.231   8.413  16.020  1.00  0.00     0.076 A 
HETATM    3  C8  UNL     1      -2.729   9.102  17.127  1.00  0.00     0.053 A 
HETATM    4  C9  UNL     1      -2.772  10.495  17.120  1.00  0.00     0.034 A 
HETATM    5  C10 UNL     1      -3.294  11.199  18.304  1.00  0.00     0.192 A 
HETATM    6  O3  UNL     1      -3.608  10.562  19.303  1.00  0.00    -0.287 OA
HETATM    7  C11 UNL     1      -3.419  12.679  18.261  1.00  0.00     0.035 A 
HETATM    8  C12 UNL     1      -2.961  13.366  17.204  1.00  0.00     0.131 A 
HETATM    9  O4  UNL     1      -2.971  14.739  17.116  1.00  0.00    -0.336 OA
HETATM   10  C13 UNL     1      -3.707  15.518  18.079  1.00  0.00     0.065 C 
HETATM   11  C14 UNL     1      -2.978  16.878  18.095  1.00  0.00     0.046 C 
HETATM   12  C15 UNL     1      -5.101  15.756  17.488  1.00  0.00     0.046 C 
HETATM   13  C16 UNL     1      -3.654  14.867  19.494  1.00  0.00     0.031 C 
HETATM   14  C17 UNL     1      -4.395  15.619  20.614  1.00  0.00     0.041 C 
HETATM   15  C18 UNL     1      -5.878  15.267  20.769  1.00  0.00     0.136 C 
HETATM   16  C23 UNL     1      -6.104  13.753  20.886  1.00  0.00     0.012 C 
HETATM   17  C24 UNL     1      -5.611  13.159  22.213  1.00  0.00     0.012 C 
HETATM   18  C25 UNL     1      -5.481  13.041  19.678  1.00  0.00     0.017 C 
HETATM   19  C26 UNL     1      -3.983  13.354  19.488  1.00  0.00     0.033 C 
HETATM   20  C27 UNL     1      -2.366  12.666  16.027  1.00  0.00     0.219 A 
HETATM   21  O7  UNL     1      -1.924  13.290  15.065  1.00  0.00    -0.284 OA
HETATM   22  C28 UNL     1      -2.317  11.192  16.012  1.00  0.00     0.065 A 
HETATM   23  C29 UNL     1      -1.809  10.487  14.892  1.00  0.00     0.091 A 
ENDROOT
BRANCH   1  24
HETATM   24  C3  UNL     1      -1.212   8.237  13.652  1.00  0.00     0.027 C 
HETATM   25  C4  UNL     1      -0.110   7.282  14.195  1.00  0.00     0.027 C 
BRANCH  24  26
HETATM   26  C2  UNL     1      -2.323   7.403  12.982  1.00  0.00    -0.021 C 
HETATM   27  C1  UNL     1      -2.353   6.070  12.832  1.00  0.00     0.008 C 
ENDBRANCH  24  26
BRANCH  24  28
HETATM   28  C5  UNL     1      -0.549   9.046  12.483  1.00  0.00     0.182 C 
BRANCH  28  29
HETATM   29  O1  UNL     1       0.806   9.439  12.754  1.00  0.00    -0.399 OA
HETATM   30  H9  UNL     1       0.769  10.234  13.310  1.00  0.00     0.209 HD
ENDBRANCH  28  29
ENDBRANCH  24  28
ENDBRANCH   1  24
BRANCH   2  31
HETATM   31  O2  UNL     1      -2.220   7.044  16.084  1.00  0.00    -0.360 OA
HETATM   32  H10 UNL     1      -2.702   6.737  16.868  1.00  0.00     0.217 HD
ENDBRANCH   2  31
BRANCH  23  33
HETATM   33  O8  UNL     1      -1.354  11.190  13.806  1.00  0.00    -0.359 OA
HETATM   34  H36 UNL     1      -1.442  12.158  13.967  1.00  0.00     0.217 HD
ENDBRANCH  23  33
BRANCH  15  35
HETATM   35  O5  UNL     1      -6.400  15.910  21.948  1.00  0.00    -0.315 OA
BRANCH  35  36
HETATM   36  C19 UNL     1      -7.750  16.103  21.983  1.00  0.00     0.262 C 
HETATM   37  O6  UNL     1      -8.415  16.544  21.055  1.00  0.00    -0.265 OA
BRANCH  36  38
HETATM   38  C20 UNL     1      -8.295  15.715  23.347  1.00  0.00     0.077 C 
HETATM   39  C21 UNL     1      -7.184  15.758  24.393  1.00  0.00     0.020 C 
HETATM   40  C22 UNL     1      -8.938  14.330  23.302  1.00  0.00     0.020 C 
ENDBRANCH  36  38
ENDBRANCH  35  36
ENDBRANCH  15  35
TORSDOF 9
ENDMDL
