MODEL 1
REMARK minimizedAffinity -8.62368679
REMARK CNNscore 0.544563174
REMARK CNNaffinity 7.14505053
REMARK  9 active torsions:
REMARK  status: ('A' for Active; 'I' for Inactive)
REMARK    1  A    between atoms: C2_2  and  C3_3 
REMARK    2  A    between atoms: C2_2  and  C9_12 
REMARK    3  A    between atoms: C3_3  and  C4_4 
REMARK    4  A    between atoms: C4_4  and  C5_5 
REMARK    5  A    between atoms: C5_5  and  O1_6 
REMARK    6  A    between atoms: C5_5  and  C6_7 
REMARK    7  A    between atoms: C6_7  and  O2_9 
REMARK    8  A    between atoms: C6_7  and  C8_10 
REMARK    9  A    between atoms: C8_10  and  O3_11 
ROOT
HETATM    1  C9  UNL     1      -2.404  49.515 -21.620  1.00  0.00    -0.002 C 
HETATM    2  C10 UNL     1      -3.020  50.908 -21.373  1.00  0.00     0.007 C 
HETATM    3  C11 UNL     1      -2.157  51.634 -20.347  1.00  0.00     0.015 C 
HETATM    4  C12 UNL     1      -0.919  50.751 -20.083  1.00  0.00    -0.005 C 
HETATM    5  C13 UNL     1       0.210  51.129 -21.082  1.00  0.00     0.021 C 
HETATM    6  C14 UNL     1      -0.430  50.936 -18.633  1.00  0.00    -0.000 C 
HETATM    7  C15 UNL     1      -0.579  50.012 -17.652  1.00  0.00    -0.060 C 
HETATM    8  C16 UNL     1      -1.380  48.747 -17.900  1.00  0.00     0.036 C 
HETATM    9  C17 UNL     1      -2.251  48.789 -19.153  1.00  0.00     0.015 C 
HETATM   10  C18 UNL     1      -1.466  49.293 -20.382  1.00  0.00    -0.028 C 
HETATM   11  C19 UNL     1      -0.315  48.308 -20.699  1.00  0.00     0.016 C 
HETATM   12  C20 UNL     1      -0.005  50.192 -16.221  1.00  0.00    -0.014 C 
HETATM   13  C21 UNL     1      -1.146  50.797 -15.373  1.00  0.00     0.020 C 
HETATM   14  C22 UNL     1       0.433  48.832 -15.612  1.00  0.00     0.021 C 
HETATM   15  C23 UNL     1       1.148  48.965 -14.277  1.00  0.00     0.080 C 
HETATM   16  C24 UNL     1       2.371  49.834 -14.417  1.00  0.00     0.135 C 
HETATM   17  O4  UNL     1       3.445  49.463 -13.940  1.00  0.00    -0.297 OA
HETATM   18  C25 UNL     1       2.190  51.215 -15.065  1.00  0.00     0.018 C 
HETATM   19  C26 UNL     1       3.592  51.719 -15.497  1.00  0.00     0.023 C 
HETATM   20  C27 UNL     1       1.680  52.181 -13.985  1.00  0.00     0.023 C 
HETATM   21  C28 UNL     1       1.277  51.085 -16.335  1.00  0.00     0.020 C 
HETATM   22  C29 UNL     1       0.916  52.430 -16.967  1.00  0.00     0.090 C 
HETATM   23  C30 UNL     1       0.172  52.270 -18.271  1.00  0.00     0.157 C 
HETATM   24  O5  UNL     1       0.021  53.252 -18.998  1.00  0.00    -0.293 OA
ENDROOT
BRANCH   1  25
HETATM   25  C2  UNL     1      -3.501  48.454 -21.965  1.00  0.00    -0.014 C 
HETATM   26  C1  UNL     1      -3.015  47.016 -21.754  1.00  0.00     0.010 C 
BRANCH  25  27
HETATM   27  C3  UNL     1      -3.985  48.641 -23.433  1.00  0.00     0.007 C 
BRANCH  27  28
HETATM   28  C4  UNL     1      -2.847  48.789 -24.455  1.00  0.00     0.035 C 
BRANCH  28  29
HETATM   29  C5  UNL     1      -3.156  49.704 -25.656  1.00  0.00     0.154 C 
BRANCH  29  30
HETATM   30  O1  UNL     1      -4.584  49.735 -25.821  1.00  0.00    -0.392 OA
HETATM   31  H10 UNL     1      -4.755  50.265 -26.630  1.00  0.00     0.210 HD
ENDBRANCH  29  30
BRANCH  29  32
HETATM   32  C6  UNL     1      -2.623  51.167 -25.583  1.00  0.00     0.101 C 
HETATM   33  C7  UNL     1      -1.374  51.305 -24.715  1.00  0.00     0.051 C 
BRANCH  32  34
HETATM   34  O2  UNL     1      -3.648  52.022 -25.044  1.00  0.00    -0.385 OA
HETATM   35  H14 UNL     1      -4.494  51.573 -25.243  1.00  0.00     0.210 HD
ENDBRANCH  32  34
BRANCH  32  36
HETATM   36  C8  UNL     1      -2.313  51.698 -27.003  1.00  0.00     0.204 C 
BRANCH  36  37
HETATM   37  O3  UNL     1      -2.412  53.125 -27.035  1.00  0.00    -0.398 OA
HETATM   38  H17 UNL     1      -1.633  53.444 -26.538  1.00  0.00     0.209 HD
ENDBRANCH  36  37
ENDBRANCH  32  36
ENDBRANCH  29  32
ENDBRANCH  28  29
ENDBRANCH  27  28
ENDBRANCH  25  27
ENDBRANCH   1  25
TORSDOF 9
ENDMDL
MODEL 2
REMARK minimizedAffinity -6.88778973
REMARK CNNscore 0.505692959
REMARK CNNaffinity 6.7960968
REMARK  9 active torsions:
REMARK  status: ('A' for Active; 'I' for Inactive)
REMARK    1  A    between atoms: C2_2  and  C3_3 
REMARK    2  A    between atoms: C2_2  and  C9_12 
REMARK    3  A    between atoms: C3_3  and  C4_4 
REMARK    4  A    between atoms: C4_4  and  C5_5 
REMARK    5  A    between atoms: C5_5  and  O1_6 
REMARK    6  A    between atoms: C5_5  and  C6_7 
REMARK    7  A    between atoms: C6_7  and  O2_9 
REMARK    8  A    between atoms: C6_7  and  C8_10 
REMARK    9  A    between atoms: C8_10  and  O3_11 
ROOT
HETATM    1  C9  UNL     1      -1.330  53.280 -11.522  1.00  0.00    -0.002 C 
HETATM    2  C10 UNL     1      -0.289  52.274 -12.057  1.00  0.00     0.007 C 
HETATM    3  C11 UNL     1      -1.022  50.993 -12.442  1.00  0.00     0.015 C 
HETATM    4  C12 UNL     1      -2.534  51.268 -12.296  1.00  0.00    -0.005 C 
HETATM    5  C13 UNL     1      -3.093  51.817 -13.638  1.00  0.00     0.021 C 
HETATM    6  C14 UNL     1      -3.275  49.977 -11.899  1.00  0.00    -0.000 C 
HETATM    7  C15 UNL     1      -3.789  49.738 -10.667  1.00  0.00    -0.060 C 
HETATM    8  C16 UNL     1      -3.542  50.711  -9.527  1.00  0.00     0.036 C 
HETATM    9  C17 UNL     1      -2.427  51.719  -9.792  1.00  0.00     0.015 C 
HETATM   10  C18 UNL     1      -2.573  52.388 -11.174  1.00  0.00    -0.028 C 
HETATM   11  C19 UNL     1      -3.893  53.194 -11.221  1.00  0.00     0.016 C 
HETATM   12  C20 UNL     1      -4.602  48.463 -10.317  1.00  0.00    -0.014 C 
HETATM   13  C21 UNL     1      -3.589  47.454  -9.732  1.00  0.00     0.020 C 
HETATM   14  C22 UNL     1      -5.705  48.765  -9.267  1.00  0.00     0.021 C 
HETATM   15  C23 UNL     1      -6.634  47.591  -9.005  1.00  0.00     0.080 C 
HETATM   16  C24 UNL     1      -7.307  47.155 -10.280  1.00  0.00     0.135 C 
HETATM   17  O4  UNL     1      -8.523  46.959 -10.297  1.00  0.00    -0.297 OA
HETATM   18  C25 UNL     1      -6.408  46.863 -11.492  1.00  0.00     0.018 C 
HETATM   19  C26 UNL     1      -7.307  46.874 -12.756  1.00  0.00     0.023 C 
HETATM   20  C27 UNL     1      -5.861  45.436 -11.344  1.00  0.00     0.023 C 
HETATM   21  C28 UNL     1      -5.323  47.989 -11.625  1.00  0.00     0.020 C 
HETATM   22  C29 UNL     1      -4.288  47.713 -12.716  1.00  0.00     0.090 C 
HETATM   23  C30 UNL     1      -3.352  48.879 -12.929  1.00  0.00     0.157 C 
HETATM   24  O5  UNL     1      -2.622  48.887 -13.920  1.00  0.00    -0.293 OA
ENDROOT
BRANCH   1  25
HETATM   25  C2  UNL     1      -0.715  54.217 -10.431  1.00  0.00    -0.014 C 
HETATM   26  C1  UNL     1      -1.549  55.483 -10.205  1.00  0.00     0.010 C 
BRANCH  25  27
HETATM   27  C3  UNL     1       0.744  54.605 -10.817  1.00  0.00     0.007 C 
BRANCH  27  28
HETATM   28  C4  UNL     1       1.783  54.303  -9.726  1.00  0.00     0.035 C 
BRANCH  28  29
HETATM   29  C5  UNL     1       3.232  54.138 -10.225  1.00  0.00     0.154 C 
BRANCH  29  30
HETATM   30  O1  UNL     1       3.174  53.539 -11.530  1.00  0.00    -0.392 OA
HETATM   31  H10 UNL     1       4.106  53.379 -11.800  1.00  0.00     0.210 HD
ENDBRANCH  29  30
BRANCH  29  32
HETATM   32  C6  UNL     1       4.103  55.429 -10.298  1.00  0.00     0.101 C 
HETATM   33  C7  UNL     1       3.608  56.537  -9.370  1.00  0.00     0.051 C 
BRANCH  32  34
HETATM   34  O2  UNL     1       4.098  55.932 -11.647  1.00  0.00    -0.385 OA
HETATM   35  H14 UNL     1       3.909  55.157 -12.215  1.00  0.00     0.210 HD
ENDBRANCH  32  34
BRANCH  32  36
HETATM   36  C8  UNL     1       5.576  55.104  -9.959  1.00  0.00     0.204 C 
BRANCH  36  37
HETATM   37  O3  UNL     1       5.702  53.742  -9.536  1.00  0.00    -0.398 OA
HETATM   38  H17 UNL     1       5.572  53.213 -10.348  1.00  0.00     0.209 HD
ENDBRANCH  36  37
ENDBRANCH  32  36
ENDBRANCH  29  32
ENDBRANCH  28  29
ENDBRANCH  27  28
ENDBRANCH  25  27
ENDBRANCH   1  25
TORSDOF 9
ENDMDL
MODEL 3
REMARK minimizedAffinity -8.24701405
REMARK CNNscore 0.391338438
REMARK CNNaffinity 6.78058624
REMARK  9 active torsions:
REMARK  status: ('A' for Active; 'I' for Inactive)
REMARK    1  A    between atoms: C2_2  and  C3_3 
REMARK    2  A    between atoms: C2_2  and  C9_12 
REMARK    3  A    between atoms: C3_3  and  C4_4 
REMARK    4  A    between atoms: C4_4  and  C5_5 
REMARK    5  A    between atoms: C5_5  and  O1_6 
REMARK    6  A    between atoms: C5_5  and  C6_7 
REMARK    7  A    between atoms: C6_7  and  O2_9 
REMARK    8  A    between atoms: C6_7  and  C8_10 
REMARK    9  A    between atoms: C8_10  and  O3_11 
ROOT
HETATM    1  C9  UNL     1      -2.322  49.787 -22.021  1.00  0.00    -0.002 C 
HETATM    2  C10 UNL     1      -2.815  51.232 -21.792  1.00  0.00     0.007 C 
HETATM    3  C11 UNL     1      -1.987  51.844 -20.667  1.00  0.00     0.015 C 
HETATM    4  C12 UNL     1      -0.876  50.832 -20.313  1.00  0.00    -0.005 C 
HETATM    5  C13 UNL     1       0.377  51.111 -21.189  1.00  0.00     0.021 C 
HETATM    6  C14 UNL     1      -0.515  50.937 -18.819  1.00  0.00    -0.000 C 
HETATM    7  C15 UNL     1      -0.852  50.014 -17.884  1.00  0.00    -0.060 C 
HETATM    8  C16 UNL     1      -1.748  48.843 -18.245  1.00  0.00     0.036 C 
HETATM    9  C17 UNL     1      -2.484  49.001 -19.574  1.00  0.00     0.015 C 
HETATM   10  C18 UNL     1      -1.536  49.445 -20.707  1.00  0.00    -0.028 C 
HETATM   11  C19 UNL     1      -0.465  48.353 -20.942  1.00  0.00     0.016 C 
HETATM   12  C20 UNL     1      -0.405  50.105 -16.401  1.00  0.00    -0.014 C 
HETATM   13  C21 UNL     1      -1.556  50.808 -15.647  1.00  0.00     0.020 C 
HETATM   14  C22 UNL     1      -0.168  48.695 -15.793  1.00  0.00     0.021 C 
HETATM   15  C23 UNL     1       0.423  48.727 -14.394  1.00  0.00     0.080 C 
HETATM   16  C24 UNL     1       1.735  49.467 -14.391  1.00  0.00     0.135 C 
HETATM   17  O4  UNL     1       2.714  48.977 -13.825  1.00  0.00    -0.297 OA
HETATM   18  C25 UNL     1       1.759  50.872 -15.011  1.00  0.00     0.018 C 
HETATM   19  C26 UNL     1       3.240  51.236 -15.293  1.00  0.00     0.023 C 
HETATM   20  C27 UNL     1       1.247  51.864 -13.956  1.00  0.00     0.023 C 
HETATM   21  C28 UNL     1       0.966  50.862 -16.365  1.00  0.00     0.020 C 
HETATM   22  C29 UNL     1       0.807  52.249 -16.989  1.00  0.00     0.090 C 
HETATM   23  C30 UNL     1       0.181  52.194 -18.362  1.00  0.00     0.157 C 
HETATM   24  O5  UNL     1       0.201  53.200 -19.070  1.00  0.00    -0.293 OA
ENDROOT
BRANCH   1  25
HETATM   25  C2  UNL     1      -3.482  48.853 -22.500  1.00  0.00    -0.014 C 
HETATM   26  C1  UNL     1      -3.334  48.439 -23.969  1.00  0.00     0.010 C 
BRANCH  25  27
HETATM   27  C3  UNL     1      -4.857  49.550 -22.281  1.00  0.00     0.007 C 
BRANCH  27  28
HETATM   28  C4  UNL     1      -6.061  48.598 -22.348  1.00  0.00     0.035 C 
BRANCH  28  29
HETATM   29  C5  UNL     1      -7.353  49.211 -22.923  1.00  0.00     0.154 C 
BRANCH  29  30
HETATM   30  O1  UNL     1      -7.132  50.624 -23.074  1.00  0.00    -0.392 OA
HETATM   31  H10 UNL     1      -7.987  51.004 -23.374  1.00  0.00     0.210 HD
ENDBRANCH  29  30
BRANCH  29  32
HETATM   32  C6  UNL     1      -7.866  48.631 -24.277  1.00  0.00     0.101 C 
HETATM   33  C7  UNL     1      -6.747  48.053 -25.141  1.00  0.00     0.051 C 
BRANCH  32  34
HETATM   34  O2  UNL     1      -8.524  49.672 -25.022  1.00  0.00    -0.385 OA
HETATM   35  H14 UNL     1      -8.827  50.320 -24.355  1.00  0.00     0.210 HD
ENDBRANCH  32  34
BRANCH  32  36
HETATM   36  C8  UNL     1      -8.928  47.536 -24.025  1.00  0.00     0.204 C 
BRANCH  36  37
HETATM   37  O3  UNL     1     -10.155  47.869 -24.683  1.00  0.00    -0.398 OA
HETATM   38  H17 UNL     1      -9.973  47.743 -25.635  1.00  0.00     0.209 HD
ENDBRANCH  36  37
ENDBRANCH  32  36
ENDBRANCH  29  32
ENDBRANCH  28  29
ENDBRANCH  27  28
ENDBRANCH  25  27
ENDBRANCH   1  25
TORSDOF 9
ENDMDL
MODEL 4
REMARK minimizedAffinity -7.05649948
REMARK CNNscore 0.363814294
REMARK CNNaffinity 5.70295334
REMARK  9 active torsions:
REMARK  status: ('A' for Active; 'I' for Inactive)
REMARK    1  A    between atoms: C2_2  and  C3_3 
REMARK    2  A    between atoms: C2_2  and  C9_12 
REMARK    3  A    between atoms: C3_3  and  C4_4 
REMARK    4  A    between atoms: C4_4  and  C5_5 
REMARK    5  A    between atoms: C5_5  and  O1_6 
REMARK    6  A    between atoms: C5_5  and  C6_7 
REMARK    7  A    between atoms: C6_7  and  O2_9 
REMARK    8  A    between atoms: C6_7  and  C8_10 
REMARK    9  A    between atoms: C8_10  and  O3_11 
ROOT
HETATM    1  C9  UNL     1     -12.670  45.456 -27.441  1.00  0.00    -0.002 C 
HETATM    2  C10 UNL     1     -12.367  46.882 -26.933  1.00  0.00     0.007 C 
HETATM    3  C11 UNL     1     -13.132  47.094 -25.631  1.00  0.00     0.015 C 
HETATM    4  C12 UNL     1     -13.776  45.743 -25.252  1.00  0.00    -0.005 C 
HETATM    5  C13 UNL     1     -12.790  44.928 -24.369  1.00  0.00     0.021 C 
HETATM    6  C14 UNL     1     -15.098  45.975 -24.497  1.00  0.00    -0.000 C 
HETATM    7  C15 UNL     1     -16.329  45.756 -25.024  1.00  0.00    -0.060 C 
HETATM    8  C16 UNL     1     -16.484  45.375 -26.485  1.00  0.00     0.036 C 
HETATM    9  C17 UNL     1     -15.238  45.614 -27.333  1.00  0.00     0.015 C 
HETATM   10  C18 UNL     1     -13.969  45.047 -26.664  1.00  0.00    -0.028 C 
HETATM   11  C19 UNL     1     -14.101  43.511 -26.526  1.00  0.00     0.016 C 
HETATM   12  C20 UNL     1     -17.642  45.920 -24.213  1.00  0.00    -0.014 C 
HETATM   13  C21 UNL     1     -18.141  47.356 -24.490  1.00  0.00     0.020 C 
HETATM   14  C22 UNL     1     -18.720  44.897 -24.666  1.00  0.00     0.021 C 
HETATM   15  C23 UNL     1     -19.969  44.907 -23.802  1.00  0.00     0.080 C 
HETATM   16  C24 UNL     1     -19.620  44.617 -22.365  1.00  0.00     0.135 C 
HETATM   17  O4  UNL     1     -20.272  43.785 -21.731  1.00  0.00    -0.297 OA
HETATM   18  C25 UNL     1     -18.518  45.469 -21.717  1.00  0.00     0.018 C 
HETATM   19  C26 UNL     1     -18.037  44.724 -20.444  1.00  0.00     0.023 C 
HETATM   20  C27 UNL     1     -19.151  46.788 -21.252  1.00  0.00     0.023 C 
HETATM   21  C28 UNL     1     -17.313  45.615 -22.712  1.00  0.00     0.020 C 
HETATM   22  C29 UNL     1     -16.225  46.568 -22.217  1.00  0.00     0.090 C 
HETATM   23  C30 UNL     1     -15.011  46.570 -23.114  1.00  0.00     0.157 C 
HETATM   24  O5  UNL     1     -13.977  47.110 -22.721  1.00  0.00    -0.293 OA
ENDROOT
BRANCH   1  25
HETATM   25  C2  UNL     1     -12.642  45.385 -29.004  1.00  0.00    -0.014 C 
HETATM   26  C1  UNL     1     -11.787  44.224 -29.524  1.00  0.00     0.010 C 
BRANCH  25  27
HETATM   27  C3  UNL     1     -12.125  46.731 -29.592  1.00  0.00     0.007 C 
BRANCH  27  28
HETATM   28  C4  UNL     1     -10.687  46.670 -30.129  1.00  0.00     0.035 C 
BRANCH  28  29
HETATM   29  C5  UNL     1      -9.635  47.405 -29.276  1.00  0.00     0.154 C 
BRANCH  29  30
HETATM   30  O1  UNL     1      -9.194  46.494 -28.254  1.00  0.00    -0.392 OA
HETATM   31  H10 UNL     1      -8.579  47.003 -27.681  1.00  0.00     0.210 HD
ENDBRANCH  29  30
BRANCH  29  32
HETATM   32  C6  UNL     1      -8.388  47.968 -30.024  1.00  0.00     0.101 C 
HETATM   33  C7  UNL     1      -7.576  46.885 -30.730  1.00  0.00     0.051 C 
BRANCH  32  34
HETATM   34  O2  UNL     1      -7.530  48.638 -29.082  1.00  0.00    -0.385 OA
HETATM   35  H14 UNL     1      -8.113  48.913 -28.346  1.00  0.00     0.210 HD
ENDBRANCH  32  34
BRANCH  32  36
HETATM   36  C8  UNL     1      -8.819  49.034 -31.058  1.00  0.00     0.204 C 
BRANCH  36  37
HETATM   37  O3  UNL     1      -8.884  50.326 -30.446  1.00  0.00    -0.398 OA
HETATM   38  H17 UNL     1      -7.953  50.578 -30.289  1.00  0.00     0.209 HD
ENDBRANCH  36  37
ENDBRANCH  32  36
ENDBRANCH  29  32
ENDBRANCH  28  29
ENDBRANCH  27  28
ENDBRANCH  25  27
ENDBRANCH   1  25
TORSDOF 9
ENDMDL
MODEL 5
REMARK minimizedAffinity -7.39702892
REMARK CNNscore 0.289799601
REMARK CNNaffinity 5.527596
REMARK  9 active torsions:
REMARK  status: ('A' for Active; 'I' for Inactive)
REMARK    1  A    between atoms: C2_2  and  C3_3 
REMARK    2  A    between atoms: C2_2  and  C9_12 
REMARK    3  A    between atoms: C3_3  and  C4_4 
REMARK    4  A    between atoms: C4_4  and  C5_5 
REMARK    5  A    between atoms: C5_5  and  O1_6 
REMARK    6  A    between atoms: C5_5  and  C6_7 
REMARK    7  A    between atoms: C6_7  and  O2_9 
REMARK    8  A    between atoms: C6_7  and  C8_10 
REMARK    9  A    between atoms: C8_10  and  O3_11 
ROOT
HETATM    1  C9  UNL     1       4.428  66.941 -37.600  1.00  0.00    -0.002 C 
HETATM    2  C10 UNL     1       3.823  66.934 -36.180  1.00  0.00     0.007 C 
HETATM    3  C11 UNL     1       2.417  67.519 -36.260  1.00  0.00     0.015 C 
HETATM    4  C12 UNL     1       2.095  67.735 -37.753  1.00  0.00    -0.005 C 
HETATM    5  C13 UNL     1       1.435  66.452 -38.333  1.00  0.00     0.021 C 
HETATM    6  C14 UNL     1       1.153  68.942 -37.928  1.00  0.00    -0.000 C 
HETATM    7  C15 UNL     1       1.532  70.143 -38.432  1.00  0.00    -0.060 C 
HETATM    8  C16 UNL     1       2.992  70.419 -38.747  1.00  0.00     0.036 C 
HETATM    9  C17 UNL     1       3.968  69.418 -38.134  1.00  0.00     0.015 C 
HETATM   10  C18 UNL     1       3.531  67.960 -38.387  1.00  0.00    -0.028 C 
HETATM   11  C19 UNL     1       3.532  67.677 -39.908  1.00  0.00     0.016 C 
HETATM   12  C20 UNL     1       0.544  71.315 -38.672  1.00  0.00    -0.014 C 
HETATM   13  C21 UNL     1       0.608  72.196 -37.405  1.00  0.00     0.020 C 
HETATM   14  C22 UNL     1       0.952  72.155 -39.913  1.00  0.00     0.021 C 
HETATM   15  C23 UNL     1      -0.066  73.218 -40.289  1.00  0.00     0.080 C 
HETATM   16  C24 UNL     1      -1.408  72.592 -40.565  1.00  0.00     0.135 C 
HETATM   17  O4  UNL     1      -2.035  72.907 -41.577  1.00  0.00    -0.297 OA
HETATM   18  C25 UNL     1      -1.988  71.655 -39.494  1.00  0.00     0.018 C 
HETATM   19  C26 UNL     1      -3.105  70.812 -40.163  1.00  0.00     0.023 C 
HETATM   20  C27 UNL     1      -2.662  72.522 -38.421  1.00  0.00     0.023 C 
HETATM   21  C28 UNL     1      -0.862  70.694 -38.973  1.00  0.00     0.020 C 
HETATM   22  C29 UNL     1      -1.304  69.819 -37.798  1.00  0.00     0.090 C 
HETATM   23  C30 UNL     1      -0.259  68.797 -37.418  1.00  0.00     0.157 C 
HETATM   24  O5  UNL     1      -0.565  67.886 -36.650  1.00  0.00    -0.293 OA
ENDROOT
BRANCH   1  25
HETATM   25  C2  UNL     1       5.979  67.136 -37.563  1.00  0.00    -0.014 C 
HETATM   26  C1  UNL     1       6.661  66.668 -38.854  1.00  0.00     0.010 C 
BRANCH  25  27
HETATM   27  C3  UNL     1       6.585  66.385 -36.341  1.00  0.00     0.007 C 
BRANCH  27  28
HETATM   28  C4  UNL     1       6.884  64.900 -36.601  1.00  0.00     0.035 C 
BRANCH  28  29
HETATM   29  C5  UNL     1       5.862  63.911 -36.009  1.00  0.00     0.154 C 
BRANCH  29  30
HETATM   30  O1  UNL     1       5.402  63.070 -37.080  1.00  0.00    -0.392 OA
HETATM   31  H10 UNL     1       4.703  62.495 -36.698  1.00  0.00     0.210 HD
ENDBRANCH  29  30
BRANCH  29  32
HETATM   32  C6  UNL     1       6.351  63.011 -34.833  1.00  0.00     0.101 C 
HETATM   33  C7  UNL     1       5.700  61.629 -34.828  1.00  0.00     0.051 C 
BRANCH  32  34
HETATM   34  O2  UNL     1       6.055  63.658 -33.582  1.00  0.00    -0.385 OA
HETATM   35  H14 UNL     1       6.007  64.614 -33.786  1.00  0.00     0.210 HD
ENDBRANCH  32  34
BRANCH  32  36
HETATM   36  C8  UNL     1       7.888  62.846 -34.886  1.00  0.00     0.204 C 
BRANCH  36  37
HETATM   37  O3  UNL     1       8.424  62.732 -33.564  1.00  0.00    -0.398 OA
HETATM   38  H17 UNL     1       8.148  61.847 -33.255  1.00  0.00     0.209 HD
ENDBRANCH  36  37
ENDBRANCH  32  36
ENDBRANCH  29  32
ENDBRANCH  28  29
ENDBRANCH  27  28
ENDBRANCH  25  27
ENDBRANCH   1  25
TORSDOF 9
ENDMDL
MODEL 6
REMARK minimizedAffinity -7.96900129
REMARK CNNscore 0.286210805
REMARK CNNaffinity 6.19265795
REMARK  9 active torsions:
REMARK  status: ('A' for Active; 'I' for Inactive)
REMARK    1  A    between atoms: C2_2  and  C3_3 
REMARK    2  A    between atoms: C2_2  and  C9_12 
REMARK    3  A    between atoms: C3_3  and  C4_4 
REMARK    4  A    between atoms: C4_4  and  C5_5 
REMARK    5  A    between atoms: C5_5  and  O1_6 
REMARK    6  A    between atoms: C5_5  and  C6_7 
REMARK    7  A    between atoms: C6_7  and  O2_9 
REMARK    8  A    between atoms: C6_7  and  C8_10 
REMARK    9  A    between atoms: C8_10  and  O3_11 
ROOT
HETATM    1  C9  UNL     1      -7.187  47.725 -24.070  1.00  0.00    -0.002 C 
HETATM    2  C10 UNL     1      -7.171  46.416 -23.252  1.00  0.00     0.007 C 
HETATM    3  C11 UNL     1      -6.379  46.666 -21.973  1.00  0.00     0.015 C 
HETATM    4  C12 UNL     1      -6.046  48.173 -21.927  1.00  0.00    -0.005 C 
HETATM    5  C13 UNL     1      -7.186  48.935 -21.195  1.00  0.00     0.021 C 
HETATM    6  C14 UNL     1      -4.705  48.401 -21.204  1.00  0.00    -0.000 C 
HETATM    7  C15 UNL     1      -3.552  48.756 -21.824  1.00  0.00    -0.060 C 
HETATM    8  C16 UNL     1      -3.482  48.827 -23.339  1.00  0.00     0.036 C 
HETATM    9  C17 UNL     1      -4.646  48.145 -24.054  1.00  0.00     0.015 C 
HETATM   10  C18 UNL     1      -6.009  48.564 -23.463  1.00  0.00    -0.028 C 
HETATM   11  C19 UNL     1      -6.216  50.083 -23.668  1.00  0.00     0.016 C 
HETATM   12  C20 UNL     1      -2.234  49.059 -21.062  1.00  0.00    -0.014 C 
HETATM   13  C21 UNL     1      -1.434  47.737 -21.045  1.00  0.00     0.020 C 
HETATM   14  C22 UNL     1      -1.406  50.161 -21.776  1.00  0.00     0.021 C 
HETATM   15  C23 UNL     1      -0.185  50.610 -20.991  1.00  0.00     0.080 C 
HETATM   16  C24 UNL     1      -0.590  51.131 -19.637  1.00  0.00     0.135 C 
HETATM   17  O4  UNL     1      -0.136  52.201 -19.230  1.00  0.00    -0.297 OA
HETATM   18  C25 UNL     1      -1.480  50.229 -18.767  1.00  0.00     0.018 C 
HETATM   19  C26 UNL     1      -2.112  51.117 -17.664  1.00  0.00     0.023 C 
HETATM   20  C27 UNL     1      -0.574  49.212 -18.058  1.00  0.00     0.023 C 
HETATM   21  C28 UNL     1      -2.623  49.612 -19.648  1.00  0.00     0.020 C 
HETATM   22  C29 UNL     1      -3.477  48.583 -18.906  1.00  0.00     0.090 C 
HETATM   23  C30 UNL     1      -4.661  48.123 -19.723  1.00  0.00     0.157 C 
HETATM   24  O5  UNL     1      -5.552  47.477 -19.173  1.00  0.00    -0.293 OA
ENDROOT
BRANCH   1  25
HETATM   25  C2  UNL     1      -7.229  47.440 -25.608  1.00  0.00    -0.014 C 
HETATM   26  C1  UNL     1      -5.970  47.933 -26.331  1.00  0.00     0.010 C 
BRANCH  25  27
HETATM   27  C3  UNL     1      -8.494  48.091 -26.240  1.00  0.00     0.007 C 
BRANCH  27  28
HETATM   28  C4  UNL     1      -8.901  47.487 -27.593  1.00  0.00     0.035 C 
BRANCH  28  29
HETATM   29  C5  UNL     1     -10.253  46.746 -27.602  1.00  0.00     0.154 C 
BRANCH  29  30
HETATM   30  O1  UNL     1     -10.794  46.816 -26.273  1.00  0.00    -0.392 OA
HETATM   31  H10 UNL     1     -11.618  46.281 -26.283  1.00  0.00     0.210 HD
ENDBRANCH  29  30
BRANCH  29  32
HETATM   32  C6  UNL     1     -11.326  47.250 -28.614  1.00  0.00     0.101 C 
HETATM   33  C7  UNL     1     -11.677  46.213 -29.679  1.00  0.00     0.051 C 
BRANCH  32  34
HETATM   34  O2  UNL     1     -10.840  48.432 -29.276  1.00  0.00    -0.385 OA
HETATM   35  H14 UNL     1     -10.187  48.826 -28.662  1.00  0.00     0.210 HD
ENDBRANCH  32  34
BRANCH  32  36
HETATM   36  C8  UNL     1     -12.615  47.666 -27.868  1.00  0.00     0.204 C 
BRANCH  36  37
HETATM   37  O3  UNL     1     -12.437  48.936 -27.232  1.00  0.00    -0.398 OA
HETATM   38  H17 UNL     1     -12.422  49.584 -27.964  1.00  0.00     0.209 HD
ENDBRANCH  36  37
ENDBRANCH  32  36
ENDBRANCH  29  32
ENDBRANCH  28  29
ENDBRANCH  27  28
ENDBRANCH  25  27
ENDBRANCH   1  25
TORSDOF 9
ENDMDL
MODEL 7
REMARK minimizedAffinity -8.68785858
REMARK CNNscore 0.267408252
REMARK CNNaffinity 6.4696393
REMARK  9 active torsions:
REMARK  status: ('A' for Active; 'I' for Inactive)
REMARK    1  A    between atoms: C2_2  and  C3_3 
REMARK    2  A    between atoms: C2_2  and  C9_12 
REMARK    3  A    between atoms: C3_3  and  C4_4 
REMARK    4  A    between atoms: C4_4  and  C5_5 
REMARK    5  A    between atoms: C5_5  and  O1_6 
REMARK    6  A    between atoms: C5_5  and  C6_7 
REMARK    7  A    between atoms: C6_7  and  O2_9 
REMARK    8  A    between atoms: C6_7  and  C8_10 
REMARK    9  A    between atoms: C8_10  and  O3_11 
ROOT
HETATM    1  C9  UNL     1      -1.259  52.010 -22.259  1.00  0.00    -0.002 C 
HETATM    2  C10 UNL     1      -1.993  51.585 -23.549  1.00  0.00     0.007 C 
HETATM    3  C11 UNL     1      -3.159  50.685 -23.156  1.00  0.00     0.015 C 
HETATM    4  C12 UNL     1      -3.241  50.687 -21.615  1.00  0.00    -0.005 C 
HETATM    5  C13 UNL     1      -4.168  51.844 -21.146  1.00  0.00     0.021 C 
HETATM    6  C14 UNL     1      -3.780  49.336 -21.107  1.00  0.00    -0.000 C 
HETATM    7  C15 UNL     1      -3.024  48.395 -20.488  1.00  0.00    -0.060 C 
HETATM    8  C16 UNL     1      -1.521  48.571 -20.368  1.00  0.00     0.036 C 
HETATM    9  C17 UNL     1      -0.940  49.650 -21.278  1.00  0.00     0.015 C 
HETATM   10  C18 UNL     1      -1.740  50.967 -21.191  1.00  0.00    -0.028 C 
HETATM   11  C19 UNL     1      -1.651  51.531 -19.752  1.00  0.00     0.016 C 
HETATM   12  C20 UNL     1      -3.609  47.077 -19.914  1.00  0.00    -0.014 C 
HETATM   13  C21 UNL     1      -3.439  46.013 -21.021  1.00  0.00     0.020 C 
HETATM   14  C22 UNL     1      -2.847  46.627 -18.637  1.00  0.00     0.021 C 
HETATM   15  C23 UNL     1      -3.476  45.431 -17.943  1.00  0.00     0.080 C 
HETATM   16  C24 UNL     1      -4.901  45.732 -17.558  1.00  0.00     0.135 C 
HETATM   17  O4  UNL     1      -5.299  45.468 -16.422  1.00  0.00    -0.297 OA
HETATM   18  C25 UNL     1      -5.836  46.262 -18.657  1.00  0.00     0.018 C 
HETATM   19  C26 UNL     1      -7.065  46.901 -17.959  1.00  0.00     0.023 C 
HETATM   20  C27 UNL     1      -6.352  45.060 -19.460  1.00  0.00     0.023 C 
HETATM   21  C28 UNL     1      -5.092  47.361 -19.494  1.00  0.00     0.020 C 
HETATM   22  C29 UNL     1      -5.888  47.847 -20.706  1.00  0.00     0.090 C 
HETATM   23  C30 UNL     1      -5.222  49.010 -21.402  1.00  0.00     0.157 C 
HETATM   24  O5  UNL     1      -5.855  49.645 -22.245  1.00  0.00    -0.293 OA
ENDROOT
BRANCH   1  25
HETATM   25  C2  UNL     1       0.271  52.218 -22.511  1.00  0.00    -0.014 C 
HETATM   26  C1  UNL     1       1.037  52.554 -21.226  1.00  0.00     0.010 C 
BRANCH  25  27
HETATM   27  C3  UNL     1       0.493  53.339 -23.569  1.00  0.00     0.007 C 
BRANCH  27  28
HETATM   28  C4  UNL     1       0.811  52.818 -24.979  1.00  0.00     0.035 C 
BRANCH  28  29
HETATM   29  C5  UNL     1      -0.100  53.355 -26.100  1.00  0.00     0.154 C 
BRANCH  29  30
HETATM   30  O1  UNL     1       0.311  54.703 -26.384  1.00  0.00    -0.392 OA
HETATM   31  H10 UNL     1      -0.324  55.049 -27.048  1.00  0.00     0.210 HD
ENDBRANCH  29  30
BRANCH  29  32
HETATM   32  C6  UNL     1      -0.133  52.544 -27.431  1.00  0.00     0.101 C 
HETATM   33  C7  UNL     1       1.189  51.843 -27.736  1.00  0.00     0.051 C 
BRANCH  32  34
HETATM   34  O2  UNL     1      -0.439  53.432 -28.522  1.00  0.00    -0.385 OA
HETATM   35  H14 UNL     1      -0.926  54.180 -28.123  1.00  0.00     0.210 HD
ENDBRANCH  32  34
BRANCH  32  36
HETATM   36  C8  UNL     1      -1.266  51.493 -27.393  1.00  0.00     0.204 C 
BRANCH  36  37
HETATM   37  O3  UNL     1      -0.856  50.343 -26.646  1.00  0.00    -0.398 OA
HETATM   38  H17 UNL     1      -0.839  50.640 -25.714  1.00  0.00     0.209 HD
ENDBRANCH  36  37
ENDBRANCH  32  36
ENDBRANCH  29  32
ENDBRANCH  28  29
ENDBRANCH  27  28
ENDBRANCH  25  27
ENDBRANCH   1  25
TORSDOF 9
ENDMDL
MODEL 8
REMARK minimizedAffinity -7.36849689
REMARK CNNscore 0.264614642
REMARK CNNaffinity 6.01788187
REMARK  9 active torsions:
REMARK  status: ('A' for Active; 'I' for Inactive)
REMARK    1  A    between atoms: C2_2  and  C3_3 
REMARK    2  A    between atoms: C2_2  and  C9_12 
REMARK    3  A    between atoms: C3_3  and  C4_4 
REMARK    4  A    between atoms: C4_4  and  C5_5 
REMARK    5  A    between atoms: C5_5  and  O1_6 
REMARK    6  A    between atoms: C5_5  and  C6_7 
REMARK    7  A    between atoms: C6_7  and  O2_9 
REMARK    8  A    between atoms: C6_7  and  C8_10 
REMARK    9  A    between atoms: C8_10  and  O3_11 
ROOT
HETATM    1  C9  UNL     1      -4.183  49.985 -23.478  1.00  0.00    -0.002 C 
HETATM    2  C10 UNL     1      -4.152  49.228 -24.823  1.00  0.00     0.007 C 
HETATM    3  C11 UNL     1      -5.274  48.196 -24.813  1.00  0.00     0.015 C 
HETATM    4  C12 UNL     1      -6.098  48.427 -23.528  1.00  0.00    -0.005 C 
HETATM    5  C13 UNL     1      -7.236  49.445 -23.817  1.00  0.00     0.021 C 
HETATM    6  C14 UNL     1      -6.690  47.096 -23.027  1.00  0.00    -0.000 C 
HETATM    7  C15 UNL     1      -6.250  46.427 -21.932  1.00  0.00    -0.060 C 
HETATM    8  C16 UNL     1      -5.019  46.903 -21.181  1.00  0.00     0.036 C 
HETATM    9  C17 UNL     1      -4.170  47.915 -21.944  1.00  0.00     0.015 C 
HETATM   10  C18 UNL     1      -5.026  49.052 -22.540  1.00  0.00    -0.028 C 
HETATM   11  C19 UNL     1      -5.703  49.843 -21.395  1.00  0.00     0.016 C 
HETATM   12  C20 UNL     1      -6.918  45.130 -21.403  1.00  0.00    -0.014 C 
HETATM   13  C21 UNL     1      -6.133  43.956 -22.030  1.00  0.00     0.020 C 
HETATM   14  C22 UNL     1      -6.839  45.042 -19.854  1.00  0.00     0.021 C 
HETATM   15  C23 UNL     1      -7.615  43.874 -19.270  1.00  0.00     0.080 C 
HETATM   16  C24 UNL     1      -9.067  43.954 -19.662  1.00  0.00     0.135 C 
HETATM   17  O4  UNL     1      -9.942  43.803 -18.809  1.00  0.00    -0.297 OA
HETATM   18  C25 UNL     1      -9.390  44.115 -21.156  1.00  0.00     0.018 C 
HETATM   19  C26 UNL     1     -10.856  44.610 -21.268  1.00  0.00     0.023 C 
HETATM   20  C27 UNL     1      -9.337  42.724 -21.804  1.00  0.00     0.023 C 
HETATM   21  C28 UNL     1      -8.436  45.188 -21.787  1.00  0.00     0.020 C 
HETATM   22  C29 UNL     1      -8.580  45.315 -23.304  1.00  0.00     0.090 C 
HETATM   23  C30 UNL     1      -7.769  46.458 -23.866  1.00  0.00     0.157 C 
HETATM   24  O5  UNL     1      -7.965  46.819 -25.026  1.00  0.00    -0.293 OA
ENDROOT
BRANCH   1  25
HETATM   25  C2  UNL     1      -2.751  50.438 -23.041  1.00  0.00    -0.014 C 
HETATM   26  C1  UNL     1      -2.710  51.904 -22.594  1.00  0.00     0.010 C 
BRANCH  25  27
HETATM   27  C3  UNL     1      -1.738  50.210 -24.202  1.00  0.00     0.007 C 
BRANCH  27  28
HETATM   28  C4  UNL     1      -0.825  51.412 -24.484  1.00  0.00     0.035 C 
BRANCH  28  29
HETATM   29  C5  UNL     1      -0.874  51.952 -25.927  1.00  0.00     0.154 C 
BRANCH  29  30
HETATM   30  O1  UNL     1      -2.057  52.761 -26.046  1.00  0.00    -0.392 OA
HETATM   31  H10 UNL     1      -2.107  53.037 -26.988  1.00  0.00     0.210 HD
ENDBRANCH  29  30
BRANCH  29  32
HETATM   32  C6  UNL     1       0.355  52.778 -26.414  1.00  0.00     0.101 C 
HETATM   33  C7  UNL     1       1.421  51.918 -27.090  1.00  0.00     0.051 C 
BRANCH  32  34
HETATM   34  O2  UNL     1       0.957  53.445 -25.289  1.00  0.00    -0.385 OA
HETATM   35  H14 UNL     1       0.241  53.539 -24.627  1.00  0.00     0.210 HD
ENDBRANCH  32  34
BRANCH  32  36
HETATM   36  C8  UNL     1      -0.095  53.888 -27.391  1.00  0.00     0.204 C 
BRANCH  36  37
HETATM   37  O3  UNL     1      -0.554  53.317 -28.620  1.00  0.00    -0.398 OA
HETATM   38  H17 UNL     1      -1.409  52.897 -28.400  1.00  0.00     0.209 HD
ENDBRANCH  36  37
ENDBRANCH  32  36
ENDBRANCH  29  32
ENDBRANCH  28  29
ENDBRANCH  27  28
ENDBRANCH  25  27
ENDBRANCH   1  25
TORSDOF 9
ENDMDL
MODEL 9
REMARK minimizedAffinity -7.65837145
REMARK CNNscore 0.261250973
REMARK CNNaffinity 5.54568815
REMARK  9 active torsions:
REMARK  status: ('A' for Active; 'I' for Inactive)
REMARK    1  A    between atoms: C2_2  and  C3_3 
REMARK    2  A    between atoms: C2_2  and  C9_12 
REMARK    3  A    between atoms: C3_3  and  C4_4 
REMARK    4  A    between atoms: C4_4  and  C5_5 
REMARK    5  A    between atoms: C5_5  and  O1_6 
REMARK    6  A    between atoms: C5_5  and  C6_7 
REMARK    7  A    between atoms: C6_7  and  O2_9 
REMARK    8  A    between atoms: C6_7  and  C8_10 
REMARK    9  A    between atoms: C8_10  and  O3_11 
ROOT
HETATM    1  C9  UNL     1      -9.945  44.483 -32.231  1.00  0.00    -0.002 C 
HETATM    2  C10 UNL     1     -11.430  44.774 -32.533  1.00  0.00     0.007 C 
HETATM    3  C11 UNL     1     -11.575  44.996 -34.034  1.00  0.00     0.015 C 
HETATM    4  C12 UNL     1     -10.208  44.683 -34.678  1.00  0.00    -0.005 C 
HETATM    5  C13 UNL     1     -10.145  43.177 -35.056  1.00  0.00     0.021 C 
HETATM    6  C14 UNL     1      -9.995  45.555 -35.930  1.00  0.00    -0.000 C 
HETATM    7  C15 UNL     1      -9.135  46.602 -35.997  1.00  0.00    -0.060 C 
HETATM    8  C16 UNL     1      -8.399  47.073 -34.756  1.00  0.00     0.036 C 
HETATM    9  C17 UNL     1      -8.964  46.532 -33.445  1.00  0.00     0.015 C 
HETATM   10  C18 UNL     1      -9.192  45.007 -33.504  1.00  0.00    -0.028 C 
HETATM   11  C19 UNL     1      -7.837  44.289 -33.711  1.00  0.00     0.016 C 
HETATM   12  C20 UNL     1      -8.881  47.412 -37.296  1.00  0.00    -0.014 C 
HETATM   13  C21 UNL     1      -9.837  48.624 -37.240  1.00  0.00     0.020 C 
HETATM   14  C22 UNL     1      -7.412  47.910 -37.375  1.00  0.00     0.021 C 
HETATM   15  C23 UNL     1      -7.064  48.572 -38.697  1.00  0.00     0.080 C 
HETATM   16  C24 UNL     1      -7.301  47.623 -39.843  1.00  0.00     0.135 C 
HETATM   17  O4  UNL     1      -6.439  47.481 -40.711  1.00  0.00    -0.297 OA
HETATM   18  C25 UNL     1      -8.679  46.948 -39.931  1.00  0.00     0.018 C 
HETATM   19  C26 UNL     1      -8.543  45.727 -40.879  1.00  0.00     0.023 C 
HETATM   20  C27 UNL     1      -9.646  47.932 -40.604  1.00  0.00     0.023 C 
HETATM   21  C28 UNL     1      -9.110  46.447 -38.508  1.00  0.00     0.020 C 
HETATM   22  C29 UNL     1     -10.534  45.890 -38.464  1.00  0.00     0.090 C 
HETATM   23  C30 UNL     1     -10.869  45.273 -37.127  1.00  0.00     0.157 C 
HETATM   24  O5  UNL     1     -11.887  44.590 -37.020  1.00  0.00    -0.293 OA
ENDROOT
BRANCH   1  25
HETATM   25  C2  UNL     1      -9.534  45.004 -30.814  1.00  0.00    -0.014 C 
HETATM   26  C1  UNL     1      -9.323  43.866 -29.809  1.00  0.00     0.010 C 
BRANCH  25  27
HETATM   27  C3  UNL     1     -10.607  45.996 -30.276  1.00  0.00     0.007 C 
BRANCH  27  28
HETATM   28  C4  UNL     1     -10.501  46.277 -28.769  1.00  0.00     0.035 C 
BRANCH  28  29
HETATM   29  C5  UNL     1     -10.553  47.766 -28.372  1.00  0.00     0.154 C 
BRANCH  29  30
HETATM   30  O1  UNL     1     -11.571  48.391 -29.172  1.00  0.00    -0.392 OA
HETATM   31  H10 UNL     1     -11.540  49.349 -28.955  1.00  0.00     0.210 HD
ENDBRANCH  29  30
BRANCH  29  32
HETATM   32  C6  UNL     1     -10.821  48.086 -26.870  1.00  0.00     0.101 C 
HETATM   33  C7  UNL     1     -11.265  46.864 -26.069  1.00  0.00     0.051 C 
BRANCH  32  34
HETATM   34  O2  UNL     1     -11.848  49.090 -26.773  1.00  0.00    -0.385 OA
HETATM   35  H14 UNL     1     -11.816  49.580 -27.619  1.00  0.00     0.210 HD
ENDBRANCH  32  34
BRANCH  32  36
HETATM   36  C8  UNL     1      -9.557  48.689 -26.215  1.00  0.00     0.204 C 
BRANCH  36  37
HETATM   37  O3  UNL     1      -9.705  50.103 -26.052  1.00  0.00    -0.398 OA
HETATM   38  H17 UNL     1     -10.360  50.208 -25.334  1.00  0.00     0.209 HD
ENDBRANCH  36  37
ENDBRANCH  32  36
ENDBRANCH  29  32
ENDBRANCH  28  29
ENDBRANCH  27  28
ENDBRANCH  25  27
ENDBRANCH   1  25
TORSDOF 9
ENDMDL
