MODEL 1
REMARK minimizedAffinity -10.037117
REMARK CNNscore 0.775305033
REMARK CNNaffinity 6.61289263
REMARK  8 active torsions:
REMARK  status: ('A' for Active; 'I' for Inactive)
REMARK    1  A    between atoms: C3_3  and  C4_4 
REMARK    2  A    between atoms: C4_4  and  O1_5 
REMARK    3  A    between atoms: C6_9  and  C7_10 
REMARK    4  A    between atoms: C7_10  and  O4_12 
REMARK    5  A    between atoms: C7_10  and  C9_13 
REMARK    6  A    between atoms: C12_16  and  O5_17 
REMARK    7  A    between atoms: C15_20  and  O6_21 
REMARK    8  A    between atoms: C16_22  and  O7_23 
ROOT
HETATM    1  C9  UNL     1      -4.779   6.661  15.216  1.00  0.00     0.033 C 
HETATM    2  C10 UNL     1      -3.588   5.794  14.705  1.00  0.00     0.011 C 
HETATM    3  C11 UNL     1      -2.328   6.679  14.697  1.00  0.00     0.039 C 
HETATM    4  C12 UNL     1      -2.757   7.945  15.431  1.00  0.00     0.070 C 
HETATM    5  C13 UNL     1      -1.871   9.203  15.187  1.00  0.00     0.028 C 
HETATM    6  C14 UNL     1      -0.477   9.012  15.845  1.00  0.00     0.043 C 
HETATM    7  C15 UNL     1       0.316  10.281  16.139  1.00  0.00     0.154 C 
HETATM    8  C16 UNL     1      -0.582  11.361  16.794  1.00  0.00     0.098 C 
HETATM    9  C17 UNL     1       0.266  12.573  17.242  1.00  0.00     0.042 C 
HETATM   10  C18 UNL     1      -0.558  13.810  17.624  1.00  0.00     0.010 C 
HETATM   11  C19 UNL     1      -2.044  13.542  17.776  1.00  0.00     0.079 C 
HETATM   12  C20 UNL     1      -2.576  12.908  16.509  1.00  0.00     0.138 C 
HETATM   13  O8  UNL     1      -3.621  13.328  16.004  1.00  0.00    -0.297 OA
HETATM   14  C21 UNL     1      -1.760  11.763  15.862  1.00  0.00     0.054 C 
HETATM   15  C22 UNL     1      -1.274  12.384  14.515  1.00  0.00     0.027 C 
HETATM   16  C23 UNL     1      -2.669  10.524  15.525  1.00  0.00     0.011 C 
HETATM   17  C24 UNL     1      -3.868  10.253  16.466  1.00  0.00     0.007 C 
HETATM   18  C25 UNL     1      -4.865   9.207  15.907  1.00  0.00     0.013 C 
HETATM   19  C26 UNL     1      -4.235   8.126  14.993  1.00  0.00    -0.006 C 
HETATM   20  C27 UNL     1      -4.381   8.534  13.503  1.00  0.00     0.019 C 
ENDROOT
BRANCH   1  21
HETATM   21  C7  UNL     1      -6.187   6.223  14.669  1.00  0.00     0.085 C 
HETATM   22  C8  UNL     1      -7.031   5.599  15.795  1.00  0.00     0.049 C 
BRANCH  21  23
HETATM   23  C6  UNL     1      -6.036   5.181  13.487  1.00  0.00     0.170 C 
HETATM   24  O3  UNL     1      -7.010   4.122  13.635  1.00  0.00    -0.309 OA
HETATM   25  C5  UNL     1      -7.023   3.062  12.793  1.00  0.00     0.292 C 
HETATM   26  C3  UNL     1      -5.793   2.829  11.986  1.00  0.00     0.042 C 
HETATM   27  O2  UNL     1      -7.991   2.314  12.733  1.00  0.00    -0.260 OA
HETATM   28  C2  UNL     1      -4.652   3.483  12.301  1.00  0.00    -0.067 C 
HETATM   29  C1  UNL     1      -3.316   3.249  11.651  1.00  0.00     0.044 C 
HETATM   30  C28 UNL     1      -4.653   4.531  13.389  1.00  0.00     0.070 C 
BRANCH  26  31
HETATM   31  C4  UNL     1      -5.903   1.750  10.943  1.00  0.00     0.209 C 
BRANCH  31  32
HETATM   32  O1  UNL     1      -5.802   2.290   9.626  1.00  0.00    -0.396 OA
HETATM   33  H6  UNL     1      -5.511   3.217   9.684  1.00  0.00     0.209 HD
ENDBRANCH  31  32
ENDBRANCH  26  31
ENDBRANCH  21  23
BRANCH  21  34
HETATM   34  O4  UNL     1      -6.885   7.380  14.185  1.00  0.00    -0.387 OA
HETATM   35  H11 UNL     1      -7.843   7.209  14.205  1.00  0.00     0.210 HD
ENDBRANCH  21  34
ENDBRANCH   1  21
BRANCH   4  36
HETATM   36  O5  UNL     1      -2.752   7.580  16.831  1.00  0.00    -0.389 OA
HETATM   37  H17 UNL     1      -2.381   8.302  17.368  1.00  0.00     0.210 HD
ENDBRANCH   4  36
BRANCH   7  38
HETATM   38  O6  UNL     1       0.979  10.742  14.965  1.00  0.00    -0.392 OA
HETATM   39  H22 UNL     1       1.431   9.979  14.563  1.00  0.00     0.210 HD
ENDBRANCH   7  38
BRANCH   8  40
HETATM   40  O7  UNL     1      -1.145  10.758  17.985  1.00  0.00    -0.386 OA
HETATM   41  H23 UNL     1      -0.445  10.672  18.653  1.00  0.00     0.210 HD
ENDBRANCH   8  40
TORSDOF 8
ENDMDL
MODEL 2
REMARK minimizedAffinity -9.16556549
REMARK CNNscore 0.775276065
REMARK CNNaffinity 6.66388655
REMARK  8 active torsions:
REMARK  status: ('A' for Active; 'I' for Inactive)
REMARK    1  A    between atoms: C3_3  and  C4_4 
REMARK    2  A    between atoms: C4_4  and  O1_5 
REMARK    3  A    between atoms: C6_9  and  C7_10 
REMARK    4  A    between atoms: C7_10  and  O4_12 
REMARK    5  A    between atoms: C7_10  and  C9_13 
REMARK    6  A    between atoms: C12_16  and  O5_17 
REMARK    7  A    between atoms: C15_20  and  O6_21 
REMARK    8  A    between atoms: C16_22  and  O7_23 
ROOT
HETATM    1  C9  UNL     1       0.430  10.929  18.244  1.00  0.00     0.033 C 
HETATM    2  C10 UNL     1      -0.696  11.944  18.613  1.00  0.00     0.011 C 
HETATM    3  C11 UNL     1      -1.954  11.569  17.808  1.00  0.00     0.039 C 
HETATM    4  C12 UNL     1      -1.612  10.217  17.192  1.00  0.00     0.070 C 
HETATM    5  C13 UNL     1      -2.476   9.793  15.966  1.00  0.00     0.028 C 
HETATM    6  C14 UNL     1      -3.930   9.484  16.416  1.00  0.00     0.043 C 
HETATM    7  C15 UNL     1      -4.757   8.604  15.486  1.00  0.00     0.154 C 
HETATM    8  C16 UNL     1      -3.940   7.378  15.005  1.00  0.00     0.098 C 
HETATM    9  C17 UNL     1      -4.838   6.407  14.205  1.00  0.00     0.042 C 
HETATM   10  C18 UNL     1      -4.067   5.325  13.439  1.00  0.00     0.010 C 
HETATM   11  C19 UNL     1      -2.603   5.215  13.825  1.00  0.00     0.079 C 
HETATM   12  C20 UNL     1      -1.937   6.565  13.673  1.00  0.00     0.138 C 
HETATM   13  O8  UNL     1      -0.846   6.651  13.100  1.00  0.00    -0.297 OA
HETATM   14  C21 UNL     1      -2.673   7.813  14.216  1.00  0.00     0.054 C 
HETATM   15  C22 UNL     1      -3.018   8.618  12.924  1.00  0.00     0.027 C 
HETATM   16  C23 UNL     1      -1.726   8.703  15.103  1.00  0.00     0.011 C 
HETATM   17  C24 UNL     1      -0.630   7.971  15.917  1.00  0.00     0.007 C 
HETATM   18  C25 UNL     1       0.426   8.927  16.526  1.00  0.00     0.013 C 
HETATM   19  C26 UNL     1      -0.098  10.342  16.877  1.00  0.00    -0.006 C 
HETATM   20  C27 UNL     1       0.202  11.327  15.716  1.00  0.00     0.019 C 
ENDROOT
BRANCH   1  21
HETATM   21  C7  UNL     1       1.889  11.498  18.378  1.00  0.00     0.085 C 
HETATM   22  C8  UNL     1       2.795  10.920  17.275  1.00  0.00     0.049 C 
BRANCH  21  23
HETATM   23  C6  UNL     1       2.504  11.154  19.796  1.00  0.00     0.170 C 
HETATM   24  O3  UNL     1       1.960   9.905  20.280  1.00  0.00    -0.309 OA
HETATM   25  C5  UNL     1       2.267   9.441  21.515  1.00  0.00     0.292 C 
HETATM   26  C3  UNL     1       2.841  10.422  22.478  1.00  0.00     0.042 C 
HETATM   27  O2  UNL     1       2.045   8.278  21.827  1.00  0.00    -0.260 OA
HETATM   28  C2  UNL     1       2.786  11.744  22.200  1.00  0.00    -0.067 C 
HETATM   29  C1  UNL     1       3.214  12.841  23.136  1.00  0.00     0.044 C 
HETATM   30  C28 UNL     1       2.253  12.218  20.868  1.00  0.00     0.070 C 
BRANCH  26  31
HETATM   31  C4  UNL     1       3.326   9.838  23.778  1.00  0.00     0.209 C 
BRANCH  31  32
HETATM   32  O1  UNL     1       2.267   9.193  24.483  1.00  0.00    -0.396 OA
HETATM   33  H6  UNL     1       1.494   9.116  23.896  1.00  0.00     0.209 HD
ENDBRANCH  31  32
ENDBRANCH  26  31
ENDBRANCH  21  23
BRANCH  21  34
HETATM   34  O4  UNL     1       1.856  12.924  18.219  1.00  0.00    -0.387 OA
HETATM   35  H11 UNL     1       2.729  13.235  17.922  1.00  0.00     0.210 HD
ENDBRANCH  21  34
ENDBRANCH   1  21
BRANCH   4  36
HETATM   36  O5  UNL     1      -1.762   9.269  18.275  1.00  0.00    -0.389 OA
HETATM   37  H17 UNL     1      -2.192   8.456  17.956  1.00  0.00     0.210 HD
ENDBRANCH   4  36
BRANCH   7  38
HETATM   38  O6  UNL     1      -5.295   9.372  14.414  1.00  0.00    -0.392 OA
HETATM   39  H22 UNL     1      -5.698  10.172  14.798  1.00  0.00     0.210 HD
ENDBRANCH   7  38
BRANCH   8  40
HETATM   40  O7  UNL     1      -3.502   6.684  16.199  1.00  0.00    -0.386 OA
HETATM   41  H23 UNL     1      -4.268   6.246  16.606  1.00  0.00     0.210 HD
ENDBRANCH   8  40
TORSDOF 8
ENDMDL
MODEL 3
REMARK minimizedAffinity -8.2324543
REMARK CNNscore 0.759554148
REMARK CNNaffinity 6.41627073
REMARK  8 active torsions:
REMARK  status: ('A' for Active; 'I' for Inactive)
REMARK    1  A    between atoms: C3_3  and  C4_4 
REMARK    2  A    between atoms: C4_4  and  O1_5 
REMARK    3  A    between atoms: C6_9  and  C7_10 
REMARK    4  A    between atoms: C7_10  and  O4_12 
REMARK    5  A    between atoms: C7_10  and  C9_13 
REMARK    6  A    between atoms: C12_16  and  O5_17 
REMARK    7  A    between atoms: C15_20  and  O6_21 
REMARK    8  A    between atoms: C16_22  and  O7_23 
ROOT
HETATM    1  C9  UNL     1      -2.714   7.291  14.006  1.00  0.00     0.033 C 
HETATM    2  C10 UNL     1      -2.157   7.756  12.626  1.00  0.00     0.011 C 
HETATM    3  C11 UNL     1      -1.447   9.107  12.833  1.00  0.00     0.039 C 
HETATM    4  C12 UNL     1      -1.390   9.270  14.348  1.00  0.00     0.070 C 
HETATM    5  C13 UNL     1      -1.158  10.722  14.865  1.00  0.00     0.028 C 
HETATM    6  C14 UNL     1       0.284  11.187  14.526  1.00  0.00     0.043 C 
HETATM    7  C15 UNL     1       0.841  12.336  15.359  1.00  0.00     0.154 C 
HETATM    8  C16 UNL     1       0.554  12.122  16.867  1.00  0.00     0.098 C 
HETATM    9  C17 UNL     1       1.268  13.199  17.714  1.00  0.00     0.042 C 
HETATM   10  C18 UNL     1       0.810  13.255  19.177  1.00  0.00     0.010 C 
HETATM   11  C19 UNL     1      -0.038  12.072  19.607  1.00  0.00     0.079 C 
HETATM   12  C20 UNL     1      -1.221  11.933  18.673  1.00  0.00     0.138 C 
HETATM   13  O8  UNL     1      -2.353  11.758  19.136  1.00  0.00    -0.297 OA
HETATM   14  C21 UNL     1      -0.973  12.051  17.150  1.00  0.00     0.054 C 
HETATM   15  C22 UNL     1      -1.717  13.368  16.765  1.00  0.00     0.027 C 
HETATM   16  C23 UNL     1      -1.645  10.867  16.361  1.00  0.00     0.011 C 
HETATM   17  C24 UNL     1      -1.727   9.497  17.080  1.00  0.00     0.007 C 
HETATM   18  C25 UNL     1      -2.647   8.479  16.361  1.00  0.00     0.013 C 
HETATM   19  C26 UNL     1      -2.727   8.642  14.823  1.00  0.00    -0.006 C 
HETATM   20  C27 UNL     1      -3.968   9.492  14.439  1.00  0.00     0.019 C 
ENDROOT
BRANCH   1  21
HETATM   21  C7  UNL     1      -3.991   6.379  13.919  1.00  0.00     0.085 C 
HETATM   22  C8  UNL     1      -4.650   6.243  15.304  1.00  0.00     0.049 C 
BRANCH  21  23
HETATM   23  C6  UNL     1      -3.624   4.941  13.369  1.00  0.00     0.170 C 
HETATM   24  O3  UNL     1      -2.327   4.972  12.732  1.00  0.00    -0.309 OA
HETATM   25  C5  UNL     1      -1.830   3.880  12.103  1.00  0.00     0.292 C 
HETATM   26  C3  UNL     1      -2.801   2.806  11.753  1.00  0.00     0.042 C 
HETATM   27  O2  UNL     1      -0.643   3.805  11.808  1.00  0.00    -0.260 OA
HETATM   28  C2  UNL     1      -4.128   3.056  11.820  1.00  0.00    -0.067 C 
HETATM   29  C1  UNL     1      -5.207   2.106  11.378  1.00  0.00     0.044 C 
HETATM   30  C28 UNL     1      -4.626   4.377  12.357  1.00  0.00     0.070 C 
BRANCH  26  31
HETATM   31  C4  UNL     1      -2.192   1.540  11.213  1.00  0.00     0.209 C 
BRANCH  31  32
HETATM   32  O1  UNL     1      -1.512   1.778   9.981  1.00  0.00    -0.396 OA
HETATM   33  H6  UNL     1      -1.438   2.738   9.838  1.00  0.00     0.209 HD
ENDBRANCH  31  32
ENDBRANCH  26  31
ENDBRANCH  21  23
BRANCH  21  34
HETATM   34  O4  UNL     1      -4.945   6.986  13.035  1.00  0.00    -0.387 OA
HETATM   35  H11 UNL     1      -5.837   6.667  13.256  1.00  0.00     0.210 HD
ENDBRANCH  21  34
ENDBRANCH   1  21
BRANCH   4  36
HETATM   36  O5  UNL     1      -0.316   8.398  14.772  1.00  0.00    -0.389 OA
HETATM   37  H17 UNL     1       0.216   8.829  15.465  1.00  0.00     0.210 HD
ENDBRANCH   4  36
BRANCH   7  38
HETATM   38  O6  UNL     1       0.366  13.587  14.871  1.00  0.00    -0.392 OA
HETATM   39  H22 UNL     1       0.491  13.594  13.905  1.00  0.00     0.210 HD
ENDBRANCH   7  38
BRANCH   8  40
HETATM   40  O7  UNL     1       1.130  10.839  17.215  1.00  0.00    -0.386 OA
HETATM   41  H23 UNL     1       2.097  10.922  17.223  1.00  0.00     0.210 HD
ENDBRANCH   8  40
TORSDOF 8
ENDMDL
MODEL 4
REMARK minimizedAffinity -8.57422733
REMARK CNNscore 0.743145823
REMARK CNNaffinity 5.79510498
REMARK  8 active torsions:
REMARK  status: ('A' for Active; 'I' for Inactive)
REMARK    1  A    between atoms: C3_3  and  C4_4 
REMARK    2  A    between atoms: C4_4  and  O1_5 
REMARK    3  A    between atoms: C6_9  and  C7_10 
REMARK    4  A    between atoms: C7_10  and  O4_12 
REMARK    5  A    between atoms: C7_10  and  C9_13 
REMARK    6  A    between atoms: C12_16  and  O5_17 
REMARK    7  A    between atoms: C15_20  and  O6_21 
REMARK    8  A    between atoms: C16_22  and  O7_23 
ROOT
HETATM    1  C9  UNL     1     -16.508   2.992  14.407  1.00  0.00     0.033 C 
HETATM    2  C10 UNL     1     -16.417   2.867  15.959  1.00  0.00     0.011 C 
HETATM    3  C11 UNL     1     -16.268   1.374  16.306  1.00  0.00     0.039 C 
HETATM    4  C12 UNL     1     -16.026   0.701  14.959  1.00  0.00     0.070 C 
HETATM    5  C13 UNL     1     -16.297  -0.833  14.909  1.00  0.00     0.028 C 
HETATM    6  C14 UNL     1     -15.231  -1.592  15.744  1.00  0.00     0.043 C 
HETATM    7  C15 UNL     1     -15.036  -3.068  15.416  1.00  0.00     0.154 C 
HETATM    8  C16 UNL     1     -14.959  -3.295  13.886  1.00  0.00     0.098 C 
HETATM    9  C17 UNL     1     -14.591  -4.763  13.571  1.00  0.00     0.042 C 
HETATM   10  C18 UNL     1     -14.783  -5.158  12.101  1.00  0.00     0.010 C 
HETATM   11  C19 UNL     1     -15.016  -3.984  11.169  1.00  0.00     0.079 C 
HETATM   12  C20 UNL     1     -16.189  -3.167  11.667  1.00  0.00     0.138 C 
HETATM   13  O8  UNL     1     -17.067  -2.807  10.877  1.00  0.00    -0.297 OA
HETATM   14  C21 UNL     1     -16.266  -2.838  13.177  1.00  0.00     0.054 C 
HETATM   15  C22 UNL     1     -17.518  -3.637  13.656  1.00  0.00     0.027 C 
HETATM   16  C23 UNL     1     -16.543  -1.309  13.423  1.00  0.00     0.011 C 
HETATM   17  C24 UNL     1     -15.962  -0.313  12.389  1.00  0.00     0.007 C 
HETATM   18  C25 UNL     1     -16.517   1.126  12.542  1.00  0.00     0.013 C 
HETATM   19  C26 UNL     1     -16.911   1.525  13.986  1.00  0.00    -0.006 C 
HETATM   20  C27 UNL     1     -18.431   1.299  14.208  1.00  0.00     0.019 C 
ENDROOT
BRANCH   1  21
HETATM   21  C7  UNL     1     -17.322   4.238  13.901  1.00  0.00     0.085 C 
HETATM   22  C8  UNL     1     -17.946   3.950  12.523  1.00  0.00     0.049 C 
BRANCH  21  23
HETATM   23  C6  UNL     1     -16.396   5.518  13.800  1.00  0.00     0.170 C 
HETATM   24  O3  UNL     1     -16.484   6.088  12.474  1.00  0.00    -0.309 OA
HETATM   25  C5  UNL     1     -15.713   7.142  12.114  1.00  0.00     0.292 C 
HETATM   26  C3  UNL     1     -14.525   7.429  12.966  1.00  0.00     0.042 C 
HETATM   27  O2  UNL     1     -15.968   7.798  11.112  1.00  0.00    -0.260 OA
HETATM   28  C2  UNL     1     -14.112   6.511  13.869  1.00  0.00    -0.067 C 
HETATM   29  C1  UNL     1     -12.863   6.620  14.700  1.00  0.00     0.044 C 
HETATM   30  C28 UNL     1     -14.917   5.252  14.095  1.00  0.00     0.070 C 
BRANCH  26  31
HETATM   31  C4  UNL     1     -13.792   8.701  12.639  1.00  0.00     0.209 C 
BRANCH  31  32
HETATM   32  O1  UNL     1     -14.628   9.613  11.927  1.00  0.00    -0.396 OA
HETATM   33  H6  UNL     1     -15.546   9.290  11.955  1.00  0.00     0.209 HD
ENDBRANCH  31  32
ENDBRANCH  26  31
ENDBRANCH  21  23
BRANCH  21  34
HETATM   34  O4  UNL     1     -18.391   4.508  14.820  1.00  0.00    -0.387 OA
HETATM   35  H11 UNL     1     -19.098   4.991  14.359  1.00  0.00     0.210 HD
ENDBRANCH  21  34
ENDBRANCH   1  21
BRANCH   4  36
HETATM   36  O5  UNL     1     -14.642   0.986  14.647  1.00  0.00    -0.389 OA
HETATM   37  H17 UNL     1     -14.213   0.201  14.263  1.00  0.00     0.210 HD
ENDBRANCH   4  36
BRANCH   7  38
HETATM   38  O6  UNL     1     -16.036  -3.860  16.050  1.00  0.00    -0.392 OA
HETATM   39  H22 UNL     1     -16.088  -3.581  16.981  1.00  0.00     0.210 HD
ENDBRANCH   7  38
BRANCH   8  40
HETATM   40  O7  UNL     1     -13.878  -2.461  13.402  1.00  0.00    -0.386 OA
HETATM   41  H23 UNL     1     -13.033  -2.846  13.686  1.00  0.00     0.210 HD
ENDBRANCH   8  40
TORSDOF 8
ENDMDL
MODEL 5
REMARK minimizedAffinity -9.44597054
REMARK CNNscore 0.657896698
REMARK CNNaffinity 6.16066408
REMARK  8 active torsions:
REMARK  status: ('A' for Active; 'I' for Inactive)
REMARK    1  A    between atoms: C3_3  and  C4_4 
REMARK    2  A    between atoms: C4_4  and  O1_5 
REMARK    3  A    between atoms: C6_9  and  C7_10 
REMARK    4  A    between atoms: C7_10  and  O4_12 
REMARK    5  A    between atoms: C7_10  and  C9_13 
REMARK    6  A    between atoms: C12_16  and  O5_17 
REMARK    7  A    between atoms: C15_20  and  O6_21 
REMARK    8  A    between atoms: C16_22  and  O7_23 
ROOT
HETATM    1  C9  UNL     1      -1.512   7.308  13.865  1.00  0.00     0.033 C 
HETATM    2  C10 UNL     1      -2.776   7.640  13.015  1.00  0.00     0.011 C 
HETATM    3  C11 UNL     1      -3.446   8.883  13.629  1.00  0.00     0.039 C 
HETATM    4  C12 UNL     1      -2.433   9.385  14.652  1.00  0.00     0.070 C 
HETATM    5  C13 UNL     1      -2.995  10.334  15.753  1.00  0.00     0.028 C 
HETATM    6  C14 UNL     1      -3.394  11.699  15.131  1.00  0.00     0.043 C 
HETATM    7  C15 UNL     1      -3.485  12.882  16.088  1.00  0.00     0.154 C 
HETATM    8  C16 UNL     1      -2.264  12.924  17.041  1.00  0.00     0.098 C 
HETATM    9  C17 UNL     1      -2.279  14.217  17.888  1.00  0.00     0.042 C 
HETATM   10  C18 UNL     1      -1.290  14.212  19.061  1.00  0.00     0.010 C 
HETATM   11  C19 UNL     1      -0.279  13.081  19.016  1.00  0.00     0.079 C 
HETATM   12  C20 UNL     1      -1.005  11.757  18.914  1.00  0.00     0.138 C 
HETATM   13  O8  UNL     1      -0.675  10.817  19.643  1.00  0.00    -0.297 OA
HETATM   14  C21 UNL     1      -2.178  11.638  17.911  1.00  0.00     0.054 C 
HETATM   15  C22 UNL     1      -3.423  11.453  18.834  1.00  0.00     0.027 C 
HETATM   16  C23 UNL     1      -2.044  10.351  17.015  1.00  0.00     0.011 C 
HETATM   17  C24 UNL     1      -0.610   9.880  16.668  1.00  0.00     0.007 C 
HETATM   18  C25 UNL     1      -0.563   8.466  16.037  1.00  0.00     0.013 C 
HETATM   19  C26 UNL     1      -1.813   8.076  15.211  1.00  0.00    -0.006 C 
HETATM   20  C27 UNL     1      -2.802   7.262  16.087  1.00  0.00     0.019 C 
ENDROOT
BRANCH   1  21
HETATM   21  C7  UNL     1      -1.109   5.788  13.867  1.00  0.00     0.085 C 
HETATM   22  C8  UNL     1       0.143   5.561  13.001  1.00  0.00     0.049 C 
BRANCH  21  23
HETATM   23  C6  UNL     1      -2.293   4.887  13.326  1.00  0.00     0.170 C 
HETATM   24  O3  UNL     1      -2.123   4.647  11.910  1.00  0.00    -0.309 OA
HETATM   25  C5  UNL     1      -3.058   3.974  11.198  1.00  0.00     0.292 C 
HETATM   26  C3  UNL     1      -4.407   3.842  11.814  1.00  0.00     0.042 C 
HETATM   27  O2  UNL     1      -2.805   3.530  10.084  1.00  0.00    -0.260 OA
HETATM   28  C2  UNL     1      -4.728   4.598  12.889  1.00  0.00    -0.067 C 
HETATM   29  C1  UNL     1      -6.089   4.654  13.527  1.00  0.00     0.044 C 
HETATM   30  C28 UNL     1      -3.687   5.484  13.532  1.00  0.00     0.070 C 
BRANCH  26  31
HETATM   31  C4  UNL     1      -5.366   2.948  11.077  1.00  0.00     0.209 C 
BRANCH  31  32
HETATM   32  O1  UNL     1      -4.877   1.609  11.008  1.00  0.00    -0.396 OA
HETATM   33  H6  UNL     1      -4.110   1.520  11.601  1.00  0.00     0.209 HD
ENDBRANCH  31  32
ENDBRANCH  26  31
ENDBRANCH  21  23
BRANCH  21  34
HETATM   34  O4  UNL     1      -0.795   5.386  15.209  1.00  0.00    -0.387 OA
HETATM   35  H11 UNL     1      -0.203   4.614  15.184  1.00  0.00     0.210 HD
ENDBRANCH  21  34
ENDBRANCH   1  21
BRANCH   4  36
HETATM   36  O5  UNL     1      -1.418  10.056  13.868  1.00  0.00    -0.389 OA
HETATM   37  H17 UNL     1      -1.137  10.876  14.310  1.00  0.00     0.210 HD
ENDBRANCH   4  36
BRANCH   7  38
HETATM   38  O6  UNL     1      -4.732  12.878  16.776  1.00  0.00    -0.392 OA
HETATM   39  H22 UNL     1      -5.434  12.745  16.114  1.00  0.00     0.210 HD
ENDBRANCH   7  38
BRANCH   8  40
HETATM   40  O7  UNL     1      -1.087  12.968  16.198  1.00  0.00    -0.386 OA
HETATM   41  H23 UNL     1      -1.028  13.846  15.788  1.00  0.00     0.210 HD
ENDBRANCH   8  40
TORSDOF 8
ENDMDL
MODEL 6
REMARK minimizedAffinity -9.51611519
REMARK CNNscore 0.619503021
REMARK CNNaffinity 6.83217049
REMARK  8 active torsions:
REMARK  status: ('A' for Active; 'I' for Inactive)
REMARK    1  A    between atoms: C3_3  and  C4_4 
REMARK    2  A    between atoms: C4_4  and  O1_5 
REMARK    3  A    between atoms: C6_9  and  C7_10 
REMARK    4  A    between atoms: C7_10  and  O4_12 
REMARK    5  A    between atoms: C7_10  and  C9_13 
REMARK    6  A    between atoms: C12_16  and  O5_17 
REMARK    7  A    between atoms: C15_20  and  O6_21 
REMARK    8  A    between atoms: C16_22  and  O7_23 
ROOT
HETATM    1  C9  UNL     1      -1.556   5.533  12.549  1.00  0.00     0.033 C 
HETATM    2  C10 UNL     1      -1.597   4.008  12.228  1.00  0.00     0.011 C 
HETATM    3  C11 UNL     1      -3.012   3.494  12.551  1.00  0.00     0.039 C 
HETATM    4  C12 UNL     1      -3.820   4.761  12.809  1.00  0.00     0.070 C 
HETATM    5  C13 UNL     1      -5.146   4.571  13.604  1.00  0.00     0.028 C 
HETATM    6  C14 UNL     1      -6.183   3.804  12.739  1.00  0.00     0.043 C 
HETATM    7  C15 UNL     1      -7.647   3.960  13.136  1.00  0.00     0.154 C 
HETATM    8  C16 UNL     1      -7.993   5.443  13.422  1.00  0.00     0.098 C 
HETATM    9  C17 UNL     1      -9.511   5.612  13.655  1.00  0.00     0.042 C 
HETATM   10  C18 UNL     1      -9.911   6.974  14.236  1.00  0.00     0.010 C 
HETATM   11  C19 UNL     1      -8.802   8.010  14.207  1.00  0.00     0.079 C 
HETATM   12  C20 UNL     1      -7.579   7.461  14.908  1.00  0.00     0.138 C 
HETATM   13  O8  UNL     1      -6.977   8.157  15.732  1.00  0.00    -0.297 OA
HETATM   14  C21 UNL     1      -7.139   6.011  14.591  1.00  0.00     0.054 C 
HETATM   15  C22 UNL     1      -7.386   5.257  15.935  1.00  0.00     0.027 C 
HETATM   16  C23 UNL     1      -5.602   5.931  14.266  1.00  0.00     0.011 C 
HETATM   17  C24 UNL     1      -4.964   7.158  13.569  1.00  0.00     0.007 C 
HETATM   18  C25 UNL     1      -3.415   7.117  13.548  1.00  0.00     0.013 C 
HETATM   19  C26 UNL     1      -2.799   5.697  13.509  1.00  0.00    -0.006 C 
HETATM   20  C27 UNL     1      -2.434   5.233  14.945  1.00  0.00     0.019 C 
ENDROOT
BRANCH   1  21
HETATM   21  C7  UNL     1      -0.137   6.077  12.951  1.00  0.00     0.085 C 
HETATM   22  C8  UNL     1      -0.273   7.321  13.848  1.00  0.00     0.049 C 
BRANCH  21  23
HETATM   23  C6  UNL     1       0.714   6.445  11.669  1.00  0.00     0.170 C 
HETATM   24  O3  UNL     1       2.027   6.905  12.063  1.00  0.00    -0.309 OA
HETATM   25  C5  UNL     1       2.913   7.363  11.146  1.00  0.00     0.292 C 
HETATM   26  C3  UNL     1       2.365   7.741   9.814  1.00  0.00     0.042 C 
HETATM   27  O2  UNL     1       4.099   7.490  11.422  1.00  0.00    -0.260 OA
HETATM   28  C2  UNL     1       1.029   7.874   9.653  1.00  0.00    -0.067 C 
HETATM   29  C1  UNL     1       0.356   8.369   8.402  1.00  0.00     0.044 C 
HETATM   30  C28 UNL     1       0.089   7.527  10.784  1.00  0.00     0.070 C 
BRANCH  26  31
HETATM   31  C4  UNL     1       3.393   8.083   8.770  1.00  0.00     0.209 C 
BRANCH  31  32
HETATM   32  O1  UNL     1       2.791   8.698   7.631  1.00  0.00    -0.396 OA
HETATM   33  H6  UNL     1       1.868   8.923   7.842  1.00  0.00     0.209 HD
ENDBRANCH  31  32
ENDBRANCH  26  31
ENDBRANCH  21  23
BRANCH  21  34
HETATM   34  O4  UNL     1       0.559   5.069  13.699  1.00  0.00    -0.387 OA
HETATM   35  H11 UNL     1       1.232   5.491  14.260  1.00  0.00     0.210 HD
ENDBRANCH  21  34
ENDBRANCH   1  21
BRANCH   4  36
HETATM   36  O5  UNL     1      -4.085   5.302  11.493  1.00  0.00    -0.389 OA
HETATM   37  H17 UNL     1      -4.998   5.638  11.443  1.00  0.00     0.210 HD
ENDBRANCH   4  36
BRANCH   7  38
HETATM   38  O6  UNL     1      -7.969   3.092  14.219  1.00  0.00    -0.392 OA
HETATM   39  H22 UNL     1      -7.625   2.207  14.000  1.00  0.00     0.210 HD
ENDBRANCH   7  38
BRANCH   8  40
HETATM   40  O7  UNL     1      -7.650   6.182  12.224  1.00  0.00    -0.386 OA
HETATM   41  H23 UNL     1      -8.298   5.973  11.531  1.00  0.00     0.210 HD
ENDBRANCH   8  40
TORSDOF 8
ENDMDL
MODEL 7
REMARK minimizedAffinity -9.69756508
REMARK CNNscore 0.617467165
REMARK CNNaffinity 6.28804255
REMARK  8 active torsions:
REMARK  status: ('A' for Active; 'I' for Inactive)
REMARK    1  A    between atoms: C3_3  and  C4_4 
REMARK    2  A    between atoms: C4_4  and  O1_5 
REMARK    3  A    between atoms: C6_9  and  C7_10 
REMARK    4  A    between atoms: C7_10  and  O4_12 
REMARK    5  A    between atoms: C7_10  and  C9_13 
REMARK    6  A    between atoms: C12_16  and  O5_17 
REMARK    7  A    between atoms: C15_20  and  O6_21 
REMARK    8  A    between atoms: C16_22  and  O7_23 
ROOT
HETATM    1  C9  UNL     1       0.900   7.929  11.881  1.00  0.00     0.033 C 
HETATM    2  C10 UNL     1      -0.287   7.033  11.412  1.00  0.00     0.011 C 
HETATM    3  C11 UNL     1      -1.489   7.322  12.331  1.00  0.00     0.039 C 
HETATM    4  C12 UNL     1      -1.057   8.541  13.138  1.00  0.00     0.070 C 
HETATM    5  C13 UNL     1      -1.844   8.794  14.458  1.00  0.00     0.028 C 
HETATM    6  C14 UNL     1      -3.300   9.229  14.139  1.00  0.00     0.043 C 
HETATM    7  C15 UNL     1      -4.042   9.979  15.240  1.00  0.00     0.154 C 
HETATM    8  C16 UNL     1      -3.148  11.077  15.868  1.00  0.00     0.098 C 
HETATM    9  C17 UNL     1      -3.962  11.940  16.858  1.00  0.00     0.042 C 
HETATM   10  C18 UNL     1      -3.107  12.852  17.748  1.00  0.00     0.010 C 
HETATM   11  C19 UNL     1      -1.659  12.965  17.309  1.00  0.00     0.079 C 
HETATM   12  C20 UNL     1      -1.051  11.583  17.209  1.00  0.00     0.138 C 
HETATM   13  O8  UNL     1       0.058  11.361  17.704  1.00  0.00    -0.297 OA
HETATM   14  C21 UNL     1      -1.869  10.470  16.511  1.00  0.00     0.054 C 
HETATM   15  C22 UNL     1      -2.195   9.479  17.673  1.00  0.00     0.027 C 
HETATM   16  C23 UNL     1      -1.006   9.699  15.445  1.00  0.00     0.011 C 
HETATM   17  C24 UNL     1       0.086  10.509  14.704  1.00  0.00     0.007 C 
HETATM   18  C25 UNL     1       1.068   9.623  13.896  1.00  0.00     0.013 C 
HETATM   19  C26 UNL     1       0.463   8.306  13.350  1.00  0.00    -0.006 C 
HETATM   20  C27 UNL     1       0.767   7.135  14.321  1.00  0.00     0.019 C 
ENDROOT
BRANCH   1  21
HETATM   21  C7  UNL     1       2.324   7.332  11.583  1.00  0.00     0.085 C 
HETATM   22  C8  UNL     1       3.370   8.458  11.486  1.00  0.00     0.049 C 
BRANCH  21  23
HETATM   23  C6  UNL     1       2.320   6.502  10.235  1.00  0.00     0.170 C 
HETATM   24  O3  UNL     1       3.463   5.616  10.198  1.00  0.00    -0.309 OA
HETATM   25  C5  UNL     1       3.728   4.863   9.104  1.00  0.00     0.292 C 
HETATM   26  C3  UNL     1       3.060   5.262   7.834  1.00  0.00     0.042 C 
HETATM   27  O2  UNL     1       4.511   3.923   9.159  1.00  0.00    -0.260 OA
HETATM   28  C2  UNL     1       2.454   6.468   7.748  1.00  0.00    -0.067 C 
HETATM   29  C1  UNL     1       1.854   7.044   6.494  1.00  0.00     0.044 C 
HETATM   30  C28 UNL     1       2.354   7.357   8.966  1.00  0.00     0.070 C 
BRANCH  26  31
HETATM   31  C4  UNL     1       3.242   4.309   6.685  1.00  0.00     0.209 C 
BRANCH  31  32
HETATM   32  O1  UNL     1       4.602   3.893   6.567  1.00  0.00    -0.396 OA
HETATM   33  H6  UNL     1       5.091   4.177   7.359  1.00  0.00     0.209 HD
ENDBRANCH  31  32
ENDBRANCH  26  31
ENDBRANCH  21  23
BRANCH  21  34
HETATM   34  O4  UNL     1       2.707   6.466  12.662  1.00  0.00    -0.387 OA
HETATM   35  H11 UNL     1       3.678   6.400  12.693  1.00  0.00     0.210 HD
ENDBRANCH  21  34
ENDBRANCH   1  21
BRANCH   4  36
HETATM   36  O5  UNL     1      -1.209   9.657  12.230  1.00  0.00    -0.389 OA
HETATM   37  H17 UNL     1      -1.586  10.425  12.697  1.00  0.00     0.210 HD
ENDBRANCH   4  36
BRANCH   7  38
HETATM   38  O6  UNL     1      -4.569   9.069  16.200  1.00  0.00    -0.392 OA
HETATM   39  H22 UNL     1      -5.026   8.359  15.715  1.00  0.00     0.210 HD
ENDBRANCH   7  38
BRANCH   8  40
HETATM   40  O7  UNL     1      -2.731  11.938  14.780  1.00  0.00    -0.386 OA
HETATM   41  H23 UNL     1      -3.492  12.466  14.489  1.00  0.00     0.210 HD
ENDBRANCH   8  40
TORSDOF 8
ENDMDL
MODEL 8
REMARK minimizedAffinity -10.3300009
REMARK CNNscore 0.583850741
REMARK CNNaffinity 6.43177557
REMARK  8 active torsions:
REMARK  status: ('A' for Active; 'I' for Inactive)
REMARK    1  A    between atoms: C3_3  and  C4_4 
REMARK    2  A    between atoms: C4_4  and  O1_5 
REMARK    3  A    between atoms: C6_9  and  C7_10 
REMARK    4  A    between atoms: C7_10  and  O4_12 
REMARK    5  A    between atoms: C7_10  and  C9_13 
REMARK    6  A    between atoms: C12_16  and  O5_17 
REMARK    7  A    between atoms: C15_20  and  O6_21 
REMARK    8  A    between atoms: C16_22  and  O7_23 
ROOT
HETATM    1  C9  UNL     1      -5.638   7.488  14.169  1.00  0.00     0.033 C 
HETATM    2  C10 UNL     1      -5.938   8.785  14.982  1.00  0.00     0.011 C 
HETATM    3  C11 UNL     1      -4.593   9.458  15.313  1.00  0.00     0.039 C 
HETATM    4  C12 UNL     1      -3.574   8.684  14.484  1.00  0.00     0.070 C 
HETATM    5  C13 UNL     1      -2.091   8.809  14.943  1.00  0.00     0.028 C 
HETATM    6  C14 UNL     1      -1.567  10.246  14.674  1.00  0.00     0.043 C 
HETATM    7  C15 UNL     1      -0.054  10.413  14.591  1.00  0.00     0.154 C 
HETATM    8  C16 UNL     1       0.583   9.304  13.715  1.00  0.00     0.098 C 
HETATM    9  C17 UNL     1       2.087   9.581  13.497  1.00  0.00     0.042 C 
HETATM   10  C18 UNL     1       2.865   8.399  12.903  1.00  0.00     0.010 C 
HETATM   11  C19 UNL     1       1.985   7.284  12.368  1.00  0.00     0.079 C 
HETATM   12  C20 UNL     1       1.040   6.819  13.456  1.00  0.00     0.138 C 
HETATM   13  O8  UNL     1       0.891   5.612  13.667  1.00  0.00    -0.297 OA
HETATM   14  C21 UNL     1       0.311   7.890  14.302  1.00  0.00     0.054 C 
HETATM   15  C22 UNL     1       0.924   7.704  15.725  1.00  0.00     0.027 C 
HETATM   16  C23 UNL     1      -1.232   7.600  14.398  1.00  0.00     0.011 C 
HETATM   17  C24 UNL     1      -1.898   6.918  13.177  1.00  0.00     0.007 C 
HETATM   18  C25 UNL     1      -3.335   6.412  13.463  1.00  0.00     0.013 C 
HETATM   19  C26 UNL     1      -4.119   7.231  14.518  1.00  0.00    -0.006 C 
HETATM   20  C27 UNL     1      -3.992   6.566  15.915  1.00  0.00     0.019 C 
ENDROOT
BRANCH   1  21
HETATM   21  C7  UNL     1      -6.714   6.354  14.331  1.00  0.00     0.085 C 
HETATM   22  C8  UNL     1      -6.614   5.712  15.727  1.00  0.00     0.049 C 
BRANCH  21  23
HETATM   23  C6  UNL     1      -6.532   5.237  13.225  1.00  0.00     0.170 C 
HETATM   24  O3  UNL     1      -7.450   4.146  13.469  1.00  0.00    -0.309 OA
HETATM   25  C5  UNL     1      -7.424   3.027  12.706  1.00  0.00     0.292 C 
HETATM   26  C3  UNL     1      -6.197   2.795  11.894  1.00  0.00     0.042 C 
HETATM   27  O2  UNL     1      -8.356   2.232  12.719  1.00  0.00    -0.260 OA
HETATM   28  C2  UNL     1      -5.085   3.524  12.138  1.00  0.00    -0.067 C 
HETATM   29  C1  UNL     1      -3.750   3.307  11.480  1.00  0.00     0.044 C 
HETATM   30  C28 UNL     1      -5.121   4.648  13.147  1.00  0.00     0.070 C 
BRANCH  26  31
HETATM   31  C4  UNL     1      -6.271   1.638  10.934  1.00  0.00     0.209 C 
BRANCH  31  32
HETATM   32  O1  UNL     1      -5.236   0.689  11.186  1.00  0.00    -0.396 OA
HETATM   33  H6  UNL     1      -4.807   0.904  12.033  1.00  0.00     0.209 HD
ENDBRANCH  31  32
ENDBRANCH  26  31
ENDBRANCH  21  23
BRANCH  21  34
HETATM   34  O4  UNL     1      -8.024   6.926  14.203  1.00  0.00    -0.387 OA
HETATM   35  H11 UNL     1      -8.670   6.359  14.661  1.00  0.00     0.210 HD
ENDBRANCH  21  34
ENDBRANCH   1  21
BRANCH   4  36
HETATM   36  O5  UNL     1      -3.737   9.186  13.137  1.00  0.00    -0.389 OA
HETATM   37  H17 UNL     1      -2.869   9.300  12.711  1.00  0.00     0.210 HD
ENDBRANCH   4  36
BRANCH   7  38
HETATM   38  O6  UNL     1       0.516  10.493  15.894  1.00  0.00    -0.392 OA
HETATM   39  H22 UNL     1      -0.007  11.135  16.406  1.00  0.00     0.210 HD
ENDBRANCH   7  38
BRANCH   8  40
HETATM   40  O7  UNL     1      -0.067   9.380  12.422  1.00  0.00    -0.386 OA
HETATM   41  H23 UNL     1       0.243  10.177  11.962  1.00  0.00     0.210 HD
ENDBRANCH   8  40
TORSDOF 8
ENDMDL
MODEL 9
REMARK minimizedAffinity -9.75497627
REMARK CNNscore 0.491068214
REMARK CNNaffinity 6.19226408
REMARK  8 active torsions:
REMARK  status: ('A' for Active; 'I' for Inactive)
REMARK    1  A    between atoms: C3_3  and  C4_4 
REMARK    2  A    between atoms: C4_4  and  O1_5 
REMARK    3  A    between atoms: C6_9  and  C7_10 
REMARK    4  A    between atoms: C7_10  and  O4_12 
REMARK    5  A    between atoms: C7_10  and  C9_13 
REMARK    6  A    between atoms: C12_16  and  O5_17 
REMARK    7  A    between atoms: C15_20  and  O6_21 
REMARK    8  A    between atoms: C16_22  and  O7_23 
ROOT
HETATM    1  C9  UNL     1      -2.504   6.507  14.560  1.00  0.00     0.033 C 
HETATM    2  C10 UNL     1      -1.700   5.264  14.069  1.00  0.00     0.011 C 
HETATM    3  C11 UNL     1      -0.211   5.654  14.018  1.00  0.00     0.039 C 
HETATM    4  C12 UNL     1      -0.156   7.012  14.708  1.00  0.00     0.070 C 
HETATM    5  C13 UNL     1       1.106   7.874  14.409  1.00  0.00     0.028 C 
HETATM    6  C14 UNL     1       2.360   7.231  15.061  1.00  0.00     0.043 C 
HETATM    7  C15 UNL     1       3.551   8.153  15.300  1.00  0.00     0.154 C 
HETATM    8  C16 UNL     1       3.100   9.497  15.923  1.00  0.00     0.098 C 
HETATM    9  C17 UNL     1       4.326  10.352  16.318  1.00  0.00     0.042 C 
HETATM   10  C18 UNL     1       3.992  11.809  16.662  1.00  0.00     0.010 C 
HETATM   11  C19 UNL     1       2.509  12.081  16.838  1.00  0.00     0.079 C 
HETATM   12  C20 UNL     1       1.763  11.633  15.600  1.00  0.00     0.138 C 
HETATM   13  O8  UNL     1       0.918  12.374  15.089  1.00  0.00    -0.297 OA
HETATM   14  C21 UNL     1       2.115  10.255  14.989  1.00  0.00     0.054 C 
HETATM   15  C22 UNL     1       2.757  10.626  13.615  1.00  0.00     0.027 C 
HETATM   16  C23 UNL     1       0.825   9.400  14.705  1.00  0.00     0.011 C 
HETATM   17  C24 UNL     1      -0.374   9.594  15.667  1.00  0.00     0.007 C 
HETATM   18  C25 UNL     1      -1.683   8.943  15.156  1.00  0.00     0.013 C 
HETATM   19  C26 UNL     1      -1.488   7.683  14.277  1.00  0.00    -0.006 C 
HETATM   20  C27 UNL     1      -1.516   8.070  12.774  1.00  0.00     0.019 C 
ENDROOT
BRANCH   1  21
HETATM   21  C7  UNL     1      -3.987   6.570  14.043  1.00  0.00     0.085 C 
HETATM   22  C8  UNL     1      -4.931   7.027  15.169  1.00  0.00     0.049 C 
BRANCH  21  23
HETATM   23  C6  UNL     1      -4.459   5.159  13.502  1.00  0.00     0.170 C 
HETATM   24  O3  UNL     1      -3.941   4.942  12.170  1.00  0.00    -0.309 OA
HETATM   25  C5  UNL     1      -4.281   3.840  11.458  1.00  0.00     0.292 C 
HETATM   26  C3  UNL     1      -5.481   3.087  11.918  1.00  0.00     0.042 C 
HETATM   27  O2  UNL     1      -3.648   3.510  10.464  1.00  0.00    -0.260 OA
HETATM   28  C2  UNL     1      -6.319   3.648  12.820  1.00  0.00    -0.067 C 
HETATM   29  C1  UNL     1      -7.623   3.051  13.272  1.00  0.00     0.044 C 
HETATM   30  C28 UNL     1      -5.979   4.980  13.445  1.00  0.00     0.070 C 
BRANCH  26  31
HETATM   31  C4  UNL     1      -5.730   1.782  11.213  1.00  0.00     0.209 C 
BRANCH  31  32
HETATM   32  O1  UNL     1      -6.767   1.037  11.850  1.00  0.00    -0.396 OA
HETATM   33  H6  UNL     1      -7.212   1.606  12.502  1.00  0.00     0.209 HD
ENDBRANCH  31  32
ENDBRANCH  26  31
ENDBRANCH  21  23
BRANCH  21  34
HETATM   34  O4  UNL     1      -4.075   7.529  12.978  1.00  0.00    -0.387 OA
HETATM   35  H11 UNL     1      -4.990   7.853  12.912  1.00  0.00     0.210 HD
ENDBRANCH  21  34
ENDBRANCH   1  21
BRANCH   4  36
HETATM   36  O5  UNL     1      -0.249   6.712  16.120  1.00  0.00    -0.389 OA
HETATM   37  H17 UNL     1       0.362   7.277  16.627  1.00  0.00     0.210 HD
ENDBRANCH   4  36
BRANCH   7  38
HETATM   38  O6  UNL     1       4.308   8.317  14.104  1.00  0.00    -0.392 OA
HETATM   39  H22 UNL     1       4.457   7.431  13.726  1.00  0.00     0.210 HD
ENDBRANCH   7  38
BRANCH   8  40
HETATM   40  O7  UNL     1       2.388   9.166  17.141  1.00  0.00    -0.386 OA
HETATM   41  H23 UNL     1       3.029   8.862  17.805  1.00  0.00     0.210 HD
ENDBRANCH   8  40
TORSDOF 8
ENDMDL
