MODEL 1
REMARK minimizedAffinity -9.85337639
REMARK CNNscore 0.587412
REMARK CNNaffinity 6.86714315
REMARK  14 active torsions:
REMARK  status: ('A' for Active; 'I' for Inactive)
REMARK    1  A    between atoms: O1_2  and  C2_3 
REMARK    2  A    between atoms: C6_8  and  C7_9 
REMARK    3  A    between atoms: C7_9  and  O3_11 
REMARK    4  A    between atoms: C8_12  and  C9_13 
REMARK    5  A    between atoms: C9_13  and  C10_14 
REMARK    6  A    between atoms: C10_14  and  N2_15 
REMARK       I    between atoms: N2_15  and  C11_16 
REMARK    7  A    between atoms: C11_16  and  C12_18 
REMARK    8  A    between atoms: C12_18  and  C13_19 
REMARK    9  A    between atoms: C13_19  and  C14_20 
REMARK   10  A    between atoms: C14_20  and  O6_22 
REMARK   11  A    between atoms: O6_22  and  C15_23 
REMARK   12  A    between atoms: C15_23  and  C16_24 
REMARK   13  A    between atoms: C16_24  and  C17_26 
REMARK   14  A    between atoms: C17_26  and  O8_27 
ROOT
HETATM    1  C14 UNL     1       4.699   7.266  10.770  1.00  0.00     0.259 C 
HETATM    2  O5  UNL     1       5.386   6.272  10.576  1.00  0.00    -0.265 OA
ENDROOT
BRANCH   1   3
HETATM    3  C13 UNL     1       3.256   7.397  10.346  1.00  0.00     0.120 C 
BRANCH   3   4
HETATM    4  C12 UNL     1       2.535   6.064  10.515  1.00  0.00     0.112 C 
BRANCH   4   5
HETATM    5  C11 UNL     1       1.030   6.239  10.461  1.00  0.00     0.218 C 
HETATM    6  N2  UNL     1       0.349   5.361  11.274  1.00  0.00    -0.361 N 
HETATM    7  H12 UNL     1       0.870   4.747  11.888  1.00  0.00     0.162 HD
HETATM    8  O4  UNL     1       0.484   7.081   9.757  1.00  0.00    -0.274 OA
BRANCH   6   9
HETATM    9  C10 UNL     1      -1.091   5.446  11.446  1.00  0.00     0.127 C 
BRANCH   9  10
HETATM   10  C9  UNL     1      -1.612   4.572  12.589  1.00  0.00     0.061 C 
BRANCH  10  11
HETATM   11  C8  UNL     1      -2.575   3.523  12.108  1.00  0.00    -0.011 A 
HETATM   12  C6  UNL     1      -2.281   2.341  11.428  1.00  0.00     0.114 A 
HETATM   13  N1  UNL     1      -3.480   1.703  11.200  1.00  0.00    -0.350 N 
HETATM   14  C5  UNL     1      -4.535   2.433  11.683  1.00  0.00     0.043 A 
HETATM   15  H6  UNL     1      -3.561   0.815  10.722  1.00  0.00     0.166 HD
HETATM   16  C4  UNL     1      -5.905   2.164  11.647  1.00  0.00     0.033 A 
HETATM   17  C36 UNL     1      -4.004   3.580  12.262  1.00  0.00     0.002 A 
HETATM   18  C3  UNL     1      -6.761   3.107  12.222  1.00  0.00     0.039 A 
HETATM   19  C2  UNL     1      -6.271   4.271  12.817  1.00  0.00     0.069 A 
HETATM   20  C37 UNL     1      -4.893   4.517  12.842  1.00  0.00     0.051 A 
BRANCH  12  21
HETATM   21  C7  UNL     1      -1.052   1.752  10.968  1.00  0.00     0.194 C 
HETATM   22  O2  UNL     1       0.073   2.194  11.146  1.00  0.00    -0.645 OA
BRANCH  21  23
HETATM   23  O3  UNL     1      -1.251   0.603  10.306  1.00  0.00    -0.772 OA
HETATM   24  H7  UNL     1      -0.360   0.287  10.056  1.00  0.00     0.167 HD
ENDBRANCH  21  23
ENDBRANCH  12  21
BRANCH  19  25
HETATM   25  O1  UNL     1      -7.238   5.092  13.335  1.00  0.00    -0.356 OA
HETATM   26  C1  UNL     1      -8.246   5.545  12.442  1.00  0.00     0.210 C 
ENDBRANCH  19  25
ENDBRANCH  10  11
ENDBRANCH   9  10
ENDBRANCH   6   9
ENDBRANCH   4   5
ENDBRANCH   3   4
ENDBRANCH   1   3
BRANCH   1  27
HETATM   27  O6  UNL     1       5.128   8.402  11.393  1.00  0.00    -0.314 OA
BRANCH  27  28
HETATM   28  C15 UNL     1       5.627   8.164  12.706  1.00  0.00     0.260 C 
BRANCH  28  29
HETATM   29  C16 UNL     1       7.104   8.519  12.814  1.00  0.00     0.185 C 
HETATM   30  O7  UNL     1       7.700   8.958  11.825  1.00  0.00    -0.292 OA
BRANCH  29  31
HETATM   31  C17 UNL     1       7.782   8.408  14.209  1.00  0.00     0.128 C 
HETATM   32  C18 UNL     1       9.326   8.239  14.071  1.00  0.00     0.047 C 
HETATM   33  C19 UNL     1       9.969   8.997  15.246  1.00  0.00     0.009 C 
HETATM   34  C20 UNL     1       8.795   9.424  16.118  1.00  0.00     0.002 C 
HETATM   35  C21 UNL     1       9.011  10.582  17.101  1.00  0.00    -0.004 C 
HETATM   36  C34 UNL     1       7.656   9.687  15.099  1.00  0.00    -0.002 C 
HETATM   37  C22 UNL     1      10.162  10.288  18.073  1.00  0.00     0.010 C 
HETATM   38  C31 UNL     1       7.696  10.834  17.899  1.00  0.00     0.002 C 
HETATM   39  C23 UNL     1      10.362  11.435  19.055  1.00  0.00     0.035 C 
HETATM   40  C24 UNL     1       9.091  11.787  19.795  1.00  0.00    -0.068 C 
HETATM   41  C25 UNL     1       9.117  11.912  21.134  1.00  0.00     0.053 C 
HETATM   42  C29 UNL     1       7.833  12.009  18.943  1.00  0.00    -0.016 C 
HETATM   43  C26 UNL     1       7.938  12.380  21.896  1.00  0.00     0.149 C 
HETATM   44  O9  UNL     1       8.005  12.467  23.121  1.00  0.00    -0.293 OA
HETATM   45  C27 UNL     1       6.725  12.829  21.124  1.00  0.00     0.084 C 
HETATM   46  C28 UNL     1       6.567  12.012  19.850  1.00  0.00     0.022 C 
HETATM   47  C30 UNL     1       7.959  13.389  18.255  1.00  0.00     0.020 C 
HETATM   48  C32 UNL     1       6.465  10.963  16.965  1.00  0.00     0.007 C 
HETATM   49  C33 UNL     1       6.362   9.835  15.920  1.00  0.00     0.013 C 
HETATM   50  C35 UNL     1       7.886  10.963  14.245  1.00  0.00     0.019 C 
BRANCH  31  51
HETATM   51  O8  UNL     1       7.337   7.251  14.925  1.00  0.00    -0.381 OA
HETATM   52  H19 UNL     1       6.374   7.163  14.810  1.00  0.00     0.211 HD
ENDBRANCH  31  51
ENDBRANCH  29  31
ENDBRANCH  28  29
ENDBRANCH  27  28
ENDBRANCH   1  27
TORSDOF 14
ENDMDL
MODEL 2
REMARK minimizedAffinity -9.15795422
REMARK CNNscore 0.442134112
REMARK CNNaffinity 6.85166311
REMARK  14 active torsions:
REMARK  status: ('A' for Active; 'I' for Inactive)
REMARK    1  A    between atoms: O1_2  and  C2_3 
REMARK    2  A    between atoms: C6_8  and  C7_9 
REMARK    3  A    between atoms: C7_9  and  O3_11 
REMARK    4  A    between atoms: C8_12  and  C9_13 
REMARK    5  A    between atoms: C9_13  and  C10_14 
REMARK    6  A    between atoms: C10_14  and  N2_15 
REMARK       I    between atoms: N2_15  and  C11_16 
REMARK    7  A    between atoms: C11_16  and  C12_18 
REMARK    8  A    between atoms: C12_18  and  C13_19 
REMARK    9  A    between atoms: C13_19  and  C14_20 
REMARK   10  A    between atoms: C14_20  and  O6_22 
REMARK   11  A    between atoms: O6_22  and  C15_23 
REMARK   12  A    between atoms: C15_23  and  C16_24 
REMARK   13  A    between atoms: C16_24  and  C17_26 
REMARK   14  A    between atoms: C17_26  and  O8_27 
ROOT
HETATM    1  C14 UNL     1      -3.162   9.362  15.467  1.00  0.00     0.259 C 
HETATM    2  O5  UNL     1      -3.152  10.233  14.609  1.00  0.00    -0.265 OA
ENDROOT
BRANCH   1   3
HETATM    3  C13 UNL     1      -3.860   8.032  15.319  1.00  0.00     0.120 C 
BRANCH   3   4
HETATM    4  C12 UNL     1      -2.895   6.893  15.631  1.00  0.00     0.112 C 
BRANCH   4   5
HETATM    5  C11 UNL     1      -1.976   6.610  14.459  1.00  0.00     0.218 C 
HETATM    6  N2  UNL     1      -1.850   5.269  14.176  1.00  0.00    -0.361 N 
HETATM    7  H12 UNL     1      -2.415   4.599  14.684  1.00  0.00     0.162 HD
HETATM    8  O4  UNL     1      -1.405   7.496  13.834  1.00  0.00    -0.274 OA
BRANCH   6   9
HETATM    9  C10 UNL     1      -1.104   4.804  13.019  1.00  0.00     0.127 C 
BRANCH   9  10
HETATM   10  C9  UNL     1      -1.936   4.787  11.735  1.00  0.00     0.061 C 
BRANCH  10  11
HETATM   11  C8  UNL     1      -2.772   3.544  11.616  1.00  0.00    -0.011 A 
HETATM   12  C6  UNL     1      -2.372   2.286  11.165  1.00  0.00     0.114 A 
HETATM   13  N1  UNL     1      -3.477   1.467  11.236  1.00  0.00    -0.350 N 
HETATM   14  C5  UNL     1      -4.576   2.147  11.691  1.00  0.00     0.043 A 
HETATM   15  H6  UNL     1      -3.469   0.491  10.970  1.00  0.00     0.166 HD
HETATM   16  C4  UNL     1      -5.885   1.705  11.893  1.00  0.00     0.033 A 
HETATM   17  C36 UNL     1      -4.170   3.453  11.942  1.00  0.00     0.002 A 
HETATM   18  C3  UNL     1      -6.812   2.638  12.367  1.00  0.00     0.039 A 
HETATM   19  C2  UNL     1      -6.448   3.958  12.635  1.00  0.00     0.069 A 
HETATM   20  C37 UNL     1      -5.128   4.376  12.425  1.00  0.00     0.051 A 
BRANCH  12  21
HETATM   21  C7  UNL     1      -1.120   1.768  10.680  1.00  0.00     0.194 C 
HETATM   22  O2  UNL     1      -0.035   1.865  11.233  1.00  0.00    -0.645 OA
BRANCH  21  23
HETATM   23  O3  UNL     1      -1.252   1.118   9.515  1.00  0.00    -0.772 OA
HETATM   24  H7  UNL     1      -0.355   0.801   9.290  1.00  0.00     0.167 HD
ENDBRANCH  21  23
ENDBRANCH  12  21
BRANCH  19  25
HETATM   25  O1  UNL     1      -7.471   4.746  13.093  1.00  0.00    -0.356 OA
HETATM   26  C1  UNL     1      -8.270   5.398  12.115  1.00  0.00     0.210 C 
ENDBRANCH  19  25
ENDBRANCH  10  11
ENDBRANCH   9  10
ENDBRANCH   6   9
ENDBRANCH   4   5
ENDBRANCH   3   4
ENDBRANCH   1   3
BRANCH   1  27
HETATM   27  O6  UNL     1      -2.549   9.456  16.683  1.00  0.00    -0.314 OA
BRANCH  27  28
HETATM   28  C15 UNL     1      -1.900  10.709  16.886  1.00  0.00     0.260 C 
BRANCH  28  29
HETATM   29  C16 UNL     1      -0.425  10.526  17.213  1.00  0.00     0.185 C 
HETATM   30  O7  UNL     1       0.114   9.432  17.014  1.00  0.00    -0.292 OA
BRANCH  29  31
HETATM   31  C17 UNL     1       0.376  11.768  17.697  1.00  0.00     0.128 C 
HETATM   32  C18 UNL     1      -0.580  12.947  18.057  1.00  0.00     0.047 C 
HETATM   33  C19 UNL     1       0.042  13.681  19.258  1.00  0.00     0.009 C 
HETATM   34  C20 UNL     1       1.407  13.029  19.444  1.00  0.00     0.002 C 
HETATM   35  C21 UNL     1       2.094  13.173  20.808  1.00  0.00    -0.004 C 
HETATM   36  C34 UNL     1       1.171  11.555  19.026  1.00  0.00    -0.002 C 
HETATM   37  C22 UNL     1       2.285  14.648  21.189  1.00  0.00     0.010 C 
HETATM   38  C31 UNL     1       3.477  12.454  20.766  1.00  0.00     0.002 C 
HETATM   39  C23 UNL     1       2.981  14.783  22.537  1.00  0.00     0.035 C 
HETATM   40  C24 UNL     1       4.289  14.026  22.588  1.00  0.00    -0.068 C 
HETATM   41  C25 UNL     1       5.395  14.644  23.040  1.00  0.00     0.053 C 
HETATM   42  C29 UNL     1       4.258  12.560  22.134  1.00  0.00    -0.016 C 
HETATM   43  C26 UNL     1       6.670  13.918  23.234  1.00  0.00     0.149 C 
HETATM   44  O9  UNL     1       7.658  14.528  23.639  1.00  0.00    -0.293 OA
HETATM   45  C27 UNL     1       6.678  12.427  23.020  1.00  0.00     0.084 C 
HETATM   46  C28 UNL     1       5.709  12.039  21.912  1.00  0.00     0.022 C 
HETATM   47  C30 UNL     1       3.592  11.726  23.253  1.00  0.00     0.020 C 
HETATM   48  C32 UNL     1       3.365  11.009  20.217  1.00  0.00     0.007 C 
HETATM   49  C33 UNL     1       2.562  10.908  18.906  1.00  0.00     0.013 C 
HETATM   50  C35 UNL     1       0.309  10.763  20.048  1.00  0.00     0.019 C 
BRANCH  31  51
HETATM   51  O8  UNL     1       1.236  12.278  16.672  1.00  0.00    -0.381 OA
HETATM   52  H19 UNL     1       1.667  11.528  16.225  1.00  0.00     0.211 HD
ENDBRANCH  31  51
ENDBRANCH  29  31
ENDBRANCH  28  29
ENDBRANCH  27  28
ENDBRANCH   1  27
TORSDOF 14
ENDMDL
MODEL 3
REMARK minimizedAffinity -8.8122921
REMARK CNNscore 0.37911734
REMARK CNNaffinity 6.94299889
REMARK  14 active torsions:
REMARK  status: ('A' for Active; 'I' for Inactive)
REMARK    1  A    between atoms: O1_2  and  C2_3 
REMARK    2  A    between atoms: C6_8  and  C7_9 
REMARK    3  A    between atoms: C7_9  and  O3_11 
REMARK    4  A    between atoms: C8_12  and  C9_13 
REMARK    5  A    between atoms: C9_13  and  C10_14 
REMARK    6  A    between atoms: C10_14  and  N2_15 
REMARK       I    between atoms: N2_15  and  C11_16 
REMARK    7  A    between atoms: C11_16  and  C12_18 
REMARK    8  A    between atoms: C12_18  and  C13_19 
REMARK    9  A    between atoms: C13_19  and  C14_20 
REMARK   10  A    between atoms: C14_20  and  O6_22 
REMARK   11  A    between atoms: O6_22  and  C15_23 
REMARK   12  A    between atoms: C15_23  and  C16_24 
REMARK   13  A    between atoms: C16_24  and  C17_26 
REMARK   14  A    between atoms: C17_26  and  O8_27 
ROOT
HETATM    1  C14 UNL     1     -10.754   7.627  14.685  1.00  0.00     0.259 C 
HETATM    2  O5  UNL     1     -11.460   6.646  14.494  1.00  0.00    -0.265 OA
ENDROOT
BRANCH   1   3
HETATM    3  C13 UNL     1     -11.282   9.027  14.884  1.00  0.00     0.120 C 
BRANCH   3   4
HETATM    4  C12 UNL     1     -12.298   9.049  16.022  1.00  0.00     0.112 C 
BRANCH   4   5
HETATM    5  C11 UNL     1     -11.740   9.747  17.247  1.00  0.00     0.218 C 
HETATM    6  N2  UNL     1     -12.687   9.987  18.216  1.00  0.00    -0.361 N 
HETATM    7  H12 UNL     1     -13.625   9.625  18.095  1.00  0.00     0.162 HD
HETATM    8  O4  UNL     1     -10.561  10.065  17.352  1.00  0.00    -0.274 OA
BRANCH   6   9
HETATM    9  C10 UNL     1     -12.327  10.545  19.509  1.00  0.00     0.127 C 
BRANCH   9  10
HETATM   10  C9  UNL     1     -11.067   9.911  20.105  1.00  0.00     0.061 C 
BRANCH  10  11
HETATM   11  C8  UNL     1     -10.809  10.376  21.512  1.00  0.00    -0.011 A 
HETATM   12  C6  UNL     1     -11.178   9.747  22.700  1.00  0.00     0.114 A 
HETATM   13  N1  UNL     1     -10.725  10.542  23.729  1.00  0.00    -0.350 N 
HETATM   14  C5  UNL     1     -10.100  11.666  23.257  1.00  0.00     0.043 A 
HETATM   15  H6  UNL     1     -10.856  10.320  24.708  1.00  0.00     0.166 HD
HETATM   16  C4  UNL     1      -9.519  12.730  23.950  1.00  0.00     0.033 A 
HETATM   17  C36 UNL     1     -10.132  11.594  21.868  1.00  0.00     0.002 A 
HETATM   18  C3  UNL     1      -8.953  13.758  23.191  1.00  0.00     0.039 A 
HETATM   19  C2  UNL     1      -8.960  13.726  21.797  1.00  0.00     0.069 A 
HETATM   20  C37 UNL     1      -9.548  12.647  21.125  1.00  0.00     0.051 A 
BRANCH  12  21
HETATM   21  C7  UNL     1     -11.891   8.531  22.988  1.00  0.00     0.194 C 
HETATM   22  O2  UNL     1     -13.004   8.231  22.582  1.00  0.00    -0.645 OA
BRANCH  21  23
HETATM   23  O3  UNL     1     -11.186   7.696  23.766  1.00  0.00    -0.772 OA
HETATM   24  H7  UNL     1     -11.753   6.908  23.884  1.00  0.00     0.167 HD
ENDBRANCH  21  23
ENDBRANCH  12  21
BRANCH  19  25
HETATM   25  O1  UNL     1      -8.365  14.807  21.202  1.00  0.00    -0.356 OA
HETATM   26  C1  UNL     1      -8.049  15.911  22.040  1.00  0.00     0.210 C 
ENDBRANCH  19  25
ENDBRANCH  10  11
ENDBRANCH   9  10
ENDBRANCH   6   9
ENDBRANCH   4   5
ENDBRANCH   3   4
ENDBRANCH   1   3
BRANCH   1  27
HETATM   27  O6  UNL     1      -9.391   7.609  14.745  1.00  0.00    -0.314 OA
BRANCH  27  28
HETATM   28  C15 UNL     1      -8.888   6.742  15.758  1.00  0.00     0.260 C 
BRANCH  28  29
HETATM   29  C16 UNL     1      -7.676   5.959  15.271  1.00  0.00     0.185 C 
HETATM   30  O7  UNL     1      -7.485   4.810  15.681  1.00  0.00    -0.292 OA
BRANCH  29  31
HETATM   31  C17 UNL     1      -6.775   6.612  14.184  1.00  0.00     0.128 C 
HETATM   32  C18 UNL     1      -6.710   8.160  14.363  1.00  0.00     0.047 C 
HETATM   33  C19 UNL     1      -5.287   8.599  13.976  1.00  0.00     0.009 C 
HETATM   34  C20 UNL     1      -4.632   7.341  13.421  1.00  0.00     0.002 C 
HETATM   35  C21 UNL     1      -3.099   7.284  13.381  1.00  0.00    -0.004 C 
HETATM   36  C34 UNL     1      -5.269   6.197  14.252  1.00  0.00    -0.002 C 
HETATM   37  C22 UNL     1      -2.515   8.448  12.568  1.00  0.00     0.010 C 
HETATM   38  C31 UNL     1      -2.650   5.926  12.760  1.00  0.00     0.002 C 
HETATM   39  C23 UNL     1      -0.993   8.376  12.520  1.00  0.00     0.035 C 
HETATM   40  C24 UNL     1      -0.495   7.042  12.012  1.00  0.00    -0.068 C 
HETATM   41  C25 UNL     1       0.435   7.009  11.041  1.00  0.00     0.053 C 
HETATM   42  C29 UNL     1      -1.080   5.787  12.674  1.00  0.00    -0.016 C 
HETATM   43  C26 UNL     1       1.052   5.740  10.596  1.00  0.00     0.149 C 
HETATM   44  O9  UNL     1       1.890   5.757   9.695  1.00  0.00    -0.293 OA
HETATM   45  C27 UNL     1       0.698   4.478  11.339  1.00  0.00     0.084 C 
HETATM   46  C28 UNL     1      -0.744   4.527  11.822  1.00  0.00     0.022 C 
HETATM   47  C30 UNL     1      -0.430   5.636  14.069  1.00  0.00     0.020 C 
HETATM   48  C32 UNL     1      -3.352   4.719  13.433  1.00  0.00     0.007 C 
HETATM   49  C33 UNL     1      -4.880   4.882  13.554  1.00  0.00     0.013 C 
HETATM   50  C35 UNL     1      -4.782   6.173  15.727  1.00  0.00     0.019 C 
BRANCH  31  51
HETATM   51  O8  UNL     1      -7.295   6.404  12.867  1.00  0.00    -0.381 OA
HETATM   52  H19 UNL     1      -7.606   5.484  12.795  1.00  0.00     0.211 HD
ENDBRANCH  31  51
ENDBRANCH  29  31
ENDBRANCH  28  29
ENDBRANCH  27  28
ENDBRANCH   1  27
TORSDOF 14
ENDMDL
MODEL 4
REMARK minimizedAffinity -9.32829285
REMARK CNNscore 0.369224578
REMARK CNNaffinity 6.58115339
REMARK  14 active torsions:
REMARK  status: ('A' for Active; 'I' for Inactive)
REMARK    1  A    between atoms: O1_2  and  C2_3 
REMARK    2  A    between atoms: C6_8  and  C7_9 
REMARK    3  A    between atoms: C7_9  and  O3_11 
REMARK    4  A    between atoms: C8_12  and  C9_13 
REMARK    5  A    between atoms: C9_13  and  C10_14 
REMARK    6  A    between atoms: C10_14  and  N2_15 
REMARK       I    between atoms: N2_15  and  C11_16 
REMARK    7  A    between atoms: C11_16  and  C12_18 
REMARK    8  A    between atoms: C12_18  and  C13_19 
REMARK    9  A    between atoms: C13_19  and  C14_20 
REMARK   10  A    between atoms: C14_20  and  O6_22 
REMARK   11  A    between atoms: O6_22  and  C15_23 
REMARK   12  A    between atoms: C15_23  and  C16_24 
REMARK   13  A    between atoms: C16_24  and  C17_26 
REMARK   14  A    between atoms: C17_26  and  O8_27 
ROOT
HETATM    1  C14 UNL     1       3.931   6.877  10.736  1.00  0.00     0.259 C 
HETATM    2  O5  UNL     1       4.296   7.432   9.709  1.00  0.00    -0.265 OA
ENDROOT
BRANCH   1   3
HETATM    3  C13 UNL     1       2.830   5.847  10.800  1.00  0.00     0.120 C 
BRANCH   3   4
HETATM    4  C12 UNL     1       1.691   6.234   9.862  1.00  0.00     0.112 C 
BRANCH   4   5
HETATM    5  C11 UNL     1       0.474   6.703  10.635  1.00  0.00     0.218 C 
HETATM    6  N2  UNL     1      -0.278   5.671  11.147  1.00  0.00    -0.361 N 
HETATM    7  H12 UNL     1       0.056   4.719  11.055  1.00  0.00     0.162 HD
HETATM    8  O4  UNL     1       0.196   7.888  10.781  1.00  0.00    -0.274 OA
BRANCH   6   9
HETATM    9  C10 UNL     1      -1.419   5.919  12.012  1.00  0.00     0.127 C 
BRANCH   9  10
HETATM   10  C9  UNL     1      -1.731   4.746  12.945  1.00  0.00     0.061 C 
BRANCH  10  11
HETATM   11  C8  UNL     1      -2.732   3.796  12.350  1.00  0.00    -0.011 A 
HETATM   12  C6  UNL     1      -2.482   2.691  11.536  1.00  0.00     0.114 A 
HETATM   13  N1  UNL     1      -3.704   2.129  11.241  1.00  0.00    -0.350 N 
HETATM   14  C5  UNL     1      -4.731   2.837  11.808  1.00  0.00     0.043 A 
HETATM   15  H6  UNL     1      -3.818   1.306  10.663  1.00  0.00     0.166 HD
HETATM   16  C4  UNL     1      -6.111   2.626  11.746  1.00  0.00     0.033 A 
HETATM   17  C36 UNL     1      -4.158   3.889  12.514  1.00  0.00     0.002 A 
HETATM   18  C3  UNL     1      -6.930   3.527  12.429  1.00  0.00     0.039 A 
HETATM   19  C2  UNL     1      -6.398   4.595  13.152  1.00  0.00     0.069 A 
HETATM   20  C37 UNL     1      -5.011   4.785  13.201  1.00  0.00     0.051 A 
BRANCH  12  21
HETATM   21  C7  UNL     1      -1.275   2.113  11.008  1.00  0.00     0.194 C 
HETATM   22  O2  UNL     1      -0.175   2.643  10.972  1.00  0.00    -0.645 OA
BRANCH  21  23
HETATM   23  O3  UNL     1      -1.463   0.868  10.548  1.00  0.00    -0.772 OA
HETATM   24  H7  UNL     1      -0.587   0.571  10.230  1.00  0.00     0.167 HD
ENDBRANCH  21  23
ENDBRANCH  12  21
BRANCH  19  25
HETATM   25  O1  UNL     1      -7.333   5.386  13.766  1.00  0.00    -0.356 OA
HETATM   26  C1  UNL     1      -7.212   5.555  15.172  1.00  0.00     0.210 C 
ENDBRANCH  19  25
ENDBRANCH  10  11
ENDBRANCH   9  10
ENDBRANCH   6   9
ENDBRANCH   4   5
ENDBRANCH   3   4
ENDBRANCH   1   3
BRANCH   1  27
HETATM   27  O6  UNL     1       4.457   7.103  11.975  1.00  0.00    -0.314 OA
BRANCH  27  28
HETATM   28  C15 UNL     1       5.563   8.002  11.957  1.00  0.00     0.260 C 
BRANCH  28  29
HETATM   29  C16 UNL     1       6.439   7.833  13.190  1.00  0.00     0.185 C 
HETATM   30  O7  UNL     1       6.173   6.950  14.012  1.00  0.00    -0.292 OA
BRANCH  29  31
HETATM   31  C17 UNL     1       7.707   8.725  13.313  1.00  0.00     0.128 C 
HETATM   32  C18 UNL     1       7.636   9.940  12.339  1.00  0.00     0.047 C 
HETATM   33  C19 UNL     1       8.299  11.131  13.054  1.00  0.00     0.009 C 
HETATM   34  C20 UNL     1       8.887  10.536  14.328  1.00  0.00     0.002 C 
HETATM   35  C21 UNL     1       9.200  11.488  15.490  1.00  0.00    -0.004 C 
HETATM   36  C34 UNL     1       7.888   9.413  14.705  1.00  0.00    -0.002 C 
HETATM   37  C22 UNL     1      10.173  12.596  15.063  1.00  0.00     0.010 C 
HETATM   38  C31 UNL     1       9.809  10.676  16.672  1.00  0.00     0.002 C 
HETATM   39  C23 UNL     1      10.491  13.529  16.225  1.00  0.00     0.035 C 
HETATM   40  C24 UNL     1      11.000  12.784  17.438  1.00  0.00    -0.068 C 
HETATM   41  C25 UNL     1      12.119  13.206  18.053  1.00  0.00     0.053 C 
HETATM   42  C29 UNL     1      10.169  11.584  17.912  1.00  0.00    -0.016 C 
HETATM   43  C26 UNL     1      12.592  12.598  19.316  1.00  0.00     0.149 C 
HETATM   44  O9  UNL     1      13.628  13.008  19.836  1.00  0.00    -0.293 OA
HETATM   45  C27 UNL     1      11.722  11.556  19.972  1.00  0.00     0.084 C 
HETATM   46  C28 UNL     1      10.991  10.731  18.924  1.00  0.00     0.022 C 
HETATM   47  C30 UNL     1       8.907  12.126  18.624  1.00  0.00     0.020 C 
HETATM   48  C32 UNL     1       8.950   9.435  17.030  1.00  0.00     0.007 C 
HETATM   49  C33 UNL     1       8.565   8.579  15.808  1.00  0.00     0.013 C 
HETATM   50  C35 UNL     1       6.526   9.956  15.219  1.00  0.00     0.019 C 
BRANCH  31  51
HETATM   51  O8  UNL     1       8.894   8.014  12.946  1.00  0.00    -0.381 OA
HETATM   52  H19 UNL     1       8.853   7.119  13.327  1.00  0.00     0.211 HD
ENDBRANCH  31  51
ENDBRANCH  29  31
ENDBRANCH  28  29
ENDBRANCH  27  28
ENDBRANCH   1  27
TORSDOF 14
ENDMDL
MODEL 5
REMARK minimizedAffinity -9.06022644
REMARK CNNscore 0.325192183
REMARK CNNaffinity 6.26889086
REMARK  14 active torsions:
REMARK  status: ('A' for Active; 'I' for Inactive)
REMARK    1  A    between atoms: O1_2  and  C2_3 
REMARK    2  A    between atoms: C6_8  and  C7_9 
REMARK    3  A    between atoms: C7_9  and  O3_11 
REMARK    4  A    between atoms: C8_12  and  C9_13 
REMARK    5  A    between atoms: C9_13  and  C10_14 
REMARK    6  A    between atoms: C10_14  and  N2_15 
REMARK       I    between atoms: N2_15  and  C11_16 
REMARK    7  A    between atoms: C11_16  and  C12_18 
REMARK    8  A    between atoms: C12_18  and  C13_19 
REMARK    9  A    between atoms: C13_19  and  C14_20 
REMARK   10  A    between atoms: C14_20  and  O6_22 
REMARK   11  A    between atoms: O6_22  and  C15_23 
REMARK   12  A    between atoms: C15_23  and  C16_24 
REMARK   13  A    between atoms: C16_24  and  C17_26 
REMARK   14  A    between atoms: C17_26  and  O8_27 
ROOT
HETATM    1  C14 UNL     1       0.279   8.619  16.406  1.00  0.00     0.259 C 
HETATM    2  O5  UNL     1       0.757   7.510  16.212  1.00  0.00    -0.265 OA
ENDROOT
BRANCH   1   3
HETATM    3  C13 UNL     1      -1.029   9.094  15.823  1.00  0.00     0.120 C 
BRANCH   3   4
HETATM    4  C12 UNL     1      -2.199   8.486  16.589  1.00  0.00     0.112 C 
BRANCH   4   5
HETATM    5  C11 UNL     1      -2.898   7.415  15.773  1.00  0.00     0.218 C 
HETATM    6  N2  UNL     1      -2.049   6.430  15.325  1.00  0.00    -0.361 N 
HETATM    7  H12 UNL     1      -1.081   6.434  15.624  1.00  0.00     0.162 HD
HETATM    8  O4  UNL     1      -4.101   7.438  15.540  1.00  0.00    -0.274 OA
BRANCH   6   9
HETATM    9  C10 UNL     1      -2.548   5.259  14.623  1.00  0.00     0.127 C 
BRANCH   9  10
HETATM   10  C9  UNL     1      -2.358   5.343  13.107  1.00  0.00     0.061 C 
BRANCH  10  11
HETATM   11  C8  UNL     1      -2.842   4.105  12.405  1.00  0.00    -0.011 A 
HETATM   12  C6  UNL     1      -2.089   3.197  11.659  1.00  0.00     0.114 A 
HETATM   13  N1  UNL     1      -2.960   2.227  11.215  1.00  0.00    -0.350 N 
HETATM   14  C5  UNL     1      -4.243   2.482  11.622  1.00  0.00     0.043 A 
HETATM   15  H6  UNL     1      -2.678   1.438  10.648  1.00  0.00     0.166 HD
HETATM   16  C4  UNL     1      -5.421   1.771  11.380  1.00  0.00     0.033 A 
HETATM   17  C36 UNL     1      -4.206   3.651  12.374  1.00  0.00     0.002 A 
HETATM   18  C3  UNL     1      -6.602   2.280  11.926  1.00  0.00     0.039 A 
HETATM   19  C2  UNL     1      -6.611   3.448  12.688  1.00  0.00     0.069 A 
HETATM   20  C37 UNL     1      -5.417   4.142  12.918  1.00  0.00     0.051 A 
BRANCH  12  21
HETATM   21  C7  UNL     1      -0.694   3.129  11.311  1.00  0.00     0.194 C 
HETATM   22  O2  UNL     1       0.045   4.078  11.097  1.00  0.00    -0.645 OA
BRANCH  21  23
HETATM   23  O3  UNL     1      -0.242   1.868  11.256  1.00  0.00    -0.772 OA
HETATM   24  H7  UNL     1       0.707   1.941  11.029  1.00  0.00     0.167 HD
ENDBRANCH  21  23
ENDBRANCH  12  21
BRANCH  19  25
HETATM   25  O1  UNL     1      -7.848   3.813  13.151  1.00  0.00    -0.356 OA
HETATM   26  C1  UNL     1      -8.474   4.919  12.513  1.00  0.00     0.210 C 
ENDBRANCH  19  25
ENDBRANCH  10  11
ENDBRANCH   9  10
ENDBRANCH   6   9
ENDBRANCH   4   5
ENDBRANCH   3   4
ENDBRANCH   1   3
BRANCH   1  27
HETATM   27  O6  UNL     1       0.850   9.592  17.174  1.00  0.00    -0.314 OA
BRANCH  27  28
HETATM   28  C15 UNL     1       0.845  10.873  16.550  1.00  0.00     0.260 C 
BRANCH  28  29
HETATM   29  C16 UNL     1       2.049  11.053  15.637  1.00  0.00     0.185 C 
HETATM   30  O7  UNL     1       1.902  11.573  14.526  1.00  0.00    -0.292 OA
BRANCH  29  31
HETATM   31  C17 UNL     1       3.449  10.662  16.189  1.00  0.00     0.128 C 
HETATM   32  C18 UNL     1       4.543  10.780  15.084  1.00  0.00     0.047 C 
HETATM   33  C19 UNL     1       5.829  11.268  15.773  1.00  0.00     0.009 C 
HETATM   34  C20 UNL     1       5.502  11.247  17.261  1.00  0.00     0.002 C 
HETATM   35  C21 UNL     1       6.362  12.102  18.200  1.00  0.00    -0.004 C 
HETATM   36  C34 UNL     1       3.994  11.604  17.311  1.00  0.00    -0.002 C 
HETATM   37  C22 UNL     1       7.848  11.729  18.099  1.00  0.00     0.010 C 
HETATM   38  C31 UNL     1       5.868  11.913  19.667  1.00  0.00     0.002 C 
HETATM   39  C23 UNL     1       8.693  12.572  19.045  1.00  0.00     0.035 C 
HETATM   40  C24 UNL     1       8.203  12.501  20.473  1.00  0.00    -0.068 C 
HETATM   41  C25 UNL     1       9.079  12.248  21.462  1.00  0.00     0.053 C 
HETATM   42  C29 UNL     1       6.707  12.755  20.705  1.00  0.00    -0.016 C 
HETATM   43  C26 UNL     1       8.681  12.295  22.887  1.00  0.00     0.149 C 
HETATM   44  O9  UNL     1       9.514  12.044  23.757  1.00  0.00    -0.293 OA
HETATM   45  C27 UNL     1       7.283  12.749  23.220  1.00  0.00     0.084 C 
HETATM   46  C28 UNL     1       6.305  12.307  22.141  1.00  0.00     0.022 C 
HETATM   47  C30 UNL     1       6.453  14.274  20.565  1.00  0.00     0.020 C 
HETATM   48  C32 UNL     1       4.335  12.105  19.794  1.00  0.00     0.007 C 
HETATM   49  C33 UNL     1       3.525  11.315  18.749  1.00  0.00     0.013 C 
HETATM   50  C35 UNL     1       3.708  13.089  16.954  1.00  0.00     0.019 C 
BRANCH  31  51
HETATM   51  O8  UNL     1       3.489   9.296  16.617  1.00  0.00    -0.381 OA
HETATM   52  H19 UNL     1       2.668   9.096  17.100  1.00  0.00     0.211 HD
ENDBRANCH  31  51
ENDBRANCH  29  31
ENDBRANCH  28  29
ENDBRANCH  27  28
ENDBRANCH   1  27
TORSDOF 14
ENDMDL
MODEL 6
REMARK minimizedAffinity -9.64052296
REMARK CNNscore 0.31992048
REMARK CNNaffinity 7.20709991
REMARK  14 active torsions:
REMARK  status: ('A' for Active; 'I' for Inactive)
REMARK    1  A    between atoms: O1_2  and  C2_3 
REMARK    2  A    between atoms: C6_8  and  C7_9 
REMARK    3  A    between atoms: C7_9  and  O3_11 
REMARK    4  A    between atoms: C8_12  and  C9_13 
REMARK    5  A    between atoms: C9_13  and  C10_14 
REMARK    6  A    between atoms: C10_14  and  N2_15 
REMARK       I    between atoms: N2_15  and  C11_16 
REMARK    7  A    between atoms: C11_16  and  C12_18 
REMARK    8  A    between atoms: C12_18  and  C13_19 
REMARK    9  A    between atoms: C13_19  and  C14_20 
REMARK   10  A    between atoms: C14_20  and  O6_22 
REMARK   11  A    between atoms: O6_22  and  C15_23 
REMARK   12  A    between atoms: C15_23  and  C16_24 
REMARK   13  A    between atoms: C16_24  and  C17_26 
REMARK   14  A    between atoms: C17_26  and  O8_27 
ROOT
HETATM    1  C14 UNL     1      -1.114  10.895  15.185  1.00  0.00     0.259 C 
HETATM    2  O5  UNL     1      -1.377  11.679  14.284  1.00  0.00    -0.265 OA
ENDROOT
BRANCH   1   3
HETATM    3  C13 UNL     1      -0.286  11.241  16.398  1.00  0.00     0.120 C 
BRANCH   3   4
HETATM    4  C12 UNL     1      -1.123  12.037  17.395  1.00  0.00     0.112 C 
BRANCH   4   5
HETATM    5  C11 UNL     1      -0.481  12.051  18.769  1.00  0.00     0.218 C 
HETATM    6  N2  UNL     1       0.277  10.932  19.028  1.00  0.00    -0.361 N 
HETATM    7  H12 UNL     1       0.421  10.249  18.295  1.00  0.00     0.162 HD
HETATM    8  O4  UNL     1      -0.631  12.972  19.563  1.00  0.00    -0.274 OA
BRANCH   6   9
HETATM    9  C10 UNL     1       1.062  10.812  20.245  1.00  0.00     0.127 C 
BRANCH   9  10
HETATM   10  C9  UNL     1       2.452  10.217  20.006  1.00  0.00     0.061 C 
BRANCH  10  11
HETATM   11  C8  UNL     1       3.346  10.360  21.206  1.00  0.00    -0.011 A 
HETATM   12  C6  UNL     1       3.279   9.658  22.409  1.00  0.00     0.114 A 
HETATM   13  N1  UNL     1       4.301  10.128  23.203  1.00  0.00    -0.350 N 
HETATM   14  C5  UNL     1       5.009  11.118  22.574  1.00  0.00     0.043 A 
HETATM   15  H6  UNL     1       4.487   9.788  24.138  1.00  0.00     0.166 HD
HETATM   16  C4  UNL     1       6.098  11.868  23.022  1.00  0.00     0.033 A 
HETATM   17  C36 UNL     1       4.439  11.289  21.317  1.00  0.00     0.002 A 
HETATM   18  C3  UNL     1       6.619  12.829  22.152  1.00  0.00     0.039 A 
HETATM   19  C2  UNL     1       6.080  13.032  20.881  1.00  0.00     0.069 A 
HETATM   20  C37 UNL     1       4.989  12.266  20.453  1.00  0.00     0.051 A 
BRANCH  12  21
HETATM   21  C7  UNL     1       2.396   8.633  22.901  1.00  0.00     0.194 C 
HETATM   22  O2  UNL     1       1.860   7.760  22.236  1.00  0.00    -0.645 OA
BRANCH  21  23
HETATM   23  O3  UNL     1       2.215   8.707  24.228  1.00  0.00    -0.772 OA
HETATM   24  H7  UNL     1       1.619   7.965  24.452  1.00  0.00     0.167 HD
ENDBRANCH  21  23
ENDBRANCH  12  21
BRANCH  19  25
HETATM   25  O1  UNL     1       6.704  14.009  20.150  1.00  0.00    -0.356 OA
HETATM   26  C1  UNL     1       6.905  15.263  20.790  1.00  0.00     0.210 C 
ENDBRANCH  19  25
ENDBRANCH  10  11
ENDBRANCH   9  10
ENDBRANCH   6   9
ENDBRANCH   4   5
ENDBRANCH   3   4
ENDBRANCH   1   3
BRANCH   1  27
HETATM   27  O6  UNL     1      -1.523   9.594  15.231  1.00  0.00    -0.314 OA
BRANCH  27  28
HETATM   28  C15 UNL     1      -0.545   8.682  14.738  1.00  0.00     0.260 C 
BRANCH  28  29
HETATM   29  C16 UNL     1      -1.133   7.293  14.530  1.00  0.00     0.185 C 
HETATM   30  O7  UNL     1      -0.630   6.324  15.109  1.00  0.00    -0.292 OA
BRANCH  29  31
HETATM   31  C17 UNL     1      -2.420   7.166  13.667  1.00  0.00     0.128 C 
HETATM   32  C18 UNL     1      -2.462   5.800  12.917  1.00  0.00     0.047 C 
HETATM   33  C19 UNL     1      -3.934   5.355  12.872  1.00  0.00     0.009 C 
HETATM   34  C20 UNL     1      -4.712   6.541  13.428  1.00  0.00     0.002 C 
HETATM   35  C21 UNL     1      -6.127   6.286  13.965  1.00  0.00    -0.004 C 
HETATM   36  C34 UNL     1      -3.753   7.149  14.483  1.00  0.00    -0.002 C 
HETATM   37  C22 UNL     1      -7.032   5.663  12.893  1.00  0.00     0.010 C 
HETATM   38  C31 UNL     1      -6.740   7.632  14.459  1.00  0.00     0.002 C 
HETATM   39  C23 UNL     1      -8.438   5.427  13.430  1.00  0.00     0.035 C 
HETATM   40  C24 UNL     1      -9.052   6.681  14.009  1.00  0.00    -0.068 C 
HETATM   41  C25 UNL     1     -10.294   7.043  13.640  1.00  0.00     0.053 C 
HETATM   42  C29 UNL     1      -8.204   7.461  15.024  1.00  0.00    -0.016 C 
HETATM   43  C26 UNL     1     -10.993   8.185  14.270  1.00  0.00     0.149 C 
HETATM   44  O9  UNL     1     -12.124   8.486  13.891  1.00  0.00    -0.293 OA
HETATM   45  C27 UNL     1     -10.323   8.877  15.428  1.00  0.00     0.084 C 
HETATM   46  C28 UNL     1      -8.812   8.877  15.252  1.00  0.00     0.022 C 
HETATM   47  C30 UNL     1      -8.227   6.686  16.362  1.00  0.00     0.020 C 
HETATM   48  C32 UNL     1      -5.783   8.392  15.413  1.00  0.00     0.007 C 
HETATM   49  C33 UNL     1      -4.345   8.515  14.874  1.00  0.00     0.013 C 
HETATM   50  C35 UNL     1      -3.599   6.261  15.748  1.00  0.00     0.019 C 
BRANCH  31  51
HETATM   51  O8  UNL     1      -2.471   8.164  12.641  1.00  0.00    -0.381 OA
HETATM   52  H19 UNL     1      -2.183   9.014  13.017  1.00  0.00     0.211 HD
ENDBRANCH  31  51
ENDBRANCH  29  31
ENDBRANCH  28  29
ENDBRANCH  27  28
ENDBRANCH   1  27
TORSDOF 14
ENDMDL
MODEL 7
REMARK minimizedAffinity -9.29289055
REMARK CNNscore 0.301638961
REMARK CNNaffinity 6.16485453
REMARK  14 active torsions:
REMARK  status: ('A' for Active; 'I' for Inactive)
REMARK    1  A    between atoms: O1_2  and  C2_3 
REMARK    2  A    between atoms: C6_8  and  C7_9 
REMARK    3  A    between atoms: C7_9  and  O3_11 
REMARK    4  A    between atoms: C8_12  and  C9_13 
REMARK    5  A    between atoms: C9_13  and  C10_14 
REMARK    6  A    between atoms: C10_14  and  N2_15 
REMARK       I    between atoms: N2_15  and  C11_16 
REMARK    7  A    between atoms: C11_16  and  C12_18 
REMARK    8  A    between atoms: C12_18  and  C13_19 
REMARK    9  A    between atoms: C13_19  and  C14_20 
REMARK   10  A    between atoms: C14_20  and  O6_22 
REMARK   11  A    between atoms: O6_22  and  C15_23 
REMARK   12  A    between atoms: C15_23  and  C16_24 
REMARK   13  A    between atoms: C16_24  and  C17_26 
REMARK   14  A    between atoms: C17_26  and  O8_27 
ROOT
HETATM    1  C14 UNL     1      -1.071   9.178  16.186  1.00  0.00     0.259 C 
HETATM    2  O5  UNL     1      -1.896   8.303  16.409  1.00  0.00    -0.265 OA
ENDROOT
BRANCH   1   3
HETATM    3  C13 UNL     1       0.145   8.996  15.310  1.00  0.00     0.120 C 
BRANCH   3   4
HETATM    4  C12 UNL     1       0.366   7.515  15.018  1.00  0.00     0.112 C 
BRANCH   4   5
HETATM    5  C11 UNL     1      -0.655   6.989  14.028  1.00  0.00     0.218 C 
HETATM    6  N2  UNL     1      -1.160   5.755  14.369  1.00  0.00    -0.361 N 
HETATM    7  H12 UNL     1      -0.898   5.338  15.254  1.00  0.00     0.162 HD
HETATM    8  O4  UNL     1      -0.988   7.609  13.025  1.00  0.00    -0.274 OA
BRANCH   6   9
HETATM    9  C10 UNL     1      -2.231   5.135  13.607  1.00  0.00     0.127 C 
BRANCH   9  10
HETATM   10  C9  UNL     1      -1.726   4.337  12.402  1.00  0.00     0.061 C 
BRANCH  10  11
HETATM   11  C8  UNL     1      -2.673   3.237  12.012  1.00  0.00    -0.011 A 
HETATM   12  C6  UNL     1      -2.364   2.021  11.401  1.00  0.00     0.114 A 
HETATM   13  N1  UNL     1      -3.552   1.342  11.243  1.00  0.00    -0.350 N 
HETATM   14  C5  UNL     1      -4.613   2.076  11.704  1.00  0.00     0.043 A 
HETATM   15  H6  UNL     1      -3.621   0.423  10.825  1.00  0.00     0.166 HD
HETATM   16  C4  UNL     1      -5.977   1.773  11.716  1.00  0.00     0.033 A 
HETATM   17  C36 UNL     1      -4.099   3.270  12.196  1.00  0.00     0.002 A 
HETATM   18  C3  UNL     1      -6.843   2.731  12.251  1.00  0.00     0.039 A 
HETATM   19  C2  UNL     1      -6.370   3.941  12.758  1.00  0.00     0.069 A 
HETATM   20  C37 UNL     1      -4.998   4.221  12.735  1.00  0.00     0.051 A 
BRANCH  12  21
HETATM   21  C7  UNL     1      -1.131   1.433  10.951  1.00  0.00     0.194 C 
HETATM   22  O2  UNL     1      -0.979   0.290  10.549  1.00  0.00    -0.645 OA
BRANCH  21  23
HETATM   23  O3  UNL     1      -0.106   2.297  10.995  1.00  0.00    -0.772 OA
HETATM   24  H7  UNL     1       0.667   1.802  10.658  1.00  0.00     0.167 HD
ENDBRANCH  21  23
ENDBRANCH  12  21
BRANCH  19  25
HETATM   25  O1  UNL     1      -7.345   4.771  13.246  1.00  0.00    -0.356 OA
HETATM   26  C1  UNL     1      -7.074   6.166  13.222  1.00  0.00     0.210 C 
ENDBRANCH  19  25
ENDBRANCH  10  11
ENDBRANCH   9  10
ENDBRANCH   6   9
ENDBRANCH   4   5
ENDBRANCH   3   4
ENDBRANCH   1   3
BRANCH   1  27
HETATM   27  O6  UNL     1      -1.120  10.444  16.693  1.00  0.00    -0.314 OA
BRANCH  27  28
HETATM   28  C15 UNL     1       0.168  10.981  16.982  1.00  0.00     0.260 C 
BRANCH  28  29
HETATM   29  C16 UNL     1       0.066  12.282  17.765  1.00  0.00     0.185 C 
HETATM   30  O7  UNL     1      -0.569  13.231  17.294  1.00  0.00    -0.292 OA
BRANCH  29  31
HETATM   31  C17 UNL     1       0.690  12.328  19.190  1.00  0.00     0.128 C 
HETATM   32  C18 UNL     1       0.331  11.046  20.002  1.00  0.00     0.047 C 
HETATM   33  C19 UNL     1       1.551  10.710  20.876  1.00  0.00     0.009 C 
HETATM   34  C20 UNL     1       2.499  11.887  20.685  1.00  0.00     0.002 C 
HETATM   35  C21 UNL     1       3.982  11.680  21.017  1.00  0.00    -0.004 C 
HETATM   36  C34 UNL     1       2.253  12.323  19.218  1.00  0.00    -0.002 C 
HETATM   37  C22 UNL     1       4.175  11.226  22.472  1.00  0.00     0.010 C 
HETATM   38  C31 UNL     1       4.757  13.010  20.771  1.00  0.00     0.002 C 
HETATM   39  C23 UNL     1       5.650  11.036  22.799  1.00  0.00     0.035 C 
HETATM   40  C24 UNL     1       6.471  12.268  22.492  1.00  0.00    -0.068 C 
HETATM   41  C25 UNL     1       7.319  12.748  23.420  1.00  0.00     0.053 C 
HETATM   42  C29 UNL     1       6.296  12.887  21.098  1.00  0.00    -0.016 C 
HETATM   43  C26 UNL     1       8.240  13.869  23.129  1.00  0.00     0.149 C 
HETATM   44  O9  UNL     1       8.988  14.283  24.013  1.00  0.00    -0.293 OA
HETATM   45  C27 UNL     1       8.292  14.400  21.720  1.00  0.00     0.084 C 
HETATM   46  C28 UNL     1       6.922  14.313  21.063  1.00  0.00     0.022 C 
HETATM   47  C30 UNL     1       7.038  11.990  20.080  1.00  0.00     0.020 C 
HETATM   48  C32 UNL     1       4.457  13.608  19.372  1.00  0.00     0.007 C 
HETATM   49  C33 UNL     1       2.953  13.683  19.043  1.00  0.00     0.013 C 
HETATM   50  C35 UNL     1       2.808  11.309  18.180  1.00  0.00     0.019 C 
BRANCH  31  51
HETATM   51  O8  UNL     1       0.176  13.421  19.959  1.00  0.00    -0.381 OA
HETATM   52  H19 UNL     1       0.129  14.209  19.390  1.00  0.00     0.211 HD
ENDBRANCH  31  51
ENDBRANCH  29  31
ENDBRANCH  28  29
ENDBRANCH  27  28
ENDBRANCH   1  27
TORSDOF 14
ENDMDL
MODEL 8
REMARK minimizedAffinity -9.50421715
REMARK CNNscore 0.294769466
REMARK CNNaffinity 6.41466856
REMARK  14 active torsions:
REMARK  status: ('A' for Active; 'I' for Inactive)
REMARK    1  A    between atoms: O1_2  and  C2_3 
REMARK    2  A    between atoms: C6_8  and  C7_9 
REMARK    3  A    between atoms: C7_9  and  O3_11 
REMARK    4  A    between atoms: C8_12  and  C9_13 
REMARK    5  A    between atoms: C9_13  and  C10_14 
REMARK    6  A    between atoms: C10_14  and  N2_15 
REMARK       I    between atoms: N2_15  and  C11_16 
REMARK    7  A    between atoms: C11_16  and  C12_18 
REMARK    8  A    between atoms: C12_18  and  C13_19 
REMARK    9  A    between atoms: C13_19  and  C14_20 
REMARK   10  A    between atoms: C14_20  and  O6_22 
REMARK   11  A    between atoms: O6_22  and  C15_23 
REMARK   12  A    between atoms: C15_23  and  C16_24 
REMARK   13  A    between atoms: C16_24  and  C17_26 
REMARK   14  A    between atoms: C17_26  and  O8_27 
ROOT
HETATM    1  C14 UNL     1       3.252   6.048  10.568  1.00  0.00     0.259 C 
HETATM    2  O5  UNL     1       4.057   5.825   9.675  1.00  0.00    -0.265 OA
ENDROOT
BRANCH   1   3
HETATM    3  C13 UNL     1       1.768   5.801  10.454  1.00  0.00     0.120 C 
BRANCH   3   4
HETATM    4  C12 UNL     1       1.196   5.398  11.810  1.00  0.00     0.112 C 
BRANCH   4   5
HETATM    5  C11 UNL     1      -0.012   4.495  11.654  1.00  0.00     0.218 C 
HETATM    6  N2  UNL     1      -1.206   5.135  11.896  1.00  0.00    -0.361 N 
HETATM    7  H12 UNL     1      -1.209   6.133  12.067  1.00  0.00     0.162 HD
HETATM    8  O4  UNL     1       0.078   3.312  11.345  1.00  0.00    -0.274 OA
BRANCH   6   9
HETATM    9  C10 UNL     1      -2.481   4.469  11.687  1.00  0.00     0.127 C 
BRANCH   9  10
HETATM   10  C9  UNL     1      -3.218   4.162  12.994  1.00  0.00     0.061 C 
BRANCH  10  11
HETATM   11  C8  UNL     1      -4.708   4.098  12.803  1.00  0.00    -0.011 A 
HETATM   12  C6  UNL     1      -5.440   3.129  12.117  1.00  0.00     0.114 A 
HETATM   13  N1  UNL     1      -6.765   3.488  12.214  1.00  0.00    -0.350 N 
HETATM   14  C5  UNL     1      -6.918   4.657  12.912  1.00  0.00     0.043 A 
HETATM   15  H6  UNL     1      -7.522   2.955  11.804  1.00  0.00     0.166 HD
HETATM   16  C4  UNL     1      -8.076   5.374  13.222  1.00  0.00     0.033 A 
HETATM   17  C36 UNL     1      -5.647   5.067  13.300  1.00  0.00     0.002 A 
HETATM   18  C3  UNL     1      -7.923   6.555  13.954  1.00  0.00     0.039 A 
HETATM   19  C2  UNL     1      -6.668   7.002  14.366  1.00  0.00     0.069 A 
HETATM   20  C37 UNL     1      -5.522   6.264  14.044  1.00  0.00     0.051 A 
BRANCH  12  21
HETATM   21  C7  UNL     1      -5.064   1.943  11.392  1.00  0.00     0.194 C 
HETATM   22  O2  UNL     1      -4.109   1.221  11.634  1.00  0.00    -0.645 OA
BRANCH  21  23
HETATM   23  O3  UNL     1      -5.906   1.671  10.385  1.00  0.00    -0.772 OA
HETATM   24  H7  UNL     1      -5.568   0.849   9.977  1.00  0.00     0.167 HD
ENDBRANCH  21  23
ENDBRANCH  12  21
BRANCH  19  25
HETATM   25  O1  UNL     1      -6.689   8.175  15.074  1.00  0.00    -0.356 OA
HETATM   26  C1  UNL     1      -5.488   8.936  15.095  1.00  0.00     0.210 C 
ENDBRANCH  19  25
ENDBRANCH  10  11
ENDBRANCH   9  10
ENDBRANCH   6   9
ENDBRANCH   4   5
ENDBRANCH   3   4
ENDBRANCH   1   3
BRANCH   1  27
HETATM   27  O6  UNL     1       3.568   6.552  11.796  1.00  0.00    -0.314 OA
BRANCH  27  28
HETATM   28  C15 UNL     1       4.840   7.195  11.826  1.00  0.00     0.260 C 
BRANCH  28  29
HETATM   29  C16 UNL     1       4.887   8.287  12.886  1.00  0.00     0.185 C 
HETATM   30  O7  UNL     1       4.145   9.269  12.783  1.00  0.00    -0.292 OA
BRANCH  29  31
HETATM   31  C17 UNL     1       5.807   8.068  14.120  1.00  0.00     0.128 C 
HETATM   32  C18 UNL     1       7.168   7.434  13.701  1.00  0.00     0.047 C 
HETATM   33  C19 UNL     1       8.248   8.038  14.617  1.00  0.00     0.009 C 
HETATM   34  C20 UNL     1       7.471   8.855  15.641  1.00  0.00     0.002 C 
HETATM   35  C21 UNL     1       8.222   9.956  16.403  1.00  0.00    -0.004 C 
HETATM   36  C34 UNL     1       6.250   9.381  14.844  1.00  0.00    -0.002 C 
HETATM   37  C22 UNL     1       9.435   9.392  17.156  1.00  0.00     0.010 C 
HETATM   38  C31 UNL     1       7.247  10.643  17.407  1.00  0.00     0.002 C 
HETATM   39  C23 UNL     1      10.165  10.488  17.922  1.00  0.00     0.035 C 
HETATM   40  C24 UNL     1       9.247  11.254  18.847  1.00  0.00    -0.068 C 
HETATM   41  C25 UNL     1       9.612  11.452  20.127  1.00  0.00     0.053 C 
HETATM   42  C29 UNL     1       7.942  11.788  18.241  1.00  0.00    -0.016 C 
HETATM   43  C26 UNL     1       8.818  12.303  21.041  1.00  0.00     0.149 C 
HETATM   44  O9  UNL     1       9.184  12.445  22.207  1.00  0.00    -0.293 OA
HETATM   45  C27 UNL     1       7.636  13.045  20.474  1.00  0.00     0.084 C 
HETATM   46  C28 UNL     1       6.969  12.232  19.374  1.00  0.00     0.022 C 
HETATM   47  C30 UNL     1       8.288  13.018  17.369  1.00  0.00     0.020 C 
HETATM   48  C32 UNL     1       5.922  11.075  16.728  1.00  0.00     0.007 C 
HETATM   49  C33 UNL     1       5.273   9.966  15.880  1.00  0.00     0.013 C 
HETATM   50  C35 UNL     1       6.626  10.470  13.803  1.00  0.00     0.019 C 
BRANCH  31  51
HETATM   51  O8  UNL     1       5.232   7.148  15.054  1.00  0.00    -0.381 OA
HETATM   52  H19 UNL     1       4.283   7.347  15.146  1.00  0.00     0.211 HD
ENDBRANCH  31  51
ENDBRANCH  29  31
ENDBRANCH  28  29
ENDBRANCH  27  28
ENDBRANCH   1  27
TORSDOF 14
ENDMDL
MODEL 9
REMARK minimizedAffinity -8.8093729
REMARK CNNscore 0.278191715
REMARK CNNaffinity 6.68190241
REMARK  14 active torsions:
REMARK  status: ('A' for Active; 'I' for Inactive)
REMARK    1  A    between atoms: O1_2  and  C2_3 
REMARK    2  A    between atoms: C6_8  and  C7_9 
REMARK    3  A    between atoms: C7_9  and  O3_11 
REMARK    4  A    between atoms: C8_12  and  C9_13 
REMARK    5  A    between atoms: C9_13  and  C10_14 
REMARK    6  A    between atoms: C10_14  and  N2_15 
REMARK       I    between atoms: N2_15  and  C11_16 
REMARK    7  A    between atoms: C11_16  and  C12_18 
REMARK    8  A    between atoms: C12_18  and  C13_19 
REMARK    9  A    between atoms: C13_19  and  C14_20 
REMARK   10  A    between atoms: C14_20  and  O6_22 
REMARK   11  A    between atoms: O6_22  and  C15_23 
REMARK   12  A    between atoms: C15_23  and  C16_24 
REMARK   13  A    between atoms: C16_24  and  C17_26 
REMARK   14  A    between atoms: C17_26  and  O8_27 
ROOT
HETATM    1  C14 UNL     1       2.450   8.485  13.181  1.00  0.00     0.259 C 
HETATM    2  O5  UNL     1       1.614   9.366  13.033  1.00  0.00    -0.265 OA
ENDROOT
BRANCH   1   3
HETATM    3  C13 UNL     1       3.843   8.531  12.602  1.00  0.00     0.120 C 
BRANCH   3   4
HETATM    4  C12 UNL     1       4.752   7.556  13.344  1.00  0.00     0.112 C 
BRANCH   4   5
HETATM    5  C11 UNL     1       6.002   8.247  13.855  1.00  0.00     0.218 C 
HETATM    6  N2  UNL     1       6.458   7.734  15.048  1.00  0.00    -0.361 N 
HETATM    7  H12 UNL     1       6.008   6.918  15.443  1.00  0.00     0.162 HD
HETATM    8  O4  UNL     1       6.541   9.171  13.258  1.00  0.00    -0.274 OA
BRANCH   6   9
HETATM    9  C10 UNL     1       7.705   8.187  15.641  1.00  0.00     0.127 C 
BRANCH   9  10
HETATM   10  C9  UNL     1       7.676   9.663  16.046  1.00  0.00     0.061 C 
BRANCH  10  11
HETATM   11  C8  UNL     1       9.057  10.238  16.197  1.00  0.00    -0.011 A 
HETATM   12  C6  UNL     1      10.035  10.380  15.212  1.00  0.00     0.114 A 
HETATM   13  N1  UNL     1      11.129  10.957  15.817  1.00  0.00    -0.350 N 
HETATM   14  C5  UNL     1      10.908  11.171  17.153  1.00  0.00     0.043 A 
HETATM   15  H6  UNL     1      11.988  11.176  15.330  1.00  0.00     0.166 HD
HETATM   16  C4  UNL     1      11.750  11.711  18.128  1.00  0.00     0.033 A 
HETATM   17  C36 UNL     1       9.616  10.734  17.426  1.00  0.00     0.002 A 
HETATM   18  C3  UNL     1      11.249  11.803  19.429  1.00  0.00     0.039 A 
HETATM   19  C2  UNL     1       9.958  11.379  19.747  1.00  0.00     0.069 A 
HETATM   20  C37 UNL     1       9.133  10.843  18.751  1.00  0.00     0.051 A 
BRANCH  12  21
HETATM   21  C7  UNL     1      10.076  10.046  13.813  1.00  0.00     0.194 C 
HETATM   22  O2  UNL     1      10.842   9.257  13.281  1.00  0.00    -0.645 OA
BRANCH  21  23
HETATM   23  O3  UNL     1       9.140  10.694  13.104  1.00  0.00    -0.772 OA
HETATM   24  H7  UNL     1       9.249  10.384  12.183  1.00  0.00     0.167 HD
ENDBRANCH  21  23
ENDBRANCH  12  21
BRANCH  19  25
HETATM   25  O1  UNL     1       9.618  11.537  21.065  1.00  0.00    -0.356 OA
HETATM   26  C1  UNL     1       9.829  12.823  21.635  1.00  0.00     0.210 C 
ENDBRANCH  19  25
ENDBRANCH  10  11
ENDBRANCH   9  10
ENDBRANCH   6   9
ENDBRANCH   4   5
ENDBRANCH   3   4
ENDBRANCH   1   3
BRANCH   1  27
HETATM   27  O6  UNL     1       2.253   7.333  13.885  1.00  0.00    -0.314 OA
BRANCH  27  28
HETATM   28  C15 UNL     1       1.258   6.490  13.312  1.00  0.00     0.260 C 
BRANCH  28  29
HETATM   29  C16 UNL     1      -0.086   6.664  14.005  1.00  0.00     0.185 C 
HETATM   30  O7  UNL     1      -0.123   7.036  15.183  1.00  0.00    -0.292 OA
BRANCH  29  31
HETATM   31  C17 UNL     1      -1.376   6.459  13.160  1.00  0.00     0.128 C 
HETATM   32  C18 UNL     1      -1.340   5.098  12.401  1.00  0.00     0.047 C 
HETATM   33  C19 UNL     1      -2.781   4.559  12.375  1.00  0.00     0.009 C 
HETATM   34  C20 UNL     1      -3.626   5.688  12.951  1.00  0.00     0.002 C 
HETATM   35  C21 UNL     1      -5.013   5.339  13.507  1.00  0.00    -0.004 C 
HETATM   36  C34 UNL     1      -2.693   6.350  13.996  1.00  0.00    -0.002 C 
HETATM   37  C22 UNL     1      -5.892   4.665  12.444  1.00  0.00     0.010 C 
HETATM   38  C31 UNL     1      -5.705   6.638  14.020  1.00  0.00     0.002 C 
HETATM   39  C23 UNL     1      -7.272   4.334  13.000  1.00  0.00     0.035 C 
HETATM   40  C24 UNL     1      -7.956   5.543  13.597  1.00  0.00    -0.068 C 
HETATM   41  C25 UNL     1      -9.225   5.825  13.249  1.00  0.00     0.053 C 
HETATM   42  C29 UNL     1      -7.145   6.370  14.605  1.00  0.00    -0.016 C 
HETATM   43  C26 UNL     1      -9.987   6.916  13.897  1.00  0.00     0.149 C 
HETATM   44  O9  UNL     1     -11.140   7.145  13.538  1.00  0.00    -0.293 OA
HETATM   45  C27 UNL     1      -9.345   7.643  15.051  1.00  0.00     0.084 C 
HETATM   46  C28 UNL     1      -7.840   7.742  14.852  1.00  0.00     0.022 C 
HETATM   47  C30 UNL     1      -7.098   5.586  15.937  1.00  0.00     0.020 C 
HETATM   48  C32 UNL     1      -4.784   7.453  14.965  1.00  0.00     0.007 C 
HETATM   49  C33 UNL     1      -3.365   7.673  14.406  1.00  0.00     0.013 C 
HETATM   50  C35 UNL     1      -2.462   5.467  15.252  1.00  0.00     0.019 C 
BRANCH  31  51
HETATM   51  O8  UNL     1      -1.507   7.457  12.142  1.00  0.00    -0.381 OA
HETATM   52  H19 UNL     1      -1.269   8.322  12.520  1.00  0.00     0.211 HD
ENDBRANCH  31  51
ENDBRANCH  29  31
ENDBRANCH  28  29
ENDBRANCH  27  28
ENDBRANCH   1  27
TORSDOF 14
ENDMDL
