MODEL 1
REMARK minimizedAffinity -8.64807224
REMARK CNNscore 0.338504225
REMARK CNNaffinity 6.73004532
REMARK  13 active torsions:
REMARK  status: ('A' for Active; 'I' for Inactive)
REMARK    1  A    between atoms: C3_3  and  O1_4 
REMARK    2  A    between atoms: N1_14  and  O2_16 
REMARK    3  A    between atoms: O2_16  and  C13_17 
REMARK    4  A    between atoms: C13_17  and  C14_18 
REMARK       I    between atoms: C14_18  and  N2_20 
REMARK    5  A    between atoms: N2_20  and  C15_21 
REMARK    6  A    between atoms: C15_21  and  C16_22 
REMARK    7  A    between atoms: C15_21  and  C21_32 
REMARK       I    between atoms: C16_22  and  N3_24 
REMARK    8  A    between atoms: N3_24  and  C17_25 
REMARK    9  A    between atoms: C17_25  and  C18_26 
REMARK   10  A    between atoms: C17_25  and  C19_28 
REMARK   11  A    between atoms: C18_26  and  S1_27 
REMARK   12  A    between atoms: C19_28  and  C20_29 
REMARK   13  A    between atoms: C20_29  and  O6_31 
ROOT
HETATM    1  C1  UNL     1      -7.816  49.426 -23.483  1.00  0.00     0.015 C 
HETATM    2  C2  UNL     1      -6.618  49.362 -23.463  1.00  0.00    -0.078 C 
HETATM    3  C3  UNL     1      -5.154  49.221 -23.387  1.00  0.00     0.128 C 
HETATM    4  C4  UNL     1      -4.551  48.671 -24.678  1.00  0.00     0.052 C 
HETATM    5  C5  UNL     1      -3.059  48.992 -24.571  1.00  0.00     0.010 C 
HETATM    6  C6  UNL     1      -2.928  50.185 -23.602  1.00  0.00     0.002 C 
HETATM    7  C7  UNL     1      -1.871  50.011 -22.493  1.00  0.00    -0.004 C 
HETATM    8  C8  UNL     1      -1.960  48.777 -21.583  1.00  0.00     0.010 C 
HETATM    9  C9  UNL     1      -0.781  48.726 -20.609  1.00  0.00     0.035 C 
HETATM   10  C10 UNL     1      -0.557  50.012 -19.840  1.00  0.00    -0.069 C 
HETATM   11  C11 UNL     1      -0.268  49.967 -18.526  1.00  0.00     0.030 C 
HETATM   12  C12 UNL     1       0.081  51.189 -17.749  1.00  0.00     0.032 C 
HETATM   13  N1  UNL     1       0.305  51.066 -16.471  1.00  0.00    -0.271 N 
ATOM     14  H1  UNL     1       0.261  50.188 -15.956  1.00  0.00     0.194 HD
HETATM   15  C24 UNL     1       0.231  52.492 -18.519  1.00  0.00     0.060 C 
HETATM   16  C25 UNL     1      -0.759  52.532 -19.672  1.00  0.00     0.020 C 
HETATM   17  C26 UNL     1      -0.638  51.316 -20.638  1.00  0.00    -0.016 C 
HETATM   18  C27 UNL     1       0.674  51.475 -21.447  1.00  0.00     0.020 C 
HETATM   19  C28 UNL     1      -1.867  51.293 -21.633  1.00  0.00     0.002 C 
HETATM   20  C29 UNL     1      -3.230  51.446 -20.925  1.00  0.00     0.007 C 
HETATM   21  C30 UNL     1      -4.503  51.109 -21.723  1.00  0.00     0.014 C 
HETATM   22  C31 UNL     1      -4.371  50.554 -23.158  1.00  0.00     0.003 C 
HETATM   23  C32 UNL     1      -4.879  51.665 -24.130  1.00  0.00     0.020 C 
ENDROOT
BRANCH   3  24
HETATM   24  O1  UNL     1      -4.864  48.261 -22.371  1.00  0.00    -0.377 OA
HETATM   25  H2  UNL     1      -5.434  48.449 -21.613  1.00  0.00     0.211 HD
ENDBRANCH   3  24
BRANCH  13  26
HETATM   26  O2  UNL     1       0.614  52.308 -15.905  1.00  0.00    -0.271 OA
BRANCH  26  27
HETATM   27  C13 UNL     1       1.503  52.136 -14.812  1.00  0.00     0.303 C 
BRANCH  27  28
HETATM   28  C14 UNL     1       0.673  52.218 -13.539  1.00  0.00     0.244 C 
HETATM   29  O3  UNL     1      -0.519  51.918 -13.480  1.00  0.00    -0.271 OA
HETATM   30  N2  UNL     1       1.350  52.670 -12.425  1.00  0.00    -0.346 N 
HETATM   31  H16 UNL     1       2.357  52.779 -12.446  1.00  0.00     0.163 HD
BRANCH  30  32
HETATM   32  C15 UNL     1       0.683  52.822 -11.119  1.00  0.00     0.180 C 
BRANCH  32  33
HETATM   33  C16 UNL     1       1.608  53.682 -10.215  1.00  0.00     0.241 C 
HETATM   34  O4  UNL     1       1.934  53.353  -9.074  1.00  0.00    -0.271 OA
HETATM   35  N3  UNL     1       2.090  54.827 -10.835  1.00  0.00    -0.353 N 
HETATM   36  H18 UNL     1       1.810  54.990 -11.800  1.00  0.00     0.163 HD
BRANCH  35  37
HETATM   37  C17 UNL     1       2.956  55.786 -10.152  1.00  0.00     0.103 C 
BRANCH  37  38
HETATM   38  C18 UNL     1       4.413  55.730 -10.680  1.00  0.00     0.096 C 
BRANCH  38  39
HETATM   39  S1  UNL     1       5.581  54.758  -9.677  1.00  0.00    -0.180 SA
HETATM   40  H22 UNL     1       6.497  54.575 -10.643  1.00  0.00     0.101 HD
ENDBRANCH  38  39
ENDBRANCH  37  38
BRANCH  37  41
HETATM   41  C19 UNL     1       2.981  55.503  -8.637  1.00  0.00     0.136 C 
BRANCH  41  42
HETATM   42  C20 UNL     1       2.134  56.460  -7.840  1.00  0.00     0.141 C 
HETATM   43  O5  UNL     1       2.489  57.305  -7.037  1.00  0.00    -0.650 OA
BRANCH  42  44
HETATM   44  O6  UNL     1       0.822  56.301  -8.125  1.00  0.00    -0.776 OA
HETATM   45  H25 UNL     1       0.375  56.998  -7.599  1.00  0.00     0.167 HD
ENDBRANCH  42  44
ENDBRANCH  41  42
ENDBRANCH  37  41
ENDBRANCH  35  37
ENDBRANCH  32  33
BRANCH  32  46
HETATM   46  C21 UNL     1      -0.733  53.430 -11.272  1.00  0.00     0.009 C 
HETATM   47  C22 UNL     1      -0.849  54.762 -10.521  1.00  0.00     0.012 C 
HETATM   48  C23 UNL     1      -1.832  52.489 -10.757  1.00  0.00     0.012 C 
ENDBRANCH  32  46
ENDBRANCH  30  32
ENDBRANCH  27  28
ENDBRANCH  26  27
ENDBRANCH  13  26
TORSDOF 13
ENDMDL
MODEL 2
REMARK minimizedAffinity -7.50494862
REMARK CNNscore 0.322100192
REMARK CNNaffinity 6.30663538
REMARK  13 active torsions:
REMARK  status: ('A' for Active; 'I' for Inactive)
REMARK    1  A    between atoms: C3_3  and  O1_4 
REMARK    2  A    between atoms: N1_14  and  O2_16 
REMARK    3  A    between atoms: O2_16  and  C13_17 
REMARK    4  A    between atoms: C13_17  and  C14_18 
REMARK       I    between atoms: C14_18  and  N2_20 
REMARK    5  A    between atoms: N2_20  and  C15_21 
REMARK    6  A    between atoms: C15_21  and  C16_22 
REMARK    7  A    between atoms: C15_21  and  C21_32 
REMARK       I    between atoms: C16_22  and  N3_24 
REMARK    8  A    between atoms: N3_24  and  C17_25 
REMARK    9  A    between atoms: C17_25  and  C18_26 
REMARK   10  A    between atoms: C17_25  and  C19_28 
REMARK   11  A    between atoms: C18_26  and  S1_27 
REMARK   12  A    between atoms: C19_28  and  C20_29 
REMARK   13  A    between atoms: C20_29  and  O6_31 
ROOT
HETATM    1  C1  UNL     1      -9.617  41.017 -35.081  1.00  0.00     0.015 C 
HETATM    2  C2  UNL     1      -9.561  42.204 -34.914  1.00  0.00    -0.078 C 
HETATM    3  C3  UNL     1      -9.416  43.659 -34.734  1.00  0.00     0.128 C 
HETATM    4  C4  UNL     1     -10.200  44.459 -35.773  1.00  0.00     0.052 C 
HETATM    5  C5  UNL     1     -10.279  45.870 -35.189  1.00  0.00     0.010 C 
HETATM    6  C6  UNL     1     -10.112  45.732 -33.662  1.00  0.00     0.002 C 
HETATM    7  C7  UNL     1      -9.081  46.690 -33.030  1.00  0.00    -0.004 C 
HETATM    8  C8  UNL     1      -7.648  46.691 -33.580  1.00  0.00     0.010 C 
HETATM    9  C9  UNL     1      -6.798  47.764 -32.897  1.00  0.00     0.035 C 
HETATM   10  C10 UNL     1      -6.849  47.724 -31.383  1.00  0.00    -0.069 C 
HETATM   11  C11 UNL     1      -5.719  47.886 -30.669  1.00  0.00     0.030 C 
HETATM   12  C12 UNL     1      -5.728  47.976 -29.182  1.00  0.00     0.032 C 
HETATM   13  N1  UNL     1      -4.587  48.089 -28.563  1.00  0.00    -0.271 N 
ATOM     14  H1  UNL     1      -3.678  48.123 -29.022  1.00  0.00     0.194 HD
HETATM   15  C24 UNL     1      -7.081  48.011 -28.489  1.00  0.00     0.060 C 
HETATM   16  C25 UNL     1      -8.075  47.144 -29.244  1.00  0.00     0.020 C 
HETATM   17  C26 UNL     1      -8.227  47.533 -30.744  1.00  0.00    -0.016 C 
HETATM   18  C27 UNL     1      -8.988  48.881 -30.815  1.00  0.00     0.020 C 
HETATM   19  C28 UNL     1      -9.054  46.423 -31.509  1.00  0.00     0.002 C 
HETATM   20  C29 UNL     1      -8.548  44.990 -31.243  1.00  0.00     0.007 C 
HETATM   21  C30 UNL     1      -9.040  43.864 -32.169  1.00  0.00     0.014 C 
HETATM   22  C31 UNL     1      -9.944  44.214 -33.372  1.00  0.00     0.003 C 
HETATM   23  C32 UNL     1     -11.365  43.648 -33.059  1.00  0.00     0.020 C 
ENDROOT
BRANCH   3  24
HETATM   24  O1  UNL     1      -8.040  43.984 -34.936  1.00  0.00    -0.377 OA
HETATM   25  H2  UNL     1      -7.508  43.322 -34.475  1.00  0.00     0.211 HD
ENDBRANCH   3  24
BRANCH  13  26
HETATM   26  O2  UNL     1      -4.784  48.159 -27.179  1.00  0.00    -0.271 OA
BRANCH  26  27
HETATM   27  C13 UNL     1      -3.609  48.638 -26.544  1.00  0.00     0.303 C 
BRANCH  27  28
HETATM   28  C14 UNL     1      -4.014  49.131 -25.161  1.00  0.00     0.244 C 
HETATM   29  O3  UNL     1      -3.885  48.467 -24.134  1.00  0.00    -0.271 OA
HETATM   30  N2  UNL     1      -4.559  50.399 -25.128  1.00  0.00    -0.346 N 
HETATM   31  H16 UNL     1      -4.531  50.991 -25.949  1.00  0.00     0.163 HD
BRANCH  30  32
HETATM   32  C15 UNL     1      -5.017  51.014 -23.869  1.00  0.00     0.180 C 
BRANCH  32  33
HETATM   33  C16 UNL     1      -6.228  50.187 -23.355  1.00  0.00     0.241 C 
HETATM   34  O4  UNL     1      -6.540  50.112 -22.166  1.00  0.00    -0.271 OA
HETATM   35  N3  UNL     1      -6.971  49.593 -24.367  1.00  0.00    -0.353 N 
HETATM   36  H18 UNL     1      -6.669  49.755 -25.326  1.00  0.00     0.163 HD
BRANCH  35  37
HETATM   37  C17 UNL     1      -8.136  48.753 -24.099  1.00  0.00     0.103 C 
BRANCH  37  38
HETATM   38  C18 UNL     1      -7.730  47.334 -23.624  1.00  0.00     0.096 C 
BRANCH  38  39
HETATM   39  S1  UNL     1      -8.383  46.827 -22.001  1.00  0.00    -0.180 SA
HETATM   40  H22 UNL     1      -8.228  45.504 -22.179  1.00  0.00     0.101 HD
ENDBRANCH  38  39
ENDBRANCH  37  38
BRANCH  37  41
HETATM   41  C19 UNL     1      -8.997  48.609 -25.369  1.00  0.00     0.136 C 
BRANCH  41  42
HETATM   42  C20 UNL     1     -10.046  47.533 -25.257  1.00  0.00     0.141 C 
HETATM   43  O5  UNL     1     -10.993  47.470 -24.494  1.00  0.00    -0.650 OA
BRANCH  42  44
HETATM   44  O6  UNL     1      -9.839  46.557 -26.169  1.00  0.00    -0.776 OA
HETATM   45  H25 UNL     1     -10.596  45.947 -26.044  1.00  0.00     0.167 HD
ENDBRANCH  42  44
ENDBRANCH  41  42
ENDBRANCH  37  41
ENDBRANCH  35  37
ENDBRANCH  32  33
BRANCH  32  46
HETATM   46  C21 UNL     1      -3.871  51.100 -22.830  1.00  0.00     0.009 C 
HETATM   47  C22 UNL     1      -4.334  51.811 -21.552  1.00  0.00     0.012 C 
HETATM   48  C23 UNL     1      -2.642  51.842 -23.375  1.00  0.00     0.012 C 
ENDBRANCH  32  46
ENDBRANCH  30  32
ENDBRANCH  27  28
ENDBRANCH  26  27
ENDBRANCH  13  26
TORSDOF 13
ENDMDL
MODEL 3
REMARK minimizedAffinity -7.35384321
REMARK CNNscore 0.280876607
REMARK CNNaffinity 5.79821062
REMARK  13 active torsions:
REMARK  status: ('A' for Active; 'I' for Inactive)
REMARK    1  A    between atoms: C3_3  and  O1_4 
REMARK    2  A    between atoms: N1_14  and  O2_16 
REMARK    3  A    between atoms: O2_16  and  C13_17 
REMARK    4  A    between atoms: C13_17  and  C14_18 
REMARK       I    between atoms: C14_18  and  N2_20 
REMARK    5  A    between atoms: N2_20  and  C15_21 
REMARK    6  A    between atoms: C15_21  and  C16_22 
REMARK    7  A    between atoms: C15_21  and  C21_32 
REMARK       I    between atoms: C16_22  and  N3_24 
REMARK    8  A    between atoms: N3_24  and  C17_25 
REMARK    9  A    between atoms: C17_25  and  C18_26 
REMARK   10  A    between atoms: C17_25  and  C19_28 
REMARK   11  A    between atoms: C18_26  and  S1_27 
REMARK   12  A    between atoms: C19_28  and  C20_29 
REMARK   13  A    between atoms: C20_29  and  O6_31 
ROOT
HETATM    1  C1  UNL     1      -2.557  52.145 -27.009  1.00  0.00     0.015 C 
HETATM    2  C2  UNL     1      -2.568  51.519 -25.985  1.00  0.00    -0.078 C 
HETATM    3  C3  UNL     1      -2.596  50.683 -24.772  1.00  0.00     0.128 C 
HETATM    4  C4  UNL     1      -1.213  50.510 -24.148  1.00  0.00     0.052 C 
HETATM    5  C5  UNL     1      -1.492  50.007 -22.731  1.00  0.00     0.010 C 
HETATM    6  C6  UNL     1      -2.919  50.465 -22.368  1.00  0.00     0.002 C 
HETATM    7  C7  UNL     1      -3.827  49.366 -21.780  1.00  0.00    -0.004 C 
HETATM    8  C8  UNL     1      -4.025  48.073 -22.583  1.00  0.00     0.010 C 
HETATM    9  C9  UNL     1      -4.876  47.067 -21.805  1.00  0.00     0.035 C 
HETATM   10  C10 UNL     1      -6.176  47.637 -21.272  1.00  0.00    -0.069 C 
HETATM   11  C11 UNL     1      -7.310  46.916 -21.358  1.00  0.00     0.030 C 
HETATM   12  C12 UNL     1      -8.588  47.374 -20.745  1.00  0.00     0.032 C 
HETATM   13  N1  UNL     1      -9.651  46.640 -20.911  1.00  0.00    -0.271 N 
ATOM     14  H1  UNL     1      -9.677  45.764 -21.433  1.00  0.00     0.194 HD
HETATM   15  C24 UNL     1      -8.546  48.635 -19.895  1.00  0.00     0.060 C 
HETATM   16  C25 UNL     1      -7.537  49.616 -20.467  1.00  0.00     0.020 C 
HETATM   17  C26 UNL     1      -6.106  49.020 -20.619  1.00  0.00    -0.016 C 
HETATM   18  C27 UNL     1      -5.502  48.858 -19.201  1.00  0.00     0.020 C 
HETATM   19  C28 UNL     1      -5.200  50.000 -21.466  1.00  0.00     0.002 C 
HETATM   20  C29 UNL     1      -5.866  50.469 -22.778  1.00  0.00     0.007 C 
HETATM   21  C30 UNL     1      -4.979  51.144 -23.839  1.00  0.00     0.014 C 
HETATM   22  C31 UNL     1      -3.457  51.250 -23.597  1.00  0.00     0.003 C 
HETATM   23  C32 UNL     1      -3.134  52.758 -23.355  1.00  0.00     0.020 C 
ENDROOT
BRANCH   3  24
HETATM   24  O1  UNL     1      -3.027  49.378 -25.156  1.00  0.00    -0.377 OA
HETATM   25  H2  UNL     1      -3.770  49.477 -25.767  1.00  0.00     0.211 HD
ENDBRANCH   3  24
BRANCH  13  26
HETATM   26  O2  UNL     1     -10.753  47.220 -20.273  1.00  0.00    -0.271 OA
BRANCH  26  27
HETATM   27  C13 UNL     1     -11.792  46.263 -20.132  1.00  0.00     0.303 C 
BRANCH  27  28
HETATM   28  C14 UNL     1     -13.078  46.920 -20.617  1.00  0.00     0.244 C 
HETATM   29  O3  UNL     1     -13.105  47.921 -21.333  1.00  0.00    -0.271 OA
HETATM   30  N2  UNL     1     -14.242  46.317 -20.187  1.00  0.00    -0.346 N 
HETATM   31  H16 UNL     1     -14.213  45.419 -19.720  1.00  0.00     0.163 HD
BRANCH  30  32
HETATM   32  C15 UNL     1     -15.569  46.842 -20.556  1.00  0.00     0.180 C 
BRANCH  32  33
HETATM   33  C16 UNL     1     -16.029  46.098 -21.840  1.00  0.00     0.241 C 
HETATM   34  O4  UNL     1     -16.315  44.900 -21.863  1.00  0.00    -0.271 OA
HETATM   35  N3  UNL     1     -16.154  46.922 -22.951  1.00  0.00    -0.353 N 
HETATM   36  H18 UNL     1     -15.949  47.911 -22.826  1.00  0.00     0.163 HD
BRANCH  35  37
HETATM   37  C17 UNL     1     -16.550  46.418 -24.264  1.00  0.00     0.103 C 
BRANCH  37  38
HETATM   38  C18 UNL     1     -15.425  46.593 -25.317  1.00  0.00     0.096 C 
BRANCH  38  39
HETATM   39  S1  UNL     1     -14.701  45.052 -25.963  1.00  0.00    -0.180 SA
HETATM   40  H22 UNL     1     -14.181  45.585 -27.083  1.00  0.00     0.101 HD
ENDBRANCH  38  39
ENDBRANCH  37  38
BRANCH  37  41
HETATM   41  C19 UNL     1     -17.803  47.162 -24.769  1.00  0.00     0.136 C 
BRANCH  41  42
HETATM   42  C20 UNL     1     -19.088  46.610 -24.208  1.00  0.00     0.141 C 
HETATM   43  O5  UNL     1     -19.318  46.213 -23.079  1.00  0.00    -0.650 OA
BRANCH  42  44
HETATM   44  O6  UNL     1     -20.062  46.603 -25.144  1.00  0.00    -0.776 OA
HETATM   45  H25 UNL     1     -20.854  46.280 -24.665  1.00  0.00     0.167 HD
ENDBRANCH  42  44
ENDBRANCH  41  42
ENDBRANCH  37  41
ENDBRANCH  35  37
ENDBRANCH  32  33
BRANCH  32  46
HETATM   46  C21 UNL     1     -16.580  46.701 -19.392  1.00  0.00     0.009 C 
HETATM   47  C22 UNL     1     -16.468  45.325 -18.723  1.00  0.00     0.012 C 
HETATM   48  C23 UNL     1     -18.032  46.896 -19.851  1.00  0.00     0.012 C 
ENDBRANCH  32  46
ENDBRANCH  30  32
ENDBRANCH  27  28
ENDBRANCH  26  27
ENDBRANCH  13  26
TORSDOF 13
ENDMDL
MODEL 4
REMARK minimizedAffinity -8.18958569
REMARK CNNscore 0.26385051
REMARK CNNaffinity 6.34591436
REMARK  13 active torsions:
REMARK  status: ('A' for Active; 'I' for Inactive)
REMARK    1  A    between atoms: C3_3  and  O1_4 
REMARK    2  A    between atoms: N1_14  and  O2_16 
REMARK    3  A    between atoms: O2_16  and  C13_17 
REMARK    4  A    between atoms: C13_17  and  C14_18 
REMARK       I    between atoms: C14_18  and  N2_20 
REMARK    5  A    between atoms: N2_20  and  C15_21 
REMARK    6  A    between atoms: C15_21  and  C16_22 
REMARK    7  A    between atoms: C15_21  and  C21_32 
REMARK       I    between atoms: C16_22  and  N3_24 
REMARK    8  A    between atoms: N3_24  and  C17_25 
REMARK    9  A    between atoms: C17_25  and  C18_26 
REMARK   10  A    between atoms: C17_25  and  C19_28 
REMARK   11  A    between atoms: C18_26  and  S1_27 
REMARK   12  A    between atoms: C19_28  and  C20_29 
REMARK   13  A    between atoms: C20_29  and  O6_31 
ROOT
HETATM    1  C1  UNL     1      -2.742  52.471 -23.314  1.00  0.00     0.015 C 
HETATM    2  C2  UNL     1      -2.457  51.707 -22.434  1.00  0.00    -0.078 C 
HETATM    3  C3  UNL     1      -2.182  50.779 -21.323  1.00  0.00     0.128 C 
HETATM    4  C4  UNL     1      -2.105  49.323 -21.781  1.00  0.00     0.052 C 
HETATM    5  C5  UNL     1      -1.414  48.596 -20.627  1.00  0.00     0.010 C 
HETATM    6  C6  UNL     1      -0.596  49.653 -19.859  1.00  0.00     0.002 C 
HETATM    7  C7  UNL     1      -0.789  49.642 -18.329  1.00  0.00    -0.004 C 
HETATM    8  C8  UNL     1      -2.213  49.768 -17.770  1.00  0.00     0.010 C 
HETATM    9  C9  UNL     1      -2.219  49.644 -16.244  1.00  0.00     0.035 C 
HETATM   10  C10 UNL     1      -1.227  50.553 -15.546  1.00  0.00    -0.069 C 
HETATM   11  C11 UNL     1      -1.591  51.211 -14.429  1.00  0.00     0.030 C 
HETATM   12  C12 UNL     1      -0.624  52.020 -13.636  1.00  0.00     0.032 C 
HETATM   13  N1  UNL     1      -1.065  52.662 -12.592  1.00  0.00    -0.271 N 
ATOM     14  H1  UNL     1      -2.033  52.654 -12.271  1.00  0.00     0.194 HD
HETATM   15  C24 UNL     1       0.838  51.976 -14.055  1.00  0.00     0.060 C 
HETATM   16  C25 UNL     1       0.943  51.859 -15.566  1.00  0.00     0.020 C 
HETATM   17  C26 UNL     1       0.177  50.636 -16.151  1.00  0.00    -0.016 C 
HETATM   18  C27 UNL     1       0.953  49.353 -15.760  1.00  0.00     0.020 C 
HETATM   19  C28 UNL     1       0.107  50.747 -17.727  1.00  0.00     0.002 C 
HETATM   20  C29 UNL     1      -0.371  52.128 -18.223  1.00  0.00     0.007 C 
HETATM   21  C30 UNL     1      -0.798  52.261 -19.695  1.00  0.00     0.014 C 
HETATM   22  C31 UNL     1      -0.819  51.004 -20.594  1.00  0.00     0.003 C 
HETATM   23  C32 UNL     1       0.340  51.160 -21.628  1.00  0.00     0.020 C 
ENDROOT
BRANCH   3  24
HETATM   24  O1  UNL     1      -3.282  50.854 -20.416  1.00  0.00    -0.377 OA
HETATM   25  H2  UNL     1      -3.512  51.786 -20.303  1.00  0.00     0.211 HD
ENDBRANCH   3  24
BRANCH  13  26
HETATM   26  O2  UNL     1      -0.026  53.366 -11.973  1.00  0.00    -0.271 OA
BRANCH  26  27
HETATM   27  C13 UNL     1      -0.524  54.079 -10.850  1.00  0.00     0.303 C 
BRANCH  27  28
HETATM   28  C14 UNL     1       0.579  54.092  -9.800  1.00  0.00     0.244 C 
HETATM   29  O3  UNL     1       0.380  53.916  -8.599  1.00  0.00    -0.271 OA
HETATM   30  N2  UNL     1       1.848  54.328 -10.287  1.00  0.00    -0.346 N 
HETATM   31  H16 UNL     1       2.024  54.331 -11.284  1.00  0.00     0.163 HD
BRANCH  30  32
HETATM   32  C15 UNL     1       3.022  54.388  -9.396  1.00  0.00     0.180 C 
BRANCH  32  33
HETATM   33  C16 UNL     1       3.761  53.026  -9.500  1.00  0.00     0.241 C 
HETATM   34  O4  UNL     1       3.498  52.176 -10.352  1.00  0.00    -0.271 OA
HETATM   35  N3  UNL     1       4.794  52.878  -8.583  1.00  0.00    -0.353 N 
HETATM   36  H18 UNL     1       4.975  53.656  -7.952  1.00  0.00     0.163 HD
BRANCH  35  37
HETATM   37  C17 UNL     1       5.600  51.662  -8.496  1.00  0.00     0.103 C 
BRANCH  37  38
HETATM   38  C18 UNL     1       6.235  51.487  -7.091  1.00  0.00     0.096 C 
BRANCH  38  39
HETATM   39  S1  UNL     1       5.146  51.858  -5.680  1.00  0.00    -0.180 SA
HETATM   40  H22 UNL     1       5.847  51.173  -4.761  1.00  0.00     0.101 HD
ENDBRANCH  38  39
ENDBRANCH  37  38
BRANCH  37  41
HETATM   41  C19 UNL     1       6.735  51.695  -9.538  1.00  0.00     0.136 C 
BRANCH  41  42
HETATM   42  C20 UNL     1       6.955  50.369 -10.219  1.00  0.00     0.141 C 
HETATM   43  O5  UNL     1       6.400  49.918 -11.205  1.00  0.00    -0.650 OA
BRANCH  42  44
HETATM   44  O6  UNL     1       7.920  49.657  -9.595  1.00  0.00    -0.776 OA
HETATM   45  H25 UNL     1       8.016  48.850 -10.143  1.00  0.00     0.167 HD
ENDBRANCH  42  44
ENDBRANCH  41  42
ENDBRANCH  37  41
ENDBRANCH  35  37
ENDBRANCH  32  33
BRANCH  32  46
HETATM   46  C21 UNL     1       3.936  55.590  -9.741  1.00  0.00     0.009 C 
HETATM   47  C22 UNL     1       3.740  56.740  -8.745  1.00  0.00     0.012 C 
HETATM   48  C23 UNL     1       3.683  56.130 -11.156  1.00  0.00     0.012 C 
ENDBRANCH  32  46
ENDBRANCH  30  32
ENDBRANCH  27  28
ENDBRANCH  26  27
ENDBRANCH  13  26
TORSDOF 13
ENDMDL
MODEL 5
REMARK minimizedAffinity -7.82040119
REMARK CNNscore 0.260110348
REMARK CNNaffinity 6.62168741
REMARK  13 active torsions:
REMARK  status: ('A' for Active; 'I' for Inactive)
REMARK    1  A    between atoms: C3_3  and  O1_4 
REMARK    2  A    between atoms: N1_14  and  O2_16 
REMARK    3  A    between atoms: O2_16  and  C13_17 
REMARK    4  A    between atoms: C13_17  and  C14_18 
REMARK       I    between atoms: C14_18  and  N2_20 
REMARK    5  A    between atoms: N2_20  and  C15_21 
REMARK    6  A    between atoms: C15_21  and  C16_22 
REMARK    7  A    between atoms: C15_21  and  C21_32 
REMARK       I    between atoms: C16_22  and  N3_24 
REMARK    8  A    between atoms: N3_24  and  C17_25 
REMARK    9  A    between atoms: C17_25  and  C18_26 
REMARK   10  A    between atoms: C17_25  and  C19_28 
REMARK   11  A    between atoms: C18_26  and  S1_27 
REMARK   12  A    between atoms: C19_28  and  C20_29 
REMARK   13  A    between atoms: C20_29  and  O6_31 
ROOT
HETATM    1  C1  UNL     1      -2.344  52.624 -23.620  1.00  0.00     0.015 C 
HETATM    2  C2  UNL     1      -2.162  51.825 -22.743  1.00  0.00    -0.078 C 
HETATM    3  C3  UNL     1      -2.013  50.859 -21.641  1.00  0.00     0.128 C 
HETATM    4  C4  UNL     1      -1.995  49.412 -22.129  1.00  0.00     0.052 C 
HETATM    5  C5  UNL     1      -1.423  48.619 -20.953  1.00  0.00     0.010 C 
HETATM    6  C6  UNL     1      -0.592  49.608 -20.110  1.00  0.00     0.002 C 
HETATM    7  C7  UNL     1      -0.881  49.577 -18.596  1.00  0.00    -0.004 C 
HETATM    8  C8  UNL     1      -2.327  49.779 -18.122  1.00  0.00     0.010 C 
HETATM    9  C9  UNL     1      -2.435  49.625 -16.603  1.00  0.00     0.035 C 
HETATM   10  C10 UNL     1      -1.435  50.455 -15.823  1.00  0.00    -0.069 C 
HETATM   11  C11 UNL     1      -1.828  51.112 -14.715  1.00  0.00     0.030 C 
HETATM   12  C12 UNL     1      -0.865  51.843 -13.845  1.00  0.00     0.032 C 
HETATM   13  N1  UNL     1      -1.331  52.489 -12.815  1.00  0.00    -0.271 N 
ATOM     14  H1  UNL     1      -2.316  52.534 -12.554  1.00  0.00     0.194 HD
HETATM   15  C24 UNL     1       0.615  51.717 -14.175  1.00  0.00     0.060 C 
HETATM   16  C25 UNL     1       0.807  51.625 -15.680  1.00  0.00     0.020 C 
HETATM   17  C26 UNL     1       0.006  50.464 -16.340  1.00  0.00    -0.016 C 
HETATM   18  C27 UNL     1       0.677  49.128 -15.934  1.00  0.00     0.020 C 
HETATM   19  C28 UNL     1       0.041  50.611 -17.914  1.00  0.00     0.002 C 
HETATM   20  C29 UNL     1      -0.320  52.030 -18.404  1.00  0.00     0.007 C 
HETATM   21  C30 UNL     1      -0.646  52.219 -19.896  1.00  0.00     0.014 C 
HETATM   22  C31 UNL     1      -0.686  50.985 -20.824  1.00  0.00     0.003 C 
HETATM   23  C32 UNL     1       0.542  51.090 -21.782  1.00  0.00     0.020 C 
ENDROOT
BRANCH   3  24
HETATM   24  O1  UNL     1      -3.161  50.983 -20.801  1.00  0.00    -0.377 OA
HETATM   25  H2  UNL     1      -3.340  51.925 -20.680  1.00  0.00     0.211 HD
ENDBRANCH   3  24
BRANCH  13  26
HETATM   26  O2  UNL     1      -0.292  53.115 -12.116  1.00  0.00    -0.271 OA
BRANCH  26  27
HETATM   27  C13 UNL     1      -0.574  53.117 -10.725  1.00  0.00     0.303 C 
BRANCH  27  28
HETATM   28  C14 UNL     1       0.033  54.388 -10.145  1.00  0.00     0.244 C 
HETATM   29  O3  UNL     1      -0.610  55.415  -9.929  1.00  0.00    -0.271 OA
HETATM   30  N2  UNL     1       1.385  54.323  -9.878  1.00  0.00    -0.346 N 
HETATM   31  H16 UNL     1       1.875  53.438  -9.924  1.00  0.00     0.163 HD
BRANCH  30  32
HETATM   32  C15 UNL     1       2.124  55.475  -9.330  1.00  0.00     0.180 C 
BRANCH  32  33
HETATM   33  C16 UNL     1       2.270  55.255  -7.799  1.00  0.00     0.241 C 
HETATM   34  O4  UNL     1       3.347  55.323  -7.205  1.00  0.00    -0.271 OA
HETATM   35  N3  UNL     1       1.063  55.040  -7.146  1.00  0.00    -0.353 N 
HETATM   36  H18 UNL     1       0.216  55.054  -7.711  1.00  0.00     0.163 HD
BRANCH  35  37
HETATM   37  C17 UNL     1       0.980  54.787  -5.710  1.00  0.00     0.103 C 
BRANCH  37  38
HETATM   38  C18 UNL     1       0.996  53.270  -5.386  1.00  0.00     0.096 C 
BRANCH  38  39
HETATM   39  S1  UNL     1      -0.291  52.274  -6.202  1.00  0.00    -0.180 SA
HETATM   40  H22 UNL     1       0.323  51.086  -6.063  1.00  0.00     0.101 HD
ENDBRANCH  38  39
ENDBRANCH  37  38
BRANCH  37  41
HETATM   41  C19 UNL     1      -0.316  55.390  -5.133  1.00  0.00     0.136 C 
BRANCH  41  42
HETATM   42  C20 UNL     1      -0.218  56.871  -4.873  1.00  0.00     0.141 C 
HETATM   43  O5  UNL     1      -1.093  57.641  -4.519  1.00  0.00    -0.650 OA
BRANCH  42  44
HETATM   44  O6  UNL     1       1.043  57.316  -5.071  1.00  0.00    -0.776 OA
HETATM   45  H25 UNL     1       1.004  58.265  -4.827  1.00  0.00     0.167 HD
ENDBRANCH  42  44
ENDBRANCH  41  42
ENDBRANCH  37  41
ENDBRANCH  35  37
ENDBRANCH  32  33
BRANCH  32  46
HETATM   46  C21 UNL     1       3.488  55.663 -10.038  1.00  0.00     0.009 C 
HETATM   47  C22 UNL     1       3.363  56.606 -11.242  1.00  0.00     0.012 C 
HETATM   48  C23 UNL     1       4.082  54.334 -10.527  1.00  0.00     0.012 C 
ENDBRANCH  32  46
ENDBRANCH  30  32
ENDBRANCH  27  28
ENDBRANCH  26  27
ENDBRANCH  13  26
TORSDOF 13
ENDMDL
MODEL 6
REMARK minimizedAffinity -7.95144606
REMARK CNNscore 0.23678343
REMARK CNNaffinity 7.24497461
REMARK  13 active torsions:
REMARK  status: ('A' for Active; 'I' for Inactive)
REMARK    1  A    between atoms: C3_3  and  O1_4 
REMARK    2  A    between atoms: N1_14  and  O2_16 
REMARK    3  A    between atoms: O2_16  and  C13_17 
REMARK    4  A    between atoms: C13_17  and  C14_18 
REMARK       I    between atoms: C14_18  and  N2_20 
REMARK    5  A    between atoms: N2_20  and  C15_21 
REMARK    6  A    between atoms: C15_21  and  C16_22 
REMARK    7  A    between atoms: C15_21  and  C21_32 
REMARK       I    between atoms: C16_22  and  N3_24 
REMARK    8  A    between atoms: N3_24  and  C17_25 
REMARK    9  A    between atoms: C17_25  and  C18_26 
REMARK   10  A    between atoms: C17_25  and  C19_28 
REMARK   11  A    between atoms: C18_26  and  S1_27 
REMARK   12  A    between atoms: C19_28  and  C20_29 
REMARK   13  A    between atoms: C20_29  and  O6_31 
ROOT
HETATM    1  C1  UNL     1      -8.112  44.714 -22.588  1.00  0.00     0.015 C 
HETATM    2  C2  UNL     1      -7.562  45.222 -21.651  1.00  0.00    -0.078 C 
HETATM    3  C3  UNL     1      -6.927  45.914 -20.515  1.00  0.00     0.128 C 
HETATM    4  C4  UNL     1      -7.431  45.407 -19.165  1.00  0.00     0.052 C 
HETATM    5  C5  UNL     1      -6.394  45.907 -18.158  1.00  0.00     0.010 C 
HETATM    6  C6  UNL     1      -5.083  46.127 -18.940  1.00  0.00     0.002 C 
HETATM    7  C7  UNL     1      -4.396  47.486 -18.692  1.00  0.00    -0.004 C 
HETATM    8  C8  UNL     1      -5.207  48.769 -18.921  1.00  0.00     0.010 C 
HETATM    9  C9  UNL     1      -4.396  50.008 -18.538  1.00  0.00     0.035 C 
HETATM   10  C10 UNL     1      -3.016  50.062 -19.161  1.00  0.00    -0.069 C 
HETATM   11  C11 UNL     1      -2.551  51.222 -19.662  1.00  0.00     0.030 C 
HETATM   12  C12 UNL     1      -1.159  51.362 -20.175  1.00  0.00     0.032 C 
HETATM   13  N1  UNL     1      -0.800  52.506 -20.684  1.00  0.00    -0.271 N 
ATOM     14  H1  UNL     1      -1.404  53.325 -20.758  1.00  0.00     0.194 HD
HETATM   15  C24 UNL     1      -0.223  50.177 -19.997  1.00  0.00     0.060 C 
HETATM   16  C25 UNL     1      -0.998  48.876 -20.130  1.00  0.00     0.020 C 
HETATM   17  C26 UNL     1      -2.201  48.766 -19.148  1.00  0.00    -0.016 C 
HETATM   18  C27 UNL     1      -1.637  48.560 -17.719  1.00  0.00     0.020 C 
HETATM   19  C28 UNL     1      -3.105  47.528 -19.537  1.00  0.00     0.002 C 
HETATM   20  C29 UNL     1      -3.465  47.481 -21.037  1.00  0.00     0.007 C 
HETATM   21  C30 UNL     1      -4.594  46.535 -21.482  1.00  0.00     0.014 C 
HETATM   22  C31 UNL     1      -5.377  45.738 -20.415  1.00  0.00     0.003 C 
HETATM   23  C32 UNL     1      -4.981  44.237 -20.581  1.00  0.00     0.020 C 
ENDROOT
BRANCH   3  24
HETATM   24  O1  UNL     1      -7.295  47.291 -20.588  1.00  0.00    -0.377 OA
HETATM   25  H2  UNL     1      -7.218  47.572 -21.510  1.00  0.00     0.211 HD
ENDBRANCH   3  24
BRANCH  13  26
HETATM   26  O2  UNL     1       0.530  52.456 -21.115  1.00  0.00    -0.271 OA
BRANCH  26  27
HETATM   27  C13 UNL     1       0.670  53.157 -22.342  1.00  0.00     0.303 C 
BRANCH  27  28
HETATM   28  C14 UNL     1       0.278  52.197 -23.456  1.00  0.00     0.244 C 
HETATM   29  O3  UNL     1      -0.396  51.183 -23.278  1.00  0.00    -0.271 OA
HETATM   30  N2  UNL     1       0.744  52.534 -24.711  1.00  0.00    -0.346 N 
HETATM   31  H16 UNL     1       1.174  53.436 -24.874  1.00  0.00     0.163 HD
BRANCH  30  32
HETATM   32  C15 UNL     1       0.464  51.697 -25.892  1.00  0.00     0.180 C 
BRANCH  32  33
HETATM   33  C16 UNL     1      -1.072  51.704 -26.121  1.00  0.00     0.241 C 
HETATM   34  O4  UNL     1      -1.718  52.728 -26.348  1.00  0.00    -0.271 OA
HETATM   35  N3  UNL     1      -1.646  50.440 -26.111  1.00  0.00    -0.353 N 
HETATM   36  H18 UNL     1      -1.025  49.645 -25.969  1.00  0.00     0.163 HD
BRANCH  35  37
HETATM   37  C17 UNL     1      -3.081  50.225 -26.282  1.00  0.00     0.103 C 
BRANCH  37  38
HETATM   38  C18 UNL     1      -3.861  50.430 -24.957  1.00  0.00     0.096 C 
BRANCH  38  39
HETATM   39  S1  UNL     1      -4.907  49.036 -24.432  1.00  0.00    -0.180 SA
HETATM   40  H22 UNL     1      -4.996  49.389 -23.138  1.00  0.00     0.101 HD
ENDBRANCH  38  39
ENDBRANCH  37  38
BRANCH  37  41
HETATM   41  C19 UNL     1      -3.353  48.794 -26.786  1.00  0.00     0.136 C 
BRANCH  41  42
HETATM   42  C20 UNL     1      -4.278  48.748 -27.974  1.00  0.00     0.141 C 
HETATM   43  O5  UNL     1      -5.229  48.012 -28.171  1.00  0.00    -0.650 OA
BRANCH  42  44
HETATM   44  O6  UNL     1      -3.945  49.689 -28.885  1.00  0.00    -0.776 OA
HETATM   45  H25 UNL     1      -4.632  49.606 -29.580  1.00  0.00     0.167 HD
ENDBRANCH  42  44
ENDBRANCH  41  42
ENDBRANCH  37  41
ENDBRANCH  35  37
ENDBRANCH  32  33
BRANCH  32  46
HETATM   46  C21 UNL     1       1.253  52.185 -27.133  1.00  0.00     0.009 C 
HETATM   47  C22 UNL     1       0.581  51.726 -28.433  1.00  0.00     0.012 C 
HETATM   48  C23 UNL     1       2.704  51.682 -27.138  1.00  0.00     0.012 C 
ENDBRANCH  32  46
ENDBRANCH  30  32
ENDBRANCH  27  28
ENDBRANCH  26  27
ENDBRANCH  13  26
TORSDOF 13
ENDMDL
MODEL 7
REMARK minimizedAffinity -7.41127777
REMARK CNNscore 0.184522718
REMARK CNNaffinity 6.24222708
REMARK  13 active torsions:
REMARK  status: ('A' for Active; 'I' for Inactive)
REMARK    1  A    between atoms: C3_3  and  O1_4 
REMARK    2  A    between atoms: N1_14  and  O2_16 
REMARK    3  A    between atoms: O2_16  and  C13_17 
REMARK    4  A    between atoms: C13_17  and  C14_18 
REMARK       I    between atoms: C14_18  and  N2_20 
REMARK    5  A    between atoms: N2_20  and  C15_21 
REMARK    6  A    between atoms: C15_21  and  C16_22 
REMARK    7  A    between atoms: C15_21  and  C21_32 
REMARK       I    between atoms: C16_22  and  N3_24 
REMARK    8  A    between atoms: N3_24  and  C17_25 
REMARK    9  A    between atoms: C17_25  and  C18_26 
REMARK   10  A    between atoms: C17_25  and  C19_28 
REMARK   11  A    between atoms: C18_26  and  S1_27 
REMARK   12  A    between atoms: C19_28  and  C20_29 
REMARK   13  A    between atoms: C20_29  and  O6_31 
ROOT
HETATM    1  C1  UNL     1       1.231  51.647 -28.528  1.00  0.00     0.015 C 
HETATM    2  C2  UNL     1       0.689  51.820 -27.471  1.00  0.00    -0.078 C 
HETATM    3  C3  UNL     1       0.084  51.990 -26.139  1.00  0.00     0.128 C 
HETATM    4  C4  UNL     1       0.215  53.418 -25.614  1.00  0.00     0.052 C 
HETATM    5  C5  UNL     1      -0.803  53.502 -24.475  1.00  0.00     0.010 C 
HETATM    6  C6  UNL     1      -1.868  52.420 -24.748  1.00  0.00     0.002 C 
HETATM    7  C7  UNL     1      -2.206  51.519 -23.544  1.00  0.00    -0.004 C 
HETATM    8  C8  UNL     1      -1.061  50.772 -22.844  1.00  0.00     0.010 C 
HETATM    9  C9  UNL     1      -1.570  50.005 -21.622  1.00  0.00     0.035 C 
HETATM   10  C10 UNL     1      -2.770  49.122 -21.900  1.00  0.00    -0.069 C 
HETATM   11  C11 UNL     1      -2.829  47.885 -21.372  1.00  0.00     0.030 C 
HETATM   12  C12 UNL     1      -4.034  47.021 -21.512  1.00  0.00     0.032 C 
HETATM   13  N1  UNL     1      -3.995  45.819 -21.010  1.00  0.00    -0.271 N 
ATOM     14  H1  UNL     1      -3.194  45.420 -20.521  1.00  0.00     0.194 HD
HETATM   15  C24 UNL     1      -5.264  47.632 -22.165  1.00  0.00     0.060 C 
HETATM   16  C25 UNL     1      -4.846  48.604 -23.256  1.00  0.00     0.020 C 
HETATM   17  C26 UNL     1      -3.887  49.724 -22.757  1.00  0.00    -0.016 C 
HETATM   18  C27 UNL     1      -4.706  50.699 -21.874  1.00  0.00     0.020 C 
HETATM   19  C28 UNL     1      -3.288  50.512 -23.991  1.00  0.00     0.002 C 
HETATM   20  C29 UNL     1      -2.717  49.589 -25.088  1.00  0.00     0.007 C 
HETATM   21  C30 UNL     1      -1.819  50.218 -26.168  1.00  0.00     0.014 C 
HETATM   22  C31 UNL     1      -1.453  51.715 -26.070  1.00  0.00     0.003 C 
HETATM   23  C32 UNL     1      -2.196  52.447 -27.232  1.00  0.00     0.020 C 
ENDROOT
BRANCH   3  24
HETATM   24  O1  UNL     1       0.807  51.162 -25.228  1.00  0.00    -0.377 OA
HETATM   25  H2  UNL     1       0.954  50.307 -25.655  1.00  0.00     0.211 HD
ENDBRANCH   3  24
BRANCH  13  26
HETATM   26  O2  UNL     1      -5.206  45.153 -21.234  1.00  0.00    -0.271 OA
BRANCH  26  27
HETATM   27  C13 UNL     1      -5.682  44.589 -20.022  1.00  0.00     0.303 C 
BRANCH  27  28
HETATM   28  C14 UNL     1      -6.529  45.651 -19.334  1.00  0.00     0.244 C 
HETATM   29  O3  UNL     1      -6.089  46.441 -18.499  1.00  0.00    -0.271 OA
HETATM   30  N2  UNL     1      -7.859  45.670 -19.704  1.00  0.00    -0.346 N 
HETATM   31  H16 UNL     1      -8.181  45.117 -20.489  1.00  0.00     0.163 HD
BRANCH  30  32
HETATM   32  C15 UNL     1      -8.813  46.628 -19.116  1.00  0.00     0.180 C 
BRANCH  32  33
HETATM   33  C16 UNL     1      -9.333  46.017 -17.785  1.00  0.00     0.241 C 
HETATM   34  O4  UNL     1      -8.679  46.013 -16.742  1.00  0.00    -0.271 OA
HETATM   35  N3  UNL     1     -10.633  45.533 -17.861  1.00  0.00    -0.353 N 
HETATM   36  H18 UNL     1     -11.117  45.628 -18.752  1.00  0.00     0.163 HD
BRANCH  35  37
HETATM   37  C17 UNL     1     -11.302  44.897 -16.728  1.00  0.00     0.103 C 
BRANCH  37  38
HETATM   38  C18 UNL     1     -11.033  43.370 -16.679  1.00  0.00     0.096 C 
BRANCH  38  39
HETATM   39  S1  UNL     1     -12.364  42.357 -15.960  1.00  0.00    -0.180 SA
HETATM   40  H22 UNL     1     -11.982  41.190 -16.507  1.00  0.00     0.101 HD
ENDBRANCH  38  39
ENDBRANCH  37  38
BRANCH  37  41
HETATM   41  C19 UNL     1     -12.825  45.117 -16.814  1.00  0.00     0.136 C 
BRANCH  41  42
HETATM   42  C20 UNL     1     -13.253  46.494 -16.378  1.00  0.00     0.141 C 
HETATM   43  O5  UNL     1     -12.838  47.575 -16.755  1.00  0.00    -0.650 OA
BRANCH  42  44
HETATM   44  O6  UNL     1     -14.238  46.427 -15.455  1.00  0.00    -0.776 OA
HETATM   45  H25 UNL     1     -14.472  47.363 -15.284  1.00  0.00     0.167 HD
ENDBRANCH  42  44
ENDBRANCH  41  42
ENDBRANCH  37  41
ENDBRANCH  35  37
ENDBRANCH  32  33
BRANCH  32  46
HETATM   46  C21 UNL     1      -8.171  48.023 -18.921  1.00  0.00     0.009 C 
HETATM   47  C22 UNL     1      -8.998  48.885 -17.958  1.00  0.00     0.012 C 
HETATM   48  C23 UNL     1      -8.020  48.788 -20.244  1.00  0.00     0.012 C 
ENDBRANCH  32  46
ENDBRANCH  30  32
ENDBRANCH  27  28
ENDBRANCH  26  27
ENDBRANCH  13  26
TORSDOF 13
ENDMDL
MODEL 8
REMARK minimizedAffinity -7.42647266
REMARK CNNscore 0.170141816
REMARK CNNaffinity 6.18458128
REMARK  13 active torsions:
REMARK  status: ('A' for Active; 'I' for Inactive)
REMARK    1  A    between atoms: C3_3  and  O1_4 
REMARK    2  A    between atoms: N1_14  and  O2_16 
REMARK    3  A    between atoms: O2_16  and  C13_17 
REMARK    4  A    between atoms: C13_17  and  C14_18 
REMARK       I    between atoms: C14_18  and  N2_20 
REMARK    5  A    between atoms: N2_20  and  C15_21 
REMARK    6  A    between atoms: C15_21  and  C16_22 
REMARK    7  A    between atoms: C15_21  and  C21_32 
REMARK       I    between atoms: C16_22  and  N3_24 
REMARK    8  A    between atoms: N3_24  and  C17_25 
REMARK    9  A    between atoms: C17_25  and  C18_26 
REMARK   10  A    between atoms: C17_25  and  C19_28 
REMARK   11  A    between atoms: C18_26  and  S1_27 
REMARK   12  A    between atoms: C19_28  and  C20_29 
REMARK   13  A    between atoms: C20_29  and  O6_31 
ROOT
HETATM    1  C1  UNL     1       1.367  51.516 -28.514  1.00  0.00     0.015 C 
HETATM    2  C2  UNL     1       0.766  51.704 -27.492  1.00  0.00    -0.078 C 
HETATM    3  C3  UNL     1       0.087  51.892 -26.199  1.00  0.00     0.128 C 
HETATM    4  C4  UNL     1       0.168  53.333 -25.699  1.00  0.00     0.052 C 
HETATM    5  C5  UNL     1      -0.912  53.426 -24.620  1.00  0.00     0.010 C 
HETATM    6  C6  UNL     1      -1.945  52.322 -24.927  1.00  0.00     0.002 C 
HETATM    7  C7  UNL     1      -2.335  51.441 -23.722  1.00  0.00    -0.004 C 
HETATM    8  C8  UNL     1      -1.220  50.727 -22.945  1.00  0.00     0.010 C 
HETATM    9  C9  UNL     1      -1.785  49.980 -21.736  1.00  0.00     0.035 C 
HETATM   10  C10 UNL     1      -2.955  49.072 -22.059  1.00  0.00    -0.069 C 
HETATM   11  C11 UNL     1      -3.025  47.846 -21.508  1.00  0.00     0.030 C 
HETATM   12  C12 UNL     1      -4.208  46.960 -21.694  1.00  0.00     0.032 C 
HETATM   13  N1  UNL     1      -4.180  45.771 -21.164  1.00  0.00    -0.271 N 
ATOM     14  H1  UNL     1      -3.401  45.394 -20.623  1.00  0.00     0.194 HD
HETATM   15  C24 UNL     1      -5.409  47.539 -22.427  1.00  0.00     0.060 C 
HETATM   16  C25 UNL     1      -4.945  48.493 -23.514  1.00  0.00     0.020 C 
HETATM   17  C26 UNL     1      -4.031  49.639 -22.989  1.00  0.00    -0.016 C 
HETATM   18  C27 UNL     1      -4.912  50.619 -22.173  1.00  0.00     0.020 C 
HETATM   19  C28 UNL     1      -3.377  50.409 -24.205  1.00  0.00     0.002 C 
HETATM   20  C29 UNL     1      -2.733  49.472 -25.249  1.00  0.00     0.007 C 
HETATM   21  C30 UNL     1      -1.787  50.091 -26.292  1.00  0.00     0.014 C 
HETATM   22  C31 UNL     1      -1.448  51.596 -26.208  1.00  0.00     0.003 C 
HETATM   23  C32 UNL     1      -2.137  52.291 -27.425  1.00  0.00     0.020 C 
ENDROOT
BRANCH   3  24
HETATM   24  O1  UNL     1       0.770  51.095 -25.232  1.00  0.00    -0.377 OA
HETATM   25  H2  UNL     1       0.952  50.234 -25.631  1.00  0.00     0.211 HD
ENDBRANCH   3  24
BRANCH  13  26
HETATM   26  O2  UNL     1      -5.366  45.081 -21.439  1.00  0.00    -0.271 OA
BRANCH  26  27
HETATM   27  C13 UNL     1      -6.317  45.320 -20.412  1.00  0.00     0.303 C 
BRANCH  27  28
HETATM   28  C14 UNL     1      -7.620  44.660 -20.843  1.00  0.00     0.244 C 
HETATM   29  O3  UNL     1      -8.298  43.943 -20.108  1.00  0.00    -0.271 OA
HETATM   30  N2  UNL     1      -8.001  44.911 -22.145  1.00  0.00    -0.346 N 
HETATM   31  H16 UNL     1      -7.518  45.610 -22.696  1.00  0.00     0.163 HD
BRANCH  30  32
HETATM   32  C15 UNL     1      -9.229  44.332 -22.719  1.00  0.00     0.180 C 
BRANCH  32  33
HETATM   33  C16 UNL     1      -9.919  45.436 -23.567  1.00  0.00     0.241 C 
HETATM   34  O4  UNL     1     -10.240  46.535 -23.114  1.00  0.00    -0.271 OA
HETATM   35  N3  UNL     1     -10.082  45.096 -24.904  1.00  0.00    -0.353 N 
HETATM   36  H18 UNL     1      -9.736  44.186 -25.201  1.00  0.00     0.163 HD
BRANCH  35  37
HETATM   37  C17 UNL     1     -10.730  45.983 -25.867  1.00  0.00     0.103 C 
BRANCH  37  38
HETATM   38  C18 UNL     1     -11.386  45.195 -27.031  1.00  0.00     0.096 C 
BRANCH  38  39
HETATM   39  S1  UNL     1     -10.981  45.779 -28.708  1.00  0.00    -0.180 SA
HETATM   40  H22 UNL     1     -11.310  44.644 -29.349  1.00  0.00     0.101 HD
ENDBRANCH  38  39
ENDBRANCH  37  38
BRANCH  37  41
HETATM   41  C19 UNL     1      -9.705  46.965 -26.467  1.00  0.00     0.136 C 
BRANCH  41  42
HETATM   42  C20 UNL     1     -10.189  48.392 -26.485  1.00  0.00     0.141 C 
HETATM   43  O5  UNL     1     -11.308  48.819 -26.265  1.00  0.00    -0.650 OA
BRANCH  42  44
HETATM   44  O6  UNL     1      -9.181  49.242 -26.780  1.00  0.00    -0.776 OA
HETATM   45  H25 UNL     1      -9.589  50.131 -26.714  1.00  0.00     0.167 HD
ENDBRANCH  42  44
ENDBRANCH  41  42
ENDBRANCH  37  41
ENDBRANCH  35  37
ENDBRANCH  32  33
BRANCH  32  46
HETATM   46  C21 UNL     1      -8.924  43.054 -23.540  1.00  0.00     0.009 C 
HETATM   47  C22 UNL     1      -9.451  41.800 -22.831  1.00  0.00     0.012 C 
HETATM   48  C23 UNL     1      -7.421  42.867 -23.795  1.00  0.00     0.012 C 
ENDBRANCH  32  46
ENDBRANCH  30  32
ENDBRANCH  27  28
ENDBRANCH  26  27
ENDBRANCH  13  26
TORSDOF 13
ENDMDL
MODEL 9
REMARK minimizedAffinity -8.44774628
REMARK CNNscore 0.169247404
REMARK CNNaffinity 6.37181997
REMARK  13 active torsions:
REMARK  status: ('A' for Active; 'I' for Inactive)
REMARK    1  A    between atoms: C3_3  and  O1_4 
REMARK    2  A    between atoms: N1_14  and  O2_16 
REMARK    3  A    between atoms: O2_16  and  C13_17 
REMARK    4  A    between atoms: C13_17  and  C14_18 
REMARK       I    between atoms: C14_18  and  N2_20 
REMARK    5  A    between atoms: N2_20  and  C15_21 
REMARK    6  A    between atoms: C15_21  and  C16_22 
REMARK    7  A    between atoms: C15_21  and  C21_32 
REMARK       I    between atoms: C16_22  and  N3_24 
REMARK    8  A    between atoms: N3_24  and  C17_25 
REMARK    9  A    between atoms: C17_25  and  C18_26 
REMARK   10  A    between atoms: C17_25  and  C19_28 
REMARK   11  A    between atoms: C18_26  and  S1_27 
REMARK   12  A    between atoms: C19_28  and  C20_29 
REMARK   13  A    between atoms: C20_29  and  O6_31 
ROOT
HETATM    1  C1  UNL     1      -7.610  49.223 -23.960  1.00  0.00     0.015 C 
HETATM    2  C2  UNL     1      -6.414  49.189 -23.873  1.00  0.00    -0.078 C 
HETATM    3  C3  UNL     1      -4.953  49.083 -23.716  1.00  0.00     0.128 C 
HETATM    4  C4  UNL     1      -4.264  48.569 -24.979  1.00  0.00     0.052 C 
HETATM    5  C5  UNL     1      -2.790  48.925 -24.782  1.00  0.00     0.010 C 
HETATM    6  C6  UNL     1      -2.744  50.106 -23.791  1.00  0.00     0.002 C 
HETATM    7  C7  UNL     1      -1.747  49.941 -22.626  1.00  0.00    -0.004 C 
HETATM    8  C8  UNL     1      -1.856  48.691 -21.740  1.00  0.00     0.010 C 
HETATM    9  C9  UNL     1      -0.733  48.654 -20.701  1.00  0.00     0.035 C 
HETATM   10  C10 UNL     1      -0.586  49.933 -19.903  1.00  0.00    -0.069 C 
HETATM   11  C11 UNL     1      -0.370  49.874 -18.575  1.00  0.00     0.030 C 
HETATM   12  C12 UNL     1      -0.098  51.092 -17.762  1.00  0.00     0.032 C 
HETATM   13  N1  UNL     1       0.057  50.955 -16.476  1.00  0.00    -0.271 N 
ATOM     14  H1  UNL     1       0.006  50.067 -15.976  1.00  0.00     0.194 HD
HETATM   15  C24 UNL     1       0.062  52.410 -18.504  1.00  0.00     0.060 C 
HETATM   16  C25 UNL     1      -0.862  52.444 -19.710  1.00  0.00     0.020 C 
HETATM   17  C26 UNL     1      -0.656  51.247 -20.685  1.00  0.00    -0.016 C 
HETATM   18  C27 UNL     1       0.696  51.451 -21.416  1.00  0.00     0.020 C 
HETATM   19  C28 UNL     1      -1.826  51.209 -21.748  1.00  0.00     0.002 C 
HETATM   20  C29 UNL     1      -3.230  51.317 -21.117  1.00  0.00     0.007 C 
HETATM   21  C30 UNL     1      -4.446  50.961 -21.991  1.00  0.00     0.014 C 
HETATM   22  C31 UNL     1      -4.219  50.432 -23.424  1.00  0.00     0.003 C 
HETATM   23  C32 UNL     1      -4.700  51.545 -24.407  1.00  0.00     0.020 C 
ENDROOT
BRANCH   3  24
HETATM   24  O1  UNL     1      -4.697  48.115 -22.699  1.00  0.00    -0.377 OA
HETATM   25  H2  UNL     1      -5.313  48.277 -21.972  1.00  0.00     0.211 HD
ENDBRANCH   3  24
BRANCH  13  26
HETATM   26  O2  UNL     1       0.301  52.195 -15.875  1.00  0.00    -0.271 OA
BRANCH  26  27
HETATM   27  C13 UNL     1       1.104  52.025 -14.717  1.00  0.00     0.303 C 
BRANCH  27  28
HETATM   28  C14 UNL     1       0.172  51.643 -13.575  1.00  0.00     0.244 C 
HETATM   29  O3  UNL     1       0.014  50.489 -13.178  1.00  0.00    -0.271 OA
HETATM   30  N2  UNL     1      -0.513  52.695 -13.002  1.00  0.00    -0.346 N 
HETATM   31  H16 UNL     1      -0.275  53.651 -13.236  1.00  0.00     0.163 HD
BRANCH  30  32
HETATM   32  C15 UNL     1      -1.467  52.490 -11.897  1.00  0.00     0.180 C 
BRANCH  32  33
HETATM   33  C16 UNL     1      -1.109  53.500 -10.772  1.00  0.00     0.241 C 
HETATM   34  O4  UNL     1      -1.699  54.569 -10.609  1.00  0.00    -0.271 OA
HETATM   35  N3  UNL     1      -0.103  53.060  -9.922  1.00  0.00    -0.353 N 
HETATM   36  H18 UNL     1       0.291  52.138 -10.101  1.00  0.00     0.163 HD
BRANCH  35  37
HETATM   37  C17 UNL     1       0.401  53.868  -8.814  1.00  0.00     0.103 C 
BRANCH  37  38
HETATM   38  C18 UNL     1      -0.633  53.984  -7.664  1.00  0.00     0.096 C 
BRANCH  38  39
HETATM   39  S1  UNL     1      -0.083  54.914  -6.198  1.00  0.00    -0.180 SA
HETATM   40  H22 UNL     1      -1.309  55.174  -5.713  1.00  0.00     0.101 HD
ENDBRANCH  38  39
ENDBRANCH  37  38
BRANCH  37  41
HETATM   41  C19 UNL     1       0.744  55.290  -9.300  1.00  0.00     0.136 C 
BRANCH  41  42
HETATM   42  C20 UNL     1       2.224  55.570  -9.321  1.00  0.00     0.141 C 
HETATM   43  O5  UNL     1       2.929  56.010  -8.430  1.00  0.00    -0.650 OA
BRANCH  42  44
HETATM   44  O6  UNL     1       2.762  55.248 -10.519  1.00  0.00    -0.776 OA
HETATM   45  H25 UNL     1       3.721  55.418 -10.406  1.00  0.00     0.167 HD
ENDBRANCH  42  44
ENDBRANCH  41  42
ENDBRANCH  37  41
ENDBRANCH  35  37
ENDBRANCH  32  33
BRANCH  32  46
HETATM   46  C21 UNL     1      -2.932  52.628 -12.378  1.00  0.00     0.009 C 
HETATM   47  C22 UNL     1      -3.918  52.192 -11.286  1.00  0.00     0.012 C 
HETATM   48  C23 UNL     1      -3.214  51.801 -13.640  1.00  0.00     0.012 C 
ENDBRANCH  32  46
ENDBRANCH  30  32
ENDBRANCH  27  28
ENDBRANCH  26  27
ENDBRANCH  13  26
TORSDOF 13
ENDMDL
