MODEL 1
REMARK minimizedAffinity -8.47034073
REMARK  12 active torsions:
REMARK  status: ('A' for Active; 'I' for Inactive)
REMARK    1  A    between atoms: C2_2  and  C3_3 
REMARK    2  A    between atoms: C2_2  and  C13_14 
REMARK    3  A    between atoms: C3_3  and  C4_4 
REMARK    4  A    between atoms: C4_4  and  C5_5 
REMARK    5  A    between atoms: C13_14  and  C14_15 
REMARK    6  A    between atoms: C14_15  and  O2_16 
REMARK    7  A    between atoms: C14_15  and  C15_17 
REMARK    8  A    between atoms: C16_18  and  C18_20 
REMARK    9  A    between atoms: C18_20  and  C19_21 
REMARK       I    between atoms: C19_21  and  N1_23 
REMARK   10  A    between atoms: N1_23  and  C20_24 
REMARK   11  A    between atoms: C20_24  and  C21_25 
REMARK   12  A    between atoms: C21_25  and  C22_26 
ROOT
HETATM    1  C14 UNL     1      -0.022   8.303   9.028  1.00  0.00     0.145 C 
ENDROOT
BRANCH   1   2
HETATM    2  C13 UNL     1       1.386   8.521   8.422  1.00  0.00     0.069 C 
BRANCH   2   3
HETATM    3  C2  UNL     1       2.124   7.290   7.914  1.00  0.00    -0.086 C 
HETATM    4  C1  UNL     1       1.943   6.861   6.652  1.00  0.00     0.014 C 
BRANCH   3   5
HETATM    5  C3  UNL     1       3.070   6.562   8.849  1.00  0.00     0.034 C 
BRANCH   5   6
HETATM    6  C4  UNL     1       3.955   7.469   9.718  1.00  0.00     0.010 C 
BRANCH   6   7
HETATM    7  C5  UNL     1       4.455   6.850  11.053  1.00  0.00     0.001 C 
HETATM    8  C6  UNL     1       3.387   7.092  12.150  1.00  0.00     0.006 C 
HETATM    9  C7  UNL     1       3.609   8.400  12.889  1.00  0.00     0.008 C 
HETATM   10  C8  UNL     1       4.902   8.351  13.687  1.00  0.00     0.079 C 
HETATM   11  C9  UNL     1       5.947   7.464  13.042  1.00  0.00     0.135 C 
HETATM   12  O1  UNL     1       6.844   6.980  13.735  1.00  0.00    -0.297 OA
HETATM   13  C10 UNL     1       5.900   7.287  11.512  1.00  0.00     0.017 C 
HETATM   14  C11 UNL     1       6.404   8.620  10.924  1.00  0.00     0.023 C 
HETATM   15  C12 UNL     1       6.914   6.190  11.124  1.00  0.00     0.023 C 
ENDBRANCH   6   7
ENDBRANCH   5   6
ENDBRANCH   3   5
ENDBRANCH   2   3
ENDBRANCH   1   2
BRANCH   1  16
HETATM   16  O2  UNL     1      -0.931   9.332   8.642  1.00  0.00    -0.391 OA
HETATM   17  H23 UNL     1      -0.730   9.557   7.718  1.00  0.00     0.210 HD
ENDBRANCH   1  16
BRANCH   1  18
HETATM   18  C15 UNL     1      -0.043   8.231  10.530  1.00  0.00     0.007 C 
HETATM   19  C16 UNL     1      -0.083   7.120  11.294  1.00  0.00    -0.076 C 
HETATM   20  C17 UNL     1      -0.036   5.717  10.748  1.00  0.00     0.043 C 
BRANCH  19  21
HETATM   21  C18 UNL     1      -0.146   7.218  12.805  1.00  0.00     0.136 C 
BRANCH  21  22
HETATM   22  C19 UNL     1      -1.234   6.305  13.364  1.00  0.00     0.221 C 
HETATM   23  O3  UNL     1      -0.993   5.397  14.157  1.00  0.00    -0.273 OA
HETATM   24  N1  UNL     1      -2.497   6.580  12.888  1.00  0.00    -0.361 N 
HETATM   25  H30 UNL     1      -2.577   7.154  12.056  1.00  0.00     0.162 HD
BRANCH  24  26
HETATM   26  C20 UNL     1      -3.624   5.714  13.189  1.00  0.00     0.127 C 
BRANCH  26  27
HETATM   27  C21 UNL     1      -3.719   4.516  12.236  1.00  0.00     0.058 C 
BRANCH  27  28
HETATM   28  C22 UNL     1      -5.034   3.782  12.366  1.00  0.00    -0.057 A 
HETATM   29  C23 UNL     1      -6.016   4.238  13.256  1.00  0.00     0.007 A 
HETATM   30  C24 UNL     1      -7.214   3.539  13.408  1.00  0.00     0.001 A 
HETATM   31  C25 UNL     1      -7.445   2.383  12.667  1.00  0.00     0.000 A 
HETATM   32  C26 UNL     1      -6.477   1.922  11.775  1.00  0.00     0.001 A 
HETATM   33  C27 UNL     1      -5.275   2.617  11.628  1.00  0.00     0.007 A 
ENDBRANCH  27  28
ENDBRANCH  26  27
ENDBRANCH  24  26
ENDBRANCH  21  22
ENDBRANCH  19  21
ENDBRANCH   1  18
TORSDOF 12
ENDMDL
MODEL 2
REMARK minimizedAffinity -8.3544302
REMARK  12 active torsions:
REMARK  status: ('A' for Active; 'I' for Inactive)
REMARK    1  A    between atoms: C2_2  and  C3_3 
REMARK    2  A    between atoms: C2_2  and  C13_14 
REMARK    3  A    between atoms: C3_3  and  C4_4 
REMARK    4  A    between atoms: C4_4  and  C5_5 
REMARK    5  A    between atoms: C13_14  and  C14_15 
REMARK    6  A    between atoms: C14_15  and  O2_16 
REMARK    7  A    between atoms: C14_15  and  C15_17 
REMARK    8  A    between atoms: C16_18  and  C18_20 
REMARK    9  A    between atoms: C18_20  and  C19_21 
REMARK       I    between atoms: C19_21  and  N1_23 
REMARK   10  A    between atoms: N1_23  and  C20_24 
REMARK   11  A    between atoms: C20_24  and  C21_25 
REMARK   12  A    between atoms: C21_25  and  C22_26 
ROOT
HETATM    1  C14 UNL     1      -0.920   3.961  11.032  1.00  0.00     0.145 C 
ENDROOT
BRANCH   1   2
HETATM    2  C13 UNL     1      -2.445   3.822  10.802  1.00  0.00     0.069 C 
BRANCH   2   3
HETATM    3  C2  UNL     1      -3.253   3.123  11.887  1.00  0.00    -0.086 C 
HETATM    4  C1  UNL     1      -3.545   1.814  11.781  1.00  0.00     0.014 C 
BRANCH   3   5
HETATM    5  C3  UNL     1      -3.716   3.923  13.089  1.00  0.00     0.034 C 
BRANCH   5   6
HETATM    6  C4  UNL     1      -4.861   4.911  12.813  1.00  0.00     0.010 C 
BRANCH   6   7
HETATM    7  C5  UNL     1      -6.115   4.763  13.720  1.00  0.00     0.001 C 
HETATM    8  C6  UNL     1      -7.240   4.067  12.911  1.00  0.00     0.006 C 
HETATM    9  C7  UNL     1      -8.118   5.062  12.174  1.00  0.00     0.008 C 
HETATM   10  C8  UNL     1      -8.897   5.920  13.158  1.00  0.00     0.079 C 
HETATM   11  C9  UNL     1      -8.150   6.131  14.459  1.00  0.00     0.135 C 
HETATM   12  O1  UNL     1      -8.779   6.412  15.482  1.00  0.00    -0.297 OA
HETATM   13  C10 UNL     1      -6.610   6.085  14.424  1.00  0.00     0.017 C 
HETATM   14  C11 UNL     1      -6.172   7.399  13.746  1.00  0.00     0.023 C 
HETATM   15  C12 UNL     1      -6.095   6.114  15.879  1.00  0.00     0.023 C 
ENDBRANCH   6   7
ENDBRANCH   5   6
ENDBRANCH   3   5
ENDBRANCH   2   3
ENDBRANCH   1   2
BRANCH   1  16
HETATM   16  O2  UNL     1      -0.319   2.713  11.373  1.00  0.00    -0.391 OA
HETATM   17  H23 UNL     1      -0.762   2.029  10.843  1.00  0.00     0.210 HD
ENDBRANCH   1  16
BRANCH   1  18
HETATM   18  C15 UNL     1      -0.544   4.943  12.106  1.00  0.00     0.007 C 
HETATM   19  C16 UNL     1      -0.181   6.233  11.942  1.00  0.00    -0.076 C 
HETATM   20  C17 UNL     1      -0.164   6.944  10.615  1.00  0.00     0.043 C 
BRANCH  19  21
HETATM   21  C18 UNL     1       0.214   7.086  13.131  1.00  0.00     0.136 C 
BRANCH  21  22
HETATM   22  C19 UNL     1       1.729   7.093  13.316  1.00  0.00     0.221 C 
HETATM   23  O3  UNL     1       2.260   7.204  14.418  1.00  0.00    -0.273 OA
HETATM   24  N1  UNL     1       2.438   6.981  12.139  1.00  0.00    -0.361 N 
HETATM   25  H30 UNL     1       1.948   7.158  11.270  1.00  0.00     0.162 HD
BRANCH  24  26
HETATM   26  C20 UNL     1       3.883   7.130  12.111  1.00  0.00     0.127 C 
BRANCH  26  27
HETATM   27  C21 UNL     1       4.508   6.584  10.821  1.00  0.00     0.058 C 
BRANCH  27  28
HETATM   28  C22 UNL     1       3.706   6.953   9.594  1.00  0.00    -0.057 A 
HETATM   29  C23 UNL     1       3.041   5.964   8.857  1.00  0.00     0.007 A 
HETATM   30  C24 UNL     1       2.335   6.297   7.701  1.00  0.00     0.001 A 
HETATM   31  C25 UNL     1       2.281   7.621   7.274  1.00  0.00     0.000 A 
HETATM   32  C26 UNL     1       2.936   8.615   8.001  1.00  0.00     0.001 A 
HETATM   33  C27 UNL     1       3.649   8.282   9.155  1.00  0.00     0.007 A 
ENDBRANCH  27  28
ENDBRANCH  26  27
ENDBRANCH  24  26
ENDBRANCH  21  22
ENDBRANCH  19  21
ENDBRANCH   1  18
TORSDOF 12
ENDMDL
MODEL 3
REMARK minimizedAffinity -8.3076334
REMARK  12 active torsions:
REMARK  status: ('A' for Active; 'I' for Inactive)
REMARK    1  A    between atoms: C2_2  and  C3_3 
REMARK    2  A    between atoms: C2_2  and  C13_14 
REMARK    3  A    between atoms: C3_3  and  C4_4 
REMARK    4  A    between atoms: C4_4  and  C5_5 
REMARK    5  A    between atoms: C13_14  and  C14_15 
REMARK    6  A    between atoms: C14_15  and  O2_16 
REMARK    7  A    between atoms: C14_15  and  C15_17 
REMARK    8  A    between atoms: C16_18  and  C18_20 
REMARK    9  A    between atoms: C18_20  and  C19_21 
REMARK       I    between atoms: C19_21  and  N1_23 
REMARK   10  A    between atoms: N1_23  and  C20_24 
REMARK   11  A    between atoms: C20_24  and  C21_25 
REMARK   12  A    between atoms: C21_25  and  C22_26 
ROOT
HETATM    1  C14 UNL     1      -2.045   4.736  12.711  1.00  0.00     0.145 C 
ENDROOT
BRANCH   1   2
HETATM    2  C13 UNL     1      -2.946   4.227  11.558  1.00  0.00     0.069 C 
BRANCH   2   3
HETATM    3  C2  UNL     1      -3.944   3.125  11.889  1.00  0.00    -0.086 C 
HETATM    4  C1  UNL     1      -3.551   1.839  11.920  1.00  0.00     0.014 C 
BRANCH   3   5
HETATM    5  C3  UNL     1      -5.382   3.501  12.187  1.00  0.00     0.034 C 
BRANCH   5   6
HETATM    6  C4  UNL     1      -5.560   4.701  13.132  1.00  0.00     0.010 C 
BRANCH   6   7
HETATM    7  C5  UNL     1      -6.870   4.716  13.967  1.00  0.00     0.001 C 
HETATM    8  C6  UNL     1      -8.049   4.278  13.060  1.00  0.00     0.006 C 
HETATM    9  C7  UNL     1      -8.701   5.455  12.358  1.00  0.00     0.008 C 
HETATM   10  C8  UNL     1      -9.379   6.370  13.365  1.00  0.00     0.079 C 
HETATM   11  C9  UNL     1      -8.682   6.366  14.711  1.00  0.00     0.135 C 
HETATM   12  O1  UNL     1      -9.312   6.686  15.721  1.00  0.00    -0.297 OA
HETATM   13  C10 UNL     1      -7.173   6.056  14.742  1.00  0.00     0.017 C 
HETATM   14  C11 UNL     1      -6.479   7.314  14.182  1.00  0.00     0.023 C 
HETATM   15  C12 UNL     1      -6.745   5.902  16.217  1.00  0.00     0.023 C 
ENDBRANCH   6   7
ENDBRANCH   5   6
ENDBRANCH   3   5
ENDBRANCH   2   3
ENDBRANCH   1   2
BRANCH   1  16
HETATM   16  O2  UNL     1      -2.701   4.652  13.974  1.00  0.00    -0.391 OA
HETATM   17  H23 UNL     1      -3.222   3.832  13.970  1.00  0.00     0.210 HD
ENDBRANCH   1  16
BRANCH   1  18
HETATM   18  C15 UNL     1      -1.576   6.155  12.546  1.00  0.00     0.007 C 
HETATM   19  C16 UNL     1      -0.349   6.646  12.815  1.00  0.00    -0.076 C 
HETATM   20  C17 UNL     1       0.816   5.806  13.270  1.00  0.00     0.043 C 
BRANCH  19  21
HETATM   21  C18 UNL     1      -0.045   8.120  12.637  1.00  0.00     0.136 C 
BRANCH  21  22
HETATM   22  C19 UNL     1      -0.336   8.567  11.207  1.00  0.00     0.221 C 
HETATM   23  O3  UNL     1      -1.336   9.215  10.907  1.00  0.00    -0.273 OA
HETATM   24  N1  UNL     1       0.611   8.164  10.290  1.00  0.00    -0.361 N 
HETATM   25  H30 UNL     1       1.250   7.426  10.560  1.00  0.00     0.162 HD
BRANCH  24  26
HETATM   26  C20 UNL     1       0.414   8.364   8.864  1.00  0.00     0.127 C 
BRANCH  26  27
HETATM   27  C21 UNL     1       1.733   8.363   8.081  1.00  0.00     0.058 C 
BRANCH  27  28
HETATM   28  C22 UNL     1       2.315   6.975   7.939  1.00  0.00    -0.057 A 
HETATM   29  C23 UNL     1       2.898   6.335   9.041  1.00  0.00     0.007 A 
HETATM   30  C24 UNL     1       3.473   5.071   8.902  1.00  0.00     0.001 A 
HETATM   31  C25 UNL     1       3.466   4.434   7.665  1.00  0.00     0.000 A 
HETATM   32  C26 UNL     1       2.886   5.059   6.562  1.00  0.00     0.001 A 
HETATM   33  C27 UNL     1       2.316   6.327   6.697  1.00  0.00     0.007 A 
ENDBRANCH  27  28
ENDBRANCH  26  27
ENDBRANCH  24  26
ENDBRANCH  21  22
ENDBRANCH  19  21
ENDBRANCH   1  18
TORSDOF 12
ENDMDL
MODEL 4
REMARK minimizedAffinity -8.2526207
REMARK  12 active torsions:
REMARK  status: ('A' for Active; 'I' for Inactive)
REMARK    1  A    between atoms: C2_2  and  C3_3 
REMARK    2  A    between atoms: C2_2  and  C13_14 
REMARK    3  A    between atoms: C3_3  and  C4_4 
REMARK    4  A    between atoms: C4_4  and  C5_5 
REMARK    5  A    between atoms: C13_14  and  C14_15 
REMARK    6  A    between atoms: C14_15  and  O2_16 
REMARK    7  A    between atoms: C14_15  and  C15_17 
REMARK    8  A    between atoms: C16_18  and  C18_20 
REMARK    9  A    between atoms: C18_20  and  C19_21 
REMARK       I    between atoms: C19_21  and  N1_23 
REMARK   10  A    between atoms: N1_23  and  C20_24 
REMARK   11  A    between atoms: C20_24  and  C21_25 
REMARK   12  A    between atoms: C21_25  and  C22_26 
ROOT
HETATM    1  C14 UNL     1      -7.295   4.562  12.863  1.00  0.00     0.145 C 
ENDROOT
BRANCH   1   2
HETATM    2  C13 UNL     1      -7.731   5.992  13.267  1.00  0.00     0.069 C 
BRANCH   2   3
HETATM    3  C2  UNL     1      -7.542   6.393  14.723  1.00  0.00    -0.086 C 
HETATM    4  C1  UNL     1      -7.687   5.483  15.704  1.00  0.00     0.014 C 
BRANCH   3   5
HETATM    5  C3  UNL     1      -7.184   7.830  15.049  1.00  0.00     0.034 C 
BRANCH   5   6
HETATM    6  C4  UNL     1      -5.707   8.068  15.405  1.00  0.00     0.010 C 
BRANCH   6   7
HETATM    7  C5  UNL     1      -4.906   8.954  14.411  1.00  0.00     0.001 C 
HETATM    8  C6  UNL     1      -4.727   8.178  13.080  1.00  0.00     0.006 C 
HETATM    9  C7  UNL     1      -3.461   7.341  13.068  1.00  0.00     0.008 C 
HETATM   10  C8  UNL     1      -2.230   8.233  13.101  1.00  0.00     0.079 C 
HETATM   11  C9  UNL     1      -2.475   9.530  13.846  1.00  0.00     0.135 C 
HETATM   12  O1  UNL     1      -1.768  10.510  13.605  1.00  0.00    -0.297 OA
HETATM   13  C10 UNL     1      -3.544   9.535  14.955  1.00  0.00     0.017 C 
HETATM   14  C11 UNL     1      -2.921   8.763  16.135  1.00  0.00     0.023 C 
HETATM   15  C12 UNL     1      -3.756  10.995  15.410  1.00  0.00     0.023 C 
ENDBRANCH   6   7
ENDBRANCH   5   6
ENDBRANCH   3   5
ENDBRANCH   2   3
ENDBRANCH   1   2
BRANCH   1  16
HETATM   16  O2  UNL     1      -8.034   3.564  13.565  1.00  0.00    -0.391 OA
HETATM   17  H23 UNL     1      -8.948   3.887  13.642  1.00  0.00     0.210 HD
ENDBRANCH   1  16
BRANCH   1  18
HETATM   18  C15 UNL     1      -5.837   4.275  13.087  1.00  0.00     0.007 C 
HETATM   19  C16 UNL     1      -5.008   3.579  12.281  1.00  0.00    -0.076 C 
HETATM   20  C17 UNL     1      -5.406   3.019  10.941  1.00  0.00     0.043 C 
BRANCH  19  21
HETATM   21  C18 UNL     1      -3.564   3.338  12.673  1.00  0.00     0.136 C 
BRANCH  21  22
HETATM   22  C19 UNL     1      -2.615   3.836  11.586  1.00  0.00     0.221 C 
HETATM   23  O3  UNL     1      -2.814   3.634  10.391  1.00  0.00    -0.273 OA
HETATM   24  N1  UNL     1      -1.515   4.511  12.069  1.00  0.00    -0.361 N 
HETATM   25  H30 UNL     1      -1.287   4.408  13.051  1.00  0.00     0.162 HD
BRANCH  24  26
HETATM   26  C20 UNL     1      -0.430   4.915  11.190  1.00  0.00     0.127 C 
BRANCH  26  27
HETATM   27  C21 UNL     1      -0.227   6.435  11.164  1.00  0.00     0.058 C 
BRANCH  27  28
HETATM   28  C22 UNL     1       0.696   6.871  10.049  1.00  0.00    -0.057 A 
HETATM   29  C23 UNL     1       1.910   6.204   9.831  1.00  0.00     0.007 A 
HETATM   30  C24 UNL     1       2.782   6.631   8.830  1.00  0.00     0.001 A 
HETATM   31  C25 UNL     1       2.448   7.723   8.033  1.00  0.00     0.000 A 
HETATM   32  C26 UNL     1       1.242   8.392   8.237  1.00  0.00     0.001 A 
HETATM   33  C27 UNL     1       0.371   7.970   9.244  1.00  0.00     0.007 A 
ENDBRANCH  27  28
ENDBRANCH  26  27
ENDBRANCH  24  26
ENDBRANCH  21  22
ENDBRANCH  19  21
ENDBRANCH   1  18
TORSDOF 12
ENDMDL
MODEL 5
REMARK minimizedAffinity -8.229146
REMARK  12 active torsions:
REMARK  status: ('A' for Active; 'I' for Inactive)
REMARK    1  A    between atoms: C2_2  and  C3_3 
REMARK    2  A    between atoms: C2_2  and  C13_14 
REMARK    3  A    between atoms: C3_3  and  C4_4 
REMARK    4  A    between atoms: C4_4  and  C5_5 
REMARK    5  A    between atoms: C13_14  and  C14_15 
REMARK    6  A    between atoms: C14_15  and  O2_16 
REMARK    7  A    between atoms: C14_15  and  C15_17 
REMARK    8  A    between atoms: C16_18  and  C18_20 
REMARK    9  A    between atoms: C18_20  and  C19_21 
REMARK       I    between atoms: C19_21  and  N1_23 
REMARK   10  A    between atoms: N1_23  and  C20_24 
REMARK   11  A    between atoms: C20_24  and  C21_25 
REMARK   12  A    between atoms: C21_25  and  C22_26 
ROOT
HETATM    1  C14 UNL     1      -3.910   3.488  11.336  1.00  0.00     0.145 C 
ENDROOT
BRANCH   1   2
HETATM    2  C13 UNL     1      -2.958   4.609  11.821  1.00  0.00     0.069 C 
BRANCH   2   3
HETATM    3  C2  UNL     1      -1.462   4.356  11.695  1.00  0.00    -0.086 C 
HETATM    4  C1  UNL     1      -1.000   3.113  11.469  1.00  0.00     0.014 C 
BRANCH   3   5
HETATM    5  C3  UNL     1      -0.506   5.525  11.822  1.00  0.00     0.034 C 
BRANCH   5   6
HETATM    6  C4  UNL     1       0.517   5.657  10.681  1.00  0.00     0.010 C 
BRANCH   6   7
HETATM    7  C5  UNL     1       2.011   5.658  11.109  1.00  0.00     0.001 C 
HETATM    8  C6  UNL     1       2.200   6.665  12.273  1.00  0.00     0.006 C 
HETATM    9  C7  UNL     1       2.533   8.060  11.777  1.00  0.00     0.008 C 
HETATM   10  C8  UNL     1       3.893   8.077  11.099  1.00  0.00     0.079 C 
HETATM   11  C9  UNL     1       4.225   6.756  10.436  1.00  0.00     0.135 C 
HETATM   12  O1  UNL     1       5.404   6.458  10.232  1.00  0.00    -0.297 OA
HETATM   13  C10 UNL     1       3.056   5.879   9.948  1.00  0.00     0.017 C 
HETATM   14  C11 UNL     1       2.507   6.581   8.690  1.00  0.00     0.023 C 
HETATM   15  C12 UNL     1       3.630   4.514   9.510  1.00  0.00     0.023 C 
ENDBRANCH   6   7
ENDBRANCH   5   6
ENDBRANCH   3   5
ENDBRANCH   2   3
ENDBRANCH   1   2
BRANCH   1  16
HETATM   16  O2  UNL     1      -4.126   3.546   9.927  1.00  0.00    -0.391 OA
HETATM   17  H23 UNL     1      -3.280   3.799   9.521  1.00  0.00     0.210 HD
ENDBRANCH   1  16
BRANCH   1  18
HETATM   18  C15 UNL     1      -5.262   3.499  11.994  1.00  0.00     0.007 C 
HETATM   19  C16 UNL     1      -6.193   2.523  11.964  1.00  0.00    -0.076 C 
HETATM   20  C17 UNL     1      -5.993   1.184  11.303  1.00  0.00     0.043 C 
BRANCH  19  21
HETATM   21  C18 UNL     1      -7.534   2.707  12.645  1.00  0.00     0.136 C 
BRANCH  21  22
HETATM   22  C19 UNL     1      -7.720   4.152  13.100  1.00  0.00     0.221 C 
HETATM   23  O3  UNL     1      -8.246   5.007  12.391  1.00  0.00    -0.273 OA
HETATM   24  N1  UNL     1      -7.230   4.411  14.362  1.00  0.00    -0.361 N 
HETATM   25  H30 UNL     1      -6.587   3.741  14.769  1.00  0.00     0.162 HD
BRANCH  24  26
HETATM   26  C20 UNL     1      -7.178   5.763  14.890  1.00  0.00     0.127 C 
BRANCH  26  27
HETATM   27  C21 UNL     1      -8.375   6.091  15.791  1.00  0.00     0.058 C 
BRANCH  27  28
HETATM   28  C22 UNL     1      -9.184   7.257  15.270  1.00  0.00    -0.057 A 
HETATM   29  C23 UNL     1      -8.811   8.572  15.579  1.00  0.00     0.007 A 
HETATM   30  C24 UNL     1      -9.579   9.649  15.134  1.00  0.00     0.001 A 
HETATM   31  C25 UNL     1     -10.722   9.422  14.372  1.00  0.00     0.000 A 
HETATM   32  C26 UNL     1     -11.100   8.118  14.054  1.00  0.00     0.001 A 
HETATM   33  C27 UNL     1     -10.337   7.039  14.505  1.00  0.00     0.007 A 
ENDBRANCH  27  28
ENDBRANCH  26  27
ENDBRANCH  24  26
ENDBRANCH  21  22
ENDBRANCH  19  21
ENDBRANCH   1  18
TORSDOF 12
ENDMDL
MODEL 6
REMARK minimizedAffinity -8.22742271
REMARK  12 active torsions:
REMARK  status: ('A' for Active; 'I' for Inactive)
REMARK    1  A    between atoms: C2_2  and  C3_3 
REMARK    2  A    between atoms: C2_2  and  C13_14 
REMARK    3  A    between atoms: C3_3  and  C4_4 
REMARK    4  A    between atoms: C4_4  and  C5_5 
REMARK    5  A    between atoms: C13_14  and  C14_15 
REMARK    6  A    between atoms: C14_15  and  O2_16 
REMARK    7  A    between atoms: C14_15  and  C15_17 
REMARK    8  A    between atoms: C16_18  and  C18_20 
REMARK    9  A    between atoms: C18_20  and  C19_21 
REMARK       I    between atoms: C19_21  and  N1_23 
REMARK   10  A    between atoms: N1_23  and  C20_24 
REMARK   11  A    between atoms: C20_24  and  C21_25 
REMARK   12  A    between atoms: C21_25  and  C22_26 
ROOT
HETATM    1  C14 UNL     1      -2.106   2.797  11.234  1.00  0.00     0.145 C 
ENDROOT
BRANCH   1   2
HETATM    2  C13 UNL     1      -2.052   4.344  11.271  1.00  0.00     0.069 C 
BRANCH   2   3
HETATM    3  C2  UNL     1      -1.148   4.985  12.315  1.00  0.00    -0.086 C 
HETATM    4  C1  UNL     1      -1.635   5.317  13.525  1.00  0.00     0.014 C 
BRANCH   3   5
HETATM    5  C3  UNL     1       0.307   5.237  11.972  1.00  0.00     0.034 C 
BRANCH   5   6
HETATM    6  C4  UNL     1       0.553   5.847  10.582  1.00  0.00     0.010 C 
BRANCH   6   7
HETATM    7  C5  UNL     1       1.413   7.141  10.554  1.00  0.00     0.001 C 
HETATM    8  C6  UNL     1       0.802   8.129   9.527  1.00  0.00     0.006 C 
HETATM    9  C7  UNL     1       1.376   7.937   8.135  1.00  0.00     0.008 C 
HETATM   10  C8  UNL     1       2.852   8.302   8.109  1.00  0.00     0.079 C 
HETATM   11  C9  UNL     1       3.536   8.040   9.436  1.00  0.00     0.135 C 
HETATM   12  O1  UNL     1       4.566   8.654   9.720  1.00  0.00    -0.297 OA
HETATM   13  C10 UNL     1       2.962   6.929  10.337  1.00  0.00     0.017 C 
HETATM   14  C11 UNL     1       3.358   5.601   9.662  1.00  0.00     0.023 C 
HETATM   15  C12 UNL     1       3.684   6.996  11.700  1.00  0.00     0.023 C 
ENDBRANCH   6   7
ENDBRANCH   5   6
ENDBRANCH   3   5
ENDBRANCH   2   3
ENDBRANCH   1   2
BRANCH   1  16
HETATM   16  O2  UNL     1      -1.802   2.286   9.937  1.00  0.00    -0.391 OA
HETATM   17  H23 UNL     1      -1.099   2.848   9.568  1.00  0.00     0.210 HD
ENDBRANCH   1  16
BRANCH   1  18
HETATM   18  C15 UNL     1      -3.431   2.215  11.641  1.00  0.00     0.007 C 
HETATM   19  C16 UNL     1      -4.641   2.486  11.108  1.00  0.00    -0.076 C 
HETATM   20  C17 UNL     1      -4.859   3.394   9.926  1.00  0.00     0.043 C 
BRANCH  19  21
HETATM   21  C18 UNL     1      -5.896   1.846  11.665  1.00  0.00     0.136 C 
BRANCH  21  22
HETATM   22  C19 UNL     1      -6.636   2.811  12.587  1.00  0.00     0.221 C 
HETATM   23  O3  UNL     1      -7.732   2.549  13.076  1.00  0.00    -0.273 OA
HETATM   24  N1  UNL     1      -5.974   4.000  12.803  1.00  0.00    -0.361 N 
HETATM   25  H30 UNL     1      -5.221   4.246  12.171  1.00  0.00     0.162 HD
BRANCH  24  26
HETATM   26  C20 UNL     1      -6.601   5.094  13.524  1.00  0.00     0.127 C 
BRANCH  26  27
HETATM   27  C21 UNL     1      -8.057   5.322  13.100  1.00  0.00     0.058 C 
BRANCH  27  28
HETATM   28  C22 UNL     1      -8.785   6.266  14.029  1.00  0.00    -0.057 A 
HETATM   29  C23 UNL     1      -9.947   6.925  13.603  1.00  0.00     0.007 A 
HETATM   30  C24 UNL     1     -10.597   7.828  14.444  1.00  0.00     0.001 A 
HETATM   31  C25 UNL     1     -10.097   8.077  15.719  1.00  0.00     0.000 A 
HETATM   32  C26 UNL     1      -8.945   7.425  16.156  1.00  0.00     0.001 A 
HETATM   33  C27 UNL     1      -8.289   6.526  15.313  1.00  0.00     0.007 A 
ENDBRANCH  27  28
ENDBRANCH  26  27
ENDBRANCH  24  26
ENDBRANCH  21  22
ENDBRANCH  19  21
ENDBRANCH   1  18
TORSDOF 12
ENDMDL
MODEL 7
REMARK minimizedAffinity -8.21267128
REMARK  12 active torsions:
REMARK  status: ('A' for Active; 'I' for Inactive)
REMARK    1  A    between atoms: C2_2  and  C3_3 
REMARK    2  A    between atoms: C2_2  and  C13_14 
REMARK    3  A    between atoms: C3_3  and  C4_4 
REMARK    4  A    between atoms: C4_4  and  C5_5 
REMARK    5  A    between atoms: C13_14  and  C14_15 
REMARK    6  A    between atoms: C14_15  and  O2_16 
REMARK    7  A    between atoms: C14_15  and  C15_17 
REMARK    8  A    between atoms: C16_18  and  C18_20 
REMARK    9  A    between atoms: C18_20  and  C19_21 
REMARK       I    between atoms: C19_21  and  N1_23 
REMARK   10  A    between atoms: N1_23  and  C20_24 
REMARK   11  A    between atoms: C20_24  and  C21_25 
REMARK   12  A    between atoms: C21_25  and  C22_26 
ROOT
HETATM    1  C14 UNL     1      -1.862   8.766  13.014  1.00  0.00     0.145 C 
ENDROOT
BRANCH   1   2
HETATM    2  C13 UNL     1      -0.871   7.586  13.168  1.00  0.00     0.069 C 
BRANCH   2   3
HETATM    3  C2  UNL     1      -1.261   6.261  12.528  1.00  0.00    -0.086 C 
HETATM    4  C1  UNL     1      -2.173   5.465  13.115  1.00  0.00     0.014 C 
BRANCH   3   5
HETATM    5  C3  UNL     1      -0.610   5.856  11.220  1.00  0.00     0.034 C 
BRANCH   5   6
HETATM    6  C4  UNL     1       0.917   5.685  11.277  1.00  0.00     0.010 C 
BRANCH   6   7
HETATM    7  C5  UNL     1       1.692   6.094   9.993  1.00  0.00     0.001 C 
HETATM    8  C6  UNL     1       3.076   5.394   9.998  1.00  0.00     0.006 C 
HETATM    9  C7  UNL     1       4.140   6.232  10.685  1.00  0.00     0.008 C 
HETATM   10  C8  UNL     1       4.413   7.502   9.897  1.00  0.00     0.079 C 
HETATM   11  C9  UNL     1       3.189   7.993   9.149  1.00  0.00     0.135 C 
HETATM   12  O1  UNL     1       3.331   8.716   8.161  1.00  0.00    -0.297 OA
HETATM   13  C10 UNL     1       1.803   7.645   9.725  1.00  0.00     0.017 C 
HETATM   14  C11 UNL     1       1.631   8.544  10.966  1.00  0.00     0.023 C 
HETATM   15  C12 UNL     1       0.735   8.063   8.692  1.00  0.00     0.023 C 
ENDBRANCH   6   7
ENDBRANCH   5   6
ENDBRANCH   3   5
ENDBRANCH   2   3
ENDBRANCH   1   2
BRANCH   1  16
HETATM   16  O2  UNL     1      -1.185  10.006  12.823  1.00  0.00    -0.391 OA
HETATM   17  H23 UNL     1      -0.413   9.825  12.260  1.00  0.00     0.210 HD
ENDBRANCH   1  16
BRANCH   1  18
HETATM   18  C15 UNL     1      -2.795   8.944  14.179  1.00  0.00     0.007 C 
HETATM   19  C16 UNL     1      -4.135   8.788  14.184  1.00  0.00    -0.076 C 
HETATM   20  C17 UNL     1      -4.936   8.322  12.996  1.00  0.00     0.043 C 
BRANCH  19  21
HETATM   21  C18 UNL     1      -4.944   9.050  15.438  1.00  0.00     0.136 C 
BRANCH  21  22
HETATM   22  C19 UNL     1      -6.143   8.109  15.519  1.00  0.00     0.221 C 
HETATM   23  O3  UNL     1      -7.302   8.502  15.411  1.00  0.00    -0.273 OA
HETATM   24  N1  UNL     1      -5.807   6.791  15.743  1.00  0.00    -0.361 N 
HETATM   25  H30 UNL     1      -4.872   6.589  16.080  1.00  0.00     0.162 HD
BRANCH  24  26
HETATM   26  C20 UNL     1      -6.823   5.786  16.006  1.00  0.00     0.127 C 
BRANCH  26  27
HETATM   27  C21 UNL     1      -7.741   5.546  14.802  1.00  0.00     0.058 C 
BRANCH  27  28
HETATM   28  C22 UNL     1      -7.146   4.574  13.809  1.00  0.00    -0.057 A 
HETATM   29  C23 UNL     1      -7.784   3.355  13.540  1.00  0.00     0.007 A 
HETATM   30  C24 UNL     1      -7.214   2.439  12.656  1.00  0.00     0.001 A 
HETATM   31  C25 UNL     1      -6.007   2.733  12.028  1.00  0.00     0.000 A 
HETATM   32  C26 UNL     1      -5.366   3.944  12.284  1.00  0.00     0.001 A 
HETATM   33  C27 UNL     1      -5.931   4.860  13.174  1.00  0.00     0.007 A 
ENDBRANCH  27  28
ENDBRANCH  26  27
ENDBRANCH  24  26
ENDBRANCH  21  22
ENDBRANCH  19  21
ENDBRANCH   1  18
TORSDOF 12
ENDMDL
MODEL 8
REMARK minimizedAffinity -8.17559719
REMARK  12 active torsions:
REMARK  status: ('A' for Active; 'I' for Inactive)
REMARK    1  A    between atoms: C2_2  and  C3_3 
REMARK    2  A    between atoms: C2_2  and  C13_14 
REMARK    3  A    between atoms: C3_3  and  C4_4 
REMARK    4  A    between atoms: C4_4  and  C5_5 
REMARK    5  A    between atoms: C13_14  and  C14_15 
REMARK    6  A    between atoms: C14_15  and  O2_16 
REMARK    7  A    between atoms: C14_15  and  C15_17 
REMARK    8  A    between atoms: C16_18  and  C18_20 
REMARK    9  A    between atoms: C18_20  and  C19_21 
REMARK       I    between atoms: C19_21  and  N1_23 
REMARK   10  A    between atoms: N1_23  and  C20_24 
REMARK   11  A    between atoms: C20_24  and  C21_25 
REMARK   12  A    between atoms: C21_25  and  C22_26 
ROOT
HETATM    1  C14 UNL     1      -3.729   3.422  11.468  1.00  0.00     0.145 C 
ENDROOT
BRANCH   1   2
HETATM    2  C13 UNL     1      -2.741   4.465  12.048  1.00  0.00     0.069 C 
BRANCH   2   3
HETATM    3  C2  UNL     1      -1.291   4.380  11.592  1.00  0.00    -0.086 C 
HETATM    4  C1  UNL     1      -0.652   3.196  11.574  1.00  0.00     0.014 C 
BRANCH   3   5
HETATM    5  C3  UNL     1      -0.583   5.647  11.154  1.00  0.00     0.034 C 
BRANCH   5   6
HETATM    6  C4  UNL     1       0.949   5.617  11.284  1.00  0.00     0.010 C 
BRANCH   6   7
HETATM    7  C5  UNL     1       1.744   6.046  10.020  1.00  0.00     0.001 C 
HETATM    8  C6  UNL     1       3.148   5.389  10.063  1.00  0.00     0.006 C 
HETATM    9  C7  UNL     1       4.168   6.261  10.774  1.00  0.00     0.008 C 
HETATM   10  C8  UNL     1       4.422   7.537   9.990  1.00  0.00     0.079 C 
HETATM   11  C9  UNL     1       3.204   7.989   9.209  1.00  0.00     0.135 C 
HETATM   12  O1  UNL     1       3.349   8.713   8.223  1.00  0.00    -0.297 OA
HETATM   13  C10 UNL     1       1.814   7.599   9.750  1.00  0.00     0.017 C 
HETATM   14  C11 UNL     1       1.583   8.495  10.983  1.00  0.00     0.023 C 
HETATM   15  C12 UNL     1       0.761   7.982   8.688  1.00  0.00     0.023 C 
ENDBRANCH   6   7
ENDBRANCH   5   6
ENDBRANCH   3   5
ENDBRANCH   2   3
ENDBRANCH   1   2
BRANCH   1  16
HETATM   16  O2  UNL     1      -3.848   3.535  10.051  1.00  0.00    -0.391 OA
HETATM   17  H23 UNL     1      -2.963   3.744   9.707  1.00  0.00     0.210 HD
ENDBRANCH   1  16
BRANCH   1  18
HETATM   18  C15 UNL     1      -5.117   3.504  12.038  1.00  0.00     0.007 C 
HETATM   19  C16 UNL     1      -6.096   2.580  11.940  1.00  0.00    -0.076 C 
HETATM   20  C17 UNL     1      -5.927   1.236  11.281  1.00  0.00     0.043 C 
BRANCH  19  21
HETATM   21  C18 UNL     1      -7.466   2.833  12.537  1.00  0.00     0.136 C 
BRANCH  21  22
HETATM   22  C19 UNL     1      -7.391   3.876  13.648  1.00  0.00     0.221 C 
HETATM   23  O3  UNL     1      -7.539   3.591  14.834  1.00  0.00    -0.273 OA
HETATM   24  N1  UNL     1      -7.161   5.159  13.200  1.00  0.00    -0.361 N 
HETATM   25  H30 UNL     1      -7.313   5.353  12.216  1.00  0.00     0.162 HD
BRANCH  24  26
HETATM   26  C20 UNL     1      -7.219   6.297  14.101  1.00  0.00     0.127 C 
BRANCH  26  27
HETATM   27  C21 UNL     1      -6.033   6.339  15.073  1.00  0.00     0.058 C 
BRANCH  27  28
HETATM   28  C22 UNL     1      -4.792   6.924  14.440  1.00  0.00    -0.057 A 
HETATM   29  C23 UNL     1      -3.523   6.617  14.951  1.00  0.00     0.007 A 
HETATM   30  C24 UNL     1      -2.379   7.189  14.394  1.00  0.00     0.001 A 
HETATM   31  C25 UNL     1      -2.489   8.065  13.318  1.00  0.00     0.000 A 
HETATM   32  C26 UNL     1      -3.746   8.375  12.798  1.00  0.00     0.001 A 
HETATM   33  C27 UNL     1      -4.893   7.810  13.359  1.00  0.00     0.007 A 
ENDBRANCH  27  28
ENDBRANCH  26  27
ENDBRANCH  24  26
ENDBRANCH  21  22
ENDBRANCH  19  21
ENDBRANCH   1  18
TORSDOF 12
ENDMDL
MODEL 9
REMARK minimizedAffinity -8.13866997
REMARK  12 active torsions:
REMARK  status: ('A' for Active; 'I' for Inactive)
REMARK    1  A    between atoms: C2_2  and  C3_3 
REMARK    2  A    between atoms: C2_2  and  C13_14 
REMARK    3  A    between atoms: C3_3  and  C4_4 
REMARK    4  A    between atoms: C4_4  and  C5_5 
REMARK    5  A    between atoms: C13_14  and  C14_15 
REMARK    6  A    between atoms: C14_15  and  O2_16 
REMARK    7  A    between atoms: C14_15  and  C15_17 
REMARK    8  A    between atoms: C16_18  and  C18_20 
REMARK    9  A    between atoms: C18_20  and  C19_21 
REMARK       I    between atoms: C19_21  and  N1_23 
REMARK   10  A    between atoms: N1_23  and  C20_24 
REMARK   11  A    between atoms: C20_24  and  C21_25 
REMARK   12  A    between atoms: C21_25  and  C22_26 
ROOT
HETATM    1  C14 UNL     1      -1.665   9.019  13.451  1.00  0.00     0.145 C 
ENDROOT
BRANCH   1   2
HETATM    2  C13 UNL     1      -3.184   9.054  13.749  1.00  0.00     0.069 C 
BRANCH   2   3
HETATM    3  C2  UNL     1      -3.834   7.759  14.215  1.00  0.00    -0.086 C 
HETATM    4  C1  UNL     1      -3.695   7.349  15.489  1.00  0.00     0.014 C 
BRANCH   3   5
HETATM    5  C3  UNL     1      -4.642   6.944  13.224  1.00  0.00     0.034 C 
BRANCH   5   6
HETATM    6  C4  UNL     1      -5.706   6.027  13.850  1.00  0.00     0.010 C 
BRANCH   6   7
HETATM    7  C5  UNL     1      -5.499   4.502  13.627  1.00  0.00     0.001 C 
HETATM    8  C6  UNL     1      -4.071   4.265  13.070  1.00  0.00     0.006 C 
HETATM    9  C7  UNL     1      -4.033   4.305  11.553  1.00  0.00     0.008 C 
HETATM   10  C8  UNL     1      -4.816   3.141  10.967  1.00  0.00     0.079 C 
HETATM   11  C9  UNL     1      -5.971   2.716  11.852  1.00  0.00     0.135 C 
HETATM   12  O1  UNL     1      -6.417   1.571  11.760  1.00  0.00    -0.297 OA
HETATM   13  C10 UNL     1      -6.607   3.779  12.768  1.00  0.00     0.017 C 
HETATM   14  C11 UNL     1      -7.423   4.697  11.834  1.00  0.00     0.023 C 
HETATM   15  C12 UNL     1      -7.602   3.068  13.711  1.00  0.00     0.023 C 
ENDBRANCH   6   7
ENDBRANCH   5   6
ENDBRANCH   3   5
ENDBRANCH   2   3
ENDBRANCH   1   2
BRANCH   1  16
HETATM   16  O2  UNL     1      -1.153  10.314  13.143  1.00  0.00    -0.391 OA
HETATM   17  H23 UNL     1      -1.612  10.946  13.721  1.00  0.00     0.210 HD
ENDBRANCH   1  16
BRANCH   1  18
HETATM   18  C15 UNL     1      -1.279   8.107  12.320  1.00  0.00     0.007 C 
HETATM   19  C16 UNL     1      -0.827   6.839  12.410  1.00  0.00    -0.076 C 
HETATM   20  C17 UNL     1      -0.702   6.077  13.703  1.00  0.00     0.043 C 
BRANCH  19  21
HETATM   21  C18 UNL     1      -0.435   6.063  11.169  1.00  0.00     0.136 C 
BRANCH  21  22
HETATM   22  C19 UNL     1       1.024   5.622  11.241  1.00  0.00     0.221 C 
HETATM   23  O3  UNL     1       1.359   4.440  11.247  1.00  0.00    -0.273 OA
HETATM   24  N1  UNL     1       1.922   6.665  11.315  1.00  0.00    -0.361 N 
HETATM   25  H30 UNL     1       1.568   7.580  11.568  1.00  0.00     0.162 HD
BRANCH  24  26
HETATM   26  C20 UNL     1       3.337   6.429  11.549  1.00  0.00     0.127 C 
BRANCH  26  27
HETATM   27  C21 UNL     1       4.120   6.206  10.250  1.00  0.00     0.058 C 
BRANCH  27  28
HETATM   28  C22 UNL     1       3.372   6.704   9.034  1.00  0.00    -0.057 A 
HETATM   29  C23 UNL     1       2.835   5.796   8.111  1.00  0.00     0.007 A 
HETATM   30  C24 UNL     1       2.180   6.253   6.968  1.00  0.00     0.001 A 
HETATM   31  C25 UNL     1       2.049   7.620   6.739  1.00  0.00     0.000 A 
HETATM   32  C26 UNL     1       2.575   8.533   7.653  1.00  0.00     0.001 A 
HETATM   33  C27 UNL     1       3.237   8.077   8.794  1.00  0.00     0.007 A 
ENDBRANCH  27  28
ENDBRANCH  26  27
ENDBRANCH  24  26
ENDBRANCH  21  22
ENDBRANCH  19  21
ENDBRANCH   1  18
TORSDOF 12
ENDMDL
