MODEL 1
REMARK minimizedAffinity -9.18124866
REMARK CNNscore 0.661523163
REMARK CNNaffinity 7.37660933
REMARK  11 active torsions:
REMARK  status: ('A' for Active; 'I' for Inactive)
REMARK    1  A    between atoms: C2_2  and  C4_4 
REMARK    2  A    between atoms: C5_5  and  C6_6 
REMARK    3  A    between atoms: C6_6  and  C7_7 
REMARK    4  A    between atoms: C7_7  and  C9_9 
REMARK    5  A    between atoms: C27_28  and  O2_29 
REMARK    6  A    between atoms: O2_29  and  C28_30 
REMARK    7  A    between atoms: C29_32  and  C30_33 
REMARK    8  A    between atoms: C30_33  and  O4_34 
REMARK    9  A    between atoms: C31_35  and  O5_36 
REMARK   10  A    between atoms: C32_37  and  O6_38 
REMARK   11  A    between atoms: C33_39  and  O7_40 
ROOT
HETATM    1  C9  UNL     1       0.154  51.734 -21.199  1.00  0.00    -0.002 C 
HETATM    2  C10 UNL     1      -0.070  52.559 -19.889  1.00  0.00     0.006 C 
HETATM    3  C11 UNL     1      -1.327  51.999 -19.191  1.00  0.00     0.011 C 
HETATM    4  C12 UNL     1      -1.606  50.670 -19.917  1.00  0.00    -0.029 C 
HETATM    5  C13 UNL     1      -0.624  49.632 -19.279  1.00  0.00     0.016 C 
HETATM    6  C14 UNL     1      -3.082  50.161 -19.839  1.00  0.00     0.028 C 
HETATM    7  C15 UNL     1      -3.533  49.860 -18.423  1.00  0.00    -0.021 C 
HETATM    8  C16 UNL     1      -4.110  48.691 -18.096  1.00  0.00     0.008 C 
HETATM    9  C17 UNL     1      -4.318  47.588 -19.128  1.00  0.00     0.092 C 
HETATM   10  O1  UNL     1      -5.432  48.057 -19.924  1.00  0.00    -0.374 OA
HETATM   11  C18 UNL     1      -4.912  48.835 -21.017  1.00  0.00     0.179 C 
HETATM   12  C19 UNL     1      -3.378  48.950 -20.835  1.00  0.00    -0.004 C 
HETATM   13  C20 UNL     1      -2.730  49.174 -22.228  1.00  0.00     0.014 C 
HETATM   14  C21 UNL     1      -1.318  49.784 -22.252  1.00  0.00     0.011 C 
HETATM   15  C22 UNL     1      -1.243  51.065 -21.401  1.00  0.00    -0.032 C 
HETATM   16  C23 UNL     1      -2.202  52.128 -22.030  1.00  0.00     0.016 C 
HETATM   17  C24 UNL     1      -3.113  47.598 -20.107  1.00  0.00     0.036 C 
HETATM   18  C25 UNL     1      -3.021  46.318 -20.954  1.00  0.00     0.011 C 
HETATM   19  C26 UNL     1      -4.318  45.538 -21.051  1.00  0.00     0.033 C 
HETATM   20  C27 UNL     1      -4.841  45.096 -19.677  1.00  0.00     0.136 C 
HETATM   21  C34 UNL     1      -4.656  46.174 -18.533  1.00  0.00     0.014 C 
HETATM   22  C35 UNL     1      -5.933  46.228 -17.651  1.00  0.00     0.021 C 
HETATM   23  C36 UNL     1      -3.500  45.698 -17.611  1.00  0.00     0.021 C 
ENDROOT
BRANCH  20  24
HETATM   24  O2  UNL     1      -6.213  44.673 -19.761  1.00  0.00    -0.352 OA
BRANCH  24  25
HETATM   25  C28 UNL     1      -6.421  43.259 -19.687  1.00  0.00     0.292 C 
HETATM   26  O3  UNL     1      -5.223  42.608 -19.267  1.00  0.00    -0.348 OA
HETATM   27  C29 UNL     1      -5.369  41.179 -19.187  1.00  0.00     0.179 C 
HETATM   28  C31 UNL     1      -5.722  40.589 -20.557  1.00  0.00     0.180 C 
HETATM   29  C32 UNL     1      -6.977  41.273 -21.102  1.00  0.00     0.183 C 
HETATM   30  C33 UNL     1      -6.808  42.789 -21.102  1.00  0.00     0.204 C 
BRANCH  27  31
HETATM   31  C30 UNL     1      -4.047  40.614 -18.660  1.00  0.00     0.198 C 
BRANCH  31  32
HETATM   32  O4  UNL     1      -2.961  41.237 -19.351  1.00  0.00    -0.398 OA
HETATM   33  H44 UNL     1      -3.180  41.152 -20.299  1.00  0.00     0.209 HD
ENDBRANCH  31  32
ENDBRANCH  27  31
BRANCH  28  34
HETATM   34  O5  UNL     1      -5.951  39.182 -20.465  1.00  0.00    -0.390 OA
HETATM   35  H46 UNL     1      -6.382  38.931 -21.308  1.00  0.00     0.210 HD
ENDBRANCH  28  34
BRANCH  29  36
HETATM   36  O6  UNL     1      -7.227  40.794 -22.433  1.00  0.00    -0.390 OA
HETATM   37  H48 UNL     1      -7.919  41.389 -22.790  1.00  0.00     0.210 HD
ENDBRANCH  29  36
BRANCH  30  38
HETATM   38  O7  UNL     1      -8.037  43.395 -21.536  1.00  0.00    -0.388 OA
HETATM   39  H50 UNL     1      -7.885  44.359 -21.457  1.00  0.00     0.210 HD
ENDBRANCH  30  38
ENDBRANCH  24  25
ENDBRANCH  20  24
BRANCH   1  40
HETATM   40  C7  UNL     1       0.789  52.600 -22.336  1.00  0.00    -0.010 C 
HETATM   41  C8  UNL     1       1.259  53.962 -21.808  1.00  0.00     0.010 C 
BRANCH  40  42
HETATM   42  C6  UNL     1      -0.236  52.807 -23.488  1.00  0.00     0.031 C 
BRANCH  42  43
HETATM   43  C5  UNL     1       0.229  52.718 -24.924  1.00  0.00    -0.026 C 
HETATM   44  C4  UNL     1       0.857  51.694 -25.529  1.00  0.00     0.002 C 
BRANCH  44  45
HETATM   45  C2  UNL     1       1.266  51.648 -26.927  1.00  0.00    -0.072 C 
HETATM   46  C1  UNL     1       0.332  51.643 -27.892  1.00  0.00     0.018 C 
HETATM   47  C3  UNL     1       2.731  51.624 -27.276  1.00  0.00     0.047 C 
ENDBRANCH  44  45
ENDBRANCH  42  43
ENDBRANCH  40  42
ENDBRANCH   1  40
TORSDOF 11
ENDMDL
MODEL 2
REMARK minimizedAffinity -8.92338562
REMARK CNNscore 0.538559675
REMARK CNNaffinity 7.36259699
REMARK  11 active torsions:
REMARK  status: ('A' for Active; 'I' for Inactive)
REMARK    1  A    between atoms: C2_2  and  C4_4 
REMARK    2  A    between atoms: C5_5  and  C6_6 
REMARK    3  A    between atoms: C6_6  and  C7_7 
REMARK    4  A    between atoms: C7_7  and  C9_9 
REMARK    5  A    between atoms: C27_28  and  O2_29 
REMARK    6  A    between atoms: O2_29  and  C28_30 
REMARK    7  A    between atoms: C29_32  and  C30_33 
REMARK    8  A    between atoms: C30_33  and  O4_34 
REMARK    9  A    between atoms: C31_35  and  O5_36 
REMARK   10  A    between atoms: C32_37  and  O6_38 
REMARK   11  A    between atoms: C33_39  and  O7_40 
ROOT
HETATM    1  C9  UNL     1       0.128  51.709 -21.156  1.00  0.00    -0.002 C 
HETATM    2  C10 UNL     1      -0.157  52.556 -19.872  1.00  0.00     0.006 C 
HETATM    3  C11 UNL     1      -1.442  52.003 -19.220  1.00  0.00     0.011 C 
HETATM    4  C12 UNL     1      -1.683  50.660 -19.933  1.00  0.00    -0.029 C 
HETATM    5  C13 UNL     1      -0.726  49.638 -19.233  1.00  0.00     0.016 C 
HETATM    6  C14 UNL     1      -3.159  50.146 -19.911  1.00  0.00     0.028 C 
HETATM    7  C15 UNL     1      -3.671  49.868 -18.510  1.00  0.00    -0.021 C 
HETATM    8  C16 UNL     1      -4.257  48.703 -18.188  1.00  0.00     0.008 C 
HETATM    9  C17 UNL     1      -4.416  47.580 -19.207  1.00  0.00     0.092 C 
HETATM   10  O1  UNL     1      -5.495  48.030 -20.060  1.00  0.00    -0.374 OA
HETATM   11  C18 UNL     1      -4.931  48.790 -21.143  1.00  0.00     0.179 C 
HETATM   12  C19 UNL     1      -3.406  48.916 -20.897  1.00  0.00    -0.004 C 
HETATM   13  C20 UNL     1      -2.699  49.117 -22.264  1.00  0.00     0.014 C 
HETATM   14  C21 UNL     1      -1.289  49.733 -22.236  1.00  0.00     0.011 C 
HETATM   15  C22 UNL     1      -1.257  51.029 -21.406  1.00  0.00    -0.032 C 
HETATM   16  C23 UNL     1      -2.192  52.077 -22.096  1.00  0.00     0.016 C 
HETATM   17  C24 UNL     1      -3.169  47.578 -20.133  1.00  0.00     0.036 C 
HETATM   18  C25 UNL     1      -3.035  46.283 -20.952  1.00  0.00     0.011 C 
HETATM   19  C26 UNL     1      -4.323  45.496 -21.091  1.00  0.00     0.033 C 
HETATM   20  C27 UNL     1      -4.904  45.076 -19.733  1.00  0.00     0.136 C 
HETATM   21  C34 UNL     1      -4.774  46.176 -18.602  1.00  0.00     0.014 C 
HETATM   22  C35 UNL     1      -6.088  46.240 -17.778  1.00  0.00     0.021 C 
HETATM   23  C36 UNL     1      -3.657  45.721 -17.622  1.00  0.00     0.021 C 
ENDROOT
BRANCH  20  24
HETATM   24  O2  UNL     1      -6.269  44.645 -19.870  1.00  0.00    -0.352 OA
BRANCH  24  25
HETATM   25  C28 UNL     1      -6.797  44.701 -21.199  1.00  0.00     0.292 C 
HETATM   26  O3  UNL     1      -7.915  45.586 -21.246  1.00  0.00    -0.348 OA
HETATM   27  C29 UNL     1      -8.497  45.672 -22.559  1.00  0.00     0.179 C 
HETATM   28  C31 UNL     1      -9.012  44.304 -23.019  1.00  0.00     0.180 C 
HETATM   29  C32 UNL     1      -7.877  43.279 -22.951  1.00  0.00     0.183 C 
HETATM   30  C33 UNL     1      -7.241  43.272 -21.564  1.00  0.00     0.204 C 
BRANCH  27  31
HETATM   31  C30 UNL     1      -9.630  46.700 -22.490  1.00  0.00     0.198 C 
BRANCH  31  32
HETATM   32  O4  UNL     1      -9.884  47.209 -23.802  1.00  0.00    -0.398 OA
HETATM   33  H44 UNL     1      -9.009  47.474 -24.145  1.00  0.00     0.209 HD
ENDBRANCH  31  32
ENDBRANCH  27  31
BRANCH  28  34
HETATM   34  O5  UNL     1      -9.513  44.367 -24.355  1.00  0.00    -0.390 OA
HETATM   35  H46 UNL     1      -9.605  43.436 -24.645  1.00  0.00     0.210 HD
ENDBRANCH  28  34
BRANCH  29  36
HETATM   36  O6  UNL     1      -8.402  41.981 -23.271  1.00  0.00    -0.390 OA
HETATM   37  H48 UNL     1      -7.687  41.354 -23.037  1.00  0.00     0.210 HD
ENDBRANCH  29  36
BRANCH  30  38
HETATM   38  O7  UNL     1      -6.126  42.364 -21.568  1.00  0.00    -0.388 OA
HETATM   39  H50 UNL     1      -5.728  42.449 -20.678  1.00  0.00     0.210 HD
ENDBRANCH  30  38
ENDBRANCH  24  25
ENDBRANCH  20  24
BRANCH   1  40
HETATM   40  C7  UNL     1       0.808  52.557 -22.279  1.00  0.00    -0.010 C 
HETATM   41  C8  UNL     1       1.311  53.903 -21.740  1.00  0.00     0.010 C 
BRANCH  40  42
HETATM   42  C6  UNL     1      -0.190  52.798 -23.449  1.00  0.00     0.031 C 
BRANCH  42  43
HETATM   43  C5  UNL     1       0.304  52.731 -24.875  1.00  0.00    -0.026 C 
HETATM   44  C4  UNL     1       0.810  51.669 -25.527  1.00  0.00     0.002 C 
BRANCH  44  45
HETATM   45  C2  UNL     1       1.253  51.648 -26.915  1.00  0.00    -0.072 C 
HETATM   46  C1  UNL     1       0.342  51.650 -27.903  1.00  0.00     0.018 C 
HETATM   47  C3  UNL     1       2.726  51.644 -27.230  1.00  0.00     0.047 C 
ENDBRANCH  44  45
ENDBRANCH  42  43
ENDBRANCH  40  42
ENDBRANCH   1  40
TORSDOF 11
ENDMDL
MODEL 3
REMARK minimizedAffinity -9.10378551
REMARK CNNscore 0.431554735
REMARK CNNaffinity 7.14732218
REMARK  11 active torsions:
REMARK  status: ('A' for Active; 'I' for Inactive)
REMARK    1  A    between atoms: C2_2  and  C4_4 
REMARK    2  A    between atoms: C5_5  and  C6_6 
REMARK    3  A    between atoms: C6_6  and  C7_7 
REMARK    4  A    between atoms: C7_7  and  C9_9 
REMARK    5  A    between atoms: C27_28  and  O2_29 
REMARK    6  A    between atoms: O2_29  and  C28_30 
REMARK    7  A    between atoms: C29_32  and  C30_33 
REMARK    8  A    between atoms: C30_33  and  O4_34 
REMARK    9  A    between atoms: C31_35  and  O5_36 
REMARK   10  A    between atoms: C32_37  and  O6_38 
REMARK   11  A    between atoms: C33_39  and  O7_40 
ROOT
HETATM    1  C9  UNL     1      -1.803  51.693 -22.330  1.00  0.00    -0.002 C 
HETATM    2  C10 UNL     1      -2.740  52.443 -23.334  1.00  0.00     0.006 C 
HETATM    3  C11 UNL     1      -4.092  51.700 -23.357  1.00  0.00     0.011 C 
HETATM    4  C12 UNL     1      -4.031  50.758 -22.141  1.00  0.00    -0.029 C 
HETATM    5  C13 UNL     1      -4.387  51.650 -20.904  1.00  0.00     0.016 C 
HETATM    6  C14 UNL     1      -4.966  49.509 -22.214  1.00  0.00     0.028 C 
HETATM    7  C15 UNL     1      -6.438  49.870 -22.273  1.00  0.00    -0.021 C 
HETATM    8  C16 UNL     1      -7.338  49.318 -21.442  1.00  0.00     0.008 C 
HETATM    9  C17 UNL     1      -6.924  48.314 -20.371  1.00  0.00     0.092 C 
HETATM   10  O1  UNL     1      -6.673  47.096 -21.109  1.00  0.00    -0.374 OA
HETATM   11  C18 UNL     1      -5.290  47.082 -21.506  1.00  0.00     0.179 C 
HETATM   12  C19 UNL     1      -4.657  48.430 -21.080  1.00  0.00    -0.004 C 
HETATM   13  C20 UNL     1      -3.132  48.219 -20.881  1.00  0.00     0.014 C 
HETATM   14  C21 UNL     1      -2.241  49.473 -20.931  1.00  0.00     0.011 C 
HETATM   15  C22 UNL     1      -2.519  50.311 -22.192  1.00  0.00    -0.032 C 
HETATM   16  C23 UNL     1      -2.152  49.449 -23.445  1.00  0.00     0.016 C 
HETATM   17  C24 UNL     1      -5.530  48.727 -19.824  1.00  0.00     0.036 C 
HETATM   18  C25 UNL     1      -5.174  48.023 -18.503  1.00  0.00     0.011 C 
HETATM   19  C26 UNL     1      -5.961  46.754 -18.240  1.00  0.00     0.033 C 
HETATM   20  C27 UNL     1      -7.475  47.002 -18.189  1.00  0.00     0.136 C 
HETATM   21  C34 UNL     1      -8.000  48.043 -19.259  1.00  0.00     0.014 C 
HETATM   22  C35 UNL     1      -9.330  47.534 -19.879  1.00  0.00     0.021 C 
HETATM   23  C36 UNL     1      -8.336  49.364 -18.514  1.00  0.00     0.021 C 
ENDROOT
BRANCH  20  24
HETATM   24  O2  UNL     1      -8.202  45.764 -18.284  1.00  0.00    -0.352 OA
BRANCH  24  25
HETATM   25  C28 UNL     1      -8.906  45.377 -17.100  1.00  0.00     0.292 C 
HETATM   26  O3  UNL     1     -10.245  45.007 -17.425  1.00  0.00    -0.348 OA
HETATM   27  C29 UNL     1     -11.008  44.620 -16.268  1.00  0.00     0.179 C 
HETATM   28  C31 UNL     1     -11.112  45.778 -15.270  1.00  0.00     0.180 C 
HETATM   29  C32 UNL     1      -9.709  46.269 -14.905  1.00  0.00     0.183 C 
HETATM   30  C33 UNL     1      -8.910  46.599 -16.162  1.00  0.00     0.204 C 
BRANCH  27  31
HETATM   31  C30 UNL     1     -12.390  44.181 -16.759  1.00  0.00     0.198 C 
BRANCH  31  32
HETATM   32  O4  UNL     1     -13.107  43.586 -15.673  1.00  0.00    -0.398 OA
HETATM   33  H44 UNL     1     -12.495  42.926 -15.296  1.00  0.00     0.209 HD
ENDBRANCH  31  32
ENDBRANCH  27  31
BRANCH  28  34
HETATM   34  O5  UNL     1     -11.795  45.373 -14.083  1.00  0.00    -0.390 OA
HETATM   35  H46 UNL     1     -11.622  46.077 -13.426  1.00  0.00     0.210 HD
ENDBRANCH  28  34
BRANCH  29  36
HETATM   36  O6  UNL     1      -9.825  47.427 -14.063  1.00  0.00    -0.390 OA
HETATM   37  H48 UNL     1      -8.919  47.796 -14.015  1.00  0.00     0.210 HD
ENDBRANCH  29  36
BRANCH  30  38
HETATM   38  O7  UNL     1      -7.575  46.969 -15.781  1.00  0.00    -0.388 OA
HETATM   39  H50 UNL     1      -7.100  47.109 -16.626  1.00  0.00     0.210 HD
ENDBRANCH  30  38
ENDBRANCH  24  25
ENDBRANCH  20  24
BRANCH   1  40
HETATM   40  C7  UNL     1      -0.302  51.767 -22.761  1.00  0.00    -0.010 C 
HETATM   41  C8  UNL     1       0.631  51.805 -21.542  1.00  0.00     0.010 C 
BRANCH  40  42
HETATM   42  C6  UNL     1      -0.059  53.023 -23.648  1.00  0.00     0.031 C 
BRANCH  42  43
HETATM   43  C5  UNL     1       0.669  52.876 -24.964  1.00  0.00    -0.026 C 
HETATM   44  C4  UNL     1       0.683  51.813 -25.787  1.00  0.00     0.002 C 
BRANCH  44  45
HETATM   45  C2  UNL     1       1.385  51.728 -27.062  1.00  0.00    -0.072 C 
HETATM   46  C1  UNL     1       2.724  51.627 -27.077  1.00  0.00     0.018 C 
HETATM   47  C3  UNL     1       0.601  51.736 -28.348  1.00  0.00     0.047 C 
ENDBRANCH  44  45
ENDBRANCH  42  43
ENDBRANCH  40  42
ENDBRANCH   1  40
TORSDOF 11
ENDMDL
MODEL 4
REMARK minimizedAffinity -8.94417381
REMARK CNNscore 0.429855227
REMARK CNNaffinity 7.27989435
REMARK  11 active torsions:
REMARK  status: ('A' for Active; 'I' for Inactive)
REMARK    1  A    between atoms: C2_2  and  C4_4 
REMARK    2  A    between atoms: C5_5  and  C6_6 
REMARK    3  A    between atoms: C6_6  and  C7_7 
REMARK    4  A    between atoms: C7_7  and  C9_9 
REMARK    5  A    between atoms: C27_28  and  O2_29 
REMARK    6  A    between atoms: O2_29  and  C28_30 
REMARK    7  A    between atoms: C29_32  and  C30_33 
REMARK    8  A    between atoms: C30_33  and  O4_34 
REMARK    9  A    between atoms: C31_35  and  O5_36 
REMARK   10  A    between atoms: C32_37  and  O6_38 
REMARK   11  A    between atoms: C33_39  and  O7_40 
ROOT
HETATM    1  C9  UNL     1      -1.321  50.611 -15.896  1.00  0.00    -0.002 C 
HETATM    2  C10 UNL     1      -0.042  51.476 -16.147  1.00  0.00     0.006 C 
HETATM    3  C11 UNL     1       0.319  51.357 -17.642  1.00  0.00     0.011 C 
HETATM    4  C12 UNL     1      -0.924  50.714 -18.285  1.00  0.00    -0.029 C 
HETATM    5  C13 UNL     1      -1.943  51.885 -18.485  1.00  0.00     0.016 C 
HETATM    6  C14 UNL     1      -0.669  49.962 -19.630  1.00  0.00     0.028 C 
HETATM    7  C15 UNL     1      -0.165  50.872 -20.734  1.00  0.00    -0.021 C 
HETATM    8  C16 UNL     1      -0.738  50.896 -21.950  1.00  0.00     0.008 C 
HETATM    9  C17 UNL     1      -1.948  50.028 -22.279  1.00  0.00     0.092 C 
HETATM   10  O1  UNL     1      -1.396  48.699 -22.429  1.00  0.00    -0.374 OA
HETATM   11  C18 UNL     1      -1.416  48.052 -21.145  1.00  0.00     0.179 C 
HETATM   12  C19 UNL     1      -1.915  49.081 -20.099  1.00  0.00    -0.004 C 
HETATM   13  C20 UNL     1      -2.557  48.310 -18.914  1.00  0.00     0.014 C 
HETATM   14  C21 UNL     1      -2.681  49.061 -17.577  1.00  0.00     0.011 C 
HETATM   15  C22 UNL     1      -1.340  49.691 -17.158  1.00  0.00    -0.032 C 
HETATM   16  C23 UNL     1      -0.307  48.538 -16.932  1.00  0.00     0.016 C 
HETATM   17  C24 UNL     1      -2.843  49.934 -21.014  1.00  0.00     0.036 C 
HETATM   18  C25 UNL     1      -4.254  49.403 -21.320  1.00  0.00     0.011 C 
HETATM   19  C26 UNL     1      -4.365  48.636 -22.622  1.00  0.00     0.033 C 
HETATM   20  C27 UNL     1      -3.962  49.481 -23.838  1.00  0.00     0.136 C 
HETATM   21  C34 UNL     1      -2.718  50.429 -23.588  1.00  0.00     0.014 C 
HETATM   22  C35 UNL     1      -1.778  50.398 -24.824  1.00  0.00     0.021 C 
HETATM   23  C36 UNL     1      -3.245  51.885 -23.468  1.00  0.00     0.021 C 
ENDROOT
BRANCH  20  24
HETATM   24  O2  UNL     1      -3.745  48.651 -24.993  1.00  0.00    -0.352 OA
BRANCH  24  25
HETATM   25  C28 UNL     1      -4.779  48.698 -25.981  1.00  0.00     0.292 C 
HETATM   26  O3  UNL     1      -5.824  47.787 -25.640  1.00  0.00    -0.348 OA
HETATM   27  C29 UNL     1      -6.890  47.781 -26.607  1.00  0.00     0.179 C 
HETATM   28  C31 UNL     1      -6.374  47.348 -27.983  1.00  0.00     0.180 C 
HETATM   29  C32 UNL     1      -5.211  48.250 -28.403  1.00  0.00     0.183 C 
HETATM   30  C33 UNL     1      -4.138  48.286 -27.319  1.00  0.00     0.204 C 
BRANCH  27  31
HETATM   31  C30 UNL     1      -7.970  46.827 -26.090  1.00  0.00     0.198 C 
BRANCH  31  32
HETATM   32  O4  UNL     1      -9.221  47.162 -26.695  1.00  0.00    -0.398 OA
HETATM   33  H44 UNL     1      -9.320  48.124 -26.560  1.00  0.00     0.209 HD
ENDBRANCH  31  32
ENDBRANCH  27  31
BRANCH  28  34
HETATM   34  O5  UNL     1      -7.409  47.422 -28.965  1.00  0.00    -0.390 OA
HETATM   35  H46 UNL     1      -6.956  47.354 -29.830  1.00  0.00     0.210 HD
ENDBRANCH  28  34
BRANCH  29  36
HETATM   36  O6  UNL     1      -4.664  47.760 -29.637  1.00  0.00    -0.390 OA
HETATM   37  H48 UNL     1      -3.828  48.256 -29.758  1.00  0.00     0.210 HD
ENDBRANCH  29  36
BRANCH  30  38
HETATM   38  O7  UNL     1      -3.110  49.210 -27.712  1.00  0.00    -0.388 OA
HETATM   39  H50 UNL     1      -2.489  49.233 -26.956  1.00  0.00     0.210 HD
ENDBRANCH  30  38
ENDBRANCH  24  25
ENDBRANCH  20  24
BRANCH   1  40
HETATM   40  C7  UNL     1      -1.337  49.989 -14.462  1.00  0.00    -0.010 C 
HETATM   41  C8  UNL     1      -2.755  49.575 -14.045  1.00  0.00     0.010 C 
BRANCH  40  42
HETATM   42  C6  UNL     1      -0.759  51.001 -13.431  1.00  0.00     0.031 C 
BRANCH  42  43
HETATM   43  C5  UNL     1      -1.663  51.577 -12.365  1.00  0.00    -0.026 C 
HETATM   44  C4  UNL     1      -2.996  51.751 -12.416  1.00  0.00     0.002 C 
BRANCH  44  45
HETATM   45  C2  UNL     1      -3.829  52.290 -11.349  1.00  0.00    -0.072 C 
HETATM   46  C1  UNL     1      -3.898  53.619 -11.167  1.00  0.00     0.018 C 
HETATM   47  C3  UNL     1      -4.618  51.353 -10.472  1.00  0.00     0.047 C 
ENDBRANCH  44  45
ENDBRANCH  42  43
ENDBRANCH  40  42
ENDBRANCH   1  40
TORSDOF 11
ENDMDL
MODEL 5
REMARK minimizedAffinity -8.63386154
REMARK CNNscore 0.416358709
REMARK CNNaffinity 7.02578163
REMARK  11 active torsions:
REMARK  status: ('A' for Active; 'I' for Inactive)
REMARK    1  A    between atoms: C2_2  and  C4_4 
REMARK    2  A    between atoms: C5_5  and  C6_6 
REMARK    3  A    between atoms: C6_6  and  C7_7 
REMARK    4  A    between atoms: C7_7  and  C9_9 
REMARK    5  A    between atoms: C27_28  and  O2_29 
REMARK    6  A    between atoms: O2_29  and  C28_30 
REMARK    7  A    between atoms: C29_32  and  C30_33 
REMARK    8  A    between atoms: C30_33  and  O4_34 
REMARK    9  A    between atoms: C31_35  and  O5_36 
REMARK   10  A    between atoms: C32_37  and  O6_38 
REMARK   11  A    between atoms: C33_39  and  O7_40 
ROOT
HETATM    1  C9  UNL     1      -1.980  48.030 -20.242  1.00  0.00    -0.002 C 
HETATM    2  C10 UNL     1      -2.390  47.422 -18.860  1.00  0.00     0.006 C 
HETATM    3  C11 UNL     1      -3.929  47.315 -18.832  1.00  0.00     0.011 C 
HETATM    4  C12 UNL     1      -4.353  47.539 -20.295  1.00  0.00    -0.029 C 
HETATM    5  C13 UNL     1      -4.134  46.163 -21.009  1.00  0.00     0.016 C 
HETATM    6  C14 UNL     1      -5.818  48.044 -20.498  1.00  0.00     0.028 C 
HETATM    7  C15 UNL     1      -6.860  47.059 -20.003  1.00  0.00    -0.021 C 
HETATM    8  C16 UNL     1      -7.891  46.672 -20.773  1.00  0.00     0.008 C 
HETATM    9  C17 UNL     1      -8.057  47.182 -22.201  1.00  0.00     0.092 C 
HETATM   10  O1  UNL     1      -8.527  48.540 -22.037  1.00  0.00    -0.374 OA
HETATM   11  C18 UNL     1      -7.385  49.411 -21.971  1.00  0.00     0.179 C 
HETATM   12  C19 UNL     1      -6.110  48.531 -21.989  1.00  0.00    -0.004 C 
HETATM   13  C20 UNL     1      -4.937  49.369 -22.565  1.00  0.00     0.014 C 
HETATM   14  C21 UNL     1      -3.511  48.891 -22.240  1.00  0.00     0.011 C 
HETATM   15  C22 UNL     1      -3.327  48.655 -20.730  1.00  0.00    -0.032 C 
HETATM   16  C23 UNL     1      -3.521  50.021 -19.993  1.00  0.00     0.016 C 
HETATM   17  C24 UNL     1      -6.647  47.336 -22.833  1.00  0.00     0.036 C 
HETATM   18  C25 UNL     1      -6.692  47.484 -24.363  1.00  0.00     0.011 C 
HETATM   19  C26 UNL     1      -8.032  47.935 -24.908  1.00  0.00     0.033 C 
HETATM   20  C27 UNL     1      -9.168  46.969 -24.547  1.00  0.00     0.136 C 
HETATM   21  C34 UNL     1      -9.076  46.374 -23.082  1.00  0.00     0.014 C 
HETATM   22  C35 UNL     1     -10.486  46.356 -22.433  1.00  0.00     0.021 C 
HETATM   23  C36 UNL     1      -8.621  44.894 -23.197  1.00  0.00     0.021 C 
ENDROOT
BRANCH  20  24
HETATM   24  O2  UNL     1     -10.452  47.579 -24.768  1.00  0.00    -0.352 OA
BRANCH  24  25
HETATM   25  C28 UNL     1     -11.204  47.040 -25.861  1.00  0.00     0.292 C 
HETATM   26  O3  UNL     1     -10.662  45.779 -26.253  1.00  0.00    -0.348 OA
HETATM   27  C29 UNL     1     -11.372  45.194 -27.360  1.00  0.00     0.179 C 
HETATM   28  C31 UNL     1     -11.297  46.097 -28.595  1.00  0.00     0.180 C 
HETATM   29  C32 UNL     1     -11.817  47.493 -28.243  1.00  0.00     0.183 C 
HETATM   30  C33 UNL     1     -11.090  48.046 -27.021  1.00  0.00     0.204 C 
BRANCH  27  31
HETATM   31  C30 UNL     1     -10.743  43.824 -27.631  1.00  0.00     0.198 C 
BRANCH  31  32
HETATM   32  O4  UNL     1      -9.420  43.798 -27.088  1.00  0.00    -0.398 OA
HETATM   33  H44 UNL     1      -8.990  44.605 -27.429  1.00  0.00     0.209 HD
ENDBRANCH  31  32
ENDBRANCH  27  31
BRANCH  28  34
HETATM   34  O5  UNL     1     -12.070  45.561 -29.670  1.00  0.00    -0.390 OA
HETATM   35  H46 UNL     1     -12.155  46.288 -30.321  1.00  0.00     0.210 HD
ENDBRANCH  28  34
BRANCH  29  36
HETATM   36  O6  UNL     1     -11.632  48.358 -29.374  1.00  0.00    -0.390 OA
HETATM   37  H48 UNL     1     -11.809  49.260 -29.034  1.00  0.00     0.210 HD
ENDBRANCH  29  36
BRANCH  30  38
HETATM   38  O7  UNL     1     -11.667  49.315 -26.671  1.00  0.00    -0.388 OA
HETATM   39  H50 UNL     1     -11.203  49.586 -25.853  1.00  0.00     0.210 HD
ENDBRANCH  30  38
ENDBRANCH  24  25
ENDBRANCH  20  24
BRANCH   1  40
HETATM   40  C7  UNL     1      -0.691  48.909 -20.138  1.00  0.00    -0.010 C 
HETATM   41  C8  UNL     1      -0.675  49.730 -18.841  1.00  0.00     0.010 C 
BRANCH  40  42
HETATM   42  C6  UNL     1      -0.590  49.861 -21.365  1.00  0.00     0.031 C 
BRANCH  42  43
HETATM   43  C5  UNL     1      -0.302  51.329 -21.147  1.00  0.00    -0.026 C 
HETATM   44  C4  UNL     1       0.813  52.010 -21.466  1.00  0.00     0.002 C 
BRANCH  44  45
HETATM   45  C2  UNL     1       1.034  53.434 -21.255  1.00  0.00    -0.072 C 
HETATM   46  C1  UNL     1       0.989  53.937 -20.011  1.00  0.00     0.018 C 
HETATM   47  C3  UNL     1       1.329  54.327 -22.433  1.00  0.00     0.047 C 
ENDBRANCH  44  45
ENDBRANCH  42  43
ENDBRANCH  40  42
ENDBRANCH   1  40
TORSDOF 11
ENDMDL
MODEL 6
REMARK minimizedAffinity -9.31406689
REMARK CNNscore 0.411301941
REMARK CNNaffinity 6.95088005
REMARK  11 active torsions:
REMARK  status: ('A' for Active; 'I' for Inactive)
REMARK    1  A    between atoms: C2_2  and  C4_4 
REMARK    2  A    between atoms: C5_5  and  C6_6 
REMARK    3  A    between atoms: C6_6  and  C7_7 
REMARK    4  A    between atoms: C7_7  and  C9_9 
REMARK    5  A    between atoms: C27_28  and  O2_29 
REMARK    6  A    between atoms: O2_29  and  C28_30 
REMARK    7  A    between atoms: C29_32  and  C30_33 
REMARK    8  A    between atoms: C30_33  and  O4_34 
REMARK    9  A    between atoms: C31_35  and  O5_36 
REMARK   10  A    between atoms: C32_37  and  O6_38 
REMARK   11  A    between atoms: C33_39  and  O7_40 
ROOT
HETATM    1  C9  UNL     1      -1.225  49.958 -21.674  1.00  0.00    -0.002 C 
HETATM    2  C10 UNL     1      -1.001  49.148 -20.354  1.00  0.00     0.006 C 
HETATM    3  C11 UNL     1      -2.367  48.582 -19.914  1.00  0.00     0.011 C 
HETATM    4  C12 UNL     1      -3.276  48.783 -21.139  1.00  0.00    -0.029 C 
HETATM    5  C13 UNL     1      -2.943  47.597 -22.105  1.00  0.00     0.016 C 
HETATM    6  C14 UNL     1      -4.808  48.840 -20.835  1.00  0.00     0.028 C 
HETATM    7  C15 UNL     1      -5.344  47.552 -20.240  1.00  0.00    -0.021 C 
HETATM    8  C16 UNL     1      -6.427  46.935 -20.742  1.00  0.00     0.008 C 
HETATM    9  C17 UNL     1      -7.164  47.483 -21.960  1.00  0.00     0.092 C 
HETATM   10  O1  UNL     1      -7.896  48.620 -21.446  1.00  0.00    -0.374 OA
HETATM   11  C18 UNL     1      -7.061  49.786 -21.560  1.00  0.00     0.179 C 
HETATM   12  C19 UNL     1      -5.674  49.333 -22.082  1.00  0.00    -0.004 C 
HETATM   13  C20 UNL     1      -5.007  50.527 -22.815  1.00  0.00     0.014 C 
HETATM   14  C21 UNL     1      -3.479  50.474 -22.989  1.00  0.00     0.011 C 
HETATM   15  C22 UNL     1      -2.770  50.186 -21.652  1.00  0.00    -0.032 C 
HETATM   16  C23 UNL     1      -3.071  51.369 -20.673  1.00  0.00     0.016 C 
HETATM   17  C24 UNL     1      -6.119  48.102 -22.928  1.00  0.00     0.036 C 
HETATM   18  C25 UNL     1      -6.684  48.350 -24.337  1.00  0.00     0.011 C 
HETATM   19  C26 UNL     1      -8.197  48.420 -24.400  1.00  0.00     0.033 C 
HETATM   20  C27 UNL     1      -8.865  47.132 -23.901  1.00  0.00     0.136 C 
HETATM   21  C34 UNL     1      -8.162  46.479 -22.642  1.00  0.00     0.014 C 
HETATM   22  C35 UNL     1      -9.236  45.987 -21.635  1.00  0.00     0.021 C 
HETATM   23  C36 UNL     1      -7.396  45.217 -23.125  1.00  0.00     0.021 C 
ENDROOT
BRANCH  20  24
HETATM   24  O2  UNL     1     -10.265  47.344 -23.648  1.00  0.00    -0.352 OA
BRANCH  24  25
HETATM   25  C28 UNL     1     -11.153  46.786 -24.622  1.00  0.00     0.292 C 
HETATM   26  O3  UNL     1     -11.440  47.751 -25.633  1.00  0.00    -0.348 OA
HETATM   27  C29 UNL     1     -12.342  47.249 -26.637  1.00  0.00     0.179 C 
HETATM   28  C31 UNL     1     -13.688  46.861 -26.016  1.00  0.00     0.180 C 
HETATM   29  C32 UNL     1     -13.461  45.859 -24.882  1.00  0.00     0.183 C 
HETATM   30  C33 UNL     1     -12.446  46.399 -23.880  1.00  0.00     0.204 C 
BRANCH  27  31
HETATM   31  C30 UNL     1     -12.508  48.347 -27.691  1.00  0.00     0.198 C 
BRANCH  31  32
HETATM   32  O4  UNL     1     -11.486  48.206 -28.681  1.00  0.00    -0.398 OA
HETATM   33  H44 UNL     1     -10.652  48.140 -28.178  1.00  0.00     0.209 HD
ENDBRANCH  31  32
ENDBRANCH  27  31
BRANCH  28  34
HETATM   34  O5  UNL     1     -14.555  46.284 -26.993  1.00  0.00    -0.390 OA
HETATM   35  H46 UNL     1     -15.281  45.866 -26.486  1.00  0.00     0.210 HD
ENDBRANCH  28  34
BRANCH  29  36
HETATM   36  O6  UNL     1     -14.717  45.596 -24.236  1.00  0.00    -0.390 OA
HETATM   37  H48 UNL     1     -14.484  45.102 -23.422  1.00  0.00     0.210 HD
ENDBRANCH  29  36
BRANCH  30  38
HETATM   38  O7  UNL     1     -12.196  45.394 -22.883  1.00  0.00    -0.388 OA
HETATM   39  H50 UNL     1     -11.499  45.774 -22.311  1.00  0.00     0.210 HD
ENDBRANCH  30  38
ENDBRANCH  24  25
ENDBRANCH  20  24
BRANCH   1  40
HETATM   40  C7  UNL     1      -0.246  51.172 -21.790  1.00  0.00    -0.010 C 
HETATM   41  C8  UNL     1      -0.246  52.018 -20.510  1.00  0.00     0.010 C 
BRANCH  40  42
HETATM   42  C6  UNL     1      -0.636  52.060 -23.008  1.00  0.00     0.031 C 
BRANCH  42  43
HETATM   43  C5  UNL     1      -0.203  51.651 -24.397  1.00  0.00    -0.026 C 
HETATM   44  C4  UNL     1       0.824  52.132 -25.119  1.00  0.00     0.002 C 
BRANCH  44  45
HETATM   45  C2  UNL     1       1.217  51.687 -26.450  1.00  0.00    -0.072 C 
HETATM   46  C1  UNL     1       2.515  51.476 -26.723  1.00  0.00     0.018 C 
HETATM   47  C3  UNL     1       0.163  51.450 -27.500  1.00  0.00     0.047 C 
ENDBRANCH  44  45
ENDBRANCH  42  43
ENDBRANCH  40  42
ENDBRANCH   1  40
TORSDOF 11
ENDMDL
MODEL 7
REMARK minimizedAffinity -10.1197882
REMARK CNNscore 0.410115987
REMARK CNNaffinity 7.28962564
REMARK  11 active torsions:
REMARK  status: ('A' for Active; 'I' for Inactive)
REMARK    1  A    between atoms: C2_2  and  C4_4 
REMARK    2  A    between atoms: C5_5  and  C6_6 
REMARK    3  A    between atoms: C6_6  and  C7_7 
REMARK    4  A    between atoms: C7_7  and  C9_9 
REMARK    5  A    between atoms: C27_28  and  O2_29 
REMARK    6  A    between atoms: O2_29  and  C28_30 
REMARK    7  A    between atoms: C29_32  and  C30_33 
REMARK    8  A    between atoms: C30_33  and  O4_34 
REMARK    9  A    between atoms: C31_35  and  O5_36 
REMARK   10  A    between atoms: C32_37  and  O6_38 
REMARK   11  A    between atoms: C33_39  and  O7_40 
ROOT
HETATM    1  C9  UNL     1      -0.340  50.871 -21.746  1.00  0.00    -0.002 C 
HETATM    2  C10 UNL     1      -0.539  50.888 -20.194  1.00  0.00     0.006 C 
HETATM    3  C11 UNL     1      -2.035  50.637 -19.910  1.00  0.00     0.011 C 
HETATM    4  C12 UNL     1      -2.603  50.153 -21.256  1.00  0.00    -0.029 C 
HETATM    5  C13 UNL     1      -2.227  48.636 -21.346  1.00  0.00     0.016 C 
HETATM    6  C14 UNL     1      -4.140  50.357 -21.446  1.00  0.00     0.028 C 
HETATM    7  C15 UNL     1      -4.972  49.581 -20.443  1.00  0.00    -0.021 C 
HETATM    8  C16 UNL     1      -5.987  48.788 -20.826  1.00  0.00     0.008 C 
HETATM    9  C17 UNL     1      -6.343  48.602 -22.297  1.00  0.00     0.092 C 
HETATM   10  O1  UNL     1      -7.007  49.835 -22.657  1.00  0.00    -0.374 OA
HETATM   11  C18 UNL     1      -6.014  50.766 -23.125  1.00  0.00     0.179 C 
HETATM   12  C19 UNL     1      -4.622  50.109 -22.947  1.00  0.00    -0.004 C 
HETATM   13  C20 UNL     1      -3.645  50.733 -23.979  1.00  0.00     0.014 C 
HETATM   14  C21 UNL     1      -2.141  50.602 -23.686  1.00  0.00     0.011 C 
HETATM   15  C22 UNL     1      -1.803  51.071 -22.259  1.00  0.00    -0.032 C 
HETATM   16  C23 UNL     1      -2.151  52.592 -22.147  1.00  0.00     0.016 C 
HETATM   17  C24 UNL     1      -5.029  48.615 -23.125  1.00  0.00     0.036 C 
HETATM   18  C25 UNL     1      -5.217  48.075 -24.553  1.00  0.00     0.011 C 
HETATM   19  C26 UNL     1      -6.651  48.095 -25.044  1.00  0.00     0.033 C 
HETATM   20  C27 UNL     1      -7.588  47.267 -24.155  1.00  0.00     0.136 C 
HETATM   21  C34 UNL     1      -7.288  47.386 -22.605  1.00  0.00     0.014 C 
HETATM   22  C35 UNL     1      -8.622  47.501 -21.819  1.00  0.00     0.021 C 
HETATM   23  C36 UNL     1      -6.616  46.063 -22.147  1.00  0.00     0.021 C 
ENDROOT
BRANCH  20  24
HETATM   24  O2  UNL     1      -8.966  47.576 -24.432  1.00  0.00    -0.352 OA
BRANCH  24  25
HETATM   25  C28 UNL     1      -9.380  47.360 -25.785  1.00  0.00     0.292 C 
HETATM   26  O3  UNL     1      -8.745  46.195 -26.311  1.00  0.00    -0.348 OA
HETATM   27  C29 UNL     1      -9.115  45.934 -27.677  1.00  0.00     0.179 C 
HETATM   28  C31 UNL     1      -8.703  47.097 -28.586  1.00  0.00     0.180 C 
HETATM   29  C32 UNL     1      -9.307  48.400 -28.058  1.00  0.00     0.183 C 
HETATM   30  C33 UNL     1      -8.951  48.602 -26.588  1.00  0.00     0.204 C 
BRANCH  27  31
HETATM   31  C30 UNL     1      -8.430  44.630 -28.094  1.00  0.00     0.198 C 
BRANCH  31  32
HETATM   32  O4  UNL     1      -7.284  44.936 -28.893  1.00  0.00    -0.398 OA
HETATM   33  H44 UNL     1      -7.608  45.553 -29.577  1.00  0.00     0.209 HD
ENDBRANCH  31  32
ENDBRANCH  27  31
BRANCH  28  34
HETATM   34  O5  UNL     1      -9.143  46.881 -29.927  1.00  0.00    -0.390 OA
HETATM   35  H46 UNL     1      -9.046  47.744 -30.378  1.00  0.00     0.210 HD
ENDBRANCH  28  34
BRANCH  29  36
HETATM   36  O6  UNL     1      -8.817  49.494 -28.849  1.00  0.00    -0.390 OA
HETATM   37  H48 UNL     1      -9.086  50.300 -28.361  1.00  0.00     0.210 HD
ENDBRANCH  29  36
BRANCH  30  38
HETATM   38  O7  UNL     1      -9.609  49.787 -26.108  1.00  0.00    -0.388 OA
HETATM   39  H50 UNL     1      -9.393  49.827 -25.154  1.00  0.00     0.210 HD
ENDBRANCH  30  38
ENDBRANCH  24  25
ENDBRANCH  20  24
BRANCH   1  40
HETATM   40  C7  UNL     1       0.798  51.841 -22.202  1.00  0.00    -0.010 C 
HETATM   41  C8  UNL     1       1.291  52.714 -21.040  1.00  0.00     0.010 C 
BRANCH  40  42
HETATM   42  C6  UNL     1       0.298  52.746 -23.365  1.00  0.00     0.031 C 
BRANCH  42  43
HETATM   43  C5  UNL     1       0.935  52.625 -24.730  1.00  0.00    -0.026 C 
HETATM   44  C4  UNL     1       0.581  51.811 -25.740  1.00  0.00     0.002 C 
BRANCH  44  45
HETATM   45  C2  UNL     1       1.214  51.747 -27.050  1.00  0.00    -0.072 C 
HETATM   46  C1  UNL     1       0.459  51.826 -28.158  1.00  0.00     0.018 C 
HETATM   47  C3  UNL     1       2.712  51.613 -27.150  1.00  0.00     0.047 C 
ENDBRANCH  44  45
ENDBRANCH  42  43
ENDBRANCH  40  42
ENDBRANCH   1  40
TORSDOF 11
ENDMDL
MODEL 8
REMARK minimizedAffinity -8.68496513
REMARK CNNscore 0.335304469
REMARK CNNaffinity 6.14826202
REMARK  11 active torsions:
REMARK  status: ('A' for Active; 'I' for Inactive)
REMARK    1  A    between atoms: C2_2  and  C4_4 
REMARK    2  A    between atoms: C5_5  and  C6_6 
REMARK    3  A    between atoms: C6_6  and  C7_7 
REMARK    4  A    between atoms: C7_7  and  C9_9 
REMARK    5  A    between atoms: C27_28  and  O2_29 
REMARK    6  A    between atoms: O2_29  and  C28_30 
REMARK    7  A    between atoms: C29_32  and  C30_33 
REMARK    8  A    between atoms: C30_33  and  O4_34 
REMARK    9  A    between atoms: C31_35  and  O5_36 
REMARK   10  A    between atoms: C32_37  and  O6_38 
REMARK   11  A    between atoms: C33_39  and  O7_40 
ROOT
HETATM    1  C9  UNL     1      -6.249  46.984 -30.651  1.00  0.00    -0.002 C 
HETATM    2  C10 UNL     1      -5.583  47.608 -29.380  1.00  0.00     0.006 C 
HETATM    3  C11 UNL     1      -6.709  47.947 -28.380  1.00  0.00     0.011 C 
HETATM    4  C12 UNL     1      -7.945  47.218 -28.936  1.00  0.00    -0.029 C 
HETATM    5  C13 UNL     1      -7.796  45.730 -28.472  1.00  0.00     0.016 C 
HETATM    6  C14 UNL     1      -9.324  47.803 -28.491  1.00  0.00     0.028 C 
HETATM    7  C15 UNL     1      -9.547  47.728 -26.993  1.00  0.00    -0.021 C 
HETATM    8  C16 UNL     1     -10.668  47.203 -26.468  1.00  0.00     0.008 C 
HETATM    9  C17 UNL     1     -11.769  46.628 -27.352  1.00  0.00     0.092 C 
HETATM   10  O1  UNL     1     -12.424  47.794 -27.902  1.00  0.00    -0.374 OA
HETATM   11  C18 UNL     1     -11.767  48.146 -29.133  1.00  0.00     0.179 C 
HETATM   12  C19 UNL     1     -10.552  47.201 -29.313  1.00  0.00    -0.004 C 
HETATM   13  C20 UNL     1     -10.235  47.087 -30.828  1.00  0.00     0.014 C 
HETATM   14  C21 UNL     1      -8.823  46.613 -31.212  1.00  0.00     0.011 C 
HETATM   15  C22 UNL     1      -7.738  47.428 -30.485  1.00  0.00    -0.032 C 
HETATM   16  C23 UNL     1      -7.852  48.918 -30.947  1.00  0.00     0.016 C 
HETATM   17  C24 UNL     1     -11.106  45.943 -28.578  1.00  0.00     0.036 C 
HETATM   18  C25 UNL     1     -12.071  45.019 -29.340  1.00  0.00     0.011 C 
HETATM   19  C26 UNL     1     -13.539  45.303 -29.088  1.00  0.00     0.033 C 
HETATM   20  C27 UNL     1     -13.916  45.174 -27.606  1.00  0.00     0.136 C 
HETATM   21  C34 UNL     1     -12.824  45.735 -26.606  1.00  0.00     0.014 C 
HETATM   22  C35 UNL     1     -13.516  46.524 -25.461  1.00  0.00     0.021 C 
HETATM   23  C36 UNL     1     -12.117  44.521 -25.943  1.00  0.00     0.021 C 
ENDROOT
BRANCH  20  24
HETATM   24  O2  UNL     1     -15.198  45.773 -27.347  1.00  0.00    -0.352 OA
BRANCH  24  25
HETATM   25  C28 UNL     1     -16.286  44.852 -27.214  1.00  0.00     0.292 C 
HETATM   26  O3  UNL     1     -16.685  44.377 -28.499  1.00  0.00    -0.348 OA
HETATM   27  C29 UNL     1     -17.787  43.454 -28.429  1.00  0.00     0.179 C 
HETATM   28  C31 UNL     1     -19.021  44.124 -27.816  1.00  0.00     0.180 C 
HETATM   29  C32 UNL     1     -18.662  44.707 -26.447  1.00  0.00     0.183 C 
HETATM   30  C33 UNL     1     -17.445  45.621 -26.554  1.00  0.00     0.204 C 
BRANCH  27  31
HETATM   31  C30 UNL     1     -18.066  42.968 -29.854  1.00  0.00     0.198 C 
BRANCH  31  32
HETATM   32  O4  UNL     1     -18.436  44.085 -30.667  1.00  0.00    -0.398 OA
HETATM   33  H44 UNL     1     -19.138  44.543 -30.166  1.00  0.00     0.209 HD
ENDBRANCH  31  32
ENDBRANCH  27  31
BRANCH  28  34
HETATM   34  O5  UNL     1     -20.091  43.189 -27.666  1.00  0.00    -0.390 OA
HETATM   35  H46 UNL     1     -20.739  43.624 -27.075  1.00  0.00     0.210 HD
ENDBRANCH  28  34
BRANCH  29  36
HETATM   36  O6  UNL     1     -19.793  45.431 -25.938  1.00  0.00    -0.390 OA
HETATM   37  H48 UNL     1     -19.450  45.923 -25.164  1.00  0.00     0.210 HD
ENDBRANCH  29  36
BRANCH  30  38
HETATM   38  O7  UNL     1     -17.087  46.075 -25.238  1.00  0.00    -0.388 OA
HETATM   39  H50 UNL     1     -16.272  46.602 -25.365  1.00  0.00     0.210 HD
ENDBRANCH  30  38
ENDBRANCH  24  25
ENDBRANCH  20  24
BRANCH   1  40
HETATM   40  C7  UNL     1      -5.460  47.329 -31.956  1.00  0.00    -0.010 C 
HETATM   41  C8  UNL     1      -6.376  47.308 -33.187  1.00  0.00     0.010 C 
BRANCH  40  42
HETATM   42  C6  UNL     1      -4.287  46.326 -32.155  1.00  0.00     0.031 C 
BRANCH  42  43
HETATM   43  C5  UNL     1      -4.552  44.842 -32.057  1.00  0.00    -0.026 C 
HETATM   44  C4  UNL     1      -4.360  43.902 -32.999  1.00  0.00     0.002 C 
BRANCH  44  45
HETATM   45  C2  UNL     1      -4.610  42.475 -32.848  1.00  0.00    -0.072 C 
HETATM   46  C1  UNL     1      -5.848  42.045 -32.555  1.00  0.00     0.018 C 
HETATM   47  C3  UNL     1      -3.482  41.494 -33.038  1.00  0.00     0.047 C 
ENDBRANCH  44  45
ENDBRANCH  42  43
ENDBRANCH  40  42
ENDBRANCH   1  40
TORSDOF 11
ENDMDL
MODEL 9
REMARK minimizedAffinity -9.14067841
REMARK CNNscore 0.334201455
REMARK CNNaffinity 7.37534666
REMARK  11 active torsions:
REMARK  status: ('A' for Active; 'I' for Inactive)
REMARK    1  A    between atoms: C2_2  and  C4_4 
REMARK    2  A    between atoms: C5_5  and  C6_6 
REMARK    3  A    between atoms: C6_6  and  C7_7 
REMARK    4  A    between atoms: C7_7  and  C9_9 
REMARK    5  A    between atoms: C27_28  and  O2_29 
REMARK    6  A    between atoms: O2_29  and  C28_30 
REMARK    7  A    between atoms: C29_32  and  C30_33 
REMARK    8  A    between atoms: C30_33  and  O4_34 
REMARK    9  A    between atoms: C31_35  and  O5_36 
REMARK   10  A    between atoms: C32_37  and  O6_38 
REMARK   11  A    between atoms: C33_39  and  O7_40 
ROOT
HETATM    1  C9  UNL     1      -3.797  50.687 -25.245  1.00  0.00    -0.002 C 
HETATM    2  C10 UNL     1      -4.175  49.217 -25.626  1.00  0.00     0.006 C 
HETATM    3  C11 UNL     1      -3.803  48.313 -24.431  1.00  0.00     0.011 C 
HETATM    4  C12 UNL     1      -3.538  49.297 -23.277  1.00  0.00    -0.029 C 
HETATM    5  C13 UNL     1      -4.950  49.680 -22.722  1.00  0.00     0.016 C 
HETATM    6  C14 UNL     1      -2.619  48.756 -22.135  1.00  0.00     0.028 C 
HETATM    7  C15 UNL     1      -3.207  47.559 -21.414  1.00  0.00    -0.021 C 
HETATM    8  C16 UNL     1      -3.299  47.512 -20.074  1.00  0.00     0.008 C 
HETATM    9  C17 UNL     1      -2.840  48.676 -19.202  1.00  0.00     0.092 C 
HETATM   10  O1  UNL     1      -1.397  48.589 -19.230  1.00  0.00    -0.374 OA
HETATM   11  C18 UNL     1      -0.916  49.369 -20.339  1.00  0.00     0.179 C 
HETATM   12  C19 UNL     1      -2.146  49.895 -21.122  1.00  0.00    -0.004 C 
HETATM   13  C20 UNL     1      -1.740  51.197 -21.863  1.00  0.00     0.014 C 
HETATM   14  C21 UNL     1      -2.616  51.625 -23.054  1.00  0.00     0.011 C 
HETATM   15  C22 UNL     1      -2.816  50.467 -24.049  1.00  0.00    -0.032 C 
HETATM   16  C23 UNL     1      -1.419  50.078 -24.636  1.00  0.00     0.016 C 
HETATM   17  C24 UNL     1      -3.161  50.002 -19.944  1.00  0.00     0.036 C 
HETATM   18  C25 UNL     1      -3.088  51.233 -19.026  1.00  0.00     0.011 C 
HETATM   19  C26 UNL     1      -2.276  51.024 -17.763  1.00  0.00     0.033 C 
HETATM   20  C27 UNL     1      -2.826  49.884 -16.894  1.00  0.00     0.136 C 
HETATM   21  C34 UNL     1      -3.341  48.631 -17.714  1.00  0.00     0.014 C 
HETATM   22  C35 UNL     1      -2.890  47.322 -17.010  1.00  0.00     0.021 C 
HETATM   23  C36 UNL     1      -4.894  48.643 -17.677  1.00  0.00     0.021 C 
ENDROOT
BRANCH  20  24
HETATM   24  O2  UNL     1      -1.864  49.483 -15.903  1.00  0.00    -0.352 OA
BRANCH  24  25
HETATM   25  C28 UNL     1      -2.295  49.618 -14.544  1.00  0.00     0.292 C 
HETATM   26  O3  UNL     1      -2.656  50.973 -14.278  1.00  0.00    -0.348 OA
HETATM   27  C29 UNL     1      -3.086  51.172 -12.919  1.00  0.00     0.179 C 
HETATM   28  C31 UNL     1      -1.965  50.824 -11.935  1.00  0.00     0.180 C 
HETATM   29  C32 UNL     1      -1.484  49.394 -12.189  1.00  0.00     0.183 C 
HETATM   30  C33 UNL     1      -1.107  49.205 -13.656  1.00  0.00     0.204 C 
BRANCH  27  31
HETATM   31  C30 UNL     1      -3.511  52.637 -12.786  1.00  0.00     0.198 C 
BRANCH  31  32
HETATM   32  O4  UNL     1      -3.968  53.111 -14.055  1.00  0.00    -0.398 OA
HETATM   33  H44 UNL     1      -3.265  52.867 -14.686  1.00  0.00     0.209 HD
ENDBRANCH  31  32
ENDBRANCH  27  31
BRANCH  28  34
HETATM   34  O5  UNL     1      -2.414  50.939 -10.584  1.00  0.00    -0.390 OA
HETATM   35  H46 UNL     1      -1.733  50.492 -10.041  1.00  0.00     0.210 HD
ENDBRANCH  28  34
BRANCH  29  36
HETATM   36  O6  UNL     1      -0.357  49.123 -11.341  1.00  0.00    -0.390 OA
HETATM   37  H48 UNL     1       0.012  48.278 -11.672  1.00  0.00     0.210 HD
ENDBRANCH  29  36
BRANCH  30  38
HETATM   38  O7  UNL     1      -0.748  47.830 -13.870  1.00  0.00    -0.388 OA
HETATM   39  H50 UNL     1      -0.577  47.761 -14.832  1.00  0.00     0.210 HD
ENDBRANCH  30  38
ENDBRANCH  24  25
ENDBRANCH  20  24
BRANCH   1  40
HETATM   40  C7  UNL     1      -3.353  51.520 -26.492  1.00  0.00    -0.010 C 
HETATM   41  C8  UNL     1      -2.910  50.610 -27.646  1.00  0.00     0.010 C 
BRANCH  40  42
HETATM   42  C6  UNL     1      -2.194  52.484 -26.107  1.00  0.00     0.031 C 
BRANCH  42  43
HETATM   43  C5  UNL     1      -0.853  52.346 -26.791  1.00  0.00    -0.026 C 
HETATM   44  C4  UNL     1       0.270  51.787 -26.307  1.00  0.00     0.002 C 
BRANCH  44  45
HETATM   45  C2  UNL     1       1.536  51.657 -27.017  1.00  0.00    -0.072 C 
HETATM   46  C1  UNL     1       2.644  51.312 -26.341  1.00  0.00     0.018 C 
HETATM   47  C3  UNL     1       1.586  51.894 -28.504  1.00  0.00     0.047 C 
ENDBRANCH  44  45
ENDBRANCH  42  43
ENDBRANCH  40  42
ENDBRANCH   1  40
TORSDOF 11
ENDMDL
