MODEL 1
REMARK minimizedAffinity -7.54367304
REMARK CNNscore 0.608360291
REMARK CNNaffinity 6.38898897
REMARK  8 active torsions:
REMARK  status: ('A' for Active; 'I' for Inactive)
REMARK    1  A    between atoms: C4_4  and  C5_5 
REMARK    2  A    between atoms: C5_5  and  C6_6 
REMARK    3  A    between atoms: C6_6  and  C7_7 
REMARK    4  A    between atoms: C7_7  and  C9_9 
REMARK    5  A    between atoms: C18_18  and  C20_20 
REMARK    6  A    between atoms: C20_20  and  O2_22 
REMARK    7  A    between atoms: C21_23  and  O3_24 
REMARK    8  A    between atoms: C23_26  and  O4_27 
ROOT
HETATM    1  C9  UNL     1       5.043  55.941  -8.239  1.00  0.00    -0.002 C 
HETATM    2  C10 UNL     1       5.913  55.182  -9.280  1.00  0.00     0.006 C 
HETATM    3  C11 UNL     1       4.970  54.264 -10.071  1.00  0.00     0.011 C 
HETATM    4  C12 UNL     1       3.556  54.802  -9.784  1.00  0.00    -0.032 C 
HETATM    5  C13 UNL     1       3.339  56.012 -10.749  1.00  0.00     0.016 C 
HETATM    6  C14 UNL     1       2.427  53.755  -9.960  1.00  0.00     0.004 C 
HETATM    7  C15 UNL     1       2.196  53.327 -11.417  1.00  0.00     0.007 C 
HETATM    8  C16 UNL     1       1.142  52.228 -11.473  1.00  0.00     0.007 C 
HETATM    9  C17 UNL     1      -0.238  52.803 -11.117  1.00  0.00     0.018 C 
HETATM   10  C18 UNL     1      -1.402  51.747 -11.132  1.00  0.00     0.072 C 
HETATM   11  C19 UNL     1      -1.042  50.450 -10.374  1.00  0.00     0.030 C 
HETATM   12  C21 UNL     1      -2.732  52.358 -10.584  1.00  0.00     0.139 C 
HETATM   13  C22 UNL     1      -2.697  53.879 -10.540  1.00  0.00     0.065 C 
HETATM   14  C23 UNL     1      -1.559  54.419  -9.659  1.00  0.00     0.130 C 
HETATM   15  C24 UNL     1      -0.245  53.641  -9.829  1.00  0.00    -0.001 A 
HETATM   16  C25 UNL     1       0.358  53.062  -8.566  1.00  0.00     0.024 A 
HETATM   17  C26 UNL     1       1.111  54.182  -9.256  1.00  0.00    -0.025 A 
HETATM   18  C27 UNL     1       1.120  55.537  -8.530  1.00  0.00     0.011 C 
HETATM   19  C28 UNL     1       2.435  55.996  -7.866  1.00  0.00     0.011 C 
HETATM   20  C29 UNL     1       3.676  55.180  -8.260  1.00  0.00    -0.032 C 
HETATM   21  C30 UNL     1       3.730  53.953  -7.310  1.00  0.00     0.016 C 
ENDROOT
BRANCH   1  22
HETATM   22  C7  UNL     1       5.815  56.271  -6.924  1.00  0.00    -0.014 C 
HETATM   23  C8  UNL     1       5.675  57.712  -6.411  1.00  0.00     0.010 C 
BRANCH  22  24
HETATM   24  C6  UNL     1       7.296  55.826  -7.011  1.00  0.00     0.008 C 
BRANCH  24  25
HETATM   25  C5  UNL     1       8.020  55.690  -5.662  1.00  0.00     0.028 C 
BRANCH  25  26
HETATM   26  C4  UNL     1       8.901  56.853  -5.305  1.00  0.00    -0.025 C 
HETATM   27  C2  UNL     1      10.220  56.846  -5.022  1.00  0.00    -0.091 C 
HETATM   28  C1  UNL     1      10.934  58.125  -4.681  1.00  0.00     0.042 C 
HETATM   29  C3  UNL     1      11.103  55.623  -4.987  1.00  0.00     0.042 C 
ENDBRANCH  25  26
ENDBRANCH  24  25
ENDBRANCH  22  24
ENDBRANCH   1  22
BRANCH  14  30
HETATM   30  O4  UNL     1      -1.361  55.783 -10.038  1.00  0.00    -0.395 OA
HETATM   31  H39 UNL     1      -2.143  56.276  -9.734  1.00  0.00     0.210 HD
ENDBRANCH  14  30
BRANCH  10  32
HETATM   32  C20 UNL     1      -1.661  51.352 -12.589  1.00  0.00     0.151 C 
HETATM   33  O1  UNL     1      -1.839  50.224 -13.018  1.00  0.00    -0.649 OA
BRANCH  32  34
HETATM   34  O2  UNL     1      -1.707  52.396 -13.439  1.00  0.00    -0.776 OA
HETATM   35  H33 UNL     1      -1.842  51.985 -14.320  1.00  0.00     0.167 HD
ENDBRANCH  32  34
ENDBRANCH  10  32
BRANCH  12  36
HETATM   36  O3  UNL     1      -3.055  51.900  -9.263  1.00  0.00    -0.394 OA
HETATM   37  H35 UNL     1      -3.420  50.998  -9.343  1.00  0.00     0.210 HD
ENDBRANCH  12  36
TORSDOF 8
ENDMDL
MODEL 2
REMARK minimizedAffinity -7.74031448
REMARK CNNscore 0.448057145
REMARK CNNaffinity 6.70175171
REMARK  8 active torsions:
REMARK  status: ('A' for Active; 'I' for Inactive)
REMARK    1  A    between atoms: C4_4  and  C5_5 
REMARK    2  A    between atoms: C5_5  and  C6_6 
REMARK    3  A    between atoms: C6_6  and  C7_7 
REMARK    4  A    between atoms: C7_7  and  C9_9 
REMARK    5  A    between atoms: C18_18  and  C20_20 
REMARK    6  A    between atoms: C20_20  and  O2_22 
REMARK    7  A    between atoms: C21_23  and  O3_24 
REMARK    8  A    between atoms: C23_26  and  O4_27 
ROOT
HETATM    1  C9  UNL     1      -2.069  50.959 -22.426  1.00  0.00    -0.002 C 
HETATM    2  C10 UNL     1      -2.608  50.542 -23.824  1.00  0.00     0.006 C 
HETATM    3  C11 UNL     1      -3.542  49.344 -23.606  1.00  0.00     0.011 C 
HETATM    4  C12 UNL     1      -3.862  49.355 -22.100  1.00  0.00    -0.032 C 
HETATM    5  C13 UNL     1      -5.005  50.401 -21.898  1.00  0.00     0.016 C 
HETATM    6  C14 UNL     1      -4.276  47.977 -21.525  1.00  0.00     0.004 C 
HETATM    7  C15 UNL     1      -5.642  47.479 -22.025  1.00  0.00     0.007 C 
HETATM    8  C16 UNL     1      -5.911  46.080 -21.485  1.00  0.00     0.007 C 
HETATM    9  C17 UNL     1      -6.161  46.138 -19.970  1.00  0.00     0.018 C 
HETATM   10  C18 UNL     1      -6.438  44.741 -19.306  1.00  0.00     0.072 C 
HETATM   11  C19 UNL     1      -5.422  43.661 -19.738  1.00  0.00     0.030 C 
HETATM   12  C21 UNL     1      -6.497  44.854 -17.747  1.00  0.00     0.139 C 
HETATM   13  C22 UNL     1      -6.665  46.291 -17.276  1.00  0.00     0.065 C 
HETATM   14  C23 UNL     1      -5.523  47.204 -17.748  1.00  0.00     0.130 C 
HETATM   15  C24 UNL     1      -5.096  46.935 -19.199  1.00  0.00    -0.001 A 
HETATM   16  C25 UNL     1      -3.632  46.618 -19.417  1.00  0.00     0.024 A 
HETATM   17  C26 UNL     1      -4.161  47.922 -19.978  1.00  0.00    -0.025 A 
HETATM   18  C27 UNL     1      -3.685  49.203 -19.273  1.00  0.00     0.011 C 
HETATM   19  C28 UNL     1      -2.667  50.101 -20.008  1.00  0.00     0.011 C 
HETATM   20  C29 UNL     1      -2.468  49.767 -21.495  1.00  0.00    -0.032 C 
HETATM   21  C30 UNL     1      -1.394  48.648 -21.565  1.00  0.00     0.016 C 
ENDROOT
BRANCH   1  22
HETATM   22  C7  UNL     1      -0.628  51.554 -22.481  1.00  0.00    -0.014 C 
HETATM   23  C8  UNL     1      -0.150  52.268 -21.209  1.00  0.00     0.010 C 
BRANCH  22  24
HETATM   24  C6  UNL     1      -0.422  52.422 -23.747  1.00  0.00     0.008 C 
BRANCH  24  25
HETATM   25  C5  UNL     1      -0.269  51.639 -25.061  1.00  0.00     0.028 C 
BRANCH  25  26
HETATM   26  C4  UNL     1       1.098  51.717 -25.680  1.00  0.00    -0.025 C 
HETATM   27  C2  UNL     1       1.425  51.691 -26.989  1.00  0.00    -0.091 C 
HETATM   28  C1  UNL     1       2.865  51.778 -27.417  1.00  0.00     0.042 C 
HETATM   29  C3  UNL     1       0.453  51.551 -28.134  1.00  0.00     0.042 C 
ENDBRANCH  25  26
ENDBRANCH  24  25
ENDBRANCH  22  24
ENDBRANCH   1  22
BRANCH  14  30
HETATM   30  O4  UNL     1      -5.999  48.548 -17.630  1.00  0.00    -0.395 OA
HETATM   31  H39 UNL     1      -6.070  48.738 -16.678  1.00  0.00     0.210 HD
ENDBRANCH  14  30
BRANCH  10  32
HETATM   32  C20 UNL     1      -7.818  44.264 -19.770  1.00  0.00     0.151 C 
HETATM   33  O1  UNL     1      -8.110  43.146 -20.159  1.00  0.00    -0.649 OA
BRANCH  32  34
HETATM   34  O2  UNL     1      -8.774  45.210 -19.703  1.00  0.00    -0.776 OA
HETATM   35  H33 UNL     1      -9.575  44.769 -20.060  1.00  0.00     0.167 HD
ENDBRANCH  32  34
ENDBRANCH  10  32
BRANCH  12  36
HETATM   36  O3  UNL     1      -5.329  44.326 -17.104  1.00  0.00    -0.394 OA
HETATM   37  H35 UNL     1      -5.402  43.352 -17.107  1.00  0.00     0.210 HD
ENDBRANCH  12  36
TORSDOF 8
ENDMDL
MODEL 3
REMARK minimizedAffinity -7.51311445
REMARK CNNscore 0.415691316
REMARK CNNaffinity 6.29338503
REMARK  8 active torsions:
REMARK  status: ('A' for Active; 'I' for Inactive)
REMARK    1  A    between atoms: C4_4  and  C5_5 
REMARK    2  A    between atoms: C5_5  and  C6_6 
REMARK    3  A    between atoms: C6_6  and  C7_7 
REMARK    4  A    between atoms: C7_7  and  C9_9 
REMARK    5  A    between atoms: C18_18  and  C20_20 
REMARK    6  A    between atoms: C20_20  and  O2_22 
REMARK    7  A    between atoms: C21_23  and  O3_24 
REMARK    8  A    between atoms: C23_26  and  O4_27 
ROOT
HETATM    1  C9  UNL     1      -4.464  49.183 -22.358  1.00  0.00    -0.002 C 
HETATM    2  C10 UNL     1      -4.427  50.428 -21.426  1.00  0.00     0.006 C 
HETATM    3  C11 UNL     1      -5.649  50.334 -20.502  1.00  0.00     0.011 C 
HETATM    4  C12 UNL     1      -6.122  48.873 -20.612  1.00  0.00    -0.032 C 
HETATM    5  C13 UNL     1      -5.215  48.042 -19.648  1.00  0.00     0.016 C 
HETATM    6  C14 UNL     1      -7.618  48.659 -20.271  1.00  0.00     0.004 C 
HETATM    7  C15 UNL     1      -7.957  48.878 -18.789  1.00  0.00     0.007 C 
HETATM    8  C16 UNL     1      -9.460  48.744 -18.576  1.00  0.00     0.007 C 
HETATM    9  C17 UNL     1      -9.889  47.280 -18.759  1.00  0.00     0.018 C 
HETATM   10  C18 UNL     1     -11.430  47.029 -18.573  1.00  0.00     0.072 C 
HETATM   11  C19 UNL     1     -12.298  48.045 -19.348  1.00  0.00     0.030 C 
HETATM   12  C21 UNL     1     -11.818  45.564 -18.953  1.00  0.00     0.139 C 
HETATM   13  C22 UNL     1     -10.608  44.644 -19.028  1.00  0.00     0.065 C 
HETATM   14  C23 UNL     1      -9.571  45.115 -20.059  1.00  0.00     0.130 C 
HETATM   15  C24 UNL     1      -9.359  46.636 -20.050  1.00  0.00    -0.001 A 
HETATM   16  C25 UNL     1      -9.563  47.349 -21.370  1.00  0.00     0.024 A 
HETATM   17  C26 UNL     1      -8.158  47.304 -20.804  1.00  0.00    -0.025 A 
HETATM   18  C27 UNL     1      -7.159  46.404 -21.549  1.00  0.00     0.011 C 
HETATM   19  C28 UNL     1      -6.055  47.083 -22.388  1.00  0.00     0.011 C 
HETATM   20  C29 UNL     1      -5.897  48.592 -22.145  1.00  0.00    -0.032 C 
HETATM   21  C30 UNL     1      -6.916  49.308 -23.072  1.00  0.00     0.016 C 
ENDROOT
BRANCH   1  22
HETATM   22  C7  UNL     1      -3.856  49.459 -23.768  1.00  0.00    -0.014 C 
HETATM   23  C8  UNL     1      -4.342  48.539 -24.897  1.00  0.00     0.010 C 
BRANCH  22  24
HETATM   24  C6  UNL     1      -2.311  49.543 -23.711  1.00  0.00     0.008 C 
BRANCH  24  25
HETATM   25  C5  UNL     1      -1.719  50.936 -23.983  1.00  0.00     0.028 C 
BRANCH  25  26
HETATM   26  C4  UNL     1      -0.944  51.520 -22.837  1.00  0.00    -0.025 C 
HETATM   27  C2  UNL     1       0.033  52.450 -22.876  1.00  0.00    -0.091 C 
HETATM   28  C1  UNL     1       0.700  52.911 -21.609  1.00  0.00     0.042 C 
HETATM   29  C3  UNL     1       0.578  53.097 -24.126  1.00  0.00     0.042 C 
ENDBRANCH  25  26
ENDBRANCH  24  25
ENDBRANCH  22  24
ENDBRANCH   1  22
BRANCH  14  30
HETATM   30  O4  UNL     1      -8.343  44.457 -19.735  1.00  0.00    -0.395 OA
HETATM   31  H39 UNL     1      -8.466  43.515 -19.942  1.00  0.00     0.210 HD
ENDBRANCH  14  30
BRANCH  10  32
HETATM   32  C20 UNL     1     -11.760  47.206 -17.088  1.00  0.00     0.151 C 
HETATM   33  O1  UNL     1     -11.025  46.971 -16.144  1.00  0.00    -0.649 OA
BRANCH  32  34
HETATM   34  O2  UNL     1     -12.996  47.689 -16.856  1.00  0.00    -0.776 OA
HETATM   35  H33 UNL     1     -13.068  47.711 -15.878  1.00  0.00     0.167 HD
ENDBRANCH  32  34
ENDBRANCH  10  32
BRANCH  12  36
HETATM   36  O3  UNL     1     -12.501  45.475 -20.212  1.00  0.00    -0.394 OA
HETATM   37  H35 UNL     1     -13.425  45.757 -20.069  1.00  0.00     0.210 HD
ENDBRANCH  12  36
TORSDOF 8
ENDMDL
MODEL 4
REMARK minimizedAffinity -7.63086748
REMARK CNNscore 0.40489912
REMARK CNNaffinity 6.53439903
REMARK  8 active torsions:
REMARK  status: ('A' for Active; 'I' for Inactive)
REMARK    1  A    between atoms: C4_4  and  C5_5 
REMARK    2  A    between atoms: C5_5  and  C6_6 
REMARK    3  A    between atoms: C6_6  and  C7_7 
REMARK    4  A    between atoms: C7_7  and  C9_9 
REMARK    5  A    between atoms: C18_18  and  C20_20 
REMARK    6  A    between atoms: C20_20  and  O2_22 
REMARK    7  A    between atoms: C21_23  and  O3_24 
REMARK    8  A    between atoms: C23_26  and  O4_27 
ROOT
HETATM    1  C9  UNL     1       2.791  55.581  -6.887  1.00  0.00    -0.002 C 
HETATM    2  C10 UNL     1       2.171  54.992  -5.587  1.00  0.00     0.006 C 
HETATM    3  C11 UNL     1       0.935  54.183  -6.005  1.00  0.00     0.011 C 
HETATM    4  C12 UNL     1       1.096  53.962  -7.520  1.00  0.00    -0.032 C 
HETATM    5  C13 UNL     1       2.064  52.746  -7.689  1.00  0.00     0.016 C 
HETATM    6  C14 UNL     1      -0.234  53.708  -8.273  1.00  0.00     0.004 C 
HETATM    7  C15 UNL     1      -0.895  52.363  -7.934  1.00  0.00     0.007 C 
HETATM    8  C16 UNL     1      -2.239  52.253  -8.644  1.00  0.00     0.007 C 
HETATM    9  C17 UNL     1      -2.024  52.098 -10.158  1.00  0.00     0.018 C 
HETATM   10  C18 UNL     1      -3.352  51.989 -10.991  1.00  0.00     0.072 C 
HETATM   11  C19 UNL     1      -4.390  53.066 -10.607  1.00  0.00     0.030 C 
HETATM   12  C21 UNL     1      -3.064  52.020 -12.527  1.00  0.00     0.139 C 
HETATM   13  C22 UNL     1      -1.600  51.756 -12.848  1.00  0.00     0.065 C 
HETATM   14  C23 UNL     1      -0.659  52.780 -12.194  1.00  0.00     0.130 C 
HETATM   15  C24 UNL     1      -1.060  53.135 -10.755  1.00  0.00    -0.001 A 
HETATM   16  C25 UNL     1      -1.282  54.605 -10.465  1.00  0.00     0.024 A 
HETATM   17  C26 UNL     1      -0.098  53.927  -9.804  1.00  0.00    -0.025 A 
HETATM   18  C27 UNL     1       1.290  54.333 -10.326  1.00  0.00     0.011 C 
HETATM   19  C28 UNL     1       2.175  55.218  -9.422  1.00  0.00     0.011 C 
HETATM   20  C29 UNL     1       1.688  55.349  -7.971  1.00  0.00    -0.032 C 
HETATM   21  C30 UNL     1       0.657  56.511  -7.946  1.00  0.00     0.016 C 
ENDROOT
BRANCH   1  22
HETATM   22  C7  UNL     1       3.489  56.957  -6.659  1.00  0.00    -0.014 C 
HETATM   23  C8  UNL     1       2.566  58.184  -6.666  1.00  0.00     0.010 C 
BRANCH  22  24
HETATM   24  C6  UNL     1       4.704  57.138  -7.603  1.00  0.00     0.008 C 
BRANCH  24  25
HETATM   25  C5  UNL     1       6.015  56.503  -7.113  1.00  0.00     0.028 C 
BRANCH  25  26
HETATM   26  C4  UNL     1       6.226  55.083  -7.556  1.00  0.00    -0.025 C 
HETATM   27  C2  UNL     1       6.112  54.570  -8.799  1.00  0.00    -0.091 C 
HETATM   28  C1  UNL     1       6.363  53.108  -9.047  1.00  0.00     0.042 C 
HETATM   29  C3  UNL     1       5.716  55.342 -10.034  1.00  0.00     0.042 C 
ENDBRANCH  25  26
ENDBRANCH  24  25
ENDBRANCH  22  24
ENDBRANCH   1  22
BRANCH  14  30
HETATM   30  O4  UNL     1       0.647  52.196 -12.198  1.00  0.00    -0.395 OA
HETATM   31  H39 UNL     1       0.940  52.170 -13.126  1.00  0.00     0.210 HD
ENDBRANCH  14  30
BRANCH  10  32
HETATM   32  C20 UNL     1      -3.989  50.629 -10.686  1.00  0.00     0.151 C 
HETATM   33  O1  UNL     1      -3.418  49.554 -10.623  1.00  0.00    -0.649 OA
BRANCH  32  34
HETATM   34  O2  UNL     1      -5.315  50.686 -10.454  1.00  0.00    -0.776 OA
HETATM   35  H33 UNL     1      -5.576  49.751 -10.313  1.00  0.00     0.167 HD
ENDBRANCH  32  34
ENDBRANCH  10  32
BRANCH  12  36
HETATM   36  O3  UNL     1      -3.417  53.270 -13.137  1.00  0.00    -0.394 OA
HETATM   37  H35 UNL     1      -4.388  53.282 -13.247  1.00  0.00     0.210 HD
ENDBRANCH  12  36
TORSDOF 8
ENDMDL
MODEL 5
REMARK minimizedAffinity -7.35556269
REMARK CNNscore 0.400889874
REMARK CNNaffinity 5.73125648
REMARK  8 active torsions:
REMARK  status: ('A' for Active; 'I' for Inactive)
REMARK    1  A    between atoms: C4_4  and  C5_5 
REMARK    2  A    between atoms: C5_5  and  C6_6 
REMARK    3  A    between atoms: C6_6  and  C7_7 
REMARK    4  A    between atoms: C7_7  and  C9_9 
REMARK    5  A    between atoms: C18_18  and  C20_20 
REMARK    6  A    between atoms: C20_20  and  O2_22 
REMARK    7  A    between atoms: C21_23  and  O3_24 
REMARK    8  A    between atoms: C23_26  and  O4_27 
ROOT
HETATM    1  C9  UNL     1     -13.758  46.098 -26.417  1.00  0.00    -0.002 C 
HETATM    2  C10 UNL     1     -14.797  45.833 -27.545  1.00  0.00     0.006 C 
HETATM    3  C11 UNL     1     -14.026  45.823 -28.872  1.00  0.00     0.011 C 
HETATM    4  C12 UNL     1     -12.548  45.654 -28.475  1.00  0.00    -0.032 C 
HETATM    5  C13 UNL     1     -12.328  44.127 -28.229  1.00  0.00     0.016 C 
HETATM    6  C14 UNL     1     -11.540  46.188 -29.524  1.00  0.00     0.004 C 
HETATM    7  C15 UNL     1     -11.502  45.369 -30.824  1.00  0.00     0.007 C 
HETATM    8  C16 UNL     1     -10.561  46.029 -31.824  1.00  0.00     0.007 C 
HETATM    9  C17 UNL     1      -9.106  45.888 -31.350  1.00  0.00     0.018 C 
HETATM   10  C18 UNL     1      -8.047  46.548 -32.306  1.00  0.00     0.072 C 
HETATM   11  C19 UNL     1      -8.438  47.980 -32.733  1.00  0.00     0.030 C 
HETATM   12  C21 UNL     1      -6.618  46.529 -31.672  1.00  0.00     0.139 C 
HETATM   13  C22 UNL     1      -6.515  45.560 -30.503  1.00  0.00     0.065 C 
HETATM   14  C23 UNL     1      -7.502  45.892 -29.373  1.00  0.00     0.130 C 
HETATM   15  C24 UNL     1      -8.890  46.305 -29.886  1.00  0.00    -0.001 A 
HETATM   16  C25 UNL     1      -9.404  47.648 -29.415  1.00  0.00     0.024 A 
HETATM   17  C26 UNL     1     -10.124  46.408 -28.926  1.00  0.00    -0.025 A 
HETATM   18  C27 UNL     1      -9.938  46.061 -27.440  1.00  0.00     0.011 C 
HETATM   19  C28 UNL     1     -11.131  46.286 -26.487  1.00  0.00     0.011 C 
HETATM   20  C29 UNL     1     -12.474  46.554 -27.185  1.00  0.00    -0.032 C 
HETATM   21  C30 UNL     1     -12.534  48.078 -27.475  1.00  0.00     0.016 C 
ENDROOT
BRANCH   1  22
HETATM   22  C7  UNL     1     -14.356  46.885 -25.210  1.00  0.00    -0.014 C 
HETATM   23  C8  UNL     1     -13.581  46.772 -23.890  1.00  0.00     0.010 C 
BRANCH  22  24
HETATM   24  C6  UNL     1     -15.864  46.582 -25.028  1.00  0.00     0.008 C 
BRANCH  24  25
HETATM   25  C5  UNL     1     -16.189  45.414 -24.082  1.00  0.00     0.028 C 
BRANCH  25  26
HETATM   26  C4  UNL     1     -16.846  45.819 -22.794  1.00  0.00    -0.025 C 
HETATM   27  C2  UNL     1     -18.130  46.179 -22.588  1.00  0.00    -0.091 C 
HETATM   28  C1  UNL     1     -18.606  46.557 -21.212  1.00  0.00     0.042 C 
HETATM   29  C3  UNL     1     -19.196  46.272 -23.652  1.00  0.00     0.042 C 
ENDBRANCH  25  26
ENDBRANCH  24  25
ENDBRANCH  22  24
ENDBRANCH   1  22
BRANCH  14  30
HETATM   30  O4  UNL     1      -7.618  44.712 -28.573  1.00  0.00    -0.395 OA
HETATM   31  H39 UNL     1      -6.768  44.600 -28.113  1.00  0.00     0.210 HD
ENDBRANCH  14  30
BRANCH  10  32
HETATM   32  C20 UNL     1      -7.978  45.707 -33.584  1.00  0.00     0.151 C 
HETATM   33  O1  UNL     1      -8.001  44.490 -33.659  1.00  0.00    -0.649 OA
BRANCH  32  34
HETATM   34  O2  UNL     1      -7.903  46.435 -34.715  1.00  0.00    -0.776 OA
HETATM   35  H33 UNL     1      -7.830  45.767 -35.429  1.00  0.00     0.167 HD
ENDBRANCH  32  34
ENDBRANCH  10  32
BRANCH  12  36
HETATM   36  O3  UNL     1      -6.199  47.817 -31.199  1.00  0.00    -0.394 OA
HETATM   37  H35 UNL     1      -5.925  48.344 -31.974  1.00  0.00     0.210 HD
ENDBRANCH  12  36
TORSDOF 8
ENDMDL
MODEL 6
REMARK minimizedAffinity -7.24153757
REMARK CNNscore 0.394030362
REMARK CNNaffinity 6.21341515
REMARK  8 active torsions:
REMARK  status: ('A' for Active; 'I' for Inactive)
REMARK    1  A    between atoms: C4_4  and  C5_5 
REMARK    2  A    between atoms: C5_5  and  C6_6 
REMARK    3  A    between atoms: C6_6  and  C7_7 
REMARK    4  A    between atoms: C7_7  and  C9_9 
REMARK    5  A    between atoms: C18_18  and  C20_20 
REMARK    6  A    between atoms: C20_20  and  O2_22 
REMARK    7  A    between atoms: C21_23  and  O3_24 
REMARK    8  A    between atoms: C23_26  and  O4_27 
ROOT
HETATM    1  C9  UNL     1       5.346  55.997  -7.915  1.00  0.00    -0.002 C 
HETATM    2  C10 UNL     1       6.209  55.335  -9.027  1.00  0.00     0.006 C 
HETATM    3  C11 UNL     1       5.259  54.502  -9.898  1.00  0.00     0.011 C 
HETATM    4  C12 UNL     1       3.849  55.017  -9.555  1.00  0.00    -0.032 C 
HETATM    5  C13 UNL     1       3.634  56.314 -10.401  1.00  0.00     0.016 C 
HETATM    6  C14 UNL     1       2.713  53.997  -9.825  1.00  0.00     0.004 C 
HETATM    7  C15 UNL     1       2.475  53.710 -11.316  1.00  0.00     0.007 C 
HETATM    8  C16 UNL     1       1.415  52.627 -11.471  1.00  0.00     0.007 C 
HETATM    9  C17 UNL     1       0.039  53.173 -11.057  1.00  0.00     0.018 C 
HETATM   10  C18 UNL     1      -1.131  52.128 -11.166  1.00  0.00     0.072 C 
HETATM   11  C19 UNL     1      -0.775  50.764 -10.536  1.00  0.00     0.030 C 
HETATM   12  C21 UNL     1      -2.456  52.692 -10.557  1.00  0.00     0.139 C 
HETATM   13  C22 UNL     1      -2.412  54.202 -10.370  1.00  0.00     0.065 C 
HETATM   14  C23 UNL     1      -1.268  54.649  -9.447  1.00  0.00     0.130 C 
HETATM   15  C24 UNL     1       0.041  53.884  -9.694  1.00  0.00    -0.001 A 
HETATM   16  C25 UNL     1       0.645  53.186  -8.495  1.00  0.00     0.024 A 
HETATM   17  C26 UNL     1       1.401  54.362  -9.079  1.00  0.00    -0.025 A 
HETATM   18  C27 UNL     1       1.420  55.642  -8.228  1.00  0.00     0.011 C 
HETATM   19  C28 UNL     1       2.741  56.030  -7.529  1.00  0.00     0.011 C 
HETATM   20  C29 UNL     1       3.976  55.248  -8.003  1.00  0.00    -0.032 C 
HETATM   21  C30 UNL     1       4.026  53.937  -7.173  1.00  0.00     0.016 C 
ENDROOT
BRANCH   1  22
HETATM   22  C7  UNL     1       6.125  56.198  -6.578  1.00  0.00    -0.014 C 
HETATM   23  C8  UNL     1       6.944  54.993  -6.095  1.00  0.00     0.010 C 
BRANCH  22  24
HETATM   24  C6  UNL     1       5.206  56.760  -5.466  1.00  0.00     0.008 C 
BRANCH  24  25
HETATM   25  C5  UNL     1       5.574  58.163  -4.957  1.00  0.00     0.028 C 
BRANCH  25  26
HETATM   26  C4  UNL     1       7.000  58.564  -5.206  1.00  0.00    -0.025 C 
HETATM   27  C2  UNL     1       7.649  59.660  -4.762  1.00  0.00    -0.091 C 
HETATM   28  C1  UNL     1       9.091  59.891  -5.123  1.00  0.00     0.042 C 
HETATM   29  C3  UNL     1       7.047  60.753  -3.913  1.00  0.00     0.042 C 
ENDBRANCH  25  26
ENDBRANCH  24  25
ENDBRANCH  22  24
ENDBRANCH   1  22
BRANCH  14  30
HETATM   30  O4  UNL     1      -1.064  56.043  -9.695  1.00  0.00    -0.395 OA
HETATM   31  H39 UNL     1      -1.843  56.508  -9.343  1.00  0.00     0.210 HD
ENDBRANCH  14  30
BRANCH  10  32
HETATM   32  C20 UNL     1      -1.398  51.874 -12.653  1.00  0.00     0.151 C 
HETATM   33  O1  UNL     1      -0.815  51.081 -13.373  1.00  0.00    -0.649 OA
BRANCH  32  34
HETATM   34  O2  UNL     1      -2.400  52.615 -13.163  1.00  0.00    -0.776 OA
HETATM   35  H33 UNL     1      -2.424  52.368 -14.113  1.00  0.00     0.167 HD
ENDBRANCH  32  34
ENDBRANCH  10  32
BRANCH  12  36
HETATM   36  O3  UNL     1      -2.777  52.112  -9.285  1.00  0.00    -0.394 OA
HETATM   37  H35 UNL     1      -3.147  51.224  -9.448  1.00  0.00     0.210 HD
ENDBRANCH  12  36
TORSDOF 8
ENDMDL
MODEL 7
REMARK minimizedAffinity -7.8010993
REMARK CNNscore 0.352242172
REMARK CNNaffinity 5.91538
REMARK  8 active torsions:
REMARK  status: ('A' for Active; 'I' for Inactive)
REMARK    1  A    between atoms: C4_4  and  C5_5 
REMARK    2  A    between atoms: C5_5  and  C6_6 
REMARK    3  A    between atoms: C6_6  and  C7_7 
REMARK    4  A    between atoms: C7_7  and  C9_9 
REMARK    5  A    between atoms: C18_18  and  C20_20 
REMARK    6  A    between atoms: C20_20  and  O2_22 
REMARK    7  A    between atoms: C21_23  and  O3_24 
REMARK    8  A    between atoms: C23_26  and  O4_27 
ROOT
HETATM    1  C9  UNL     1      -6.939  47.258 -30.975  1.00  0.00    -0.002 C 
HETATM    2  C10 UNL     1      -7.306  46.286 -32.133  1.00  0.00     0.006 C 
HETATM    3  C11 UNL     1      -8.636  45.619 -31.756  1.00  0.00     0.011 C 
HETATM    4  C12 UNL     1      -9.220  46.498 -30.635  1.00  0.00    -0.032 C 
HETATM    5  C13 UNL     1      -9.918  47.706 -31.339  1.00  0.00     0.016 C 
HETATM    6  C14 UNL     1     -10.213  45.764 -29.699  1.00  0.00     0.004 C 
HETATM    7  C15 UNL     1     -11.538  45.380 -30.376  1.00  0.00     0.007 C 
HETATM    8  C16 UNL     1     -12.400  44.578 -29.408  1.00  0.00     0.007 C 
HETATM    9  C17 UNL     1     -12.905  45.486 -28.275  1.00  0.00     0.018 C 
HETATM   10  C18 UNL     1     -13.797  44.755 -27.209  1.00  0.00     0.072 C 
HETATM   11  C19 UNL     1     -13.181  43.423 -26.725  1.00  0.00     0.030 C 
HETATM   12  C21 UNL     1     -14.118  45.689 -25.997  1.00  0.00     0.139 C 
HETATM   13  C22 UNL     1     -13.840  47.153 -26.305  1.00  0.00     0.065 C 
HETATM   14  C23 UNL     1     -12.374  47.407 -26.692  1.00  0.00     0.130 C 
HETATM   15  C24 UNL     1     -11.798  46.323 -27.614  1.00  0.00    -0.001 A 
HETATM   16  C25 UNL     1     -10.538  45.636 -27.133  1.00  0.00     0.024 A 
HETATM   17  C26 UNL     1     -10.433  46.518 -28.360  1.00  0.00    -0.025 A 
HETATM   18  C27 UNL     1      -9.672  47.842 -28.177  1.00  0.00     0.011 C 
HETATM   19  C28 UNL     1      -8.273  47.969 -28.818  1.00  0.00     0.011 C 
HETATM   20  C29 UNL     1      -7.920  46.862 -29.823  1.00  0.00    -0.032 C 
HETATM   21  C30 UNL     1      -7.337  45.679 -29.004  1.00  0.00     0.016 C 
ENDROOT
BRANCH   1  22
HETATM   22  C7  UNL     1      -5.400  47.409 -30.771  1.00  0.00    -0.014 C 
HETATM   23  C8  UNL     1      -4.521  46.437 -31.571  1.00  0.00     0.010 C 
BRANCH  22  24
HETATM   24  C6  UNL     1      -5.027  47.428 -29.268  1.00  0.00     0.008 C 
BRANCH  24  25
HETATM   25  C5  UNL     1      -4.644  48.805 -28.704  1.00  0.00     0.028 C 
BRANCH  25  26
HETATM   26  C4  UNL     1      -3.800  48.760 -27.462  1.00  0.00    -0.025 C 
HETATM   27  C2  UNL     1      -4.186  48.477 -26.200  1.00  0.00    -0.091 C 
HETATM   28  C1  UNL     1      -3.185  48.484 -25.077  1.00  0.00     0.042 C 
HETATM   29  C3  UNL     1      -5.595  48.161 -25.764  1.00  0.00     0.042 C 
ENDBRANCH  25  26
ENDBRANCH  24  25
ENDBRANCH  22  24
ENDBRANCH   1  22
BRANCH  14  30
HETATM   30  O4  UNL     1     -12.341  48.672 -27.358  1.00  0.00    -0.395 OA
HETATM   31  H39 UNL     1     -12.524  49.350 -26.685  1.00  0.00     0.210 HD
ENDBRANCH  14  30
BRANCH  10  32
HETATM   32  C20 UNL     1     -15.135  44.410 -27.870  1.00  0.00     0.151 C 
HETATM   33  O1  UNL     1     -15.679  45.019 -28.776  1.00  0.00    -0.649 OA
BRANCH  32  34
HETATM   34  O2  UNL     1     -15.720  43.302 -27.377  1.00  0.00    -0.776 OA
HETATM   35  H33 UNL     1     -16.567  43.236 -27.868  1.00  0.00     0.167 HD
ENDBRANCH  32  34
ENDBRANCH  10  32
BRANCH  12  36
HETATM   36  O3  UNL     1     -13.374  45.351 -24.818  1.00  0.00    -0.394 OA
HETATM   37  H35 UNL     1     -13.795  44.567 -24.416  1.00  0.00     0.210 HD
ENDBRANCH  12  36
TORSDOF 8
ENDMDL
MODEL 8
REMARK minimizedAffinity -7.15280819
REMARK CNNscore 0.329472899
REMARK CNNaffinity 6.35005713
REMARK  8 active torsions:
REMARK  status: ('A' for Active; 'I' for Inactive)
REMARK    1  A    between atoms: C4_4  and  C5_5 
REMARK    2  A    between atoms: C5_5  and  C6_6 
REMARK    3  A    between atoms: C6_6  and  C7_7 
REMARK    4  A    between atoms: C7_7  and  C9_9 
REMARK    5  A    between atoms: C18_18  and  C20_20 
REMARK    6  A    between atoms: C20_20  and  O2_22 
REMARK    7  A    between atoms: C21_23  and  O3_24 
REMARK    8  A    between atoms: C23_26  and  O4_27 
ROOT
HETATM    1  C9  UNL     1       4.666  56.271  -8.287  1.00  0.00    -0.002 C 
HETATM    2  C10 UNL     1       5.647  55.445  -9.168  1.00  0.00     0.006 C 
HETATM    3  C11 UNL     1       4.808  54.401  -9.917  1.00  0.00     0.011 C 
HETATM    4  C12 UNL     1       3.355  54.895  -9.798  1.00  0.00    -0.032 C 
HETATM    5  C13 UNL     1       3.165  55.979 -10.908  1.00  0.00     0.016 C 
HETATM    6  C14 UNL     1       2.287  53.780  -9.936  1.00  0.00     0.004 C 
HETATM    7  C15 UNL     1       2.191  53.183 -11.349  1.00  0.00     0.007 C 
HETATM    8  C16 UNL     1       1.191  52.033 -11.357  1.00  0.00     0.007 C 
HETATM    9  C17 UNL     1      -0.236  52.574 -11.172  1.00  0.00     0.018 C 
HETATM   10  C18 UNL     1      -1.350  51.466 -11.152  1.00  0.00     0.072 C 
HETATM   11  C19 UNL     1      -0.998  50.280 -10.227  1.00  0.00     0.030 C 
HETATM   12  C21 UNL     1      -2.744  52.067 -10.777  1.00  0.00     0.139 C 
HETATM   13  C22 UNL     1      -2.775  53.583 -10.905  1.00  0.00     0.065 C 
HETATM   14  C23 UNL     1      -1.734  54.272 -10.009  1.00  0.00     0.130 C 
HETATM   15  C24 UNL     1      -0.379  53.547  -9.991  1.00  0.00    -0.001 A 
HETATM   16  C25 UNL     1       0.144  53.143  -8.630  1.00  0.00     0.024 A 
HETATM   17  C26 UNL     1       0.903  54.215  -9.385  1.00  0.00    -0.025 A 
HETATM   18  C27 UNL     1       0.798  55.641  -8.820  1.00  0.00     0.011 C 
HETATM   19  C28 UNL     1       2.037  56.236  -8.117  1.00  0.00     0.011 C 
HETATM   20  C29 UNL     1       3.338  55.445  -8.323  1.00  0.00    -0.032 C 
HETATM   21  C30 UNL     1       3.367  54.335  -7.237  1.00  0.00     0.016 C 
ENDROOT
BRANCH   1  22
HETATM   22  C7  UNL     1       5.317  56.783  -6.965  1.00  0.00    -0.014 C 
HETATM   23  C8  UNL     1       6.604  56.065  -6.533  1.00  0.00     0.010 C 
BRANCH  22  24
HETATM   24  C6  UNL     1       4.281  56.861  -5.817  1.00  0.00     0.008 C 
BRANCH  24  25
HETATM   25  C5  UNL     1       3.565  58.213  -5.670  1.00  0.00     0.028 C 
BRANCH  25  26
HETATM   26  C4  UNL     1       2.787  58.373  -4.395  1.00  0.00    -0.025 C 
HETATM   27  C2  UNL     1       1.550  57.917  -4.108  1.00  0.00    -0.091 C 
HETATM   28  C1  UNL     1       0.932  58.184  -2.763  1.00  0.00     0.042 C 
HETATM   29  C3  UNL     1       0.659  57.146  -5.050  1.00  0.00     0.042 C 
ENDBRANCH  25  26
ENDBRANCH  24  25
ENDBRANCH  22  24
ENDBRANCH   1  22
BRANCH  14  30
HETATM   30  O4  UNL     1      -1.563  55.595 -10.525  1.00  0.00    -0.395 OA
HETATM   31  H39 UNL     1      -2.387  56.078 -10.338  1.00  0.00     0.210 HD
ENDBRANCH  14  30
BRANCH  10  32
HETATM   32  C20 UNL     1      -1.477  50.900 -12.569  1.00  0.00     0.151 C 
HETATM   33  O1  UNL     1      -2.496  50.497 -13.105  1.00  0.00    -0.649 OA
BRANCH  32  34
HETATM   34  O2  UNL     1      -0.320  50.885 -13.259  1.00  0.00    -0.776 OA
HETATM   35  H33 UNL     1      -0.555  50.470 -14.116  1.00  0.00     0.167 HD
ENDBRANCH  32  34
ENDBRANCH  10  32
BRANCH  12  36
HETATM   36  O3  UNL     1      -3.151  51.742  -9.440  1.00  0.00    -0.394 OA
HETATM   37  H35 UNL     1      -3.471  50.819  -9.444  1.00  0.00     0.210 HD
ENDBRANCH  12  36
TORSDOF 8
ENDMDL
MODEL 9
REMARK minimizedAffinity -7.3160553
REMARK CNNscore 0.319783539
REMARK CNNaffinity 5.78933668
REMARK  8 active torsions:
REMARK  status: ('A' for Active; 'I' for Inactive)
REMARK    1  A    between atoms: C4_4  and  C5_5 
REMARK    2  A    between atoms: C5_5  and  C6_6 
REMARK    3  A    between atoms: C6_6  and  C7_7 
REMARK    4  A    between atoms: C7_7  and  C9_9 
REMARK    5  A    between atoms: C18_18  and  C20_20 
REMARK    6  A    between atoms: C20_20  and  O2_22 
REMARK    7  A    between atoms: C21_23  and  O3_24 
REMARK    8  A    between atoms: C23_26  and  O4_27 
ROOT
HETATM    1  C9  UNL     1     -13.273  45.531 -26.273  1.00  0.00    -0.002 C 
HETATM    2  C10 UNL     1     -12.691  44.115 -26.001  1.00  0.00     0.006 C 
HETATM    3  C11 UNL     1     -11.503  43.926 -26.956  1.00  0.00     0.011 C 
HETATM    4  C12 UNL     1     -11.156  45.344 -27.445  1.00  0.00    -0.032 C 
HETATM    5  C13 UNL     1     -10.275  45.993 -26.330  1.00  0.00     0.016 C 
HETATM    6  C14 UNL     1     -10.425  45.386 -28.811  1.00  0.00     0.004 C 
HETATM    7  C15 UNL     1      -8.995  44.823 -28.770  1.00  0.00     0.007 C 
HETATM    8  C16 UNL     1      -8.402  44.816 -30.173  1.00  0.00     0.007 C 
HETATM    9  C17 UNL     1      -8.133  46.255 -30.639  1.00  0.00     0.018 C 
HETATM   10  C18 UNL     1      -7.529  46.365 -32.086  1.00  0.00     0.072 C 
HETATM   11  C19 UNL     1      -8.284  45.497 -33.117  1.00  0.00     0.030 C 
HETATM   12  C21 UNL     1      -7.455  47.852 -32.561  1.00  0.00     0.139 C 
HETATM   13  C22 UNL     1      -7.606  48.837 -31.411  1.00  0.00     0.065 C 
HETATM   14  C23 UNL     1      -8.937  48.670 -30.661  1.00  0.00     0.130 C 
HETATM   15  C24 UNL     1      -9.330  47.200 -30.449  1.00  0.00    -0.001 A 
HETATM   16  C25 UNL     1     -10.689  46.788 -30.972  1.00  0.00     0.024 A 
HETATM   17  C26 UNL     1     -10.484  46.791 -29.471  1.00  0.00    -0.025 A 
HETATM   18  C27 UNL     1     -11.220  47.892 -28.691  1.00  0.00     0.011 C 
HETATM   19  C28 UNL     1     -12.434  47.484 -27.828  1.00  0.00     0.011 C 
HETATM   20  C29 UNL     1     -12.590  45.972 -27.609  1.00  0.00    -0.032 C 
HETATM   21  C30 UNL     1     -13.384  45.420 -28.825  1.00  0.00     0.016 C 
ENDROOT
BRANCH   1  22
HETATM   22  C7  UNL     1     -14.813  45.612 -26.034  1.00  0.00    -0.014 C 
HETATM   23  C8  UNL     1     -15.696  45.285 -27.246  1.00  0.00     0.010 C 
BRANCH  22  24
HETATM   24  C6  UNL     1     -15.212  46.953 -25.369  1.00  0.00     0.008 C 
BRANCH  24  25
HETATM   25  C5  UNL     1     -16.154  46.831 -24.160  1.00  0.00     0.028 C 
BRANCH  25  26
HETATM   26  C4  UNL     1     -17.616  46.882 -24.499  1.00  0.00    -0.025 C 
HETATM   27  C2  UNL     1     -18.486  45.855 -24.602  1.00  0.00    -0.091 C 
HETATM   28  C1  UNL     1     -19.925  46.108 -24.958  1.00  0.00     0.042 C 
HETATM   29  C3  UNL     1     -18.148  44.397 -24.413  1.00  0.00     0.042 C 
ENDBRANCH  25  26
ENDBRANCH  24  25
ENDBRANCH  22  24
ENDBRANCH   1  22
BRANCH  14  30
HETATM   30  O4  UNL     1      -8.776  49.312 -29.393  1.00  0.00    -0.395 OA
HETATM   31  H39 UNL     1      -8.724  50.268 -29.567  1.00  0.00     0.210 HD
ENDBRANCH  14  30
BRANCH  10  32
HETATM   32  C20 UNL     1      -6.089  45.843 -32.036  1.00  0.00     0.151 C 
HETATM   33  O1  UNL     1      -5.188  46.257 -31.327  1.00  0.00    -0.649 OA
BRANCH  32  34
HETATM   34  O2  UNL     1      -5.853  44.809 -32.867  1.00  0.00    -0.776 OA
HETATM   35  H33 UNL     1      -4.898  44.616 -32.748  1.00  0.00     0.167 HD
ENDBRANCH  32  34
ENDBRANCH  10  32
BRANCH  12  36
HETATM   36  O3  UNL     1      -8.457  48.177 -33.536  1.00  0.00    -0.394 OA
HETATM   37  H35 UNL     1      -8.165  47.815 -34.394  1.00  0.00     0.210 HD
ENDBRANCH  12  36
TORSDOF 8
ENDMDL
