MODEL 1
REMARK minimizedAffinity -7.91747952
REMARK CNNscore 0.535239875
REMARK CNNaffinity 7.52067566
REMARK  19 active torsions:
REMARK  status: ('A' for Active; 'I' for Inactive)
REMARK    1  A    between atoms: O1_2  and  C2_3 
REMARK    2  A    between atoms: C2_3  and  C3_4 
REMARK    3  A    between atoms: C2_3  and  C28_36 
REMARK    4  A    between atoms: C3_4  and  C4_5 
REMARK    5  A    between atoms: C4_5  and  C6_7 
REMARK    6  A    between atoms: C6_7  and  O2_8 
REMARK    7  A    between atoms: C6_7  and  C7_9 
REMARK    8  A    between atoms: C8_10  and  C9_11 
REMARK    9  A    between atoms: C10_12  and  C11_13 
REMARK   10  A    between atoms: C11_13  and  N1_14 
REMARK       I    between atoms: N1_14  and  C12_15 
REMARK   11  A    between atoms: C12_15  and  C13_17 
REMARK   12  A    between atoms: C13_17  and  C16_20 
REMARK   13  A    between atoms: C16_20  and  O4_21 
REMARK   14  A    between atoms: C16_20  and  C17_22 
REMARK   15  A    between atoms: C19_24  and  C20_25 
REMARK   16  A    between atoms: C21_26  and  C22_27 
REMARK   17  A    between atoms: C23_28  and  C24_29 
REMARK   18  A    between atoms: C26_31  and  N2_33 
REMARK   19  A    between atoms: C28_36  and  O7_37 
ROOT
HETATM    1  C9  UNL     1      -5.614   3.257  11.781  1.00  0.00    -0.003 C 
HETATM    2  C10 UNL     1      -5.963   3.668  13.010  1.00  0.00    -0.007 C 
ENDROOT
BRANCH   1   3
HETATM    3  C8  UNL     1      -4.244   3.226  11.329  1.00  0.00    -0.002 C 
HETATM    4  C7  UNL     1      -3.218   3.669  12.073  1.00  0.00     0.005 C 
BRANCH   4   5
HETATM    5  C6  UNL     1      -1.788   3.641  11.619  1.00  0.00     0.144 C 
BRANCH   5   6
HETATM    6  C4  UNL     1      -1.053   5.000  11.748  1.00  0.00     0.016 C 
HETATM    7  C5  UNL     1      -1.806   5.957  12.684  1.00  0.00     0.013 C 
BRANCH   6   8
HETATM    8  C3  UNL     1       0.398   4.762  12.254  1.00  0.00     0.042 C 
BRANCH   8   9
HETATM    9  C2  UNL     1       1.490   5.592  11.529  1.00  0.00     0.159 C 
BRANCH   9  10
HETATM   10  O1  UNL     1       1.534   5.181  10.156  1.00  0.00    -0.388 OA
HETATM   11  C1  UNL     1       2.712   4.458   9.813  1.00  0.00     0.202 C 
ENDBRANCH   9  10
BRANCH   9  12
HETATM   12  C28 UNL     1       1.229   7.145  11.577  1.00  0.00     0.133 C 
HETATM   13  C29 UNL     1       0.243   7.621  10.459  1.00  0.00     0.114 C 
HETATM   14  C30 UNL     1      -0.542   8.890  10.789  1.00  0.00     0.023 C 
HETATM   15  C31 UNL     1       1.145   7.910   9.280  1.00  0.00     0.227 C 
HETATM   16  O8  UNL     1       0.795   7.930   8.112  1.00  0.00    -0.273 OA
HETATM   17  N3  UNL     1       2.405   8.203   9.776  1.00  0.00    -0.332 N 
HETATM   18  C32 UNL     1       3.544   8.256   8.886  1.00  0.00     0.154 C 
HETATM   19  C33 UNL     1       2.527   7.934  11.251  1.00  0.00     0.183 A 
HETATM   20  C34 UNL     1       3.896   7.386  11.757  1.00  0.00     0.294 A 
HETATM   21  C35 UNL     1       2.997   9.206  12.046  1.00  0.00     0.169 A 
HETATM   22  O9  UNL     1       4.552   6.373  11.671  1.00  0.00    -0.262 OA
HETATM   23  O10 UNL     1       4.264   8.550  12.350  1.00  0.00    -0.311 OA
HETATM   24  C36 UNL     1       2.380   9.712  13.338  1.00  0.00     0.043 C 
BRANCH  12  25
HETATM   25  O7  UNL     1       0.736   7.505  12.870  1.00  0.00    -0.383 OA
HETATM   26  H42 UNL     1      -0.188   7.194  12.951  1.00  0.00     0.210 HD
ENDBRANCH  12  25
ENDBRANCH   9  12
ENDBRANCH   8   9
ENDBRANCH   6   8
ENDBRANCH   5   6
BRANCH   5  27
HETATM   27  O2  UNL     1      -1.824   3.276  10.236  1.00  0.00    -0.391 OA
HETATM   28  H12 UNL     1      -2.155   2.357  10.214  1.00  0.00     0.210 HD
ENDBRANCH   5  27
ENDBRANCH   4   5
ENDBRANCH   1   3
BRANCH   2  29
HETATM   29  C11 UNL     1      -7.373   3.752  13.495  1.00  0.00     0.149 C 
BRANCH  29  30
HETATM   30  N1  UNL     1      -7.447   4.808  14.469  1.00  0.00    -0.357 N 
HETATM   31  C12 UNL     1      -7.908   6.068  14.163  1.00  0.00     0.228 C 
HETATM   32  O3  UNL     1      -8.219   6.387  13.018  1.00  0.00    -0.273 OA
HETATM   33  H19 UNL     1      -7.342   4.568  15.453  1.00  0.00     0.162 HD
BRANCH  31  34
HETATM   34  C13 UNL     1      -7.982   7.054  15.357  1.00  0.00     0.063 C 
HETATM   35  C14 UNL     1      -7.459   8.419  14.863  1.00  0.00     0.028 C 
HETATM   36  C15 UNL     1      -7.033   6.518  16.445  1.00  0.00     0.028 C 
BRANCH  34  37
HETATM   37  C16 UNL     1      -9.482   7.140  15.787  1.00  0.00     0.164 C 
BRANCH  37  38
HETATM   38  O4  UNL     1      -9.571   7.588  17.151  1.00  0.00    -0.390 OA
HETATM   39  H27 UNL     1     -10.066   8.429  17.154  1.00  0.00     0.210 HD
ENDBRANCH  37  38
BRANCH  37  40
HETATM   40  C17 UNL     1     -10.518   7.932  14.983  1.00  0.00    -0.054 C 
HETATM   41  C18 UNL     1     -10.431   9.418  15.256  1.00  0.00     0.046 C 
HETATM   42  C19 UNL     1     -11.385   7.374  14.112  1.00  0.00     0.005 C 
BRANCH  42  43
HETATM   43  C20 UNL     1     -12.410   8.050  13.342  1.00  0.00     0.000 C 
HETATM   44  C21 UNL     1     -13.713   7.995  13.660  1.00  0.00     0.000 C 
BRANCH  44  45
HETATM   45  C22 UNL     1     -14.735   8.687  12.899  1.00  0.00     0.001 C 
HETATM   46  C23 UNL     1     -14.905  10.019  12.948  1.00  0.00     0.009 C 
BRANCH  46  47
HETATM   47  C24 UNL     1     -15.924  10.802  12.229  1.00  0.00    -0.034 C 
HETATM   48  C25 UNL     1     -15.760  12.312  12.289  1.00  0.00     0.050 C 
HETATM   49  C26 UNL     1     -16.912  10.182  11.542  1.00  0.00     0.082 C 
HETATM   50  C27 UNL     1     -17.242   8.738  11.351  1.00  0.00     0.075 C 
BRANCH  49  51
HETATM   51  N2  UNL     1     -17.903  11.020  10.890  1.00  0.00    -0.120 N 
HETATM   52  O5  UNL     1     -19.011  10.511  10.681  1.00  0.00    -0.532 OA
HETATM   53  O6  UNL     1     -17.575  12.182  10.628  1.00  0.00    -0.532 OA
ENDBRANCH  49  51
ENDBRANCH  46  47
ENDBRANCH  44  45
ENDBRANCH  42  43
ENDBRANCH  37  40
ENDBRANCH  34  37
ENDBRANCH  31  34
ENDBRANCH  29  30
ENDBRANCH   2  29
TORSDOF 19
ENDMDL
MODEL 2
REMARK minimizedAffinity -8.3716259
REMARK CNNscore 0.506700337
REMARK CNNaffinity 7.21025038
REMARK  19 active torsions:
REMARK  status: ('A' for Active; 'I' for Inactive)
REMARK    1  A    between atoms: O1_2  and  C2_3 
REMARK    2  A    between atoms: C2_3  and  C3_4 
REMARK    3  A    between atoms: C2_3  and  C28_36 
REMARK    4  A    between atoms: C3_4  and  C4_5 
REMARK    5  A    between atoms: C4_5  and  C6_7 
REMARK    6  A    between atoms: C6_7  and  O2_8 
REMARK    7  A    between atoms: C6_7  and  C7_9 
REMARK    8  A    between atoms: C8_10  and  C9_11 
REMARK    9  A    between atoms: C10_12  and  C11_13 
REMARK   10  A    between atoms: C11_13  and  N1_14 
REMARK       I    between atoms: N1_14  and  C12_15 
REMARK   11  A    between atoms: C12_15  and  C13_17 
REMARK   12  A    between atoms: C13_17  and  C16_20 
REMARK   13  A    between atoms: C16_20  and  O4_21 
REMARK   14  A    between atoms: C16_20  and  C17_22 
REMARK   15  A    between atoms: C19_24  and  C20_25 
REMARK   16  A    between atoms: C21_26  and  C22_27 
REMARK   17  A    between atoms: C23_28  and  C24_29 
REMARK   18  A    between atoms: C26_31  and  N2_33 
REMARK   19  A    between atoms: C28_36  and  O7_37 
ROOT
HETATM    1  C9  UNL     1      -0.373   7.255  14.303  1.00  0.00    -0.003 C 
HETATM    2  C10 UNL     1      -0.420   5.915  14.235  1.00  0.00    -0.007 C 
ENDROOT
BRANCH   1   3
HETATM    3  C8  UNL     1       0.865   7.995  14.233  1.00  0.00    -0.002 C 
HETATM    4  C7  UNL     1       1.994   7.591  14.835  1.00  0.00     0.005 C 
BRANCH   4   5
HETATM    5  C6  UNL     1       3.288   8.347  14.769  1.00  0.00     0.144 C 
BRANCH   5   6
HETATM    6  C4  UNL     1       3.638   8.888  13.358  1.00  0.00     0.016 C 
HETATM    7  C5  UNL     1       4.625  10.062  13.438  1.00  0.00     0.013 C 
BRANCH   6   8
HETATM    8  C3  UNL     1       4.218   7.739  12.487  1.00  0.00     0.042 C 
BRANCH   8   9
HETATM    9  C2  UNL     1       3.841   7.799  10.984  1.00  0.00     0.159 C 
BRANCH   9  10
HETATM   10  O1  UNL     1       4.767   6.985  10.252  1.00  0.00    -0.388 OA
HETATM   11  C1  UNL     1       5.911   6.600  11.007  1.00  0.00     0.202 C 
ENDBRANCH   9  10
BRANCH   9  12
HETATM   12  C28 UNL     1       2.382   7.288  10.685  1.00  0.00     0.133 C 
HETATM   13  C29 UNL     1       2.201   5.768  11.014  1.00  0.00     0.114 C 
HETATM   14  C30 UNL     1       0.774   5.349  11.368  1.00  0.00     0.023 C 
HETATM   15  C31 UNL     1       2.601   5.071   9.732  1.00  0.00     0.227 C 
HETATM   16  O8  UNL     1       2.978   3.915   9.647  1.00  0.00    -0.273 OA
HETATM   17  N3  UNL     1       2.399   5.959   8.689  1.00  0.00    -0.332 N 
HETATM   18  C32 UNL     1       2.942   5.679   7.378  1.00  0.00     0.154 C 
HETATM   19  C33 UNL     1       2.074   7.350   9.163  1.00  0.00     0.183 A 
HETATM   20  C34 UNL     1       2.642   8.533   8.322  1.00  0.00     0.294 A 
HETATM   21  C35 UNL     1       0.717   7.874   8.570  1.00  0.00     0.169 A 
HETATM   22  O9  UNL     1       3.716   9.031   8.073  1.00  0.00    -0.262 OA
HETATM   23  O10 UNL     1       1.440   8.870   7.788  1.00  0.00    -0.311 OA
HETATM   24  C36 UNL     1      -0.379   8.566   9.360  1.00  0.00     0.043 C 
BRANCH  12  25
HETATM   25  O7  UNL     1       1.441   8.076  11.419  1.00  0.00    -0.383 OA
HETATM   26  H42 UNL     1       1.496   7.832  12.364  1.00  0.00     0.210 HD
ENDBRANCH  12  25
ENDBRANCH   9  12
ENDBRANCH   8   9
ENDBRANCH   6   8
ENDBRANCH   5   6
BRANCH   5  27
HETATM   27  O2  UNL     1       4.304   7.419  15.161  1.00  0.00    -0.391 OA
HETATM   28  H12 UNL     1       4.130   7.220  16.101  1.00  0.00     0.210 HD
ENDBRANCH   5  27
ENDBRANCH   4   5
ENDBRANCH   1   3
BRANCH   2  29
HETATM   29  C11 UNL     1      -1.678   5.116  14.345  1.00  0.00     0.149 C 
BRANCH  29  30
HETATM   30  N1  UNL     1      -2.766   6.029  14.577  1.00  0.00    -0.357 N 
HETATM   31  C12 UNL     1      -4.049   5.778  14.146  1.00  0.00     0.228 C 
HETATM   32  O3  UNL     1      -4.327   4.788  13.474  1.00  0.00    -0.273 OA
HETATM   33  H19 UNL     1      -2.629   6.786  15.243  1.00  0.00     0.162 HD
BRANCH  31  34
HETATM   34  C13 UNL     1      -5.101   6.842  14.548  1.00  0.00     0.063 C 
HETATM   35  C14 UNL     1      -5.466   7.636  13.276  1.00  0.00     0.028 C 
HETATM   36  C15 UNL     1      -4.423   7.791  15.554  1.00  0.00     0.028 C 
BRANCH  34  37
HETATM   37  C16 UNL     1      -6.338   6.071  15.113  1.00  0.00     0.164 C 
BRANCH  37  38
HETATM   38  O4  UNL     1      -6.685   6.592  16.408  1.00  0.00    -0.390 OA
HETATM   39  H27 UNL     1      -7.592   6.947  16.351  1.00  0.00     0.210 HD
ENDBRANCH  37  38
BRANCH  37  40
HETATM   40  C17 UNL     1      -7.641   5.926  14.322  1.00  0.00    -0.054 C 
HETATM   41  C18 UNL     1      -7.647   4.677  13.466  1.00  0.00     0.046 C 
HETATM   42  C19 UNL     1      -8.673   6.792  14.400  1.00  0.00     0.005 C 
BRANCH  42  43
HETATM   43  C20 UNL     1      -9.920   6.739  13.662  1.00  0.00     0.000 C 
HETATM   44  C21 UNL     1     -10.937   7.583  13.894  1.00  0.00     0.000 C 
BRANCH  44  45
HETATM   45  C22 UNL     1     -12.177   7.540  13.142  1.00  0.00     0.001 C 
HETATM   46  C23 UNL     1     -13.203   8.375  13.379  1.00  0.00     0.009 C 
BRANCH  46  47
HETATM   47  C24 UNL     1     -14.501   8.392  12.683  1.00  0.00    -0.034 C 
HETATM   48  C25 UNL     1     -15.131   7.033  12.427  1.00  0.00     0.050 C 
HETATM   49  C26 UNL     1     -15.080   9.566  12.334  1.00  0.00     0.082 C 
HETATM   50  C27 UNL     1     -14.642  10.984  12.497  1.00  0.00     0.075 C 
BRANCH  49  51
HETATM   51  N2  UNL     1     -16.340   9.503  11.615  1.00  0.00    -0.120 N 
HETATM   52  O5  UNL     1     -17.345   9.899  12.218  1.00  0.00    -0.532 OA
HETATM   53  O6  UNL     1     -16.306   9.093  10.449  1.00  0.00    -0.532 OA
ENDBRANCH  49  51
ENDBRANCH  46  47
ENDBRANCH  44  45
ENDBRANCH  42  43
ENDBRANCH  37  40
ENDBRANCH  34  37
ENDBRANCH  31  34
ENDBRANCH  29  30
ENDBRANCH   2  29
TORSDOF 19
ENDMDL
MODEL 3
REMARK minimizedAffinity -7.73672533
REMARK CNNscore 0.300831944
REMARK CNNaffinity 7.14135027
REMARK  19 active torsions:
REMARK  status: ('A' for Active; 'I' for Inactive)
REMARK    1  A    between atoms: O1_2  and  C2_3 
REMARK    2  A    between atoms: C2_3  and  C3_4 
REMARK    3  A    between atoms: C2_3  and  C28_36 
REMARK    4  A    between atoms: C3_4  and  C4_5 
REMARK    5  A    between atoms: C4_5  and  C6_7 
REMARK    6  A    between atoms: C6_7  and  O2_8 
REMARK    7  A    between atoms: C6_7  and  C7_9 
REMARK    8  A    between atoms: C8_10  and  C9_11 
REMARK    9  A    between atoms: C10_12  and  C11_13 
REMARK   10  A    between atoms: C11_13  and  N1_14 
REMARK       I    between atoms: N1_14  and  C12_15 
REMARK   11  A    between atoms: C12_15  and  C13_17 
REMARK   12  A    between atoms: C13_17  and  C16_20 
REMARK   13  A    between atoms: C16_20  and  O4_21 
REMARK   14  A    between atoms: C16_20  and  C17_22 
REMARK   15  A    between atoms: C19_24  and  C20_25 
REMARK   16  A    between atoms: C21_26  and  C22_27 
REMARK   17  A    between atoms: C23_28  and  C24_29 
REMARK   18  A    between atoms: C26_31  and  N2_33 
REMARK   19  A    between atoms: C28_36  and  O7_37 
ROOT
HETATM    1  C9  UNL     1      -8.178   6.139  14.089  1.00  0.00    -0.003 C 
HETATM    2  C10 UNL     1      -7.266   5.731  13.192  1.00  0.00    -0.007 C 
ENDROOT
BRANCH   1   3
HETATM    3  C8  UNL     1      -9.592   6.180  13.799  1.00  0.00    -0.002 C 
HETATM    4  C7  UNL     1     -10.376   7.218  14.126  1.00  0.00     0.005 C 
BRANCH   4   5
HETATM    5  C6  UNL     1     -11.846   7.277  13.829  1.00  0.00     0.144 C 
BRANCH   5   6
HETATM    6  C4  UNL     1     -12.437   8.710  13.824  1.00  0.00     0.016 C 
HETATM    7  C5  UNL     1     -13.467   8.894  14.950  1.00  0.00     0.013 C 
BRANCH   6   8
HETATM    8  C3  UNL     1     -11.289   9.749  13.952  1.00  0.00     0.042 C 
BRANCH   8   9
HETATM    9  C2  UNL     1     -11.342  10.633  15.226  1.00  0.00     0.159 C 
BRANCH   9  10
HETATM   10  O1  UNL     1     -10.232  10.286  16.065  1.00  0.00    -0.388 OA
HETATM   11  C1  UNL     1     -10.604   9.571  17.238  1.00  0.00     0.202 C 
ENDBRANCH   9  10
BRANCH   9  12
HETATM   12  C28 UNL     1     -11.273  12.176  14.918  1.00  0.00     0.133 C 
HETATM   13  C29 UNL     1      -9.806  12.722  14.923  1.00  0.00     0.114 C 
HETATM   14  C30 UNL     1      -9.575  13.959  14.055  1.00  0.00     0.023 C 
HETATM   15  C31 UNL     1      -9.566  13.101  16.368  1.00  0.00     0.227 C 
HETATM   16  O8  UNL     1      -8.472  13.200  16.898  1.00  0.00    -0.273 OA
HETATM   17  N3  UNL     1     -10.797  13.368  16.943  1.00  0.00    -0.332 N 
HETATM   18  C32 UNL     1     -10.918  13.493  18.380  1.00  0.00     0.154 C 
HETATM   19  C33 UNL     1     -11.950  12.997  16.051  1.00  0.00     0.183 A 
HETATM   20  C34 UNL     1     -13.224  12.426  16.745  1.00  0.00     0.294 A 
HETATM   21  C35 UNL     1     -12.911  14.213  15.791  1.00  0.00     0.169 A 
HETATM   22  O9  UNL     1     -13.558  11.427  17.340  1.00  0.00    -0.262 OA
HETATM   23  O10 UNL     1     -13.962  13.549  16.553  1.00  0.00    -0.311 OA
HETATM   24  C36 UNL     1     -13.464  14.622  14.438  1.00  0.00     0.043 C 
BRANCH  12  25
HETATM   25  O7  UNL     1     -11.905  12.441  13.663  1.00  0.00    -0.383 OA
HETATM   26  H42 UNL     1     -11.324  12.117  12.946  1.00  0.00     0.210 HD
ENDBRANCH  12  25
ENDBRANCH   9  12
ENDBRANCH   8   9
ENDBRANCH   6   8
ENDBRANCH   5   6
BRANCH   5  27
HETATM   27  O2  UNL     1     -12.485   6.528  14.866  1.00  0.00    -0.391 OA
HETATM   28  H12 UNL     1     -12.198   5.603  14.739  1.00  0.00     0.210 HD
ENDBRANCH   5  27
ENDBRANCH   4   5
ENDBRANCH   1   3
BRANCH   2  29
HETATM   29  C11 UNL     1      -5.794   5.715  13.445  1.00  0.00     0.149 C 
BRANCH  29  30
HETATM   30  N1  UNL     1      -5.201   4.751  12.557  1.00  0.00    -0.357 N 
HETATM   31  C12 UNL     1      -5.730   3.494  12.367  1.00  0.00     0.228 C 
HETATM   32  O3  UNL     1      -6.704   3.096  13.000  1.00  0.00    -0.273 OA
HETATM   33  H19 UNL     1      -4.486   5.068  11.905  1.00  0.00     0.162 HD
BRANCH  31  34
HETATM   34  C13 UNL     1      -4.995   2.619  11.320  1.00  0.00     0.063 C 
HETATM   35  C14 UNL     1      -4.770   3.491  10.066  1.00  0.00     0.028 C 
HETATM   36  C15 UNL     1      -5.937   1.457  10.959  1.00  0.00     0.028 C 
BRANCH  34  37
HETATM   37  C16 UNL     1      -3.638   2.182  11.961  1.00  0.00     0.164 C 
BRANCH  37  38
HETATM   38  O4  UNL     1      -3.393   0.793  11.679  1.00  0.00    -0.390 OA
HETATM   39  H27 UNL     1      -2.567   0.737  11.164  1.00  0.00     0.210 HD
ENDBRANCH  37  38
BRANCH  37  40
HETATM   40  C17 UNL     1      -2.329   2.934  11.696  1.00  0.00    -0.054 C 
HETATM   41  C18 UNL     1      -1.441   2.196  10.717  1.00  0.00     0.046 C 
HETATM   42  C19 UNL     1      -2.019   4.126  12.246  1.00  0.00     0.005 C 
BRANCH  42  43
HETATM   43  C20 UNL     1      -0.793   4.880  12.070  1.00  0.00     0.000 C 
HETATM   44  C21 UNL     1      -0.619   5.760  11.071  1.00  0.00     0.000 C 
BRANCH  44  45
HETATM   45  C22 UNL     1       0.601   6.526  10.907  1.00  0.00     0.001 C 
HETATM   46  C23 UNL     1       1.362   6.459   9.802  1.00  0.00     0.009 C 
BRANCH  46  47
HETATM   47  C24 UNL     1       2.621   7.183   9.556  1.00  0.00    -0.034 C 
HETATM   48  C25 UNL     1       2.801   7.737   8.152  1.00  0.00     0.050 C 
HETATM   49  C26 UNL     1       3.525   7.350  10.550  1.00  0.00     0.082 C 
HETATM   50  C27 UNL     1       3.538   6.903  11.974  1.00  0.00     0.075 C 
BRANCH  49  51
HETATM   51  N2  UNL     1       4.761   8.040  10.223  1.00  0.00    -0.120 N 
HETATM   52  O5  UNL     1       4.672   9.243   9.953  1.00  0.00    -0.532 OA
HETATM   53  O6  UNL     1       5.806   7.381  10.272  1.00  0.00    -0.532 OA
ENDBRANCH  49  51
ENDBRANCH  46  47
ENDBRANCH  44  45
ENDBRANCH  42  43
ENDBRANCH  37  40
ENDBRANCH  34  37
ENDBRANCH  31  34
ENDBRANCH  29  30
ENDBRANCH   2  29
TORSDOF 19
ENDMDL
MODEL 4
REMARK minimizedAffinity -7.68884897
REMARK CNNscore 0.281131119
REMARK CNNaffinity 6.75385094
REMARK  19 active torsions:
REMARK  status: ('A' for Active; 'I' for Inactive)
REMARK    1  A    between atoms: O1_2  and  C2_3 
REMARK    2  A    between atoms: C2_3  and  C3_4 
REMARK    3  A    between atoms: C2_3  and  C28_36 
REMARK    4  A    between atoms: C3_4  and  C4_5 
REMARK    5  A    between atoms: C4_5  and  C6_7 
REMARK    6  A    between atoms: C6_7  and  O2_8 
REMARK    7  A    between atoms: C6_7  and  C7_9 
REMARK    8  A    between atoms: C8_10  and  C9_11 
REMARK    9  A    between atoms: C10_12  and  C11_13 
REMARK   10  A    between atoms: C11_13  and  N1_14 
REMARK       I    between atoms: N1_14  and  C12_15 
REMARK   11  A    between atoms: C12_15  and  C13_17 
REMARK   12  A    between atoms: C13_17  and  C16_20 
REMARK   13  A    between atoms: C16_20  and  O4_21 
REMARK   14  A    between atoms: C16_20  and  C17_22 
REMARK   15  A    between atoms: C19_24  and  C20_25 
REMARK   16  A    between atoms: C21_26  and  C22_27 
REMARK   17  A    between atoms: C23_28  and  C24_29 
REMARK   18  A    between atoms: C26_31  and  N2_33 
REMARK   19  A    between atoms: C28_36  and  O7_37 
ROOT
HETATM    1  C9  UNL     1     -15.503   4.847  14.469  1.00  0.00    -0.003 C 
HETATM    2  C10 UNL     1     -14.995   5.979  14.981  1.00  0.00    -0.007 C 
ENDROOT
BRANCH   1   3
HETATM    3  C8  UNL     1     -15.436   3.581  15.159  1.00  0.00    -0.002 C 
HETATM    4  C7  UNL     1     -15.718   2.410  14.568  1.00  0.00     0.005 C 
BRANCH   4   5
HETATM    5  C6  UNL     1     -15.650   1.086  15.271  1.00  0.00     0.144 C 
BRANCH   5   6
HETATM    6  C4  UNL     1     -16.556   0.984  16.525  1.00  0.00     0.016 C 
HETATM    7  C5  UNL     1     -17.939   1.602  16.269  1.00  0.00     0.013 C 
BRANCH   6   8
HETATM    8  C3  UNL     1     -16.689  -0.505  16.954  1.00  0.00     0.042 C 
BRANCH   8   9
HETATM    9  C2  UNL     1     -16.237  -1.537  15.888  1.00  0.00     0.159 C 
BRANCH   9  10
HETATM   10  O1  UNL     1     -15.024  -2.154  16.342  1.00  0.00    -0.388 OA
HETATM   11  C1  UNL     1     -14.157  -2.555  15.286  1.00  0.00     0.202 C 
ENDBRANCH   9  10
BRANCH   9  12
HETATM   12  C28 UNL     1     -17.302  -2.666  15.622  1.00  0.00     0.133 C 
HETATM   13  C29 UNL     1     -18.541  -2.143  14.820  1.00  0.00     0.114 C 
HETATM   14  C30 UNL     1     -19.268  -3.201  13.992  1.00  0.00     0.023 C 
HETATM   15  C31 UNL     1     -19.483  -1.646  15.895  1.00  0.00     0.227 C 
HETATM   16  O8  UNL     1     -20.371  -0.827  15.730  1.00  0.00    -0.273 OA
HETATM   17  N3  UNL     1     -19.190  -2.332  17.062  1.00  0.00    -0.332 N 
HETATM   18  C32 UNL     1     -19.736  -1.887  18.326  1.00  0.00     0.154 C 
HETATM   19  C33 UNL     1     -17.935  -3.156  16.954  1.00  0.00     0.183 A 
HETATM   20  C34 UNL     1     -17.042  -3.252  18.228  1.00  0.00     0.294 A 
HETATM   21  C35 UNL     1     -18.191  -4.669  17.292  1.00  0.00     0.169 A 
HETATM   22  O9  UNL     1     -16.332  -2.531  18.891  1.00  0.00    -0.262 OA
HETATM   23  O10 UNL     1     -17.380  -4.539  18.498  1.00  0.00    -0.311 OA
HETATM   24  C36 UNL     1     -17.686  -5.849  16.481  1.00  0.00     0.043 C 
BRANCH  12  25
HETATM   25  O7  UNL     1     -16.681  -3.755  14.933  1.00  0.00    -0.383 OA
HETATM   26  H42 UNL     1     -16.512  -3.485  14.008  1.00  0.00     0.210 HD
ENDBRANCH  12  25
ENDBRANCH   9  12
ENDBRANCH   8   9
ENDBRANCH   6   8
ENDBRANCH   5   6
BRANCH   5  27
HETATM   27  O2  UNL     1     -14.289   0.931  15.683  1.00  0.00    -0.391 OA
HETATM   28  H12 UNL     1     -13.772   0.851  14.859  1.00  0.00     0.210 HD
ENDBRANCH   5  27
ENDBRANCH   4   5
ENDBRANCH   1   3
BRANCH   2  29
HETATM   29  C11 UNL     1     -15.011   7.297  14.277  1.00  0.00     0.149 C 
BRANCH  29  30
HETATM   30  N1  UNL     1     -13.659   7.615  13.899  1.00  0.00    -0.357 N 
HETATM   31  C12 UNL     1     -12.840   8.405  14.674  1.00  0.00     0.228 C 
HETATM   32  O3  UNL     1     -13.239   8.944  15.702  1.00  0.00    -0.273 OA
HETATM   33  H19 UNL     1     -13.231   7.087  13.142  1.00  0.00     0.162 HD
BRANCH  31  34
HETATM   34  C13 UNL     1     -11.395   8.579  14.140  1.00  0.00     0.063 C 
HETATM   35  C14 UNL     1     -10.898   9.967  14.597  1.00  0.00     0.028 C 
HETATM   36  C15 UNL     1     -11.473   8.556  12.603  1.00  0.00     0.028 C 
BRANCH  34  37
HETATM   37  C16 UNL     1     -10.535   7.433  14.765  1.00  0.00     0.164 C 
BRANCH  37  38
HETATM   38  O4  UNL     1     -11.294   6.211  14.781  1.00  0.00    -0.390 OA
HETATM   39  H27 UNL     1     -10.816   5.559  14.234  1.00  0.00     0.210 HD
ENDBRANCH  37  38
BRANCH  37  40
HETATM   40  C17 UNL     1      -9.134   7.088  14.249  1.00  0.00    -0.054 C 
HETATM   41  C18 UNL     1      -9.179   6.075  13.126  1.00  0.00     0.046 C 
HETATM   42  C19 UNL     1      -7.999   7.643  14.721  1.00  0.00     0.005 C 
BRANCH  42  43
HETATM   43  C20 UNL     1      -6.641   7.347  14.307  1.00  0.00     0.000 C 
HETATM   44  C21 UNL     1      -5.919   6.352  14.846  1.00  0.00     0.000 C 
BRANCH  44  45
HETATM   45  C22 UNL     1      -4.567   6.045  14.418  1.00  0.00     0.001 C 
HETATM   46  C23 UNL     1      -4.297   5.232  13.383  1.00  0.00     0.009 C 
BRANCH  46  47
HETATM   47  C24 UNL     1      -2.962   4.850  12.892  1.00  0.00    -0.034 C 
HETATM   48  C25 UNL     1      -1.786   5.359  13.709  1.00  0.00     0.050 C 
HETATM   49  C26 UNL     1      -2.830   4.067  11.794  1.00  0.00     0.082 C 
HETATM   50  C27 UNL     1      -3.836   3.464  10.870  1.00  0.00     0.075 C 
BRANCH  49  51
HETATM   51  N2  UNL     1      -1.482   3.764  11.346  1.00  0.00    -0.120 N 
HETATM   52  O5  UNL     1      -1.093   2.601  11.502  1.00  0.00    -0.532 OA
HETATM   53  O6  UNL     1      -0.845   4.679  10.813  1.00  0.00    -0.532 OA
ENDBRANCH  49  51
ENDBRANCH  46  47
ENDBRANCH  44  45
ENDBRANCH  42  43
ENDBRANCH  37  40
ENDBRANCH  34  37
ENDBRANCH  31  34
ENDBRANCH  29  30
ENDBRANCH   2  29
TORSDOF 19
ENDMDL
MODEL 5
REMARK minimizedAffinity -8.06781769
REMARK CNNscore 0.274611622
REMARK CNNaffinity 7.1236825
REMARK  19 active torsions:
REMARK  status: ('A' for Active; 'I' for Inactive)
REMARK    1  A    between atoms: O1_2  and  C2_3 
REMARK    2  A    between atoms: C2_3  and  C3_4 
REMARK    3  A    between atoms: C2_3  and  C28_36 
REMARK    4  A    between atoms: C3_4  and  C4_5 
REMARK    5  A    between atoms: C4_5  and  C6_7 
REMARK    6  A    between atoms: C6_7  and  O2_8 
REMARK    7  A    between atoms: C6_7  and  C7_9 
REMARK    8  A    between atoms: C8_10  and  C9_11 
REMARK    9  A    between atoms: C10_12  and  C11_13 
REMARK   10  A    between atoms: C11_13  and  N1_14 
REMARK       I    between atoms: N1_14  and  C12_15 
REMARK   11  A    between atoms: C12_15  and  C13_17 
REMARK   12  A    between atoms: C13_17  and  C16_20 
REMARK   13  A    between atoms: C16_20  and  O4_21 
REMARK   14  A    between atoms: C16_20  and  C17_22 
REMARK   15  A    between atoms: C19_24  and  C20_25 
REMARK   16  A    between atoms: C21_26  and  C22_27 
REMARK   17  A    between atoms: C23_28  and  C24_29 
REMARK   18  A    between atoms: C26_31  and  N2_33 
REMARK   19  A    between atoms: C28_36  and  O7_37 
ROOT
HETATM    1  C9  UNL     1     -13.973   6.308  14.743  1.00  0.00    -0.003 C 
HETATM    2  C10 UNL     1     -14.305   7.402  14.038  1.00  0.00    -0.007 C 
ENDROOT
BRANCH   1   3
HETATM    3  C8  UNL     1     -14.664   5.049  14.599  1.00  0.00    -0.002 C 
HETATM    4  C7  UNL     1     -16.001   4.941  14.622  1.00  0.00     0.005 C 
BRANCH   4   5
HETATM    5  C6  UNL     1     -16.734   3.641  14.470  1.00  0.00     0.144 C 
BRANCH   5   6
HETATM    6  C4  UNL     1     -15.814   2.393  14.428  1.00  0.00     0.016 C 
HETATM    7  C5  UNL     1     -15.648   1.773  15.823  1.00  0.00     0.013 C 
BRANCH   6   8
HETATM    8  C3  UNL     1     -16.391   1.353  13.427  1.00  0.00     0.042 C 
BRANCH   8   9
HETATM    9  C2  UNL     1     -17.008   0.087  14.079  1.00  0.00     0.159 C 
BRANCH   9  10
HETATM   10  O1  UNL     1     -18.381  -0.006  13.676  1.00  0.00    -0.388 OA
HETATM   11  C1  UNL     1     -18.711   0.834  12.575  1.00  0.00     0.202 C 
ENDBRANCH   9  10
BRANCH   9  12
HETATM   12  C28 UNL     1     -16.275  -1.246  13.669  1.00  0.00     0.133 C 
HETATM   13  C29 UNL     1     -16.922  -1.923  12.414  1.00  0.00     0.114 C 
HETATM   14  C30 UNL     1     -15.973  -2.792  11.590  1.00  0.00     0.023 C 
HETATM   15  C31 UNL     1     -17.999  -2.811  12.997  1.00  0.00     0.227 C 
HETATM   16  O8  UNL     1     -18.980  -3.215  12.397  1.00  0.00    -0.273 OA
HETATM   17  N3  UNL     1     -17.631  -3.121  14.296  1.00  0.00    -0.332 N 
HETATM   18  C32 UNL     1     -18.585  -3.729  15.198  1.00  0.00     0.154 C 
HETATM   19  C33 UNL     1     -16.442  -2.330  14.770  1.00  0.00     0.183 A 
HETATM   20  C34 UNL     1     -16.434  -1.897  16.268  1.00  0.00     0.294 A 
HETATM   21  C35 UNL     1     -15.274  -3.258  15.263  1.00  0.00     0.169 A 
HETATM   22  O9  UNL     1     -17.038  -1.141  16.994  1.00  0.00    -0.262 OA
HETATM   23  O10 UNL     1     -15.475  -2.788  16.630  1.00  0.00    -0.311 OA
HETATM   24  C36 UNL     1     -13.810  -3.098  14.896  1.00  0.00     0.043 C 
BRANCH  12  25
HETATM   25  O7  UNL     1     -14.890  -0.977  13.438  1.00  0.00    -0.383 OA
HETATM   26  H42 UNL     1     -14.802  -0.490  12.594  1.00  0.00     0.210 HD
ENDBRANCH  12  25
ENDBRANCH   9  12
ENDBRANCH   8   9
ENDBRANCH   6   8
ENDBRANCH   5   6
BRANCH   5  27
HETATM   27  O2  UNL     1     -17.433   3.729  13.225  1.00  0.00    -0.391 OA
HETATM   28  H12 UNL     1     -18.103   4.429  13.348  1.00  0.00     0.210 HD
ENDBRANCH   5  27
ENDBRANCH   4   5
ENDBRANCH   1   3
BRANCH   2  29
HETATM   29  C11 UNL     1     -13.639   8.730  14.192  1.00  0.00     0.149 C 
BRANCH  29  30
HETATM   30  N1  UNL     1     -12.464   8.547  15.002  1.00  0.00    -0.357 N 
HETATM   31  C12 UNL     1     -11.194   8.799  14.533  1.00  0.00     0.228 C 
HETATM   32  O3  UNL     1     -10.984   9.128  13.369  1.00  0.00    -0.273 OA
HETATM   33  H19 UNL     1     -12.583   8.417  16.004  1.00  0.00     0.162 HD
BRANCH  31  34
HETATM   34  C13 UNL     1     -10.058   8.613  15.572  1.00  0.00     0.063 C 
HETATM   35  C14 UNL     1     -10.602   9.077  16.939  1.00  0.00     0.028 C 
HETATM   36  C15 UNL     1      -8.903   9.540  15.151  1.00  0.00     0.028 C 
BRANCH  34  37
HETATM   37  C16 UNL     1      -9.699   7.092  15.588  1.00  0.00     0.164 C 
BRANCH  37  38
HETATM   38  O4  UNL     1     -10.748   6.338  14.957  1.00  0.00    -0.390 OA
HETATM   39  H27 UNL     1     -10.363   5.884  14.184  1.00  0.00     0.210 HD
ENDBRANCH  37  38
BRANCH  37  40
HETATM   40  C17 UNL     1      -8.370   6.561  15.041  1.00  0.00    -0.054 C 
HETATM   41  C18 UNL     1      -7.297   6.513  16.108  1.00  0.00     0.046 C 
HETATM   42  C19 UNL     1      -8.186   6.156  13.767  1.00  0.00     0.005 C 
BRANCH  42  43
HETATM   43  C20 UNL     1      -6.956   5.673  13.170  1.00  0.00     0.000 C 
HETATM   44  C21 UNL     1      -6.543   4.402  13.284  1.00  0.00     0.000 C 
BRANCH  44  45
HETATM   45  C22 UNL     1      -5.322   3.917  12.670  1.00  0.00     0.001 C 
HETATM   46  C23 UNL     1      -4.256   4.704  12.445  1.00  0.00     0.009 C 
BRANCH  46  47
HETATM   47  C24 UNL     1      -2.987   4.306  11.812  1.00  0.00    -0.034 C 
HETATM   48  C25 UNL     1      -3.108   3.631  10.456  1.00  0.00     0.050 C 
HETATM   49  C26 UNL     1      -1.804   4.568  12.416  1.00  0.00     0.082 C 
HETATM   50  C27 UNL     1      -1.469   5.217  13.719  1.00  0.00     0.075 C 
BRANCH  49  51
HETATM   51  N2  UNL     1      -0.596   4.111  11.752  1.00  0.00    -0.120 N 
HETATM   52  O5  UNL     1      -0.127   3.032  12.132  1.00  0.00    -0.532 OA
HETATM   53  O6  UNL     1      -0.153   4.816  10.838  1.00  0.00    -0.532 OA
ENDBRANCH  49  51
ENDBRANCH  46  47
ENDBRANCH  44  45
ENDBRANCH  42  43
ENDBRANCH  37  40
ENDBRANCH  34  37
ENDBRANCH  31  34
ENDBRANCH  29  30
ENDBRANCH   2  29
TORSDOF 19
ENDMDL
MODEL 6
REMARK minimizedAffinity -8.76280689
REMARK CNNscore 0.26101014
REMARK CNNaffinity 5.94366503
REMARK  19 active torsions:
REMARK  status: ('A' for Active; 'I' for Inactive)
REMARK    1  A    between atoms: O1_2  and  C2_3 
REMARK    2  A    between atoms: C2_3  and  C3_4 
REMARK    3  A    between atoms: C2_3  and  C28_36 
REMARK    4  A    between atoms: C3_4  and  C4_5 
REMARK    5  A    between atoms: C4_5  and  C6_7 
REMARK    6  A    between atoms: C6_7  and  O2_8 
REMARK    7  A    between atoms: C6_7  and  C7_9 
REMARK    8  A    between atoms: C8_10  and  C9_11 
REMARK    9  A    between atoms: C10_12  and  C11_13 
REMARK   10  A    between atoms: C11_13  and  N1_14 
REMARK       I    between atoms: N1_14  and  C12_15 
REMARK   11  A    between atoms: C12_15  and  C13_17 
REMARK   12  A    between atoms: C13_17  and  C16_20 
REMARK   13  A    between atoms: C16_20  and  O4_21 
REMARK   14  A    between atoms: C16_20  and  C17_22 
REMARK   15  A    between atoms: C19_24  and  C20_25 
REMARK   16  A    between atoms: C21_26  and  C22_27 
REMARK   17  A    between atoms: C23_28  and  C24_29 
REMARK   18  A    between atoms: C26_31  and  N2_33 
REMARK   19  A    between atoms: C28_36  and  O7_37 
ROOT
HETATM    1  C9  UNL     1       7.949   7.845  13.083  1.00  0.00    -0.003 C 
HETATM    2  C10 UNL     1       6.946   7.182  12.485  1.00  0.00    -0.007 C 
ENDROOT
BRANCH   1   3
HETATM    3  C8  UNL     1       8.114   7.881  14.516  1.00  0.00    -0.002 C 
HETATM    4  C7  UNL     1       8.175   9.023  15.217  1.00  0.00     0.005 C 
BRANCH   4   5
HETATM    5  C6  UNL     1       8.344   9.076  16.708  1.00  0.00     0.144 C 
BRANCH   5   6
HETATM    6  C4  UNL     1       9.404  10.098  17.192  1.00  0.00     0.016 C 
HETATM    7  C5  UNL     1      10.326  10.534  16.043  1.00  0.00     0.013 C 
BRANCH   6   8
HETATM    8  C3  UNL     1       8.694  11.328  17.825  1.00  0.00     0.042 C 
BRANCH   8   9
HETATM    9  C2  UNL     1       8.761  11.399  19.373  1.00  0.00     0.159 C 
BRANCH   9  10
HETATM   10  O1  UNL     1      10.092  11.063  19.785  1.00  0.00    -0.388 OA
HETATM   11  C1  UNL     1      11.096  11.888  19.202  1.00  0.00     0.202 C 
ENDBRANCH   9  10
BRANCH   9  12
HETATM   12  C28 UNL     1       8.404  12.822  19.948  1.00  0.00     0.133 C 
HETATM   13  C29 UNL     1       9.358  13.253  21.113  1.00  0.00     0.114 C 
HETATM   14  C30 UNL     1       9.519  14.762  21.290  1.00  0.00     0.023 C 
HETATM   15  C31 UNL     1       8.690  12.695  22.351  1.00  0.00     0.227 C 
HETATM   16  O8  UNL     1       9.251  12.455  23.406  1.00  0.00    -0.273 OA
HETATM   17  N3  UNL     1       7.337  12.571  22.080  1.00  0.00    -0.332 N 
HETATM   18  C32 UNL     1       6.482  11.816  22.970  1.00  0.00     0.154 C 
HETATM   19  C33 UNL     1       7.009  12.809  20.631  1.00  0.00     0.183 A 
HETATM   20  C34 UNL     1       5.870  11.941  20.014  1.00  0.00     0.294 A 
HETATM   21  C35 UNL     1       5.938  13.944  20.447  1.00  0.00     0.169 A 
HETATM   22  O9  UNL     1       5.676  10.785  19.714  1.00  0.00    -0.262 OA
HETATM   23  O10 UNL     1       4.974  12.960  19.966  1.00  0.00    -0.311 OA
HETATM   24  C36 UNL     1       6.026  15.081  19.445  1.00  0.00     0.043 C 
BRANCH  12  25
HETATM   25  O7  UNL     1       8.435  13.785  18.891  1.00  0.00    -0.383 OA
HETATM   26  H42 UNL     1       9.367  13.950  18.645  1.00  0.00     0.210 HD
ENDBRANCH  12  25
ENDBRANCH   9  12
ENDBRANCH   8   9
ENDBRANCH   6   8
ENDBRANCH   5   6
BRANCH   5  27
HETATM   27  O2  UNL     1       8.765   7.767  17.101  1.00  0.00    -0.391 OA
HETATM   28  H12 UNL     1       8.009   7.179  16.913  1.00  0.00     0.210 HD
ENDBRANCH   5  27
ENDBRANCH   4   5
ENDBRANCH   1   3
BRANCH   2  29
HETATM   29  C11 UNL     1       6.722   7.158  11.009  1.00  0.00     0.149 C 
BRANCH  29  30
HETATM   30  N1  UNL     1       5.381   6.694  10.770  1.00  0.00    -0.357 N 
HETATM   31  C12 UNL     1       4.359   7.538  10.398  1.00  0.00     0.228 C 
HETATM   32  O3  UNL     1       4.517   8.753  10.316  1.00  0.00    -0.273 OA
HETATM   33  H19 UNL     1       5.223   5.692  10.682  1.00  0.00     0.162 HD
BRANCH  31  34
HETATM   34  C13 UNL     1       3.000   6.847  10.116  1.00  0.00     0.063 C 
HETATM   35  C14 UNL     1       3.244   5.773   9.036  1.00  0.00     0.028 C 
HETATM   36  C15 UNL     1       2.055   7.922   9.549  1.00  0.00     0.028 C 
BRANCH  34  37
HETATM   37  C16 UNL     1       2.526   6.207  11.461  1.00  0.00     0.164 C 
BRANCH  37  38
HETATM   38  O4  UNL     1       3.149   6.882  12.567  1.00  0.00    -0.390 OA
HETATM   39  H27 UNL     1       2.441   7.274  13.111  1.00  0.00     0.210 HD
ENDBRANCH  37  38
BRANCH  37  40
HETATM   40  C17 UNL     1       1.043   6.044  11.809  1.00  0.00    -0.054 C 
HETATM   41  C18 UNL     1       0.637   6.916  12.978  1.00  0.00     0.046 C 
HETATM   42  C19 UNL     1       0.193   5.241  11.136  1.00  0.00     0.005 C 
BRANCH  42  43
HETATM   43  C20 UNL     1      -1.209   5.010  11.424  1.00  0.00     0.000 C 
HETATM   44  C21 UNL     1      -1.631   4.041  12.250  1.00  0.00     0.000 C 
BRANCH  44  45
HETATM   45  C22 UNL     1      -3.033   3.824  12.551  1.00  0.00     0.001 C 
HETATM   46  C23 UNL     1      -3.916   4.829  12.676  1.00  0.00     0.009 C 
BRANCH  46  47
HETATM   47  C24 UNL     1      -5.349   4.706  12.998  1.00  0.00    -0.034 C 
HETATM   48  C25 UNL     1      -5.850   5.592  14.126  1.00  0.00     0.050 C 
HETATM   49  C26 UNL     1      -6.144   3.868  12.291  1.00  0.00     0.082 C 
HETATM   50  C27 UNL     1      -5.859   2.935  11.161  1.00  0.00     0.075 C 
BRANCH  49  51
HETATM   51  N2  UNL     1      -7.537   3.770  12.691  1.00  0.00    -0.120 N 
HETATM   52  O5  UNL     1      -8.303   4.636  12.252  1.00  0.00    -0.532 OA
HETATM   53  O6  UNL     1      -7.853   2.814  13.408  1.00  0.00    -0.532 OA
ENDBRANCH  49  51
ENDBRANCH  46  47
ENDBRANCH  44  45
ENDBRANCH  42  43
ENDBRANCH  37  40
ENDBRANCH  34  37
ENDBRANCH  31  34
ENDBRANCH  29  30
ENDBRANCH   2  29
TORSDOF 19
ENDMDL
MODEL 7
REMARK minimizedAffinity -8.84321213
REMARK CNNscore 0.233874559
REMARK CNNaffinity 5.85613489
REMARK  19 active torsions:
REMARK  status: ('A' for Active; 'I' for Inactive)
REMARK    1  A    between atoms: O1_2  and  C2_3 
REMARK    2  A    between atoms: C2_3  and  C3_4 
REMARK    3  A    between atoms: C2_3  and  C28_36 
REMARK    4  A    between atoms: C3_4  and  C4_5 
REMARK    5  A    between atoms: C4_5  and  C6_7 
REMARK    6  A    between atoms: C6_7  and  O2_8 
REMARK    7  A    between atoms: C6_7  and  C7_9 
REMARK    8  A    between atoms: C8_10  and  C9_11 
REMARK    9  A    between atoms: C10_12  and  C11_13 
REMARK   10  A    between atoms: C11_13  and  N1_14 
REMARK       I    between atoms: N1_14  and  C12_15 
REMARK   11  A    between atoms: C12_15  and  C13_17 
REMARK   12  A    between atoms: C13_17  and  C16_20 
REMARK   13  A    between atoms: C16_20  and  O4_21 
REMARK   14  A    between atoms: C16_20  and  C17_22 
REMARK   15  A    between atoms: C19_24  and  C20_25 
REMARK   16  A    between atoms: C21_26  and  C22_27 
REMARK   17  A    between atoms: C23_28  and  C24_29 
REMARK   18  A    between atoms: C26_31  and  N2_33 
REMARK   19  A    between atoms: C28_36  and  O7_37 
ROOT
HETATM    1  C9  UNL     1       7.562   7.717  13.165  1.00  0.00    -0.003 C 
HETATM    2  C10 UNL     1       6.688   6.867  12.602  1.00  0.00    -0.007 C 
ENDROOT
BRANCH   1   3
HETATM    3  C8  UNL     1       7.492   8.098  14.555  1.00  0.00    -0.002 C 
HETATM    4  C7  UNL     1       8.437   8.833  15.161  1.00  0.00     0.005 C 
BRANCH   4   5
HETATM    5  C6  UNL     1       8.377   9.241  16.603  1.00  0.00     0.144 C 
BRANCH   5   6
HETATM    6  C4  UNL     1       8.509  10.768  16.839  1.00  0.00     0.016 C 
HETATM    7  C5  UNL     1       8.264  11.557  15.544  1.00  0.00     0.013 C 
BRANCH   6   8
HETATM    8  C3  UNL     1       7.518  11.212  17.951  1.00  0.00     0.042 C 
BRANCH   8   9
HETATM    9  C2  UNL     1       8.099  12.206  18.990  1.00  0.00     0.159 C 
BRANCH   9  10
HETATM   10  O1  UNL     1       8.568  13.368  18.292  1.00  0.00    -0.388 OA
HETATM   11  C1  UNL     1       9.970  13.582  18.415  1.00  0.00     0.202 C 
ENDBRANCH   9  10
BRANCH   9  12
HETATM   12  C28 UNL     1       7.050  12.663  20.072  1.00  0.00     0.133 C 
HETATM   13  C29 UNL     1       6.348  14.011  19.694  1.00  0.00     0.114 C 
HETATM   14  C30 UNL     1       4.951  14.198  20.285  1.00  0.00     0.023 C 
HETATM   15  C31 UNL     1       7.259  15.069  20.275  1.00  0.00     0.227 C 
HETATM   16  O8  UNL     1       7.319  16.229  19.904  1.00  0.00    -0.273 OA
HETATM   17  N3  UNL     1       7.952  14.495  21.329  1.00  0.00    -0.332 N 
HETATM   18  C32 UNL     1       9.091  15.175  21.907  1.00  0.00     0.154 C 
HETATM   19  C33 UNL     1       7.753  13.006  21.415  1.00  0.00     0.183 A 
HETATM   20  C34 UNL     1       8.978  12.156  21.868  1.00  0.00     0.294 A 
HETATM   21  C35 UNL     1       7.209  12.564  22.821  1.00  0.00     0.169 A 
HETATM   22  O9  UNL     1      10.064  11.835  21.442  1.00  0.00    -0.262 OA
HETATM   23  O10 UNL     1       8.472  11.888  23.099  1.00  0.00    -0.311 OA
HETATM   24  C36 UNL     1       6.066  11.593  23.055  1.00  0.00     0.043 C 
BRANCH  12  25
HETATM   25  O7  UNL     1       6.082  11.628  20.265  1.00  0.00    -0.383 OA
HETATM   26  H42 UNL     1       5.493  11.601  19.484  1.00  0.00     0.210 HD
ENDBRANCH  12  25
ENDBRANCH   9  12
ENDBRANCH   8   9
ENDBRANCH   6   8
ENDBRANCH   5   6
BRANCH   5  27
HETATM   27  O2  UNL     1       9.480   8.589  17.240  1.00  0.00    -0.391 OA
HETATM   28  H12 UNL     1       9.281   7.634  17.198  1.00  0.00     0.210 HD
ENDBRANCH   5  27
ENDBRANCH   4   5
ENDBRANCH   1   3
BRANCH   2  29
HETATM   29  C11 UNL     1       6.707   6.483  11.159  1.00  0.00     0.149 C 
BRANCH  29  30
HETATM   30  N1  UNL     1       5.420   5.929  10.829  1.00  0.00    -0.357 N 
HETATM   31  C12 UNL     1       4.436   6.661  10.204  1.00  0.00     0.228 C 
HETATM   32  O3  UNL     1       4.574   7.855   9.952  1.00  0.00    -0.273 OA
HETATM   33  H19 UNL     1       5.300   4.919  10.880  1.00  0.00     0.162 HD
BRANCH  31  34
HETATM   34  C13 UNL     1       3.143   5.875   9.865  1.00  0.00     0.063 C 
HETATM   35  C14 UNL     1       3.562   4.444   9.470  1.00  0.00     0.028 C 
HETATM   36  C15 UNL     1       2.501   6.564   8.647  1.00  0.00     0.028 C 
BRANCH  34  37
HETATM   37  C16 UNL     1       2.259   5.875  11.154  1.00  0.00     0.164 C 
BRANCH  37  38
HETATM   38  O4  UNL     1       2.588   7.012  11.970  1.00  0.00    -0.390 OA
HETATM   39  H27 UNL     1       1.785   7.560  12.052  1.00  0.00     0.210 HD
ENDBRANCH  37  38
BRANCH  37  40
HETATM   40  C17 UNL     1       0.730   5.790  11.095  1.00  0.00    -0.054 C 
HETATM   41  C18 UNL     1       0.093   7.154  10.945  1.00  0.00     0.046 C 
HETATM   42  C19 UNL     1       0.036   4.633  11.142  1.00  0.00     0.005 C 
BRANCH  42  43
HETATM   43  C20 UNL     1      -1.405   4.475  11.124  1.00  0.00     0.000 C 
HETATM   44  C21 UNL     1      -2.186   4.811  12.162  1.00  0.00     0.000 C 
BRANCH  44  45
HETATM   45  C22 UNL     1      -3.629   4.668  12.135  1.00  0.00     0.001 C 
HETATM   46  C23 UNL     1      -4.399   4.839  13.222  1.00  0.00     0.009 C 
BRANCH  46  47
HETATM   47  C24 UNL     1      -5.864   4.696  13.294  1.00  0.00    -0.034 C 
HETATM   48  C25 UNL     1      -6.574   5.647  14.242  1.00  0.00     0.050 C 
HETATM   49  C26 UNL     1      -6.506   3.784  12.525  1.00  0.00     0.082 C 
HETATM   50  C27 UNL     1      -6.007   2.779  11.540  1.00  0.00     0.075 C 
BRANCH  49  51
HETATM   51  N2  UNL     1      -7.945   3.673  12.678  1.00  0.00    -0.120 N 
HETATM   52  O5  UNL     1      -8.606   4.701  12.487  1.00  0.00    -0.532 OA
HETATM   53  O6  UNL     1      -8.400   2.557  12.952  1.00  0.00    -0.532 OA
ENDBRANCH  49  51
ENDBRANCH  46  47
ENDBRANCH  44  45
ENDBRANCH  42  43
ENDBRANCH  37  40
ENDBRANCH  34  37
ENDBRANCH  31  34
ENDBRANCH  29  30
ENDBRANCH   2  29
TORSDOF 19
ENDMDL
MODEL 8
REMARK minimizedAffinity -7.75978804
REMARK CNNscore 0.231413931
REMARK CNNaffinity 6.70298243
REMARK  19 active torsions:
REMARK  status: ('A' for Active; 'I' for Inactive)
REMARK    1  A    between atoms: O1_2  and  C2_3 
REMARK    2  A    between atoms: C2_3  and  C3_4 
REMARK    3  A    between atoms: C2_3  and  C28_36 
REMARK    4  A    between atoms: C3_4  and  C4_5 
REMARK    5  A    between atoms: C4_5  and  C6_7 
REMARK    6  A    between atoms: C6_7  and  O2_8 
REMARK    7  A    between atoms: C6_7  and  C7_9 
REMARK    8  A    between atoms: C8_10  and  C9_11 
REMARK    9  A    between atoms: C10_12  and  C11_13 
REMARK   10  A    between atoms: C11_13  and  N1_14 
REMARK       I    between atoms: N1_14  and  C12_15 
REMARK   11  A    between atoms: C12_15  and  C13_17 
REMARK   12  A    between atoms: C13_17  and  C16_20 
REMARK   13  A    between atoms: C16_20  and  O4_21 
REMARK   14  A    between atoms: C16_20  and  C17_22 
REMARK   15  A    between atoms: C19_24  and  C20_25 
REMARK   16  A    between atoms: C21_26  and  C22_27 
REMARK   17  A    between atoms: C23_28  and  C24_29 
REMARK   18  A    between atoms: C26_31  and  N2_33 
REMARK   19  A    between atoms: C28_36  and  O7_37 
ROOT
HETATM    1  C9  UNL     1     -13.912   6.302  14.169  1.00  0.00    -0.003 C 
HETATM    2  C10 UNL     1     -12.588   6.244  14.385  1.00  0.00    -0.007 C 
ENDROOT
BRANCH   1   3
HETATM    3  C8  UNL     1     -14.728   5.122  14.016  1.00  0.00    -0.002 C 
HETATM    4  C7  UNL     1     -15.012   4.291  15.031  1.00  0.00     0.005 C 
BRANCH   4   5
HETATM    5  C6  UNL     1     -15.861   3.062  14.889  1.00  0.00     0.144 C 
BRANCH   5   6
HETATM    6  C4  UNL     1     -15.058   1.758  14.652  1.00  0.00     0.016 C 
HETATM    7  C5  UNL     1     -14.888   0.961  15.954  1.00  0.00     0.013 C 
BRANCH   6   8
HETATM    8  C3  UNL     1     -15.768   0.897  13.569  1.00  0.00     0.042 C 
BRANCH   8   9
HETATM    9  C2  UNL     1     -16.299  -0.474  14.064  1.00  0.00     0.159 C 
BRANCH   9  10
HETATM   10  O1  UNL     1     -17.732  -0.439  14.039  1.00  0.00    -0.388 OA
HETATM   11  C1  UNL     1     -18.320  -0.222  15.318  1.00  0.00     0.202 C 
ENDBRANCH   9  10
BRANCH   9  12
HETATM   12  C28 UNL     1     -15.814  -1.686  13.183  1.00  0.00     0.133 C 
HETATM   13  C29 UNL     1     -16.886  -2.129  12.132  1.00  0.00     0.114 C 
HETATM   14  C30 UNL     1     -16.322  -2.803  10.881  1.00  0.00     0.023 C 
HETATM   15  C31 UNL     1     -17.729  -3.139  12.879  1.00  0.00     0.227 C 
HETATM   16  O8  UNL     1     -18.875  -3.446  12.597  1.00  0.00    -0.273 OA
HETATM   17  N3  UNL     1     -16.946  -3.680  13.885  1.00  0.00    -0.332 N 
HETATM   18  C32 UNL     1     -17.552  -4.471  14.934  1.00  0.00     0.154 C 
HETATM   19  C33 UNL     1     -15.633  -2.963  14.051  1.00  0.00     0.183 A 
HETATM   20  C34 UNL     1     -15.085  -2.822  15.503  1.00  0.00     0.294 A 
HETATM   21  C35 UNL     1     -14.408  -3.938  13.922  1.00  0.00     0.169 A 
HETATM   22  O9  UNL     1     -15.364  -2.232  16.522  1.00  0.00    -0.262 OA
HETATM   23  O10 UNL     1     -14.100  -3.741  15.334  1.00  0.00    -0.311 OA
HETATM   24  C36 UNL     1     -13.158  -3.675  13.102  1.00  0.00     0.043 C 
BRANCH  12  25
HETATM   25  O7  UNL     1     -14.585  -1.344  12.536  1.00  0.00    -0.383 OA
HETATM   26  H42 UNL     1     -14.776  -0.704  11.821  1.00  0.00     0.210 HD
ENDBRANCH  12  25
ENDBRANCH   9  12
ENDBRANCH   8   9
ENDBRANCH   6   8
ENDBRANCH   5   6
BRANCH   5  27
HETATM   27  O2  UNL     1     -16.694   3.293  13.749  1.00  0.00    -0.391 OA
HETATM   28  H12 UNL     1     -17.285   4.029  13.999  1.00  0.00     0.210 HD
ENDBRANCH   5  27
ENDBRANCH   4   5
ENDBRANCH   1   3
BRANCH   2  29
HETATM   29  C11 UNL     1     -11.707   7.445  14.507  1.00  0.00     0.149 C 
BRANCH  29  30
HETATM   30  N1  UNL     1     -10.346   7.019  14.315  1.00  0.00    -0.357 N 
HETATM   31  C12 UNL     1      -9.399   7.092  15.311  1.00  0.00     0.228 C 
HETATM   32  O3  UNL     1      -9.644   7.591  16.406  1.00  0.00    -0.273 OA
HETATM   33  H19 UNL     1     -10.123   6.470  13.487  1.00  0.00     0.162 HD
BRANCH  31  34
HETATM   34  C13 UNL     1      -8.006   6.522  14.941  1.00  0.00     0.063 C 
HETATM   35  C14 UNL     1      -7.991   6.293  13.415  1.00  0.00     0.028 C 
HETATM   36  C15 UNL     1      -7.869   5.163  15.653  1.00  0.00     0.028 C 
BRANCH  34  37
HETATM   37  C16 UNL     1      -6.947   7.589  15.368  1.00  0.00     0.164 C 
BRANCH  37  38
HETATM   38  O4  UNL     1      -6.679   7.471  16.776  1.00  0.00    -0.390 OA
HETATM   39  H27 UNL     1      -5.733   7.256  16.879  1.00  0.00     0.210 HD
ENDBRANCH  37  38
BRANCH  37  40
HETATM   40  C17 UNL     1      -5.595   7.727  14.661  1.00  0.00    -0.054 C 
HETATM   41  C18 UNL     1      -5.010   9.113  14.824  1.00  0.00     0.046 C 
HETATM   42  C19 UNL     1      -4.985   6.723  13.997  1.00  0.00     0.005 C 
BRANCH  42  43
HETATM   43  C20 UNL     1      -3.726   6.784  13.280  1.00  0.00     0.000 C 
HETATM   44  C21 UNL     1      -2.577   7.160  13.861  1.00  0.00     0.000 C 
BRANCH  44  45
HETATM   45  C22 UNL     1      -1.316   7.203  13.146  1.00  0.00     0.001 C 
HETATM   46  C23 UNL     1      -1.212   6.936  11.833  1.00  0.00     0.009 C 
BRANCH  46  47
HETATM   47  C24 UNL     1       0.023   6.935  11.030  1.00  0.00    -0.034 C 
HETATM   48  C25 UNL     1       0.348   8.238  10.319  1.00  0.00     0.050 C 
HETATM   49  C26 UNL     1       0.811   5.835  10.977  1.00  0.00     0.082 C 
HETATM   50  C27 UNL     1       0.681   4.482  11.597  1.00  0.00     0.075 C 
BRANCH  49  51
HETATM   51  N2  UNL     1       1.991   5.895  10.135  1.00  0.00    -0.120 N 
HETATM   52  O5  UNL     1       2.483   7.014   9.946  1.00  0.00    -0.532 OA
HETATM   53  O6  UNL     1       2.432   4.825   9.701  1.00  0.00    -0.532 OA
ENDBRANCH  49  51
ENDBRANCH  46  47
ENDBRANCH  44  45
ENDBRANCH  42  43
ENDBRANCH  37  40
ENDBRANCH  34  37
ENDBRANCH  31  34
ENDBRANCH  29  30
ENDBRANCH   2  29
TORSDOF 19
ENDMDL
MODEL 9
REMARK minimizedAffinity -7.63433266
REMARK CNNscore 0.216276005
REMARK CNNaffinity 6.05633926
REMARK  19 active torsions:
REMARK  status: ('A' for Active; 'I' for Inactive)
REMARK    1  A    between atoms: O1_2  and  C2_3 
REMARK    2  A    between atoms: C2_3  and  C3_4 
REMARK    3  A    between atoms: C2_3  and  C28_36 
REMARK    4  A    between atoms: C3_4  and  C4_5 
REMARK    5  A    between atoms: C4_5  and  C6_7 
REMARK    6  A    between atoms: C6_7  and  O2_8 
REMARK    7  A    between atoms: C6_7  and  C7_9 
REMARK    8  A    between atoms: C8_10  and  C9_11 
REMARK    9  A    between atoms: C10_12  and  C11_13 
REMARK   10  A    between atoms: C11_13  and  N1_14 
REMARK       I    between atoms: N1_14  and  C12_15 
REMARK   11  A    between atoms: C12_15  and  C13_17 
REMARK   12  A    between atoms: C13_17  and  C16_20 
REMARK   13  A    between atoms: C16_20  and  O4_21 
REMARK   14  A    between atoms: C16_20  and  C17_22 
REMARK   15  A    between atoms: C19_24  and  C20_25 
REMARK   16  A    between atoms: C21_26  and  C22_27 
REMARK   17  A    between atoms: C23_28  and  C24_29 
REMARK   18  A    between atoms: C26_31  and  N2_33 
REMARK   19  A    between atoms: C28_36  and  O7_37 
ROOT
HETATM    1  C9  UNL     1       0.776  10.930  19.641  1.00  0.00    -0.003 C 
HETATM    2  C10 UNL     1       1.135  11.811  18.694  1.00  0.00    -0.007 C 
ENDROOT
BRANCH   1   3
HETATM    3  C8  UNL     1       1.424  10.865  20.930  1.00  0.00    -0.002 C 
HETATM    4  C7  UNL     1       2.580  10.217  21.135  1.00  0.00     0.005 C 
BRANCH   4   5
HETATM    5  C6  UNL     1       3.267  10.143  22.468  1.00  0.00     0.144 C 
BRANCH   5   6
HETATM    6  C4  UNL     1       4.448  11.134  22.631  1.00  0.00     0.016 C 
HETATM    7  C5  UNL     1       5.658  10.459  23.293  1.00  0.00     0.013 C 
BRANCH   6   8
HETATM    8  C3  UNL     1       4.834  11.719  21.243  1.00  0.00     0.042 C 
BRANCH   8   9
HETATM    9  C2  UNL     1       6.352  11.963  21.033  1.00  0.00     0.159 C 
BRANCH   9  10
HETATM   10  O1  UNL     1       6.700  11.533  19.710  1.00  0.00    -0.388 OA
HETATM   11  C1  UNL     1       5.621  11.600  18.785  1.00  0.00     0.202 C 
ENDBRANCH   9  10
BRANCH   9  12
HETATM   12  C28 UNL     1       6.770  13.473  21.194  1.00  0.00     0.133 C 
HETATM   13  C29 UNL     1       6.950  14.194  19.817  1.00  0.00     0.114 C 
HETATM   14  C30 UNL     1       6.723  15.705  19.845  1.00  0.00     0.023 C 
HETATM   15  C31 UNL     1       8.397  13.935  19.460  1.00  0.00     0.227 C 
HETATM   16  O8  UNL     1       8.862  13.970  18.333  1.00  0.00    -0.273 OA
HETATM   17  N3  UNL     1       9.090  13.717  20.639  1.00  0.00    -0.332 N 
HETATM   18  C32 UNL     1      10.432  13.178  20.608  1.00  0.00     0.154 C 
HETATM   19  C33 UNL     1       8.182  13.591  21.833  1.00  0.00     0.183 A 
HETATM   20  C34 UNL     1       8.603  12.573  22.935  1.00  0.00     0.294 A 
HETATM   21  C35 UNL     1       8.544  14.622  22.962  1.00  0.00     0.169 A 
HETATM   22  O9  UNL     1       8.700  11.374  23.070  1.00  0.00    -0.262 OA
HETATM   23  O10 UNL     1       8.973  13.528  23.826  1.00  0.00    -0.311 OA
HETATM   24  C36 UNL     1       7.548  15.486  23.715  1.00  0.00     0.043 C 
BRANCH  12  25
HETATM   25  O7  UNL     1       5.800  14.153  21.995  1.00  0.00    -0.383 OA
HETATM   26  H42 UNL     1       4.987  14.277  21.465  1.00  0.00     0.210 HD
ENDBRANCH  12  25
ENDBRANCH   9  12
ENDBRANCH   8   9
ENDBRANCH   6   8
ENDBRANCH   5   6
BRANCH   5  27
HETATM   27  O2  UNL     1       3.779   8.811  22.570  1.00  0.00    -0.391 OA
HETATM   28  H12 UNL     1       2.995   8.230  22.613  1.00  0.00     0.210 HD
ENDBRANCH   5  27
ENDBRANCH   4   5
ENDBRANCH   1   3
BRANCH   2  29
HETATM   29  C11 UNL     1       0.515  11.878  17.337  1.00  0.00     0.149 C 
BRANCH  29  30
HETATM   30  N1  UNL     1      -0.852  11.443  17.450  1.00  0.00    -0.357 N 
HETATM   31  C12 UNL     1      -1.895  12.318  17.649  1.00  0.00     0.228 C 
HETATM   32  O3  UNL     1      -1.712  13.522  17.812  1.00  0.00    -0.273 OA
HETATM   33  H19 UNL     1      -1.079  10.487  17.183  1.00  0.00     0.162 HD
BRANCH  31  34
HETATM   34  C13 UNL     1      -3.304  11.673  17.675  1.00  0.00     0.063 C 
HETATM   35  C14 UNL     1      -4.229  12.614  18.474  1.00  0.00     0.028 C 
HETATM   36  C15 UNL     1      -3.176  10.337  18.430  1.00  0.00     0.028 C 
BRANCH  34  37
HETATM   37  C16 UNL     1      -3.773  11.539  16.190  1.00  0.00     0.164 C 
BRANCH  37  38
HETATM   38  O4  UNL     1      -2.944  12.355  15.343  1.00  0.00    -0.390 OA
HETATM   39  H27 UNL     1      -2.500  11.764  14.707  1.00  0.00     0.210 HD
ENDBRANCH  37  38
BRANCH  37  40
HETATM   40  C17 UNL     1      -3.922  10.179  15.500  1.00  0.00    -0.054 C 
HETATM   41  C18 UNL     1      -2.676   9.796  14.730  1.00  0.00     0.046 C 
HETATM   42  C19 UNL     1      -5.021   9.402  15.592  1.00  0.00     0.005 C 
BRANCH  42  43
HETATM   43  C20 UNL     1      -5.248   8.124  14.945  1.00  0.00     0.000 C 
HETATM   44  C21 UNL     1      -5.627   8.016  13.662  1.00  0.00     0.000 C 
BRANCH  44  45
HETATM   45  C22 UNL     1      -5.836   6.737  13.013  1.00  0.00     0.001 C 
HETATM   46  C23 UNL     1      -5.304   5.591  13.471  1.00  0.00     0.009 C 
BRANCH  46  47
HETATM   47  C24 UNL     1      -5.445   4.254  12.869  1.00  0.00    -0.034 C 
HETATM   48  C25 UNL     1      -6.738   3.520  13.185  1.00  0.00     0.050 C 
HETATM   49  C26 UNL     1      -4.476   3.754  12.066  1.00  0.00     0.082 C 
HETATM   50  C27 UNL     1      -3.158   4.304  11.628  1.00  0.00     0.075 C 
BRANCH  49  51
HETATM   51  N2  UNL     1      -4.666   2.414  11.540  1.00  0.00    -0.120 N 
HETATM   52  O5  UNL     1      -5.658   2.233  10.825  1.00  0.00    -0.532 OA
HETATM   53  O6  UNL     1      -3.807   1.570  11.819  1.00  0.00    -0.532 OA
ENDBRANCH  49  51
ENDBRANCH  46  47
ENDBRANCH  44  45
ENDBRANCH  42  43
ENDBRANCH  37  40
ENDBRANCH  34  37
ENDBRANCH  31  34
ENDBRANCH  29  30
ENDBRANCH   2  29
TORSDOF 19
ENDMDL
