MODEL 1
REMARK minimizedAffinity -9.18311119
REMARK  4 active torsions:
REMARK  status: ('A' for Active; 'I' for Inactive)
REMARK    1  A    between atoms: C4_4  and  C5_5 
REMARK    2  A    between atoms: C5_5  and  C6_6 
REMARK    3  A    between atoms: C6_6  and  C7_7 
REMARK    4  A    between atoms: C7_7  and  C9_9 
ROOT
HETATM    1  C9  UNL     1      -1.837  51.334 -22.358  1.00  0.00    -0.002 C 
HETATM    2  C10 UNL     1      -1.305  49.948 -22.740  1.00  0.00     0.006 C 
HETATM    3  C11 UNL     1      -2.552  49.139 -23.040  1.00  0.00     0.011 C 
HETATM    4  C12 UNL     1      -3.424  50.085 -23.896  1.00  0.00    -0.032 C 
HETATM    5  C13 UNL     1      -2.905  49.958 -25.362  1.00  0.00     0.016 C 
HETATM    6  C14 UNL     1      -4.952  49.672 -23.885  1.00  0.00     0.004 C 
HETATM    7  C15 UNL     1      -5.145  48.196 -24.301  1.00  0.00     0.007 C 
HETATM    8  C16 UNL     1      -6.583  47.712 -24.200  1.00  0.00     0.007 C 
HETATM    9  C17 UNL     1      -7.158  47.741 -22.773  1.00  0.00     0.010 C 
HETATM   10  C18 UNL     1      -6.904  46.458 -21.908  1.00  0.00     0.018 C 
HETATM   11  C19 UNL     1      -7.519  45.213 -22.584  1.00  0.00     0.023 C 
HETATM   12  C20 UNL     1      -5.421  46.178 -21.623  1.00  0.00     0.023 C 
HETATM   13  C21 UNL     1      -7.613  46.611 -20.549  1.00  0.00     0.135 C 
HETATM   14  O1  UNL     1      -7.818  45.649 -19.805  1.00  0.00    -0.297 OA
HETATM   15  C22 UNL     1      -8.079  47.985 -20.145  1.00  0.00     0.080 C 
HETATM   16  C23 UNL     1      -7.018  48.995 -20.527  1.00  0.00     0.018 C 
HETATM   17  C24 UNL     1      -6.793  49.041 -22.033  1.00  0.00    -0.026 A 
HETATM   18  C25 UNL     1      -7.180  50.325 -22.730  1.00  0.00     0.021 A 
HETATM   19  C26 UNL     1      -5.703  49.993 -22.579  1.00  0.00    -0.027 A 
HETATM   20  C27 UNL     1      -4.960  50.904 -21.625  1.00  0.00     0.011 C 
HETATM   21  C28 UNL     1      -4.298  52.029 -22.401  1.00  0.00     0.011 C 
HETATM   22  C29 UNL     1      -3.121  51.536 -23.283  1.00  0.00    -0.032 C 
HETATM   23  C30 UNL     1      -2.929  52.605 -24.382  1.00  0.00     0.016 C 
ENDROOT
BRANCH   1  24
HETATM   24  C7  UNL     1      -0.734  52.443 -22.340  1.00  0.00    -0.014 C 
HETATM   25  C8  UNL     1      -0.201  52.670 -20.916  1.00  0.00     0.010 C 
BRANCH  24  26
HETATM   26  C6  UNL     1       0.448  52.093 -23.287  1.00  0.00     0.008 C 
BRANCH  26  27
HETATM   27  C5  UNL     1       0.752  53.167 -24.343  1.00  0.00     0.028 C 
BRANCH  27  28
HETATM   28  C4  UNL     1       0.344  52.698 -25.715  1.00  0.00    -0.025 C 
HETATM   29  C2  UNL     1       1.043  51.939 -26.582  1.00  0.00    -0.091 C 
HETATM   30  C1  UNL     1       0.450  51.570 -27.919  1.00  0.00     0.042 C 
HETATM   31  C3  UNL     1       2.422  51.385 -26.354  1.00  0.00     0.042 C 
ENDBRANCH  27  28
ENDBRANCH  26  27
ENDBRANCH  24  26
ENDBRANCH   1  24
TORSDOF 4
ENDMDL
MODEL 2
REMARK minimizedAffinity -9.12616825
REMARK  4 active torsions:
REMARK  status: ('A' for Active; 'I' for Inactive)
REMARK    1  A    between atoms: C4_4  and  C5_5 
REMARK    2  A    between atoms: C5_5  and  C6_6 
REMARK    3  A    between atoms: C6_6  and  C7_7 
REMARK    4  A    between atoms: C7_7  and  C9_9 
ROOT
HETATM    1  C9  UNL     1      -1.034  50.314 -18.721  1.00  0.00    -0.002 C 
HETATM    2  C10 UNL     1      -0.155  49.443 -19.627  1.00  0.00     0.006 C 
HETATM    3  C11 UNL     1      -0.690  49.698 -21.022  1.00  0.00     0.011 C 
HETATM    4  C12 UNL     1      -0.883  51.231 -21.083  1.00  0.00    -0.032 C 
HETATM    5  C13 UNL     1       0.512  51.837 -21.431  1.00  0.00     0.016 C 
HETATM    6  C14 UNL     1      -1.898  51.666 -22.217  1.00  0.00     0.004 C 
HETATM    7  C15 UNL     1      -1.492  51.093 -23.594  1.00  0.00     0.007 C 
HETATM    8  C16 UNL     1      -2.493  51.387 -24.701  1.00  0.00     0.007 C 
HETATM    9  C17 UNL     1      -3.883  50.768 -24.471  1.00  0.00     0.010 C 
HETATM   10  C18 UNL     1      -4.075  49.303 -24.997  1.00  0.00     0.018 C 
HETATM   11  C19 UNL     1      -3.829  49.233 -26.520  1.00  0.00     0.023 C 
HETATM   12  C20 UNL     1      -3.174  48.268 -24.307  1.00  0.00     0.023 C 
HETATM   13  C21 UNL     1      -5.535  48.867 -24.770  1.00  0.00     0.135 C 
HETATM   14  O1  UNL     1      -6.023  47.889 -25.343  1.00  0.00    -0.297 OA
HETATM   15  C22 UNL     1      -6.380  49.685 -23.830  1.00  0.00     0.080 C 
HETATM   16  C23 UNL     1      -5.544  50.072 -22.629  1.00  0.00     0.018 C 
HETATM   17  C24 UNL     1      -4.360  50.948 -23.018  1.00  0.00    -0.026 A 
HETATM   18  C25 UNL     1      -4.378  52.368 -22.503  1.00  0.00     0.021 A 
HETATM   19  C26 UNL     1      -3.381  51.387 -21.904  1.00  0.00    -0.027 A 
HETATM   20  C27 UNL     1      -3.669  51.014 -20.466  1.00  0.00     0.011 C 
HETATM   21  C28 UNL     1      -2.864  51.904 -19.535  1.00  0.00     0.011 C 
HETATM   22  C29 UNL     1      -1.342  51.612 -19.595  1.00  0.00    -0.032 C 
HETATM   23  C30 UNL     1      -0.638  52.886 -19.076  1.00  0.00     0.016 C 
ENDROOT
BRANCH   1  24
HETATM   24  C7  UNL     1      -0.460  50.490 -17.277  1.00  0.00    -0.014 C 
HETATM   25  C8  UNL     1      -0.270  49.129 -16.587  1.00  0.00     0.010 C 
BRANCH  24  26
HETATM   26  C6  UNL     1       0.891  51.259 -17.285  1.00  0.00     0.008 C 
BRANCH  26  27
HETATM   27  C5  UNL     1       1.157  52.084 -16.015  1.00  0.00     0.028 C 
BRANCH  27  28
HETATM   28  C4  UNL     1       2.137  51.378 -15.116  1.00  0.00    -0.025 C 
HETATM   29  C2  UNL     1       3.482  51.463 -15.113  1.00  0.00    -0.091 C 
HETATM   30  C1  UNL     1       4.292  50.671 -14.117  1.00  0.00     0.042 C 
HETATM   31  C3  UNL     1       4.313  52.309 -16.039  1.00  0.00     0.042 C 
ENDBRANCH  27  28
ENDBRANCH  26  27
ENDBRANCH  24  26
ENDBRANCH   1  24
TORSDOF 4
ENDMDL
MODEL 3
REMARK minimizedAffinity -8.62245655
REMARK  4 active torsions:
REMARK  status: ('A' for Active; 'I' for Inactive)
REMARK    1  A    between atoms: C4_4  and  C5_5 
REMARK    2  A    between atoms: C5_5  and  C6_6 
REMARK    3  A    between atoms: C6_6  and  C7_7 
REMARK    4  A    between atoms: C7_7  and  C9_9 
ROOT
HETATM    1  C9  UNL     1      -2.853  51.622 -23.225  1.00  0.00    -0.002 C 
HETATM    2  C10 UNL     1      -3.881  52.425 -22.420  1.00  0.00     0.006 C 
HETATM    3  C11 UNL     1      -4.508  51.402 -21.492  1.00  0.00     0.011 C 
HETATM    4  C12 UNL     1      -3.310  50.590 -20.951  1.00  0.00    -0.032 C 
HETATM    5  C13 UNL     1      -2.722  51.412 -19.761  1.00  0.00     0.016 C 
HETATM    6  C14 UNL     1      -3.742  49.173 -20.395  1.00  0.00     0.004 C 
HETATM    7  C15 UNL     1      -4.864  49.295 -19.339  1.00  0.00     0.007 C 
HETATM    8  C16 UNL     1      -5.398  47.957 -18.852  1.00  0.00     0.007 C 
HETATM    9  C17 UNL     1      -6.057  47.105 -19.951  1.00  0.00     0.010 C 
HETATM   10  C18 UNL     1      -7.584  47.368 -20.196  1.00  0.00     0.018 C 
HETATM   11  C19 UNL     1      -8.397  47.099 -18.911  1.00  0.00     0.023 C 
HETATM   12  C20 UNL     1      -7.902  48.786 -20.691  1.00  0.00     0.023 C 
HETATM   13  C21 UNL     1      -8.106  46.381 -21.257  1.00  0.00     0.135 C 
HETATM   14  O1  UNL     1      -9.311  46.176 -21.424  1.00  0.00    -0.297 OA
HETATM   15  C22 UNL     1      -7.096  45.640 -22.093  1.00  0.00     0.080 C 
HETATM   16  C23 UNL     1      -5.982  46.591 -22.474  1.00  0.00     0.018 C 
HETATM   17  C24 UNL     1      -5.234  47.109 -21.252  1.00  0.00    -0.026 A 
HETATM   18  C25 UNL     1      -3.790  46.684 -21.119  1.00  0.00     0.021 A 
HETATM   19  C26 UNL     1      -4.094  48.131 -21.474  1.00  0.00    -0.027 A 
HETATM   20  C27 UNL     1      -3.700  48.517 -22.884  1.00  0.00     0.011 C 
HETATM   21  C28 UNL     1      -2.318  49.146 -22.876  1.00  0.00     0.011 C 
HETATM   22  C29 UNL     1      -2.297  50.539 -22.194  1.00  0.00    -0.032 C 
HETATM   23  C30 UNL     1      -0.834  50.787 -21.765  1.00  0.00     0.016 C 
ENDROOT
BRANCH   1  24
HETATM   24  C7  UNL     1      -1.835  52.517 -24.005  1.00  0.00    -0.014 C 
HETATM   25  C8  UNL     1      -0.433  52.436 -23.380  1.00  0.00     0.010 C 
BRANCH  24  26
HETATM   26  C6  UNL     1      -1.756  52.123 -25.507  1.00  0.00     0.008 C 
BRANCH  26  27
HETATM   27  C5  UNL     1      -1.036  50.791 -25.775  1.00  0.00     0.028 C 
BRANCH  27  28
HETATM   28  C4  UNL     1       0.443  51.011 -25.956  1.00  0.00    -0.025 C 
HETATM   29  C2  UNL     1       1.094  51.469 -27.044  1.00  0.00    -0.091 C 
HETATM   30  C1  UNL     1       2.593  51.625 -27.024  1.00  0.00     0.042 C 
HETATM   31  C3  UNL     1       0.458  51.868 -28.348  1.00  0.00     0.042 C 
ENDBRANCH  27  28
ENDBRANCH  26  27
ENDBRANCH  24  26
ENDBRANCH   1  24
TORSDOF 4
ENDMDL
MODEL 4
REMARK minimizedAffinity -8.49382782
REMARK  4 active torsions:
REMARK  status: ('A' for Active; 'I' for Inactive)
REMARK    1  A    between atoms: C4_4  and  C5_5 
REMARK    2  A    between atoms: C5_5  and  C6_6 
REMARK    3  A    between atoms: C6_6  and  C7_7 
REMARK    4  A    between atoms: C7_7  and  C9_9 
ROOT
HETATM    1  C9  UNL     1      -1.700  50.366 -21.249  1.00  0.00    -0.002 C 
HETATM    2  C10 UNL     1      -1.328  48.993 -21.820  1.00  0.00     0.006 C 
HETATM    3  C11 UNL     1      -2.621  48.476 -22.421  1.00  0.00     0.011 C 
HETATM    4  C12 UNL     1      -3.201  49.691 -23.181  1.00  0.00    -0.032 C 
HETATM    5  C13 UNL     1      -2.487  49.723 -24.569  1.00  0.00     0.016 C 
HETATM    6  C14 UNL     1      -4.757  49.555 -23.439  1.00  0.00     0.004 C 
HETATM    7  C15 UNL     1      -5.101  48.227 -24.150  1.00  0.00     0.007 C 
HETATM    8  C16 UNL     1      -6.593  47.991 -24.322  1.00  0.00     0.007 C 
HETATM    9  C17 UNL     1      -7.369  47.879 -22.998  1.00  0.00     0.010 C 
HETATM   10  C18 UNL     1      -7.446  46.444 -22.370  1.00  0.00     0.018 C 
HETATM   11  C19 UNL     1      -8.129  45.458 -23.343  1.00  0.00     0.023 C 
HETATM   12  C20 UNL     1      -6.083  45.866 -21.963  1.00  0.00     0.023 C 
HETATM   13  C21 UNL     1      -8.324  46.487 -21.105  1.00  0.00     0.135 C 
HETATM   14  O1  UNL     1      -8.782  45.464 -20.590  1.00  0.00    -0.297 OA
HETATM   15  C22 UNL     1      -8.636  47.833 -20.506  1.00  0.00     0.080 C 
HETATM   16  C23 UNL     1      -7.390  48.693 -20.554  1.00  0.00     0.018 C 
HETATM   17  C24 UNL     1      -6.933  48.952 -21.984  1.00  0.00    -0.026 A 
HETATM   18  C25 UNL     1      -7.012  50.382 -22.464  1.00  0.00     0.021 A 
HETATM   19  C26 UNL     1      -5.642  49.777 -22.198  1.00  0.00    -0.027 A 
HETATM   20  C27 UNL     1      -4.927  50.370 -21.003  1.00  0.00     0.011 C 
HETATM   21  C28 UNL     1      -3.993  51.477 -21.462  1.00  0.00     0.011 C 
HETATM   22  C29 UNL     1      -2.782  50.942 -22.269  1.00  0.00    -0.032 C 
HETATM   23  C30 UNL     1      -2.266  52.131 -23.110  1.00  0.00     0.016 C 
ENDROOT
BRANCH   1  24
HETATM   24  C7  UNL     1      -0.460  51.246 -20.882  1.00  0.00    -0.014 C 
HETATM   25  C8  UNL     1       0.153  51.890 -22.137  1.00  0.00     0.010 C 
BRANCH  24  26
HETATM   26  C6  UNL     1      -0.825  52.355 -19.856  1.00  0.00     0.008 C 
BRANCH  26  27
HETATM   27  C5  UNL     1       0.322  52.745 -18.910  1.00  0.00     0.028 C 
BRANCH  27  28
HETATM   28  C4  UNL     1       0.373  51.821 -17.723  1.00  0.00    -0.025 C 
HETATM   29  C2  UNL     1       1.305  51.757 -16.751  1.00  0.00    -0.091 C 
HETATM   30  C1  UNL     1       1.170  50.754 -15.633  1.00  0.00     0.042 C 
HETATM   31  C3  UNL     1       2.529  52.624 -16.647  1.00  0.00     0.042 C 
ENDBRANCH  27  28
ENDBRANCH  26  27
ENDBRANCH  24  26
ENDBRANCH   1  24
TORSDOF 4
ENDMDL
MODEL 5
REMARK minimizedAffinity -8.41625595
REMARK  4 active torsions:
REMARK  status: ('A' for Active; 'I' for Inactive)
REMARK    1  A    between atoms: C4_4  and  C5_5 
REMARK    2  A    between atoms: C5_5  and  C6_6 
REMARK    3  A    between atoms: C6_6  and  C7_7 
REMARK    4  A    between atoms: C7_7  and  C9_9 
ROOT
HETATM    1  C9  UNL     1      -2.469  49.741 -23.987  1.00  0.00    -0.002 C 
HETATM    2  C10 UNL     1      -3.127  48.437 -23.523  1.00  0.00     0.006 C 
HETATM    3  C11 UNL     1      -3.305  48.621 -22.028  1.00  0.00     0.011 C 
HETATM    4  C12 UNL     1      -3.851  50.059 -21.882  1.00  0.00    -0.032 C 
HETATM    5  C13 UNL     1      -5.390  49.973 -22.124  1.00  0.00     0.016 C 
HETATM    6  C14 UNL     1      -3.620  50.648 -20.431  1.00  0.00     0.004 C 
HETATM    7  C15 UNL     1      -4.193  49.713 -19.341  1.00  0.00     0.007 C 
HETATM    8  C16 UNL     1      -3.901  50.174 -17.921  1.00  0.00     0.007 C 
HETATM    9  C17 UNL     1      -2.403  50.225 -17.572  1.00  0.00     0.010 C 
HETATM   10  C18 UNL     1      -1.782  48.893 -17.026  1.00  0.00     0.018 C 
HETATM   11  C19 UNL     1      -2.501  48.446 -15.733  1.00  0.00     0.023 C 
HETATM   12  C20 UNL     1      -1.812  47.731 -18.030  1.00  0.00     0.023 C 
HETATM   13  C21 UNL     1      -0.310  49.135 -16.644  1.00  0.00     0.135 C 
HETATM   14  O1  UNL     1       0.320  48.351 -15.931  1.00  0.00    -0.297 OA
HETATM   15  C22 UNL     1       0.357  50.386 -17.155  1.00  0.00     0.080 C 
HETATM   16  C23 UNL     1      -0.069  50.619 -18.589  1.00  0.00     0.018 C 
HETATM   17  C24 UNL     1      -1.570  50.851 -18.706  1.00  0.00    -0.026 A 
HETATM   18  C25 UNL     1      -2.003  52.226 -19.159  1.00  0.00     0.021 A 
HETATM   19  C26 UNL     1      -2.168  51.056 -20.118  1.00  0.00    -0.027 A 
HETATM   20  C27 UNL     1      -1.249  51.108 -21.319  1.00  0.00     0.011 C 
HETATM   21  C28 UNL     1      -1.970  51.753 -22.489  1.00  0.00     0.011 C 
HETATM   22  C29 UNL     1      -3.110  50.865 -23.054  1.00  0.00    -0.032 C 
HETATM   23  C30 UNL     1      -4.068  51.818 -23.803  1.00  0.00     0.016 C 
ENDROOT
BRANCH   1  24
HETATM   24  C7  UNL     1      -2.498  49.937 -25.539  1.00  0.00    -0.014 C 
HETATM   25  C8  UNL     1      -1.149  50.461 -26.057  1.00  0.00     0.010 C 
BRANCH  24  26
HETATM   26  C6  UNL     1      -2.860  48.618 -26.278  1.00  0.00     0.008 C 
BRANCH  26  27
HETATM   27  C5  UNL     1      -4.345  48.491 -26.656  1.00  0.00     0.028 C 
BRANCH  27  28
HETATM   28  C4  UNL     1      -4.512  48.447 -28.152  1.00  0.00    -0.025 C 
HETATM   29  C2  UNL     1      -5.496  47.867 -28.867  1.00  0.00    -0.091 C 
HETATM   30  C1  UNL     1      -5.487  47.940 -30.373  1.00  0.00     0.042 C 
HETATM   31  C3  UNL     1      -6.671  47.115 -28.301  1.00  0.00     0.042 C 
ENDBRANCH  27  28
ENDBRANCH  26  27
ENDBRANCH  24  26
ENDBRANCH   1  24
TORSDOF 4
ENDMDL
MODEL 6
REMARK minimizedAffinity -8.4128685
REMARK  4 active torsions:
REMARK  status: ('A' for Active; 'I' for Inactive)
REMARK    1  A    between atoms: C4_4  and  C5_5 
REMARK    2  A    between atoms: C5_5  and  C6_6 
REMARK    3  A    between atoms: C6_6  and  C7_7 
REMARK    4  A    between atoms: C7_7  and  C9_9 
ROOT
HETATM    1  C9  UNL     1      -7.196  48.688 -20.620  1.00  0.00    -0.002 C 
HETATM    2  C10 UNL     1      -7.897  49.229 -21.871  1.00  0.00     0.006 C 
HETATM    3  C11 UNL     1      -6.797  49.307 -22.911  1.00  0.00     0.011 C 
HETATM    4  C12 UNL     1      -6.032  47.973 -22.759  1.00  0.00    -0.032 C 
HETATM    5  C13 UNL     1      -6.829  46.912 -23.580  1.00  0.00     0.016 C 
HETATM    6  C14 UNL     1      -4.566  48.046 -23.353  1.00  0.00     0.004 C 
HETATM    7  C15 UNL     1      -4.572  48.529 -24.821  1.00  0.00     0.007 C 
HETATM    8  C16 UNL     1      -3.183  48.726 -25.408  1.00  0.00     0.007 C 
HETATM    9  C17 UNL     1      -2.347  49.805 -24.698  1.00  0.00     0.010 C 
HETATM   10  C18 UNL     1      -2.531  51.270 -25.227  1.00  0.00     0.018 C 
HETATM   11  C19 UNL     1      -2.154  51.362 -26.722  1.00  0.00     0.023 C 
HETATM   12  C20 UNL     1      -3.950  51.828 -25.044  1.00  0.00     0.023 C 
HETATM   13  C21 UNL     1      -1.567  52.208 -24.476  1.00  0.00     0.135 C 
HETATM   14  O1  UNL     1      -1.300  53.339 -24.889  1.00  0.00    -0.297 OA
HETATM   15  C22 UNL     1      -0.927  51.700 -23.211  1.00  0.00     0.080 C 
HETATM   16  C23 UNL     1      -1.960  50.931 -22.414  1.00  0.00     0.018 C 
HETATM   17  C24 UNL     1      -2.462  49.705 -23.166  1.00  0.00    -0.026 A 
HETATM   18  C25 UNL     1      -2.116  48.362 -22.566  1.00  0.00     0.021 A 
HETATM   19  C26 UNL     1      -3.559  48.841 -22.501  1.00  0.00    -0.027 A 
HETATM   20  C27 UNL     1      -4.034  49.180 -21.104  1.00  0.00     0.011 C 
HETATM   21  C28 UNL     1      -4.742  47.980 -20.498  1.00  0.00     0.011 C 
HETATM   22  C29 UNL     1      -6.099  47.677 -21.184  1.00  0.00    -0.032 C 
HETATM   23  C30 UNL     1      -6.413  46.194 -20.882  1.00  0.00     0.016 C 
ENDROOT
BRANCH   1  24
HETATM   24  C7  UNL     1      -8.186  48.194 -19.515  1.00  0.00    -0.014 C 
HETATM   25  C8  UNL     1      -8.233  49.178 -18.334  1.00  0.00     0.010 C 
BRANCH  24  26
HETATM   26  C6  UNL     1      -9.621  47.990 -20.077  1.00  0.00     0.008 C 
BRANCH  26  27
HETATM   27  C5  UNL     1     -10.710  47.855 -19.000  1.00  0.00     0.028 C 
BRANCH  27  28
HETATM   28  C4  UNL     1     -12.082  47.967 -19.611  1.00  0.00    -0.025 C 
HETATM   29  C2  UNL     1     -13.279  47.846 -19.005  1.00  0.00    -0.091 C 
HETATM   30  C1  UNL     1     -14.552  47.999 -19.798  1.00  0.00     0.042 C 
HETATM   31  C3  UNL     1     -13.503  47.563 -17.544  1.00  0.00     0.042 C 
ENDBRANCH  27  28
ENDBRANCH  26  27
ENDBRANCH  24  26
ENDBRANCH   1  24
TORSDOF 4
ENDMDL
MODEL 7
REMARK minimizedAffinity -8.3994627
REMARK  4 active torsions:
REMARK  status: ('A' for Active; 'I' for Inactive)
REMARK    1  A    between atoms: C4_4  and  C5_5 
REMARK    2  A    between atoms: C5_5  and  C6_6 
REMARK    3  A    between atoms: C6_6  and  C7_7 
REMARK    4  A    between atoms: C7_7  and  C9_9 
ROOT
HETATM    1  C9  UNL     1      -3.062  47.274 -21.532  1.00  0.00    -0.002 C 
HETATM    2  C10 UNL     1      -2.093  48.050 -20.633  1.00  0.00     0.006 C 
HETATM    3  C11 UNL     1      -1.910  49.378 -21.341  1.00  0.00     0.011 C 
HETATM    4  C12 UNL     1      -3.340  49.786 -21.764  1.00  0.00    -0.032 C 
HETATM    5  C13 UNL     1      -3.992  50.462 -20.518  1.00  0.00     0.016 C 
HETATM    6  C14 UNL     1      -3.342  50.841 -22.945  1.00  0.00     0.004 C 
HETATM    7  C15 UNL     1      -2.479  52.077 -22.603  1.00  0.00     0.007 C 
HETATM    8  C16 UNL     1      -2.354  53.073 -23.746  1.00  0.00     0.007 C 
HETATM    9  C17 UNL     1      -1.659  52.509 -24.998  1.00  0.00     0.010 C 
HETATM   10  C18 UNL     1      -0.095  52.627 -25.024  1.00  0.00     0.018 C 
HETATM   11  C19 UNL     1       0.342  54.106 -24.929  1.00  0.00     0.023 C 
HETATM   12  C20 UNL     1       0.610  51.836 -23.913  1.00  0.00     0.023 C 
HETATM   13  C21 UNL     1       0.433  52.101 -26.372  1.00  0.00     0.135 C 
HETATM   14  O1  UNL     1       1.577  52.344 -26.766  1.00  0.00    -0.297 OA
HETATM   15  C22 UNL     1      -0.498  51.283 -27.227  1.00  0.00     0.080 C 
HETATM   16  C23 UNL     1      -1.281  50.341 -26.337  1.00  0.00     0.018 C 
HETATM   17  C24 UNL     1      -2.156  51.093 -25.342  1.00  0.00    -0.026 A 
HETATM   18  C25 UNL     1      -3.649  50.945 -25.517  1.00  0.00     0.021 A 
HETATM   19  C26 UNL     1      -2.983  50.268 -24.329  1.00  0.00    -0.027 A 
HETATM   20  C27 UNL     1      -2.969  48.756 -24.408  1.00  0.00     0.011 C 
HETATM   21  C28 UNL     1      -4.160  48.192 -23.652  1.00  0.00     0.011 C 
HETATM   22  C29 UNL     1      -4.042  48.388 -22.118  1.00  0.00    -0.032 C 
HETATM   23  C30 UNL     1      -5.480  48.300 -21.560  1.00  0.00     0.016 C 
ENDROOT
BRANCH   1  24
HETATM   24  C7  UNL     1      -3.676  46.010 -20.844  1.00  0.00    -0.014 C 
HETATM   25  C8  UNL     1      -3.557  46.100 -19.314  1.00  0.00     0.010 C 
BRANCH  24  26
HETATM   26  C6  UNL     1      -5.167  45.810 -21.237  1.00  0.00     0.008 C 
BRANCH  26  27
HETATM   27  C5  UNL     1      -5.705  44.393 -20.976  1.00  0.00     0.028 C 
BRANCH  27  28
HETATM   28  C4  UNL     1      -6.427  43.864 -22.187  1.00  0.00    -0.025 C 
HETATM   29  C2  UNL     1      -6.891  42.618 -22.406  1.00  0.00    -0.091 C 
HETATM   30  C1  UNL     1      -7.598  42.286 -23.696  1.00  0.00     0.042 C 
HETATM   31  C3  UNL     1      -6.780  41.457 -21.456  1.00  0.00     0.042 C 
ENDBRANCH  27  28
ENDBRANCH  26  27
ENDBRANCH  24  26
ENDBRANCH   1  24
TORSDOF 4
ENDMDL
MODEL 8
REMARK minimizedAffinity -8.35812855
REMARK  4 active torsions:
REMARK  status: ('A' for Active; 'I' for Inactive)
REMARK    1  A    between atoms: C4_4  and  C5_5 
REMARK    2  A    between atoms: C5_5  and  C6_6 
REMARK    3  A    between atoms: C6_6  and  C7_7 
REMARK    4  A    between atoms: C7_7  and  C9_9 
ROOT
HETATM    1  C9  UNL     1      -7.168  49.084 -21.458  1.00  0.00    -0.002 C 
HETATM    2  C10 UNL     1      -7.735  49.634 -22.771  1.00  0.00     0.006 C 
HETATM    3  C11 UNL     1      -6.536  49.704 -23.696  1.00  0.00     0.011 C 
HETATM    4  C12 UNL     1      -5.802  48.362 -23.471  1.00  0.00    -0.032 C 
HETATM    5  C13 UNL     1      -6.522  47.310 -24.372  1.00  0.00     0.016 C 
HETATM    6  C14 UNL     1      -4.283  48.423 -23.915  1.00  0.00     0.004 C 
HETATM    7  C15 UNL     1      -4.138  48.910 -25.375  1.00  0.00     0.007 C 
HETATM    8  C16 UNL     1      -2.695  49.095 -25.820  1.00  0.00     0.007 C 
HETATM    9  C17 UNL     1      -1.925  50.165 -25.026  1.00  0.00     0.010 C 
HETATM   10  C18 UNL     1      -2.042  51.633 -25.567  1.00  0.00     0.018 C 
HETATM   11  C19 UNL     1      -1.517  51.724 -27.017  1.00  0.00     0.023 C 
HETATM   12  C20 UNL     1      -3.467  52.203 -25.525  1.00  0.00     0.023 C 
HETATM   13  C21 UNL     1      -1.150  52.560 -24.720  1.00  0.00     0.135 C 
HETATM   14  O1  UNL     1      -0.833  53.690 -25.101  1.00  0.00    -0.297 OA
HETATM   15  C22 UNL     1      -0.645  52.044 -23.399  1.00  0.00     0.080 C 
HETATM   16  C23 UNL     1      -1.758  51.283 -22.711  1.00  0.00     0.018 C 
HETATM   17  C24 UNL     1      -2.194  50.063 -23.514  1.00  0.00    -0.026 A 
HETATM   18  C25 UNL     1      -1.922  48.716 -22.886  1.00  0.00     0.021 A 
HETATM   19  C26 UNL     1      -3.359  49.207 -22.964  1.00  0.00    -0.027 A 
HETATM   20  C27 UNL     1      -3.969  49.548 -21.621  1.00  0.00     0.011 C 
HETATM   21  C28 UNL     1      -4.744  48.354 -21.093  1.00  0.00     0.011 C 
HETATM   22  C29 UNL     1      -6.029  48.064 -21.912  1.00  0.00    -0.032 C 
HETATM   23  C30 UNL     1      -6.384  46.584 -21.647  1.00  0.00     0.016 C 
ENDROOT
BRANCH   1  24
HETATM   24  C7  UNL     1      -8.268  48.597 -20.458  1.00  0.00    -0.014 C 
HETATM   25  C8  UNL     1      -9.098  47.454 -21.063  1.00  0.00     0.010 C 
BRANCH  24  26
HETATM   26  C6  UNL     1      -7.652  48.132 -19.108  1.00  0.00     0.008 C 
BRANCH  26  27
HETATM   27  C5  UNL     1      -8.323  48.739 -17.865  1.00  0.00     0.028 C 
BRANCH  27  28
HETATM   28  C4  UNL     1      -9.782  48.372 -17.812  1.00  0.00    -0.025 C 
HETATM   29  C2  UNL     1     -10.392  47.481 -17.006  1.00  0.00    -0.091 C 
HETATM   30  C1  UNL     1     -11.880  47.259 -17.106  1.00  0.00     0.042 C 
HETATM   31  C3  UNL     1      -9.720  46.637 -15.957  1.00  0.00     0.042 C 
ENDBRANCH  27  28
ENDBRANCH  26  27
ENDBRANCH  24  26
ENDBRANCH   1  24
TORSDOF 4
ENDMDL
MODEL 9
REMARK minimizedAffinity -8.29785442
REMARK  4 active torsions:
REMARK  status: ('A' for Active; 'I' for Inactive)
REMARK    1  A    between atoms: C4_4  and  C5_5 
REMARK    2  A    between atoms: C5_5  and  C6_6 
REMARK    3  A    between atoms: C6_6  and  C7_7 
REMARK    4  A    between atoms: C7_7  and  C9_9 
ROOT
HETATM    1  C9  UNL     1       5.890  64.432 -35.358  1.00  0.00    -0.002 C 
HETATM    2  C10 UNL     1       7.004  65.056 -36.206  1.00  0.00     0.006 C 
HETATM    3  C11 UNL     1       6.364  66.290 -36.812  1.00  0.00     0.011 C 
HETATM    4  C12 UNL     1       5.595  66.938 -35.637  1.00  0.00    -0.032 C 
HETATM    5  C13 UNL     1       6.638  67.783 -34.841  1.00  0.00     0.016 C 
HETATM    6  C14 UNL     1       4.452  67.915 -36.130  1.00  0.00     0.004 C 
HETATM    7  C15 UNL     1       4.999  68.983 -37.104  1.00  0.00     0.007 C 
HETATM    8  C16 UNL     1       3.924  69.881 -37.697  1.00  0.00     0.007 C 
HETATM    9  C17 UNL     1       2.887  69.137 -38.556  1.00  0.00     0.010 C 
HETATM   10  C18 UNL     1       3.254  68.959 -40.071  1.00  0.00     0.018 C 
HETATM   11  C19 UNL     1       3.455  70.332 -40.749  1.00  0.00     0.023 C 
HETATM   12  C20 UNL     1       4.507  68.105 -40.314  1.00  0.00     0.023 C 
HETATM   13  C21 UNL     1       2.083  68.278 -40.803  1.00  0.00     0.135 C 
HETATM   14  O1  UNL     1       1.988  68.283 -42.033  1.00  0.00    -0.297 OA
HETATM   15  C22 UNL     1       1.021  67.608 -39.971  1.00  0.00     0.080 C 
HETATM   16  C23 UNL     1       1.686  66.874 -38.826  1.00  0.00     0.018 C 
HETATM   17  C24 UNL     1       2.429  67.824 -37.895  1.00  0.00    -0.026 A 
HETATM   18  C25 UNL     1       1.885  67.949 -36.491  1.00  0.00     0.021 A 
HETATM   19  C26 UNL     1       3.202  67.218 -36.701  1.00  0.00    -0.027 A 
HETATM   20  C27 UNL     1       3.129  65.728 -36.441  1.00  0.00     0.011 C 
HETATM   21  C28 UNL     1       3.563  65.435 -35.015  1.00  0.00     0.011 C 
HETATM   22  C29 UNL     1       5.077  65.680 -34.787  1.00  0.00    -0.032 C 
HETATM   23  C30 UNL     1       5.255  65.890 -33.267  1.00  0.00     0.016 C 
ENDROOT
BRANCH   1  24
HETATM   24  C7  UNL     1       6.402  63.341 -34.361  1.00  0.00    -0.014 C 
HETATM   25  C8  UNL     1       5.729  61.985 -34.630  1.00  0.00     0.010 C 
BRANCH  24  26
HETATM   26  C6  UNL     1       7.947  63.176 -34.433  1.00  0.00     0.008 C 
BRANCH  26  27
HETATM   27  C5  UNL     1       8.424  61.717 -34.507  1.00  0.00     0.028 C 
BRANCH  27  28
HETATM   28  C4  UNL     1       9.154  61.329 -33.249  1.00  0.00    -0.025 C 
HETATM   29  C2  UNL     1      10.249  61.899 -32.707  1.00  0.00    -0.091 C 
HETATM   30  C1  UNL     1      10.831  61.360 -31.425  1.00  0.00     0.042 C 
HETATM   31  C3  UNL     1      10.995  63.079 -33.266  1.00  0.00     0.042 C 
ENDBRANCH  27  28
ENDBRANCH  26  27
ENDBRANCH  24  26
ENDBRANCH   1  24
TORSDOF 4
ENDMDL
