MODEL 1
REMARK minimizedAffinity -7.24962807
REMARK  5 active torsions:
REMARK  status: ('A' for Active; 'I' for Inactive)
REMARK    1  A    between atoms: C4_4  and  C5_5 
REMARK    2  A    between atoms: C5_5  and  N1_6 
REMARK    3  A    between atoms: N1_6  and  C6_7 
REMARK    4  A    between atoms: N1_6  and  C10_14 
REMARK    5  A    between atoms: C6_7  and  C7_8 
ROOT
HETATM    1  N1  UNL     1      -0.200  51.752 -23.463  1.00  0.00    -0.273 NA
ENDROOT
BRANCH   1   2
HETATM    2  C5  UNL     1      -0.427  52.763 -24.519  1.00  0.00     0.134 C 
BRANCH   2   3
HETATM    3  C4  UNL     1       0.317  52.413 -25.792  1.00  0.00    -0.045 A 
HETATM    4  C3  UNL     1      -0.314  52.508 -27.042  1.00  0.00     0.008 A 
HETATM    5  C2  UNL     1       0.366  52.161 -28.210  1.00  0.00     0.001 A 
HETATM    6  C1  UNL     1       1.681  51.707 -28.142  1.00  0.00     0.000 A 
HETATM    7  C17 UNL     1       2.316  51.597 -26.906  1.00  0.00     0.001 A 
HETATM    8  C16 UNL     1       1.637  51.944 -25.736  1.00  0.00     0.008 A 
ENDBRANCH   2   3
ENDBRANCH   1   2
BRANCH   1   9
HETATM    9  C6  UNL     1      -1.262  50.709 -23.408  1.00  0.00     0.165 C 
BRANCH   9  10
HETATM   10  C7  UNL     1      -2.648  51.338 -23.503  1.00  0.00     0.065 C 
HETATM   11  N2  UNL     1      -3.228  51.907 -22.474  1.00  0.00    -0.382 N 
HETATM   12  C8  UNL     1      -4.559  52.318 -23.011  1.00  0.00     0.135 C 
ATOM     13  H2  UNL     1      -2.858  52.038 -21.532  1.00  0.00     0.160 HD
HETATM   14  C9  UNL     1      -4.736  51.577 -24.343  1.00  0.00     0.113 C 
HETATM   15  N3  UNL     1      -3.363  51.300 -24.681  1.00  0.00    -0.280 NA
HETATM   16  H12 UNL     1      -3.165  50.460 -25.222  1.00  0.00     0.128 HD
ENDBRANCH   9  10
ENDBRANCH   1   9
BRANCH   1  17
HETATM   17  C10 UNL     1       0.231  52.327 -22.250  1.00  0.00     0.011 A 
HETATM   18  C11 UNL     1      -0.042  51.656 -21.044  1.00  0.00     0.024 A 
HETATM   19  C12 UNL     1       0.339  52.182 -19.805  1.00  0.00     0.002 A 
HETATM   20  C13 UNL     1       1.000  53.403 -19.745  1.00  0.00     0.000 A 
HETATM   21  C14 UNL     1       1.272  54.094 -20.922  1.00  0.00     0.002 A 
HETATM   22  C15 UNL     1       0.887  53.562 -22.158  1.00  0.00     0.024 A 
ENDBRANCH   1  17
TORSDOF 5
ENDMDL
MODEL 2
REMARK minimizedAffinity -7.24886084
REMARK  5 active torsions:
REMARK  status: ('A' for Active; 'I' for Inactive)
REMARK    1  A    between atoms: C4_4  and  C5_5 
REMARK    2  A    between atoms: C5_5  and  N1_6 
REMARK    3  A    between atoms: N1_6  and  C6_7 
REMARK    4  A    between atoms: N1_6  and  C10_14 
REMARK    5  A    between atoms: C6_7  and  C7_8 
ROOT
HETATM    1  N1  UNL     1      -1.487  51.849 -25.474  1.00  0.00    -0.273 NA
ENDROOT
BRANCH   1   2
HETATM    2  C5  UNL     1      -2.101  52.505 -24.298  1.00  0.00     0.134 C 
BRANCH   2   3
HETATM    3  C4  UNL     1      -1.328  52.207 -23.029  1.00  0.00    -0.045 A 
HETATM    4  C3  UNL     1      -1.954  51.587 -21.937  1.00  0.00     0.008 A 
HETATM    5  C2  UNL     1      -1.246  51.337 -20.760  1.00  0.00     0.001 A 
HETATM    6  C1  UNL     1       0.091  51.712 -20.659  1.00  0.00     0.000 A 
HETATM    7  C17 UNL     1       0.722  52.339 -21.732  1.00  0.00     0.001 A 
HETATM    8  C16 UNL     1       0.016  52.590 -22.910  1.00  0.00     0.008 A 
ENDBRANCH   2   3
ENDBRANCH   1   2
BRANCH   1   9
HETATM    9  C6  UNL     1      -0.942  52.813 -26.470  1.00  0.00     0.165 C 
BRANCH   9  10
HETATM   10  C7  UNL     1       0.460  52.407 -26.910  1.00  0.00     0.065 C 
HETATM   11  N2  UNL     1       0.733  52.075 -28.149  1.00  0.00    -0.382 N 
HETATM   12  C8  UNL     1       2.179  51.706 -28.096  1.00  0.00     0.135 C 
ATOM     13  H2  UNL     1       0.108  52.070 -28.955  1.00  0.00     0.160 HD
HETATM   14  C9  UNL     1       2.532  51.546 -26.612  1.00  0.00     0.113 C 
HETATM   15  N3  UNL     1       1.495  52.340 -26.002  1.00  0.00    -0.280 NA
HETATM   16  H12 UNL     1       1.174  52.073 -25.073  1.00  0.00     0.128 HD
ENDBRANCH   9  10
ENDBRANCH   1   9
BRANCH   1  17
HETATM   17  C10 UNL     1      -2.254  50.765 -25.947  1.00  0.00     0.011 A 
HETATM   18  C11 UNL     1      -2.421  49.638 -25.121  1.00  0.00     0.024 A 
HETATM   19  C12 UNL     1      -3.151  48.521 -25.538  1.00  0.00     0.002 A 
HETATM   20  C13 UNL     1      -3.729  48.503 -26.802  1.00  0.00     0.000 A 
HETATM   21  C14 UNL     1      -3.569  49.599 -27.644  1.00  0.00     0.002 A 
HETATM   22  C15 UNL     1      -2.836  50.714 -27.221  1.00  0.00     0.024 A 
ENDBRANCH   1  17
TORSDOF 5
ENDMDL
MODEL 3
REMARK minimizedAffinity -7.22877264
REMARK  5 active torsions:
REMARK  status: ('A' for Active; 'I' for Inactive)
REMARK    1  A    between atoms: C4_4  and  C5_5 
REMARK    2  A    between atoms: C5_5  and  N1_6 
REMARK    3  A    between atoms: N1_6  and  C6_7 
REMARK    4  A    between atoms: N1_6  and  C10_14 
REMARK    5  A    between atoms: C6_7  and  C7_8 
ROOT
HETATM    1  N1  UNL     1      -0.684  52.537 -23.721  1.00  0.00    -0.273 NA
ENDROOT
BRANCH   1   2
HETATM    2  C5  UNL     1      -0.169  53.549 -24.670  1.00  0.00     0.134 C 
BRANCH   2   3
HETATM    3  C4  UNL     1       0.489  52.900 -25.871  1.00  0.00    -0.045 A 
HETATM    4  C3  UNL     1       0.013  53.140 -27.169  1.00  0.00     0.008 A 
HETATM    5  C2  UNL     1       0.606  52.521 -28.270  1.00  0.00     0.001 A 
HETATM    6  C1  UNL     1       1.675  51.648 -28.087  1.00  0.00     0.000 A 
HETATM    7  C17 UNL     1       2.152  51.391 -26.803  1.00  0.00     0.001 A 
HETATM    8  C16 UNL     1       1.560  52.011 -25.699  1.00  0.00     0.008 A 
ENDBRANCH   2   3
ENDBRANCH   1   2
BRANCH   1   9
HETATM    9  C6  UNL     1      -2.148  52.299 -23.851  1.00  0.00     0.165 C 
BRANCH   9  10
HETATM   10  C7  UNL     1      -2.451  51.431 -25.068  1.00  0.00     0.065 C 
HETATM   11  N2  UNL     1      -1.918  50.244 -25.229  1.00  0.00    -0.382 N 
HETATM   12  C8  UNL     1      -2.445  49.806 -26.555  1.00  0.00     0.135 C 
ATOM     13  H2  UNL     1      -1.292  49.741 -24.599  1.00  0.00     0.160 HD
HETATM   14  C9  UNL     1      -3.032  51.055 -27.223  1.00  0.00     0.113 C 
HETATM   15  N3  UNL     1      -3.282  51.884 -26.071  1.00  0.00    -0.280 NA
HETATM   16  H12 UNL     1      -3.225  52.894 -26.188  1.00  0.00     0.128 HD
ENDBRANCH   9  10
ENDBRANCH   1   9
BRANCH   1  17
HETATM   17  C10 UNL     1      -0.147  52.691 -22.426  1.00  0.00     0.011 A 
HETATM   18  C11 UNL     1       0.946  53.559 -22.242  1.00  0.00     0.024 A 
HETATM   19  C12 UNL     1       1.539  53.741 -20.989  1.00  0.00     0.002 A 
HETATM   20  C13 UNL     1       1.054  53.048 -19.886  1.00  0.00     0.000 A 
HETATM   21  C14 UNL     1      -0.016  52.174 -20.042  1.00  0.00     0.002 A 
HETATM   22  C15 UNL     1      -0.606  51.996 -21.300  1.00  0.00     0.024 A 
ENDBRANCH   1  17
TORSDOF 5
ENDMDL
MODEL 4
REMARK minimizedAffinity -7.22436094
REMARK  5 active torsions:
REMARK  status: ('A' for Active; 'I' for Inactive)
REMARK    1  A    between atoms: C4_4  and  C5_5 
REMARK    2  A    between atoms: C5_5  and  N1_6 
REMARK    3  A    between atoms: N1_6  and  C6_7 
REMARK    4  A    between atoms: N1_6  and  C10_14 
REMARK    5  A    between atoms: C6_7  and  C7_8 
ROOT
HETATM    1  N1  UNL     1      -0.914  50.832 -25.069  1.00  0.00    -0.273 NA
ENDROOT
BRANCH   1   2
HETATM    2  C5  UNL     1      -1.325  52.105 -24.436  1.00  0.00     0.134 C 
BRANCH   2   3
HETATM    3  C4  UNL     1      -0.701  52.271 -23.065  1.00  0.00    -0.045 A 
HETATM    4  C3  UNL     1      -1.375  51.838 -21.913  1.00  0.00     0.008 A 
HETATM    5  C2  UNL     1      -0.808  52.015 -20.650  1.00  0.00     0.001 A 
HETATM    6  C1  UNL     1       0.432  52.635 -20.523  1.00  0.00     0.000 A 
HETATM    7  C17 UNL     1       1.107  53.081 -21.658  1.00  0.00     0.001 A 
HETATM    8  C16 UNL     1       0.542  52.903 -22.923  1.00  0.00     0.008 A 
ENDBRANCH   2   3
ENDBRANCH   1   2
BRANCH   1   9
HETATM    9  C6  UNL     1       0.099  51.009 -26.146  1.00  0.00     0.165 C 
BRANCH   9  10
HETATM   10  C7  UNL     1      -0.102  52.336 -26.869  1.00  0.00     0.065 C 
HETATM   11  N2  UNL     1       0.555  53.420 -26.535  1.00  0.00    -0.382 N 
HETATM   12  C8  UNL     1       0.001  54.457 -27.455  1.00  0.00     0.135 C 
ATOM     13  H2  UNL     1       1.273  53.528 -25.818  1.00  0.00     0.160 HD
HETATM   14  C9  UNL     1      -1.273  53.861 -28.064  1.00  0.00     0.113 C 
HETATM   15  N3  UNL     1      -1.021  52.452 -27.891  1.00  0.00    -0.280 NA
HETATM   16  H12 UNL     1      -1.821  51.837 -27.759  1.00  0.00     0.128 HD
ENDBRANCH   9  10
ENDBRANCH   1   9
BRANCH   1  17
HETATM   17  C10 UNL     1      -2.007  49.976 -25.317  1.00  0.00     0.011 A 
HETATM   18  C11 UNL     1      -2.224  49.513 -26.628  1.00  0.00     0.024 A 
HETATM   19  C12 UNL     1      -3.301  48.680 -26.946  1.00  0.00     0.002 A 
HETATM   20  C13 UNL     1      -4.195  48.295 -25.955  1.00  0.00     0.000 A 
HETATM   21  C14 UNL     1      -4.011  48.748 -24.653  1.00  0.00     0.002 A 
HETATM   22  C15 UNL     1      -2.931  49.582 -24.340  1.00  0.00     0.024 A 
ENDBRANCH   1  17
TORSDOF 5
ENDMDL
MODEL 5
REMARK minimizedAffinity -7.21251154
REMARK  5 active torsions:
REMARK  status: ('A' for Active; 'I' for Inactive)
REMARK    1  A    between atoms: C4_4  and  C5_5 
REMARK    2  A    between atoms: C5_5  and  N1_6 
REMARK    3  A    between atoms: N1_6  and  C6_7 
REMARK    4  A    between atoms: N1_6  and  C10_14 
REMARK    5  A    between atoms: C6_7  and  C7_8 
ROOT
HETATM    1  N1  UNL     1       6.511  63.295 -34.771  1.00  0.00    -0.273 NA
ENDROOT
BRANCH   1   2
HETATM    2  C5  UNL     1       5.944  63.502 -36.122  1.00  0.00     0.134 C 
BRANCH   2   3
HETATM    3  C4  UNL     1       6.428  64.800 -36.736  1.00  0.00    -0.045 A 
HETATM    4  C3  UNL     1       5.565  65.599 -37.501  1.00  0.00     0.008 A 
HETATM    5  C2  UNL     1       6.021  66.781 -38.085  1.00  0.00     0.001 A 
HETATM    6  C1  UNL     1       7.347  67.174 -37.919  1.00  0.00     0.000 A 
HETATM    7  C17 UNL     1       8.219  66.385 -37.171  1.00  0.00     0.001 A 
HETATM    8  C16 UNL     1       7.764  65.202 -36.585  1.00  0.00     0.008 A 
ENDBRANCH   2   3
ENDBRANCH   1   2
BRANCH   1   9
HETATM    9  C6  UNL     1       7.312  62.046 -34.652  1.00  0.00     0.165 C 
BRANCH   9  10
HETATM   10  C7  UNL     1       8.523  62.259 -33.750  1.00  0.00     0.065 C 
HETATM   11  N2  UNL     1       9.385  63.225 -33.957  1.00  0.00    -0.382 N 
HETATM   12  C8  UNL     1      10.405  63.012 -32.887  1.00  0.00     0.135 C 
ATOM     13  H2  UNL     1       9.364  63.948 -34.676  1.00  0.00     0.160 HD
HETATM   14  C9  UNL     1      10.154  61.609 -32.322  1.00  0.00     0.113 C 
HETATM   15  N3  UNL     1       8.775  61.412 -32.692  1.00  0.00    -0.280 NA
HETATM   16  H12 UNL     1       8.462  60.461 -32.879  1.00  0.00     0.128 HD
ENDBRANCH   9  10
ENDBRANCH   1   9
BRANCH   1  17
HETATM   17  C10 UNL     1       5.587  63.594 -33.748  1.00  0.00     0.011 A 
HETATM   18  C11 UNL     1       5.586  64.885 -33.189  1.00  0.00     0.024 A 
HETATM   19  C12 UNL     1       4.711  65.240 -32.158  1.00  0.00     0.002 A 
HETATM   20  C13 UNL     1       3.817  64.303 -31.654  1.00  0.00     0.000 A 
HETATM   21  C14 UNL     1       3.806  63.015 -32.179  1.00  0.00     0.002 A 
HETATM   22  C15 UNL     1       4.685  62.665 -33.212  1.00  0.00     0.024 A 
ENDBRANCH   1  17
TORSDOF 5
ENDMDL
MODEL 6
REMARK minimizedAffinity -7.09849834
REMARK  5 active torsions:
REMARK  status: ('A' for Active; 'I' for Inactive)
REMARK    1  A    between atoms: C4_4  and  C5_5 
REMARK    2  A    between atoms: C5_5  and  N1_6 
REMARK    3  A    between atoms: N1_6  and  C6_7 
REMARK    4  A    between atoms: N1_6  and  C10_14 
REMARK    5  A    between atoms: C6_7  and  C7_8 
ROOT
HETATM    1  N1  UNL     1      -0.957  52.320 -24.649  1.00  0.00    -0.273 NA
ENDROOT
BRANCH   1   2
HETATM    2  C5  UNL     1      -0.476  51.461 -23.544  1.00  0.00     0.134 C 
BRANCH   2   3
HETATM    3  C4  UNL     1       0.040  52.285 -22.382  1.00  0.00    -0.045 A 
HETATM    4  C3  UNL     1      -0.341  51.988 -21.065  1.00  0.00     0.008 A 
HETATM    5  C2  UNL     1       0.117  52.765 -20.000  1.00  0.00     0.001 A 
HETATM    6  C1  UNL     1       0.953  53.853 -20.240  1.00  0.00     0.000 A 
HETATM    7  C17 UNL     1       1.331  54.166 -21.545  1.00  0.00     0.001 A 
HETATM    8  C16 UNL     1       0.874  53.389 -22.611  1.00  0.00     0.008 A 
ENDBRANCH   2   3
ENDBRANCH   1   2
BRANCH   1   9
HETATM    9  C6  UNL     1      -2.438  52.308 -24.804  1.00  0.00     0.165 C 
BRANCH   9  10
HETATM   10  C7  UNL     1      -2.905  51.013 -25.460  1.00  0.00     0.065 C 
HETATM   11  N2  UNL     1      -2.842  49.857 -24.846  1.00  0.00    -0.382 N 
HETATM   12  C8  UNL     1      -3.341  48.893 -25.871  1.00  0.00     0.135 C 
ATOM     13  H2  UNL     1      -2.528  49.663 -23.895  1.00  0.00     0.160 HD
HETATM   14  C9  UNL     1      -3.334  49.642 -27.209  1.00  0.00     0.113 C 
HETATM   15  N3  UNL     1      -3.384  51.008 -26.754  1.00  0.00    -0.280 NA
HETATM   16  H12 UNL     1      -2.938  51.720 -27.330  1.00  0.00     0.128 HD
ENDBRANCH   9  10
ENDBRANCH   1   9
BRANCH   1  17
HETATM   17  C10 UNL     1      -0.164  52.199 -25.809  1.00  0.00     0.011 A 
HETATM   18  C11 UNL     1      -0.548  52.896 -26.970  1.00  0.00     0.024 A 
HETATM   19  C12 UNL     1       0.180  52.802 -28.160  1.00  0.00     0.002 A 
HETATM   20  C13 UNL     1       1.313  51.999 -28.217  1.00  0.00     0.000 A 
HETATM   21  C14 UNL     1       1.707  51.289 -27.088  1.00  0.00     0.002 A 
HETATM   22  C15 UNL     1       0.973  51.386 -25.900  1.00  0.00     0.024 A 
ENDBRANCH   1  17
TORSDOF 5
ENDMDL
MODEL 7
REMARK minimizedAffinity -7.03499556
REMARK  5 active torsions:
REMARK  status: ('A' for Active; 'I' for Inactive)
REMARK    1  A    between atoms: C4_4  and  C5_5 
REMARK    2  A    between atoms: C5_5  and  N1_6 
REMARK    3  A    between atoms: N1_6  and  C6_7 
REMARK    4  A    between atoms: N1_6  and  C10_14 
REMARK    5  A    between atoms: C6_7  and  C7_8 
ROOT
HETATM    1  N1  UNL     1      -0.830  52.065 -25.095  1.00  0.00    -0.273 NA
ENDROOT
BRANCH   1   2
HETATM    2  C5  UNL     1      -2.145  52.187 -25.763  1.00  0.00     0.134 C 
BRANCH   2   3
HETATM    3  C4  UNL     1      -2.749  50.827 -26.053  1.00  0.00    -0.045 A 
HETATM    4  C3  UNL     1      -2.806  49.840 -25.057  1.00  0.00     0.008 A 
HETATM    5  C2  UNL     1      -3.341  48.581 -25.334  1.00  0.00     0.001 A 
HETATM    6  C1  UNL     1      -3.815  48.292 -26.611  1.00  0.00     0.000 A 
HETATM    7  C17 UNL     1      -3.754  49.258 -27.613  1.00  0.00     0.001 A 
HETATM    8  C16 UNL     1      -3.220  50.519 -27.337  1.00  0.00     0.008 A 
ENDBRANCH   2   3
ENDBRANCH   1   2
BRANCH   1   9
HETATM    9  C6  UNL     1      -0.673  52.985 -23.934  1.00  0.00     0.165 C 
BRANCH   9  10
HETATM   10  C7  UNL     1      -0.382  52.204 -22.657  1.00  0.00     0.065 C 
HETATM   11  N2  UNL     1      -0.841  50.991 -22.462  1.00  0.00    -0.382 N 
HETATM   12  C8  UNL     1      -0.364  50.659 -21.086  1.00  0.00     0.135 C 
ATOM     13  H2  UNL     1      -1.392  50.413 -23.097  1.00  0.00     0.160 HD
HETATM   14  C9  UNL     1       0.095  51.980 -20.456  1.00  0.00     0.113 C 
HETATM   15  N3  UNL     1       0.354  52.765 -21.636  1.00  0.00    -0.280 NA
HETATM   16  H12 UNL     1       0.221  53.773 -21.577  1.00  0.00     0.128 HD
ENDBRANCH   9  10
ENDBRANCH   1   9
BRANCH   1  17
HETATM   17  C10 UNL     1       0.234  51.965 -26.014  1.00  0.00     0.011 A 
HETATM   18  C11 UNL     1      -0.009  52.250 -27.370  1.00  0.00     0.024 A 
HETATM   19  C12 UNL     1       0.996  52.149 -28.336  1.00  0.00     0.002 A 
HETATM   20  C13 UNL     1       2.275  51.751 -27.966  1.00  0.00     0.000 A 
HETATM   21  C14 UNL     1       2.540  51.450 -26.634  1.00  0.00     0.002 A 
HETATM   22  C15 UNL     1       1.529  51.552 -25.672  1.00  0.00     0.024 A 
ENDBRANCH   1  17
TORSDOF 5
ENDMDL
MODEL 8
REMARK minimizedAffinity -7.03355598
REMARK  5 active torsions:
REMARK  status: ('A' for Active; 'I' for Inactive)
REMARK    1  A    between atoms: C4_4  and  C5_5 
REMARK    2  A    between atoms: C5_5  and  N1_6 
REMARK    3  A    between atoms: N1_6  and  C6_7 
REMARK    4  A    between atoms: N1_6  and  C10_14 
REMARK    5  A    between atoms: C6_7  and  C7_8 
ROOT
HETATM    1  N1  UNL     1      -1.178  51.986 -24.516  1.00  0.00    -0.273 NA
ENDROOT
BRANCH   1   2
HETATM    2  C5  UNL     1      -0.860  50.633 -25.023  1.00  0.00     0.134 C 
BRANCH   2   3
HETATM    3  C4  UNL     1      -2.116  49.858 -25.364  1.00  0.00    -0.045 A 
HETATM    4  C3  UNL     1      -2.541  49.729 -26.695  1.00  0.00     0.008 A 
HETATM    5  C2  UNL     1      -3.712  49.035 -27.003  1.00  0.00     0.001 A 
HETATM    6  C1  UNL     1      -4.477  48.471 -25.985  1.00  0.00     0.000 A 
HETATM    7  C17 UNL     1      -4.073  48.601 -24.657  1.00  0.00     0.001 A 
HETATM    8  C16 UNL     1      -2.901  49.294 -24.347  1.00  0.00     0.008 A 
ENDBRANCH   2   3
ENDBRANCH   1   2
BRANCH   1   9
HETATM    9  C6  UNL     1      -0.832  53.071 -25.475  1.00  0.00     0.165 C 
BRANCH   9  10
HETATM   10  C7  UNL     1       0.257  52.617 -26.440  1.00  0.00     0.065 C 
HETATM   11  N2  UNL     1      -0.009  52.248 -27.670  1.00  0.00    -0.382 N 
HETATM   12  C8  UNL     1       1.324  51.841 -28.206  1.00  0.00     0.135 C 
ATOM     13  H2  UNL     1      -0.911  52.241 -28.147  1.00  0.00     0.160 HD
HETATM   14  C9  UNL     1       2.255  51.708 -26.995  1.00  0.00     0.113 C 
HETATM   15  N3  UNL     1       1.574  52.544 -26.038  1.00  0.00    -0.280 NA
HETATM   16  H12 UNL     1       1.661  52.308 -25.051  1.00  0.00     0.128 HD
ENDBRANCH   9  10
ENDBRANCH   1   9
BRANCH   1  17
HETATM   17  C10 UNL     1      -0.816  52.154 -23.163  1.00  0.00     0.011 A 
HETATM   18  C11 UNL     1       0.408  52.776 -22.859  1.00  0.00     0.024 A 
HETATM   19  C12 UNL     1       0.837  52.954 -21.539  1.00  0.00     0.002 A 
HETATM   20  C13 UNL     1       0.048  52.503 -20.489  1.00  0.00     0.000 A 
HETATM   21  C14 UNL     1      -1.162  51.872 -20.761  1.00  0.00     0.002 A 
HETATM   22  C15 UNL     1      -1.585  51.697 -22.084  1.00  0.00     0.024 A 
ENDBRANCH   1  17
TORSDOF 5
ENDMDL
MODEL 9
REMARK minimizedAffinity -6.97742081
REMARK  5 active torsions:
REMARK  status: ('A' for Active; 'I' for Inactive)
REMARK    1  A    between atoms: C4_4  and  C5_5 
REMARK    2  A    between atoms: C5_5  and  N1_6 
REMARK    3  A    between atoms: N1_6  and  C6_7 
REMARK    4  A    between atoms: N1_6  and  C10_14 
REMARK    5  A    between atoms: C6_7  and  C7_8 
ROOT
HETATM    1  N1  UNL     1      -0.208  52.769 -23.515  1.00  0.00    -0.273 NA
ENDROOT
BRANCH   1   2
HETATM    2  C5  UNL     1      -0.496  51.414 -24.036  1.00  0.00     0.134 C 
BRANCH   2   3
HETATM    3  C4  UNL     1      -1.985  51.136 -24.069  1.00  0.00    -0.045 A 
HETATM    4  C3  UNL     1      -2.475  49.826 -23.955  1.00  0.00     0.008 A 
HETATM    5  C2  UNL     1      -3.846  49.572 -24.010  1.00  0.00     0.001 A 
HETATM    6  C1  UNL     1      -4.742  50.622 -24.190  1.00  0.00     0.000 A 
HETATM    7  C17 UNL     1      -4.270  51.927 -24.316  1.00  0.00     0.001 A 
HETATM    8  C16 UNL     1      -2.898  52.184 -24.260  1.00  0.00     0.008 A 
ENDBRANCH   2   3
ENDBRANCH   1   2
BRANCH   1   9
HETATM    9  C6  UNL     1       0.670  53.571 -24.412  1.00  0.00     0.165 C 
BRANCH   9  10
HETATM   10  C7  UNL     1       0.384  53.257 -25.876  1.00  0.00     0.065 C 
HETATM   11  N2  UNL     1       1.181  52.506 -26.597  1.00  0.00    -0.382 N 
HETATM   12  C8  UNL     1       0.545  52.525 -27.948  1.00  0.00     0.135 C 
ATOM     13  H2  UNL     1       2.033  52.026 -26.306  1.00  0.00     0.160 HD
HETATM   14  C9  UNL     1      -0.484  53.662 -27.927  1.00  0.00     0.113 C 
HETATM   15  N3  UNL     1      -0.721  53.785 -26.510  1.00  0.00    -0.280 NA
HETATM   16  H12 UNL     1      -0.969  54.703 -26.146  1.00  0.00     0.128 HD
ENDBRANCH   9  10
ENDBRANCH   1   9
BRANCH   1  17
HETATM   17  C10 UNL     1       0.077  52.765 -22.134  1.00  0.00     0.011 A 
HETATM   18  C11 UNL     1      -0.691  51.948 -21.283  1.00  0.00     0.024 A 
HETATM   19  C12 UNL     1      -0.475  51.913 -19.902  1.00  0.00     0.002 A 
HETATM   20  C13 UNL     1       0.516  52.706 -19.336  1.00  0.00     0.000 A 
HETATM   21  C14 UNL     1       1.282  53.532 -20.152  1.00  0.00     0.002 A 
HETATM   22  C15 UNL     1       1.061  53.563 -21.534  1.00  0.00     0.024 A 
ENDBRANCH   1  17
TORSDOF 5
ENDMDL
