MODEL 1
REMARK minimizedAffinity -10.4671297
REMARK  6 active torsions:
REMARK  status: ('A' for Active; 'I' for Inactive)
REMARK    1  A    between atoms: O1_2  and  C2_3 
REMARK    2  A    between atoms: C7_9  and  C8_10 
REMARK    3  A    between atoms: C8_10  and  C9_11 
REMARK    4  A    between atoms: C9_11  and  N2_12 
REMARK       I    between atoms: N2_12  and  C10_13 
REMARK    5  A    between atoms: C10_13  and  C11_15 
REMARK    6  A    between atoms: C16_21  and  C17_22 
ROOT
HETATM    1  C11 UNL     1      -3.953  48.510 -24.790  1.00  0.00     0.034 A 
HETATM    2  C12 UNL     1      -2.809  48.664 -25.586  1.00  0.00     0.020 A 
HETATM    3  C13 UNL     1      -2.908  48.612 -26.978  1.00  0.00     0.040 A 
HETATM    4  C14 UNL     1      -4.149  48.395 -27.574  1.00  0.00     0.103 A 
HETATM    5  O3  UNL     1      -4.191  48.353 -28.941  1.00  0.00    -0.303 OA
HETATM    6  C15 UNL     1      -5.417  48.109 -29.571  1.00  0.00     0.144 A 
HETATM    7  C16 UNL     1      -5.406  48.052 -30.915  1.00  0.00     0.054 C 
HETATM    8  C23 UNL     1      -6.671  47.929 -28.754  1.00  0.00     0.280 A 
HETATM    9  O4  UNL     1      -7.788  47.736 -29.222  1.00  0.00    -0.265 OA
HETATM   10  N3  UNL     1      -6.511  47.996 -27.397  1.00  0.00    -0.319 N 
HETATM   11  C24 UNL     1      -5.283  48.224 -26.785  1.00  0.00     0.070 A 
HETATM   12  C25 UNL     1      -5.197  48.277 -25.392  1.00  0.00     0.049 A 
HETATM   13  H20 UNL     1      -7.354  47.863 -26.854  1.00  0.00     0.169 HD
ENDROOT
BRANCH   1  14
HETATM   14  C10 UNL     1      -3.797  48.570 -23.312  1.00  0.00     0.251 C 
HETATM   15  N2  UNL     1      -2.839  49.440 -22.832  1.00  0.00    -0.357 N 
HETATM   16  H12 UNL     1      -2.168  49.842 -23.469  1.00  0.00     0.162 HD
HETATM   17  O2  UNL     1      -4.475  47.845 -22.594  1.00  0.00    -0.268 OA
BRANCH  15  18
HETATM   18  C9  UNL     1      -2.549  49.524 -21.410  1.00  0.00     0.127 C 
BRANCH  18  19
HETATM   19  C8  UNL     1      -1.058  49.351 -21.105  1.00  0.00     0.060 C 
BRANCH  19  20
HETATM   20  C7  UNL     1      -0.468  50.564 -20.458  1.00  0.00    -0.029 A 
HETATM   21  C6  UNL     1      -0.333  50.791 -19.103  1.00  0.00     0.096 A 
HETATM   22  N1  UNL     1       0.252  52.017 -18.928  1.00  0.00    -0.365 N 
HETATM   23  C5  UNL     1       0.510  52.599 -20.147  1.00  0.00     0.043 A 
HETATM   24  H6  UNL     1       0.467  52.439 -18.036  1.00  0.00     0.165 HD
HETATM   25  C4  UNL     1       1.094  53.832 -20.453  1.00  0.00     0.033 A 
HETATM   26  C26 UNL     1       0.066  51.713 -21.127  1.00  0.00     0.001 A 
HETATM   27  C3  UNL     1       1.230  54.172 -21.807  1.00  0.00     0.039 A 
HETATM   28  C2  UNL     1       0.797  53.311 -22.815  1.00  0.00     0.069 A 
HETATM   29  C27 UNL     1       0.215  52.081 -22.480  1.00  0.00     0.051 A 
BRANCH  28  30
HETATM   30  O1  UNL     1       0.884  53.547 -24.161  1.00  0.00    -0.356 OA
HETATM   31  C1  UNL     1       0.962  52.411 -25.012  1.00  0.00     0.210 C 
ENDBRANCH  28  30
ENDBRANCH  19  20
ENDBRANCH  18  19
ENDBRANCH  15  18
ENDBRANCH   1  14
BRANCH   7  32
HETATM   32  C17 UNL     1      -6.534  47.803 -31.813  1.00  0.00    -0.032 A 
HETATM   33  C18 UNL     1      -6.311  47.662 -33.188  1.00  0.00     0.011 A 
HETATM   34  C19 UNL     1      -7.380  47.413 -34.052  1.00  0.00     0.003 A 
HETATM   35  C20 UNL     1      -8.674  47.301 -33.545  1.00  0.00     0.024 A 
HETATM   36  C21 UNL     1      -8.895  47.441 -32.175  1.00  0.00     0.034 A 
HETATM   37 CL1  UNL     1     -10.493  47.299 -31.551  1.00  0.00    -0.084 Cl
HETATM   38  C22 UNL     1      -7.832  47.689 -31.307  1.00  0.00     0.035 A 
ENDBRANCH   7  32
TORSDOF 6
ENDMDL
MODEL 2
REMARK minimizedAffinity -10.3889828
REMARK  6 active torsions:
REMARK  status: ('A' for Active; 'I' for Inactive)
REMARK    1  A    between atoms: O1_2  and  C2_3 
REMARK    2  A    between atoms: C7_9  and  C8_10 
REMARK    3  A    between atoms: C8_10  and  C9_11 
REMARK    4  A    between atoms: C9_11  and  N2_12 
REMARK       I    between atoms: N2_12  and  C10_13 
REMARK    5  A    between atoms: C10_13  and  C11_15 
REMARK    6  A    between atoms: C16_21  and  C17_22 
ROOT
HETATM    1  C11 UNL     1      -4.036  48.599 -24.848  1.00  0.00     0.034 A 
HETATM    2  C12 UNL     1      -2.925  48.694 -25.699  1.00  0.00     0.020 A 
HETATM    3  C13 UNL     1      -3.080  48.541 -27.078  1.00  0.00     0.040 A 
HETATM    4  C14 UNL     1      -4.343  48.282 -27.606  1.00  0.00     0.103 A 
HETATM    5  O3  UNL     1      -4.440  48.141 -28.964  1.00  0.00    -0.303 OA
HETATM    6  C15 UNL     1      -5.689  47.854 -29.524  1.00  0.00     0.144 A 
HETATM    7  C16 UNL     1      -5.733  47.700 -30.860  1.00  0.00     0.054 C 
HETATM    8  C23 UNL     1      -6.909  47.733 -28.647  1.00  0.00     0.280 A 
HETATM    9  O4  UNL     1      -8.044  47.508 -29.055  1.00  0.00    -0.265 OA
HETATM   10  N3  UNL     1      -6.695  47.898 -27.306  1.00  0.00    -0.319 N 
HETATM   11  C24 UNL     1      -5.444  48.170 -26.762  1.00  0.00     0.070 A 
HETATM   12  C25 UNL     1      -5.302  48.323 -25.382  1.00  0.00     0.049 A 
HETATM   13  H20 UNL     1      -7.515  47.806 -26.721  1.00  0.00     0.169 HD
ENDROOT
BRANCH   1  14
HETATM   14  C10 UNL     1      -3.821  48.765 -23.386  1.00  0.00     0.251 C 
HETATM   15  N2  UNL     1      -2.828  49.646 -23.009  1.00  0.00    -0.357 N 
HETATM   16  H12 UNL     1      -2.174  49.985 -23.700  1.00  0.00     0.162 HD
HETATM   17  O2  UNL     1      -4.484  48.112 -22.590  1.00  0.00    -0.268 OA
BRANCH  15  18
HETATM   18  C9  UNL     1      -2.480  49.830 -21.610  1.00  0.00     0.127 C 
BRANCH  18  19
HETATM   19  C8  UNL     1      -0.981  49.654 -21.350  1.00  0.00     0.060 C 
BRANCH  19  20
HETATM   20  C7  UNL     1      -0.379  50.847 -20.678  1.00  0.00    -0.029 A 
HETATM   21  C6  UNL     1      -0.260  51.053 -19.317  1.00  0.00     0.096 A 
HETATM   22  N1  UNL     1       0.345  52.265 -19.117  1.00  0.00    -0.365 N 
HETATM   23  C5  UNL     1       0.630  52.859 -20.323  1.00  0.00     0.043 A 
HETATM   24  H6  UNL     1       0.554  52.671 -18.216  1.00  0.00     0.165 HD
HETATM   25  C4  UNL     1       1.240  54.086 -20.605  1.00  0.00     0.033 A 
HETATM   26  C26 UNL     1       0.185  51.995 -21.322  1.00  0.00     0.001 A 
HETATM   27  C3  UNL     1       1.401  54.443 -21.951  1.00  0.00     0.039 A 
HETATM   28  C2  UNL     1       0.968  53.604 -22.977  1.00  0.00     0.069 A 
HETATM   29  C27 UNL     1       0.359  52.380 -22.667  1.00  0.00     0.051 A 
BRANCH  28  30
HETATM   30  O1  UNL     1       1.078  53.857 -24.318  1.00  0.00    -0.356 OA
HETATM   31  C1  UNL     1      -0.040  53.527 -25.132  1.00  0.00     0.210 C 
ENDBRANCH  28  30
ENDBRANCH  19  20
ENDBRANCH  18  19
ENDBRANCH  15  18
ENDBRANCH   1  14
BRANCH   7  32
HETATM   32  C17 UNL     1      -6.894  47.387 -31.693  1.00  0.00    -0.032 A 
HETATM   33  C18 UNL     1      -8.074  46.924 -31.098  1.00  0.00     0.011 A 
HETATM   34  C19 UNL     1      -9.191  46.634 -31.884  1.00  0.00     0.003 A 
HETATM   35  C20 UNL     1      -9.135  46.808 -33.267  1.00  0.00     0.024 A 
HETATM   36  C21 UNL     1      -7.960  47.271 -33.858  1.00  0.00     0.034 A 
HETATM   37 CL1  UNL     1      -7.894  47.489 -35.564  1.00  0.00    -0.084 Cl
HETATM   38  C22 UNL     1      -6.841  47.563 -33.079  1.00  0.00     0.035 A 
ENDBRANCH   7  32
TORSDOF 6
ENDMDL
MODEL 3
REMARK minimizedAffinity -10.0791826
REMARK  6 active torsions:
REMARK  status: ('A' for Active; 'I' for Inactive)
REMARK    1  A    between atoms: O1_2  and  C2_3 
REMARK    2  A    between atoms: C7_9  and  C8_10 
REMARK    3  A    between atoms: C8_10  and  C9_11 
REMARK    4  A    between atoms: C9_11  and  N2_12 
REMARK       I    between atoms: N2_12  and  C10_13 
REMARK    5  A    between atoms: C10_13  and  C11_15 
REMARK    6  A    between atoms: C16_21  and  C17_22 
ROOT
HETATM    1  C11 UNL     1      -3.963  48.508 -24.776  1.00  0.00     0.034 A 
HETATM    2  C12 UNL     1      -2.830  48.707 -25.577  1.00  0.00     0.020 A 
HETATM    3  C13 UNL     1      -2.935  48.663 -26.969  1.00  0.00     0.040 A 
HETATM    4  C14 UNL     1      -4.172  48.408 -27.559  1.00  0.00     0.103 A 
HETATM    5  O3  UNL     1      -4.221  48.375 -28.926  1.00  0.00    -0.303 OA
HETATM    6  C15 UNL     1      -5.442  48.095 -29.550  1.00  0.00     0.144 A 
HETATM    7  C16 UNL     1      -5.438  48.050 -30.895  1.00  0.00     0.054 C 
HETATM    8  C23 UNL     1      -6.684  47.866 -28.728  1.00  0.00     0.280 A 
HETATM    9  O4  UNL     1      -7.797  47.640 -29.190  1.00  0.00    -0.265 OA
HETATM   10  N3  UNL     1      -6.518  47.928 -27.371  1.00  0.00    -0.319 N 
HETATM   11  C24 UNL     1      -5.294  48.193 -26.764  1.00  0.00     0.070 A 
HETATM   12  C25 UNL     1      -5.202  48.238 -25.372  1.00  0.00     0.049 A 
HETATM   13  H20 UNL     1      -7.352  47.763 -26.824  1.00  0.00     0.169 HD
ENDROOT
BRANCH   1  14
HETATM   14  C10 UNL     1      -3.799  48.562 -23.298  1.00  0.00     0.251 C 
HETATM   15  N2  UNL     1      -2.509  48.700 -22.829  1.00  0.00    -0.357 N 
HETATM   16  H12 UNL     1      -1.733  48.566 -23.460  1.00  0.00     0.162 HD
HETATM   17  O2  UNL     1      -4.777  48.451 -22.569  1.00  0.00    -0.268 OA
BRANCH  15  18
HETATM   18  C9  UNL     1      -2.225  48.687 -21.403  1.00  0.00     0.127 C 
BRANCH  18  19
HETATM   19  C8  UNL     1      -2.200  50.093 -20.798  1.00  0.00     0.060 C 
BRANCH  19  20
HETATM   20  C7  UNL     1      -1.074  50.920 -21.331  1.00  0.00    -0.029 A 
HETATM   21  C6  UNL     1       0.162  51.107 -20.742  1.00  0.00     0.096 A 
HETATM   22  N1  UNL     1       0.902  51.931 -21.547  1.00  0.00    -0.365 N 
HETATM   23  C5  UNL     1       0.177  52.287 -22.659  1.00  0.00     0.043 A 
HETATM   24  H6  UNL     1       1.846  52.238 -21.357  1.00  0.00     0.165 HD
HETATM   25  C4  UNL     1       0.524  53.101 -23.742  1.00  0.00     0.033 A 
HETATM   26  C26 UNL     1      -1.069  51.670 -22.551  1.00  0.00     0.001 A 
HETATM   27  C3  UNL     1      -0.433  53.294 -24.748  1.00  0.00     0.039 A 
HETATM   28  C2  UNL     1      -1.690  52.693 -24.674  1.00  0.00     0.069 A 
HETATM   29  C27 UNL     1      -2.012  51.882 -23.578  1.00  0.00     0.051 A 
BRANCH  28  30
HETATM   30  O1  UNL     1      -2.692  52.816 -25.600  1.00  0.00    -0.356 OA
HETATM   31  C1  UNL     1      -2.431  52.313 -26.903  1.00  0.00     0.210 C 
ENDBRANCH  28  30
ENDBRANCH  19  20
ENDBRANCH  18  19
ENDBRANCH  15  18
ENDBRANCH   1  14
BRANCH   7  32
HETATM   32  C17 UNL     1      -6.562  47.770 -31.789  1.00  0.00    -0.032 A 
HETATM   33  C18 UNL     1      -6.331  47.559 -33.153  1.00  0.00     0.011 A 
HETATM   34  C19 UNL     1      -7.397  47.280 -34.012  1.00  0.00     0.003 A 
HETATM   35  C20 UNL     1      -8.696  47.208 -33.509  1.00  0.00     0.024 A 
HETATM   36  C21 UNL     1      -8.925  47.417 -32.150  1.00  0.00     0.034 A 
HETATM   37 CL1  UNL     1     -10.529  47.324 -31.531  1.00  0.00    -0.084 Cl
HETATM   38  C22 UNL     1      -7.865  47.695 -31.287  1.00  0.00     0.035 A 
ENDBRANCH   7  32
TORSDOF 6
ENDMDL
MODEL 4
REMARK minimizedAffinity -9.69012356
REMARK  6 active torsions:
REMARK  status: ('A' for Active; 'I' for Inactive)
REMARK    1  A    between atoms: O1_2  and  C2_3 
REMARK    2  A    between atoms: C7_9  and  C8_10 
REMARK    3  A    between atoms: C8_10  and  C9_11 
REMARK    4  A    between atoms: C9_11  and  N2_12 
REMARK       I    between atoms: N2_12  and  C10_13 
REMARK    5  A    between atoms: C10_13  and  C11_15 
REMARK    6  A    between atoms: C16_21  and  C17_22 
ROOT
HETATM    1  C11 UNL     1       0.026  52.368 -24.297  1.00  0.00     0.034 A 
HETATM    2  C12 UNL     1       0.651  51.860 -25.444  1.00  0.00     0.020 A 
HETATM    3  C13 UNL     1      -0.050  51.026 -26.317  1.00  0.00     0.040 A 
HETATM    4  C14 UNL     1      -1.374  50.693 -26.038  1.00  0.00     0.103 A 
HETATM    5  O3  UNL     1      -2.016  49.873 -26.927  1.00  0.00    -0.303 OA
HETATM    6  C15 UNL     1      -3.338  49.496 -26.662  1.00  0.00     0.144 A 
HETATM    7  C16 UNL     1      -3.921  48.671 -27.550  1.00  0.00     0.054 C 
HETATM    8  C23 UNL     1      -4.047  50.012 -25.437  1.00  0.00     0.280 A 
HETATM    9  O4  UNL     1      -5.209  49.753 -25.140  1.00  0.00    -0.265 OA
HETATM   10  N3  UNL     1      -3.309  50.828 -24.623  1.00  0.00    -0.319 N 
HETATM   11  C24 UNL     1      -1.991  51.182 -24.891  1.00  0.00     0.070 A 
HETATM   12  C25 UNL     1      -1.301  52.018 -24.012  1.00  0.00     0.049 A 
HETATM   13  H20 UNL     1      -3.787  51.162 -23.796  1.00  0.00     0.169 HD
ENDROOT
BRANCH   1  14
HETATM   14  C10 UNL     1       0.815  53.249 -23.395  1.00  0.00     0.251 C 
HETATM   15  N2  UNL     1       0.940  52.831 -22.086  1.00  0.00    -0.357 N 
HETATM   16  H12 UNL     1       0.356  52.082 -21.744  1.00  0.00     0.162 HD
HETATM   17  O2  UNL     1       1.283  54.299 -23.819  1.00  0.00    -0.268 OA
BRANCH  15  18
HETATM   18  C9  UNL     1       1.625  53.651 -21.100  1.00  0.00     0.127 C 
BRANCH  18  19
HETATM   19  C8  UNL     1       0.708  54.068 -19.946  1.00  0.00     0.060 C 
BRANCH  19  20
HETATM   20  C7  UNL     1       0.118  52.891 -19.236  1.00  0.00    -0.029 A 
HETATM   21  C6  UNL     1      -1.011  52.187 -19.608  1.00  0.00     0.096 A 
HETATM   22  N1  UNL     1      -1.214  51.186 -18.696  1.00  0.00    -0.365 N 
HETATM   23  C5  UNL     1      -0.234  51.217 -17.731  1.00  0.00     0.043 A 
HETATM   24  H6  UNL     1      -1.971  50.519 -18.720  1.00  0.00     0.165 HD
HETATM   25  C4  UNL     1      -0.038  50.395 -16.617  1.00  0.00     0.033 A 
HETATM   26  C26 UNL     1       0.615  52.278 -18.041  1.00  0.00     0.001 A 
HETATM   27  C3  UNL     1       1.062  50.665 -15.790  1.00  0.00     0.039 A 
HETATM   28  C2  UNL     1       1.933  51.719 -16.069  1.00  0.00     0.069 A 
HETATM   29  C27 UNL     1       1.713  52.527 -17.193  1.00  0.00     0.051 A 
BRANCH  28  30
HETATM   30  O1  UNL     1       3.032  52.066 -15.330  1.00  0.00    -0.356 OA
HETATM   31  C1  UNL     1       4.046  52.810 -15.991  1.00  0.00     0.210 C 
ENDBRANCH  28  30
ENDBRANCH  19  20
ENDBRANCH  18  19
ENDBRANCH  15  18
ENDBRANCH   1  14
BRANCH   7  32
HETATM   32  C17 UNL     1      -5.275  48.119 -27.511  1.00  0.00    -0.032 A 
HETATM   33  C18 UNL     1      -6.022  48.019 -28.691  1.00  0.00     0.011 A 
HETATM   34  C19 UNL     1      -7.312  47.484 -28.664  1.00  0.00     0.003 A 
HETATM   35  C20 UNL     1      -7.858  47.043 -27.458  1.00  0.00     0.024 A 
HETATM   36  C21 UNL     1      -7.113  47.141 -26.284  1.00  0.00     0.034 A 
HETATM   37 CL1  UNL     1      -7.788  46.592 -24.798  1.00  0.00    -0.084 Cl
HETATM   38  C22 UNL     1      -5.825  47.674 -26.304  1.00  0.00     0.035 A 
ENDBRANCH   7  32
TORSDOF 6
ENDMDL
MODEL 5
REMARK minimizedAffinity -9.57782745
REMARK  6 active torsions:
REMARK  status: ('A' for Active; 'I' for Inactive)
REMARK    1  A    between atoms: O1_2  and  C2_3 
REMARK    2  A    between atoms: C7_9  and  C8_10 
REMARK    3  A    between atoms: C8_10  and  C9_11 
REMARK    4  A    between atoms: C9_11  and  N2_12 
REMARK       I    between atoms: N2_12  and  C10_13 
REMARK    5  A    between atoms: C10_13  and  C11_15 
REMARK    6  A    between atoms: C16_21  and  C17_22 
ROOT
HETATM    1  C11 UNL     1      -3.388  48.851 -23.968  1.00  0.00     0.034 A 
HETATM    2  C12 UNL     1      -4.645  48.536 -23.433  1.00  0.00     0.020 A 
HETATM    3  C13 UNL     1      -5.692  48.153 -24.275  1.00  0.00     0.040 A 
HETATM    4  C14 UNL     1      -5.484  48.097 -25.652  1.00  0.00     0.103 A 
HETATM    5  O3  UNL     1      -6.543  47.717 -26.432  1.00  0.00    -0.303 OA
HETATM    6  C15 UNL     1      -6.377  47.676 -27.820  1.00  0.00     0.144 A 
HETATM    7  C16 UNL     1      -7.451  47.320 -28.548  1.00  0.00     0.054 C 
HETATM    8  C23 UNL     1      -5.046  48.016 -28.439  1.00  0.00     0.280 A 
HETATM    9  O4  UNL     1      -4.805  47.984 -29.641  1.00  0.00    -0.265 OA
HETATM   10  N3  UNL     1      -4.058  48.378 -27.563  1.00  0.00    -0.319 N 
HETATM   11  C24 UNL     1      -4.242  48.427 -26.186  1.00  0.00     0.070 A 
HETATM   12  C25 UNL     1      -3.188  48.808 -25.355  1.00  0.00     0.049 A 
HETATM   13  H20 UNL     1      -3.170  48.615 -27.985  1.00  0.00     0.169 HD
ENDROOT
BRANCH   1  14
HETATM   14  C10 UNL     1      -2.305  49.256 -23.032  1.00  0.00     0.251 C 
HETATM   15  N2  UNL     1      -1.740  50.496 -23.248  1.00  0.00    -0.357 N 
HETATM   16  H12 UNL     1      -1.927  50.985 -24.112  1.00  0.00     0.162 HD
HETATM   17  O2  UNL     1      -1.937  48.488 -22.151  1.00  0.00    -0.268 OA
BRANCH  15  18
HETATM   18  C9  UNL     1      -0.623  50.961 -22.443  1.00  0.00     0.127 C 
BRANCH  18  19
HETATM   19  C8  UNL     1      -0.775  52.425 -22.019  1.00  0.00     0.060 C 
BRANCH  19  20
HETATM   20  C7  UNL     1       0.004  52.741 -20.782  1.00  0.00    -0.029 A 
HETATM   21  C6  UNL     1       0.838  53.825 -20.589  1.00  0.00     0.096 A 
HETATM   22  N1  UNL     1       1.359  53.746 -19.325  1.00  0.00    -0.365 N 
HETATM   23  C5  UNL     1       0.878  52.632 -18.680  1.00  0.00     0.043 A 
HETATM   24  H6  UNL     1       2.005  54.408 -18.918  1.00  0.00     0.165 HD
HETATM   25  C4  UNL     1       1.131  52.154 -17.390  1.00  0.00     0.033 A 
HETATM   26  C26 UNL     1       0.027  51.978 -19.570  1.00  0.00     0.001 A 
HETATM   27  C3  UNL     1       0.493  50.970 -16.995  1.00  0.00     0.039 A 
HETATM   28  C2  UNL     1      -0.365  50.289 -17.858  1.00  0.00     0.069 A 
HETATM   29  C27 UNL     1      -0.600  50.789 -19.146  1.00  0.00     0.051 A 
BRANCH  28  30
HETATM   30  O1  UNL     1      -1.035  49.129 -17.571  1.00  0.00    -0.356 OA
HETATM   31  C1  UNL     1      -1.695  48.481 -18.650  1.00  0.00     0.210 C 
ENDBRANCH  28  30
ENDBRANCH  19  20
ENDBRANCH  18  19
ENDBRANCH  15  18
ENDBRANCH   1  14
BRANCH   7  32
HETATM   32  C17 UNL     1      -7.555  47.209 -30.003  1.00  0.00    -0.032 A 
HETATM   33  C18 UNL     1      -7.925  48.325 -30.763  1.00  0.00     0.011 A 
HETATM   34  C19 UNL     1      -8.015  48.231 -32.154  1.00  0.00     0.003 A 
HETATM   35  C20 UNL     1      -7.734  47.022 -32.790  1.00  0.00     0.024 A 
HETATM   36  C21 UNL     1      -7.364  45.911 -32.032  1.00  0.00     0.034 A 
HETATM   37 CL1  UNL     1      -7.013  44.421 -32.820  1.00  0.00    -0.084 Cl
HETATM   38  C22 UNL     1      -7.271  45.998 -30.644  1.00  0.00     0.035 A 
ENDBRANCH   7  32
TORSDOF 6
ENDMDL
MODEL 6
REMARK minimizedAffinity -9.50716114
REMARK  6 active torsions:
REMARK  status: ('A' for Active; 'I' for Inactive)
REMARK    1  A    between atoms: O1_2  and  C2_3 
REMARK    2  A    between atoms: C7_9  and  C8_10 
REMARK    3  A    between atoms: C8_10  and  C9_11 
REMARK    4  A    between atoms: C9_11  and  N2_12 
REMARK       I    between atoms: N2_12  and  C10_13 
REMARK    5  A    between atoms: C10_13  and  C11_15 
REMARK    6  A    between atoms: C16_21  and  C17_22 
ROOT
HETATM    1  C11 UNL     1      -0.105  51.518 -18.152  1.00  0.00     0.034 A 
HETATM    2  C12 UNL     1       0.766  52.615 -18.203  1.00  0.00     0.020 A 
HETATM    3  C13 UNL     1       1.137  53.162 -19.433  1.00  0.00     0.040 A 
HETATM    4  C14 UNL     1       0.647  52.603 -20.612  1.00  0.00     0.103 A 
HETATM    5  O3  UNL     1       1.042  53.177 -21.791  1.00  0.00    -0.303 OA
HETATM    6  C15 UNL     1       0.590  52.624 -22.994  1.00  0.00     0.144 A 
HETATM    7  C16 UNL     1       1.023  53.205 -24.127  1.00  0.00     0.054 C 
HETATM    8  C23 UNL     1      -0.341  51.439 -22.986  1.00  0.00     0.280 A 
HETATM    9  O4  UNL     1      -0.804  50.906 -23.990  1.00  0.00    -0.265 OA
HETATM   10  N3  UNL     1      -0.673  50.952 -21.751  1.00  0.00    -0.319 N 
HETATM   11  C24 UNL     1      -0.204  51.503 -20.563  1.00  0.00     0.070 A 
HETATM   12  C25 UNL     1      -0.585  50.950 -19.340  1.00  0.00     0.049 A 
HETATM   13  H20 UNL     1      -1.289  50.150 -21.753  1.00  0.00     0.169 HD
ENDROOT
BRANCH   1  14
HETATM   14  C10 UNL     1      -0.470  50.969 -16.818  1.00  0.00     0.251 C 
HETATM   15  N2  UNL     1       0.365  51.299 -15.770  1.00  0.00    -0.357 N 
HETATM   16  H12 UNL     1       1.264  51.716 -15.962  1.00  0.00     0.162 HD
HETATM   17  O2  UNL     1      -1.446  50.238 -16.702  1.00  0.00    -0.268 OA
BRANCH  15  18
HETATM   18  C9  UNL     1       0.148  50.757 -14.440  1.00  0.00     0.127 C 
BRANCH  18  19
HETATM   19  C8  UNL     1       0.697  51.668 -13.338  1.00  0.00     0.060 C 
BRANCH  19  20
HETATM   20  C7  UNL     1      -0.392  52.350 -12.572  1.00  0.00    -0.029 A 
HETATM   21  C6  UNL     1      -1.749  52.121 -12.689  1.00  0.00     0.096 A 
HETATM   22  N1  UNL     1      -2.402  52.949 -11.815  1.00  0.00    -0.365 N 
HETATM   23  C5  UNL     1      -1.498  53.716 -11.121  1.00  0.00     0.043 A 
HETATM   24  H6  UNL     1      -3.404  52.996 -11.694  1.00  0.00     0.165 HD
HETATM   25  C4  UNL     1      -1.705  54.687 -10.135  1.00  0.00     0.033 A 
HETATM   26  C26 UNL     1      -0.227  53.365 -11.575  1.00  0.00     0.001 A 
HETATM   27  C3  UNL     1      -0.577  55.321  -9.595  1.00  0.00     0.039 A 
HETATM   28  C2  UNL     1       0.710  54.997 -10.025  1.00  0.00     0.069 A 
HETATM   29  C27 UNL     1       0.889  54.020 -11.015  1.00  0.00     0.051 A 
BRANCH  28  30
HETATM   30  O1  UNL     1       1.873  55.553  -9.565  1.00  0.00    -0.356 OA
HETATM   31  C1  UNL     1       2.894  55.801 -10.521  1.00  0.00     0.210 C 
ENDBRANCH  28  30
ENDBRANCH  19  20
ENDBRANCH  18  19
ENDBRANCH  15  18
ENDBRANCH   1  14
BRANCH   7  32
HETATM   32  C17 UNL     1       0.716  52.825 -25.507  1.00  0.00    -0.032 A 
HETATM   33  C18 UNL     1       1.347  51.715 -26.081  1.00  0.00     0.011 A 
HETATM   34  C19 UNL     1       1.052  51.339 -27.393  1.00  0.00     0.003 A 
HETATM   35  C20 UNL     1       0.124  52.070 -28.135  1.00  0.00     0.024 A 
HETATM   36  C21 UNL     1      -0.505  53.174 -27.562  1.00  0.00     0.034 A 
HETATM   37 CL1  UNL     1      -1.653  54.072 -28.479  1.00  0.00    -0.084 Cl
HETATM   38  C22 UNL     1      -0.216  53.555 -26.252  1.00  0.00     0.035 A 
ENDBRANCH   7  32
TORSDOF 6
ENDMDL
MODEL 7
REMARK minimizedAffinity -9.4429245
REMARK  6 active torsions:
REMARK  status: ('A' for Active; 'I' for Inactive)
REMARK    1  A    between atoms: O1_2  and  C2_3 
REMARK    2  A    between atoms: C7_9  and  C8_10 
REMARK    3  A    between atoms: C8_10  and  C9_11 
REMARK    4  A    between atoms: C9_11  and  N2_12 
REMARK       I    between atoms: N2_12  and  C10_13 
REMARK    5  A    between atoms: C10_13  and  C11_15 
REMARK    6  A    between atoms: C16_21  and  C17_22 
ROOT
HETATM    1  C11 UNL     1      -4.348  48.516 -25.286  1.00  0.00     0.034 A 
HETATM    2  C12 UNL     1      -3.290  48.709 -26.185  1.00  0.00     0.020 A 
HETATM    3  C13 UNL     1      -3.494  48.543 -27.557  1.00  0.00     0.040 A 
HETATM    4  C14 UNL     1      -4.752  48.173 -28.028  1.00  0.00     0.103 A 
HETATM    5  O3  UNL     1      -4.898  48.023 -29.380  1.00  0.00    -0.303 OA
HETATM    6  C15 UNL     1      -6.141  47.627 -29.884  1.00  0.00     0.144 A 
HETATM    7  C16 UNL     1      -6.232  47.469 -31.217  1.00  0.00     0.054 C 
HETATM    8  C23 UNL     1      -7.304  47.400 -28.953  1.00  0.00     0.280 A 
HETATM    9  O4  UNL     1      -8.432  47.075 -29.309  1.00  0.00    -0.265 OA
HETATM   10  N3  UNL     1      -7.044  47.583 -27.622  1.00  0.00    -0.319 N 
HETATM   11  C24 UNL     1      -5.799  47.964 -27.135  1.00  0.00     0.070 A 
HETATM   12  C25 UNL     1      -5.608  48.130 -25.762  1.00  0.00     0.049 A 
HETATM   13  H20 UNL     1      -7.826  47.419 -27.001  1.00  0.00     0.169 HD
ENDROOT
BRANCH   1  14
HETATM   14  C10 UNL     1      -4.082  48.702 -23.834  1.00  0.00     0.251 C 
HETATM   15  N2  UNL     1      -3.373  49.831 -23.481  1.00  0.00    -0.357 N 
HETATM   16  H12 UNL     1      -2.905  50.370 -24.195  1.00  0.00     0.162 HD
HETATM   17  O2  UNL     1      -4.456  47.857 -23.030  1.00  0.00    -0.268 OA
BRANCH  15  18
HETATM   18  C9  UNL     1      -2.991  50.074 -22.100  1.00  0.00     0.127 C 
BRANCH  18  19
HETATM   19  C8  UNL     1      -1.490  49.879 -21.863  1.00  0.00     0.060 C 
BRANCH  19  20
HETATM   20  C7  UNL     1      -0.704  51.117 -22.155  1.00  0.00    -0.029 A 
HETATM   21  C6  UNL     1      -0.493  51.684 -23.397  1.00  0.00     0.096 A 
HETATM   22  N1  UNL     1       0.278  52.805 -23.232  1.00  0.00    -0.365 N 
HETATM   23  C5  UNL     1       0.573  52.988 -21.902  1.00  0.00     0.043 A 
HETATM   24  H6  UNL     1       0.588  53.414 -23.976  1.00  0.00     0.165 HD
HETATM   25  C4  UNL     1       1.321  53.988 -21.272  1.00  0.00     0.033 A 
HETATM   26  C26 UNL     1      -0.027  51.943 -21.201  1.00  0.00     0.001 A 
HETATM   27  C3  UNL     1       1.461  53.919 -19.879  1.00  0.00     0.039 A 
HETATM   28  C2  UNL     1       0.876  52.888 -19.144  1.00  0.00     0.069 A 
HETATM   29  C27 UNL     1       0.132  51.898 -19.801  1.00  0.00     0.051 A 
BRANCH  28  30
HETATM   30  O1  UNL     1       0.951  52.730 -17.786  1.00  0.00    -0.356 OA
HETATM   31  C1  UNL     1       0.323  51.582 -17.233  1.00  0.00     0.210 C 
ENDBRANCH  28  30
ENDBRANCH  19  20
ENDBRANCH  18  19
ENDBRANCH  15  18
ENDBRANCH   1  14
BRANCH   7  32
HETATM   32  C17 UNL     1      -7.399  47.055 -31.997  1.00  0.00    -0.032 A 
HETATM   33  C18 UNL     1      -7.222  46.391 -33.217  1.00  0.00     0.011 A 
HETATM   34  C19 UNL     1      -8.330  45.982 -33.962  1.00  0.00     0.003 A 
HETATM   35  C20 UNL     1      -9.619  46.233 -33.490  1.00  0.00     0.024 A 
HETATM   36  C21 UNL     1      -9.793  46.894 -32.275  1.00  0.00     0.034 A 
HETATM   37 CL1  UNL     1     -11.384  47.199 -31.692  1.00  0.00    -0.084 Cl
HETATM   38  C22 UNL     1      -8.692  47.304 -31.525  1.00  0.00     0.035 A 
ENDBRANCH   7  32
TORSDOF 6
ENDMDL
MODEL 8
REMARK minimizedAffinity -9.43225002
REMARK  6 active torsions:
REMARK  status: ('A' for Active; 'I' for Inactive)
REMARK    1  A    between atoms: O1_2  and  C2_3 
REMARK    2  A    between atoms: C7_9  and  C8_10 
REMARK    3  A    between atoms: C8_10  and  C9_11 
REMARK    4  A    between atoms: C9_11  and  N2_12 
REMARK       I    between atoms: N2_12  and  C10_13 
REMARK    5  A    between atoms: C10_13  and  C11_15 
REMARK    6  A    between atoms: C16_21  and  C17_22 
ROOT
HETATM    1  C11 UNL     1      -4.372  48.521 -25.404  1.00  0.00     0.034 A 
HETATM    2  C12 UNL     1      -5.635  48.194 -24.893  1.00  0.00     0.020 A 
HETATM    3  C13 UNL     1      -6.653  47.769 -25.750  1.00  0.00     0.040 A 
HETATM    4  C14 UNL     1      -6.409  47.683 -27.120  1.00  0.00     0.103 A 
HETATM    5  O3  UNL     1      -7.440  47.261 -27.916  1.00  0.00    -0.303 OA
HETATM    6  C15 UNL     1      -7.238  47.189 -29.298  1.00  0.00     0.144 A 
HETATM    7  C16 UNL     1      -8.285  46.793 -30.044  1.00  0.00     0.054 C 
HETATM    8  C23 UNL     1      -5.898  47.540 -29.892  1.00  0.00     0.280 A 
HETATM    9  O4  UNL     1      -5.626  47.483 -31.087  1.00  0.00    -0.265 OA
HETATM   10  N3  UNL     1      -4.941  47.944 -29.002  1.00  0.00    -0.319 N 
HETATM   11  C24 UNL     1      -5.161  48.025 -27.631  1.00  0.00     0.070 A 
HETATM   12  C25 UNL     1      -4.135  48.448 -26.784  1.00  0.00     0.049 A 
HETATM   13  H20 UNL     1      -4.047  48.189 -29.407  1.00  0.00     0.169 HD
ENDROOT
BRANCH   1  14
HETATM   14  C10 UNL     1      -3.321  48.972 -24.452  1.00  0.00     0.251 C 
HETATM   15  N2  UNL     1      -2.600  50.089 -24.819  1.00  0.00    -0.357 N 
HETATM   16  H12 UNL     1      -2.664  50.434 -25.766  1.00  0.00     0.162 HD
HETATM   17  O2  UNL     1      -3.113  48.338 -23.425  1.00  0.00    -0.268 OA
BRANCH  15  18
HETATM   18  C9  UNL     1      -1.499  50.572 -24.002  1.00  0.00     0.127 C 
BRANCH  18  19
HETATM   19  C8  UNL     1      -0.369  51.179 -24.839  1.00  0.00     0.060 C 
BRANCH  19  20
HETATM   20  C7  UNL     1       0.246  52.373 -24.180  1.00  0.00    -0.029 A 
HETATM   21  C6  UNL     1       0.790  53.474 -24.813  1.00  0.00     0.096 A 
HETATM   22  N1  UNL     1       1.247  54.338 -23.854  1.00  0.00    -0.365 N 
HETATM   23  C5  UNL     1       1.009  53.827 -22.600  1.00  0.00     0.043 A 
HETATM   24  H6  UNL     1       1.695  55.225 -24.035  1.00  0.00     0.165 HD
HETATM   25  C4  UNL     1       1.298  54.357 -21.339  1.00  0.00     0.033 A 
HETATM   26  C26 UNL     1       0.384  52.593 -22.772  1.00  0.00     0.001 A 
HETATM   27  C3  UNL     1       0.938  53.602 -20.214  1.00  0.00     0.039 A 
HETATM   28  C2  UNL     1       0.312  52.362 -20.346  1.00  0.00     0.069 A 
HETATM   29  C27 UNL     1       0.034  51.854 -21.623  1.00  0.00     0.051 A 
BRANCH  28  30
HETATM   30  O1  UNL     1      -0.079  51.549 -19.317  1.00  0.00    -0.356 OA
HETATM   31  C1  UNL     1       0.472  51.818 -18.035  1.00  0.00     0.210 C 
ENDBRANCH  28  30
ENDBRANCH  19  20
ENDBRANCH  18  19
ENDBRANCH  15  18
ENDBRANCH   1  14
BRANCH   7  32
HETATM   32  C17 UNL     1      -8.350  46.643 -31.497  1.00  0.00    -0.032 A 
HETATM   33  C18 UNL     1      -8.535  47.770 -32.307  1.00  0.00     0.011 A 
HETATM   34  C19 UNL     1      -8.586  47.637 -33.697  1.00  0.00     0.003 A 
HETATM   35  C20 UNL     1      -8.450  46.378 -34.282  1.00  0.00     0.024 A 
HETATM   36  C21 UNL     1      -8.265  45.257 -33.475  1.00  0.00     0.034 A 
HETATM   37 CL1  UNL     1      -8.094  43.705 -34.199  1.00  0.00    -0.084 Cl
HETATM   38  C22 UNL     1      -8.212  45.382 -32.087  1.00  0.00     0.035 A 
ENDBRANCH   7  32
TORSDOF 6
ENDMDL
MODEL 9
REMARK minimizedAffinity -9.39731503
REMARK  6 active torsions:
REMARK  status: ('A' for Active; 'I' for Inactive)
REMARK    1  A    between atoms: O1_2  and  C2_3 
REMARK    2  A    between atoms: C7_9  and  C8_10 
REMARK    3  A    between atoms: C8_10  and  C9_11 
REMARK    4  A    between atoms: C9_11  and  N2_12 
REMARK       I    between atoms: N2_12  and  C10_13 
REMARK    5  A    between atoms: C10_13  and  C11_15 
REMARK    6  A    between atoms: C16_21  and  C17_22 
ROOT
HETATM    1  C11 UNL     1      -5.246  48.411 -25.493  1.00  0.00     0.034 A 
HETATM    2  C12 UNL     1      -4.102  48.388 -26.303  1.00  0.00     0.020 A 
HETATM    3  C13 UNL     1      -2.904  48.939 -25.846  1.00  0.00     0.040 A 
HETATM    4  C14 UNL     1      -2.852  49.525 -24.582  1.00  0.00     0.103 A 
HETATM    5  O3  UNL     1      -1.653  50.051 -24.182  1.00  0.00    -0.303 OA
HETATM    6  C15 UNL     1      -1.573  50.671 -22.930  1.00  0.00     0.144 A 
HETATM    7  C16 UNL     1      -0.382  51.195 -22.589  1.00  0.00     0.054 C 
HETATM    8  C23 UNL     1      -2.780  50.727 -22.029  1.00  0.00     0.280 A 
HETATM    9  O4  UNL     1      -2.794  51.228 -20.910  1.00  0.00    -0.265 OA
HETATM   10  N3  UNL     1      -3.923  50.165 -22.531  1.00  0.00    -0.319 N 
HETATM   11  C24 UNL     1      -3.991  49.565 -23.784  1.00  0.00     0.070 A 
HETATM   12  C25 UNL     1      -5.193  49.014 -24.229  1.00  0.00     0.049 A 
HETATM   13  H20 UNL     1      -4.732  50.215 -21.926  1.00  0.00     0.169 HD
ENDROOT
BRANCH   1  14
HETATM   14  C10 UNL     1      -6.500  47.813 -26.025  1.00  0.00     0.251 C 
HETATM   15  N2  UNL     1      -6.801  48.093 -27.342  1.00  0.00    -0.357 N 
HETATM   16  H12 UNL     1      -6.294  48.820 -27.825  1.00  0.00     0.162 HD
HETATM   17  O2  UNL     1      -7.219  47.145 -25.292  1.00  0.00    -0.268 OA
BRANCH  15  18
HETATM   18  C9  UNL     1      -8.038  47.624 -27.943  1.00  0.00     0.127 C 
BRANCH  18  19
HETATM   19  C8  UNL     1      -7.826  46.410 -28.852  1.00  0.00     0.060 C 
BRANCH  19  20
HETATM   20  C7  UNL     1      -8.199  46.693 -30.272  1.00  0.00    -0.029 A 
HETATM   21  C6  UNL     1      -9.473  46.687 -30.806  1.00  0.00     0.096 A 
HETATM   22  N1  UNL     1      -9.382  46.994 -32.138  1.00  0.00    -0.365 N 
HETATM   23  C5  UNL     1      -8.071  47.208 -32.489  1.00  0.00     0.043 A 
HETATM   24  H6  UNL     1     -10.163  47.057 -32.776  1.00  0.00     0.165 HD
HETATM   25  C4  UNL     1      -7.510  47.545 -33.724  1.00  0.00     0.033 A 
HETATM   26  C26 UNL     1      -7.303  47.023 -31.340  1.00  0.00     0.001 A 
HETATM   27  C3  UNL     1      -6.117  47.699 -33.790  1.00  0.00     0.039 A 
HETATM   28  C2  UNL     1      -5.317  47.522 -32.662  1.00  0.00     0.069 A 
HETATM   29  C27 UNL     1      -5.905  47.183 -31.435  1.00  0.00     0.051 A 
BRANCH  28  30
HETATM   30  O1  UNL     1      -3.954  47.648 -32.619  1.00  0.00    -0.356 OA
HETATM   31  C1  UNL     1      -3.273  47.730 -33.863  1.00  0.00     0.210 C 
ENDBRANCH  28  30
ENDBRANCH  19  20
ENDBRANCH  18  19
ENDBRANCH  15  18
ENDBRANCH   1  14
BRANCH   7  32
HETATM   32  C17 UNL     1      -0.030  51.900 -21.357  1.00  0.00    -0.032 A 
HETATM   33  C18 UNL     1       0.304  53.259 -21.403  1.00  0.00     0.011 A 
HETATM   34  C19 UNL     1       0.631  53.943 -20.229  1.00  0.00     0.003 A 
HETATM   35  C20 UNL     1       0.623  53.272 -19.007  1.00  0.00     0.024 A 
HETATM   36  C21 UNL     1       0.289  51.919 -18.962  1.00  0.00     0.034 A 
HETATM   37 CL1  UNL     1       0.275  51.095 -17.451  1.00  0.00    -0.084 Cl
HETATM   38  C22 UNL     1      -0.040  51.231 -20.129  1.00  0.00     0.035 A 
ENDBRANCH   7  32
TORSDOF 6
ENDMDL
