MODEL 1
REMARK minimizedAffinity -7.13412189
REMARK CNNscore 0.46318984
REMARK CNNaffinity 6.85692739
REMARK  20 active torsions:
REMARK  status: ('A' for Active; 'I' for Inactive)
REMARK    1  A    between atoms: C2_2  and  C3_3 
REMARK    2  A    between atoms: C2_2  and  C28_35 
REMARK    3  A    between atoms: C4_4  and  C5_5 
REMARK    4  A    between atoms: C6_6  and  C7_7 
REMARK    5  A    between atoms: C6_6  and  C11_14 
REMARK    6  A    between atoms: C7_7  and  O1_8 
REMARK    7  A    between atoms: O1_8  and  C8_9 
REMARK    8  A    between atoms: C8_9  and  C9_10 
REMARK    9  A    between atoms: C9_10  and  O2_11 
REMARK   10  A    between atoms: C9_10  and  C10_12 
REMARK   11  A    between atoms: C10_12  and  O3_13 
REMARK   12  A    between atoms: C15_18  and  O4_19 
REMARK   13  A    between atoms: C16_20  and  C17_21 
REMARK   14  A    between atoms: C17_21  and  C18_22 
REMARK   15  A    between atoms: C18_22  and  C19_23 
REMARK   16  A    between atoms: C19_23  and  O5_24 
REMARK   17  A    between atoms: C21_26  and  C23_28 
REMARK   18  A    between atoms: C26_32  and  O7_34 
REMARK   19  A    between atoms: C28_35  and  C29_36 
REMARK   20  A    between atoms: C29_36  and  C30_37 
ROOT
HETATM    1  C11 UNL     1      -0.845   9.312  13.072  1.00  0.00     0.046 C 
HETATM    2  C12 UNL     1      -1.727   8.433  12.173  1.00  0.00     0.013 C 
HETATM    3  C13 UNL     1      -0.710   7.613  11.392  1.00  0.00     0.017 C 
HETATM    4  C14 UNL     1       0.422   7.251  12.407  1.00  0.00     0.024 C 
HETATM    5  C15 UNL     1       0.155   8.252  13.599  1.00  0.00     0.138 C 
HETATM    6  C16 UNL     1       1.827   7.609  11.740  1.00  0.00     0.029 C 
HETATM    7  C20 UNL     1       2.072   6.696  10.530  1.00  0.00    -0.066 C 
HETATM    8  C21 UNL     1       2.250   7.098   9.245  1.00  0.00    -0.021 C 
HETATM    9  C22 UNL     1       2.459   6.165   8.078  1.00  0.00     0.052 C 
HETATM   10  C24 UNL     1       2.112   5.235  10.943  1.00  0.00     0.038 C 
HETATM   11  C25 UNL     1       0.802   4.816  11.596  1.00  0.00     0.042 C 
HETATM   12  C26 UNL     1       0.351   5.715  12.776  1.00  0.00     0.065 C 
HETATM   13  C27 UNL     1      -1.041   5.192  13.205  1.00  0.00     0.047 C 
ENDROOT
BRANCH   1  14
HETATM   14  C6  UNL     1      -1.610  10.253  14.015  1.00  0.00    -0.050 C 
HETATM   15  C5  UNL     1      -2.716  10.005  14.755  1.00  0.00     0.005 C 
BRANCH  15  16
HETATM   16  C4  UNL     1      -3.444   8.769  14.935  1.00  0.00     0.001 C 
HETATM   17  C3  UNL     1      -4.709   8.587  14.521  1.00  0.00     0.006 C 
BRANCH  17  18
HETATM   18  C2  UNL     1      -5.511   7.378  14.705  1.00  0.00    -0.067 C 
HETATM   19  C1  UNL     1      -4.999   6.188  14.345  1.00  0.00     0.019 C 
BRANCH  18  20
HETATM   20  C28 UNL     1      -6.898   7.453  15.325  1.00  0.00     0.041 C 
BRANCH  20  21
HETATM   21  C29 UNL     1      -7.822   6.272  14.976  1.00  0.00     0.032 C 
BRANCH  21  22
HETATM   22  C30 UNL     1      -8.506   6.433  13.642  1.00  0.00    -0.024 C 
HETATM   23  C31 UNL     1      -8.388   5.654  12.549  1.00  0.00    -0.091 C 
HETATM   24  C32 UNL     1      -9.181   5.958  11.304  1.00  0.00     0.042 C 
HETATM   25  C33 UNL     1      -7.493   4.451  12.430  1.00  0.00     0.042 C 
ENDBRANCH  21  22
ENDBRANCH  20  21
ENDBRANCH  18  20
ENDBRANCH  17  18
ENDBRANCH  15  16
BRANCH  14  26
HETATM   26  C7  UNL     1      -0.961  11.618  14.204  1.00  0.00     0.202 C 
BRANCH  26  27
HETATM   27  O1  UNL     1      -1.902  12.662  13.932  1.00  0.00    -0.384 OA
BRANCH  27  28
HETATM   28  C8  UNL     1      -1.702  13.820  14.754  1.00  0.00     0.201 C 
BRANCH  28  29
HETATM   29  C9  UNL     1      -1.600  15.061  13.854  1.00  0.00     0.165 C 
BRANCH  29  30
HETATM   30  O2  UNL     1      -2.232  14.785  12.595  1.00  0.00    -0.391 OA
HETATM   31  H11 UNL     1      -2.131  13.817  12.474  1.00  0.00     0.210 HD
ENDBRANCH  29  30
BRANCH  29  32
HETATM   32  C10 UNL     1      -0.157  15.516  13.591  1.00  0.00     0.198 C 
BRANCH  32  33
HETATM   33  O3  UNL     1       0.377  14.960  12.392  1.00  0.00    -0.398 OA
HETATM   34  H14 UNL     1      -0.277  15.176  11.700  1.00  0.00     0.209 HD
ENDBRANCH  32  33
ENDBRANCH  29  32
ENDBRANCH  28  29
ENDBRANCH  27  28
ENDBRANCH  26  27
ENDBRANCH  14  26
ENDBRANCH   1  14
BRANCH   5  35
HETATM   35  O4  UNL     1      -0.349   7.598  14.754  1.00  0.00    -0.394 OA
HETATM   36  H21 UNL     1       0.322   6.926  14.993  1.00  0.00     0.210 HD
ENDBRANCH   5  35
BRANCH   6  37
HETATM   37  C17 UNL     1       3.066   7.595  12.689  1.00  0.00     0.012 C 
BRANCH  37  38
HETATM   38  C18 UNL     1       4.391   7.424  11.934  1.00  0.00     0.027 C 
BRANCH  38  39
HETATM   39  C19 UNL     1       5.583   7.481  12.883  1.00  0.00     0.164 C 
BRANCH  39  40
HETATM   40  O5  UNL     1       6.342   6.284  12.778  1.00  0.00    -0.401 OA
HETATM   41  H29 UNL     1       5.747   5.538  12.965  1.00  0.00     0.209 HD
ENDBRANCH  39  40
ENDBRANCH  38  39
ENDBRANCH  37  38
ENDBRANCH   6  37
BRANCH  12  42
HETATM   42  O7  UNL     1       1.233   5.489  13.890  1.00  0.00    -0.389 OA
HETATM   43  H41 UNL     1       1.201   4.540  14.105  1.00  0.00     0.210 HD
ENDBRANCH  12  42
BRANCH   8  44
HETATM   44  C23 UNL     1       2.262   8.545   8.840  1.00  0.00     0.265 C 
HETATM   45  O6  UNL     1       2.765   8.929   7.789  1.00  0.00    -0.302 OA
ENDBRANCH   8  44
TORSDOF 20
ENDMDL
MODEL 2
REMARK minimizedAffinity -6.57829523
REMARK CNNscore 0.3947092
REMARK CNNaffinity 6.37304068
REMARK  20 active torsions:
REMARK  status: ('A' for Active; 'I' for Inactive)
REMARK    1  A    between atoms: C2_2  and  C3_3 
REMARK    2  A    between atoms: C2_2  and  C28_35 
REMARK    3  A    between atoms: C4_4  and  C5_5 
REMARK    4  A    between atoms: C6_6  and  C7_7 
REMARK    5  A    between atoms: C6_6  and  C11_14 
REMARK    6  A    between atoms: C7_7  and  O1_8 
REMARK    7  A    between atoms: O1_8  and  C8_9 
REMARK    8  A    between atoms: C8_9  and  C9_10 
REMARK    9  A    between atoms: C9_10  and  O2_11 
REMARK   10  A    between atoms: C9_10  and  C10_12 
REMARK   11  A    between atoms: C10_12  and  O3_13 
REMARK   12  A    between atoms: C15_18  and  O4_19 
REMARK   13  A    between atoms: C16_20  and  C17_21 
REMARK   14  A    between atoms: C17_21  and  C18_22 
REMARK   15  A    between atoms: C18_22  and  C19_23 
REMARK   16  A    between atoms: C19_23  and  O5_24 
REMARK   17  A    between atoms: C21_26  and  C23_28 
REMARK   18  A    between atoms: C26_32  and  O7_34 
REMARK   19  A    between atoms: C28_35  and  C29_36 
REMARK   20  A    between atoms: C29_36  and  C30_37 
ROOT
HETATM    1  C11 UNL     1      -1.484  11.588  19.043  1.00  0.00     0.046 C 
HETATM    2  C12 UNL     1      -2.584  10.654  18.519  1.00  0.00     0.013 C 
HETATM    3  C13 UNL     1      -3.851  11.476  18.708  1.00  0.00     0.017 C 
HETATM    4  C14 UNL     1      -3.471  12.945  18.331  1.00  0.00     0.024 C 
HETATM    5  C15 UNL     1      -1.892  12.912  18.348  1.00  0.00     0.138 C 
HETATM    6  C16 UNL     1      -3.977  13.909  19.497  1.00  0.00     0.029 C 
HETATM    7  C20 UNL     1      -5.512  13.897  19.546  1.00  0.00    -0.066 C 
HETATM    8  C21 UNL     1      -6.278  13.516  20.602  1.00  0.00    -0.021 C 
HETATM    9  C22 UNL     1      -7.786  13.490  20.600  1.00  0.00     0.052 C 
HETATM   10  C24 UNL     1      -6.108  14.393  18.241  1.00  0.00     0.038 C 
HETATM   11  C25 UNL     1      -5.664  13.523  17.072  1.00  0.00     0.042 C 
HETATM   12  C26 UNL     1      -4.130  13.340  16.949  1.00  0.00     0.065 C 
HETATM   13  C27 UNL     1      -3.910  12.338  15.790  1.00  0.00     0.047 C 
ENDROOT
BRANCH   1  14
HETATM   14  C6  UNL     1      -0.057  11.026  18.956  1.00  0.00    -0.050 C 
HETATM   15  C5  UNL     1       0.556  10.409  17.918  1.00  0.00     0.005 C 
BRANCH  15  16
HETATM   16  C4  UNL     1       0.076  10.175  16.574  1.00  0.00     0.001 C 
HETATM   17  C3  UNL     1      -0.427   9.000  16.161  1.00  0.00     0.006 C 
BRANCH  17  18
HETATM   18  C2  UNL     1      -0.893   8.689  14.810  1.00  0.00    -0.067 C 
HETATM   19  C1  UNL     1      -0.753   9.608  13.839  1.00  0.00     0.019 C 
BRANCH  18  20
HETATM   20  C28 UNL     1      -1.503   7.332  14.492  1.00  0.00     0.041 C 
BRANCH  20  21
HETATM   21  C29 UNL     1      -2.255   7.265  13.152  1.00  0.00     0.032 C 
BRANCH  21  22
HETATM   22  C30 UNL     1      -2.969   5.953  12.941  1.00  0.00    -0.024 C 
HETATM   23  C31 UNL     1      -4.281   5.690  13.088  1.00  0.00    -0.091 C 
HETATM   24  C32 UNL     1      -4.822   4.313  12.802  1.00  0.00     0.042 C 
HETATM   25  C33 UNL     1      -5.322   6.677  13.542  1.00  0.00     0.042 C 
ENDBRANCH  21  22
ENDBRANCH  20  21
ENDBRANCH  18  20
ENDBRANCH  17  18
ENDBRANCH  15  16
BRANCH  14  26
HETATM   26  C7  UNL     1       0.802  11.299  20.184  1.00  0.00     0.202 C 
BRANCH  26  27
HETATM   27  O1  UNL     1       1.175  10.071  20.818  1.00  0.00    -0.384 OA
BRANCH  27  28
HETATM   28  C8  UNL     1       2.588   9.961  21.034  1.00  0.00     0.201 C 
BRANCH  28  29
HETATM   29  C9  UNL     1       2.844   8.956  22.168  1.00  0.00     0.165 C 
BRANCH  29  30
HETATM   30  O2  UNL     1       1.756   8.021  22.225  1.00  0.00    -0.391 OA
HETATM   31  H11 UNL     1       0.982   8.521  21.889  1.00  0.00     0.210 HD
ENDBRANCH  29  30
BRANCH  29  32
HETATM   32  C10 UNL     1       3.005   9.610  23.548  1.00  0.00     0.198 C 
BRANCH  32  33
HETATM   33  O3  UNL     1       2.248   8.945  24.556  1.00  0.00    -0.398 OA
HETATM   34  H14 UNL     1       2.509   8.006  24.489  1.00  0.00     0.209 HD
ENDBRANCH  32  33
ENDBRANCH  29  32
ENDBRANCH  28  29
ENDBRANCH  27  28
ENDBRANCH  26  27
ENDBRANCH  14  26
ENDBRANCH   1  14
BRANCH   5  35
HETATM   35  O4  UNL     1      -1.333  13.004  17.047  1.00  0.00    -0.394 OA
HETATM   36  H21 UNL     1      -1.670  13.843  16.671  1.00  0.00     0.210 HD
ENDBRANCH   5  35
BRANCH   6  37
HETATM   37  C17 UNL     1      -3.449  15.377  19.459  1.00  0.00     0.012 C 
BRANCH  37  38
HETATM   38  C18 UNL     1      -2.577  15.728  20.671  1.00  0.00     0.027 C 
BRANCH  38  39
HETATM   39  C19 UNL     1      -1.335  16.508  20.255  1.00  0.00     0.164 C 
BRANCH  39  40
HETATM   40  O5  UNL     1      -1.173  17.644  21.094  1.00  0.00    -0.401 OA
HETATM   41  H29 UNL     1      -1.987  18.173  21.037  1.00  0.00     0.209 HD
ENDBRANCH  39  40
ENDBRANCH  38  39
ENDBRANCH  37  38
ENDBRANCH   6  37
BRANCH  12  42
HETATM   42  O7  UNL     1      -3.550  14.586  16.526  1.00  0.00    -0.389 OA
HETATM   43  H41 UNL     1      -3.970  14.838  15.683  1.00  0.00     0.210 HD
ENDBRANCH  12  42
BRANCH   8  44
HETATM   44  C23 UNL     1      -5.692  13.073  21.913  1.00  0.00     0.265 C 
HETATM   45  O6  UNL     1      -6.376  12.919  22.919  1.00  0.00    -0.302 OA
ENDBRANCH   8  44
TORSDOF 20
ENDMDL
MODEL 3
REMARK minimizedAffinity -6.92622042
REMARK CNNscore 0.364819914
REMARK CNNaffinity 6.84710312
REMARK  20 active torsions:
REMARK  status: ('A' for Active; 'I' for Inactive)
REMARK    1  A    between atoms: C2_2  and  C3_3 
REMARK    2  A    between atoms: C2_2  and  C28_35 
REMARK    3  A    between atoms: C4_4  and  C5_5 
REMARK    4  A    between atoms: C6_6  and  C7_7 
REMARK    5  A    between atoms: C6_6  and  C11_14 
REMARK    6  A    between atoms: C7_7  and  O1_8 
REMARK    7  A    between atoms: O1_8  and  C8_9 
REMARK    8  A    between atoms: C8_9  and  C9_10 
REMARK    9  A    between atoms: C9_10  and  O2_11 
REMARK   10  A    between atoms: C9_10  and  C10_12 
REMARK   11  A    between atoms: C10_12  and  O3_13 
REMARK   12  A    between atoms: C15_18  and  O4_19 
REMARK   13  A    between atoms: C16_20  and  C17_21 
REMARK   14  A    between atoms: C17_21  and  C18_22 
REMARK   15  A    between atoms: C18_22  and  C19_23 
REMARK   16  A    between atoms: C19_23  and  O5_24 
REMARK   17  A    between atoms: C21_26  and  C23_28 
REMARK   18  A    between atoms: C26_32  and  O7_34 
REMARK   19  A    between atoms: C28_35  and  C29_36 
REMARK   20  A    between atoms: C29_36  and  C30_37 
ROOT
HETATM    1  C11 UNL     1      -0.729   9.346  13.044  1.00  0.00     0.046 C 
HETATM    2  C12 UNL     1      -1.631   8.464  12.168  1.00  0.00     0.013 C 
HETATM    3  C13 UNL     1      -0.632   7.642  11.366  1.00  0.00     0.017 C 
HETATM    4  C14 UNL     1       0.524   7.283  12.356  1.00  0.00     0.024 C 
HETATM    5  C15 UNL     1       0.283   8.288  13.551  1.00  0.00     0.138 C 
HETATM    6  C16 UNL     1       1.912   7.640  11.657  1.00  0.00     0.029 C 
HETATM    7  C20 UNL     1       2.130   6.723  10.444  1.00  0.00    -0.066 C 
HETATM    8  C21 UNL     1       2.278   7.121   9.154  1.00  0.00    -0.021 C 
HETATM    9  C22 UNL     1       2.461   6.184   7.985  1.00  0.00     0.052 C 
HETATM   10  C24 UNL     1       2.180   5.263  10.860  1.00  0.00     0.038 C 
HETATM   11  C25 UNL     1       0.885   4.846  11.545  1.00  0.00     0.042 C 
HETATM   12  C26 UNL     1       0.461   5.749  12.732  1.00  0.00     0.065 C 
HETATM   13  C27 UNL     1      -0.920   5.227  13.194  1.00  0.00     0.047 C 
ENDROOT
BRANCH   1  14
HETATM   14  C6  UNL     1      -1.472  10.290  14.001  1.00  0.00    -0.050 C 
HETATM   15  C5  UNL     1      -2.612  10.073  14.699  1.00  0.00     0.005 C 
BRANCH  15  16
HETATM   16  C4  UNL     1      -3.408   8.871  14.810  1.00  0.00     0.001 C 
HETATM   17  C3  UNL     1      -4.562   8.683  14.148  1.00  0.00     0.006 C 
BRANCH  17  18
HETATM   18  C2  UNL     1      -5.430   7.510  14.244  1.00  0.00    -0.067 C 
HETATM   19  C1  UNL     1      -5.061   6.368  13.640  1.00  0.00     0.019 C 
BRANCH  18  20
HETATM   20  C28 UNL     1      -6.723   7.564  15.044  1.00  0.00     0.041 C 
BRANCH  20  21
HETATM   21  C29 UNL     1      -7.703   6.413  14.758  1.00  0.00     0.032 C 
BRANCH  21  22
HETATM   22  C30 UNL     1      -8.389   6.541  13.422  1.00  0.00    -0.024 C 
HETATM   23  C31 UNL     1      -8.478   5.619  12.443  1.00  0.00    -0.091 C 
HETATM   24  C32 UNL     1      -9.237   5.920  11.177  1.00  0.00     0.042 C 
HETATM   25  C33 UNL     1      -7.860   4.249  12.479  1.00  0.00     0.042 C 
ENDBRANCH  21  22
ENDBRANCH  20  21
ENDBRANCH  18  20
ENDBRANCH  17  18
ENDBRANCH  15  16
BRANCH  14  26
HETATM   26  C7  UNL     1      -0.760  11.610  14.261  1.00  0.00     0.202 C 
BRANCH  26  27
HETATM   27  O1  UNL     1      -0.468  11.757  15.655  1.00  0.00    -0.384 OA
BRANCH  27  28
HETATM   28  C8  UNL     1       0.703  11.034  16.059  1.00  0.00     0.201 C 
BRANCH  28  29
HETATM   29  C9  UNL     1       1.289  11.694  17.316  1.00  0.00     0.165 C 
BRANCH  29  30
HETATM   30  O2  UNL     1       1.716  13.028  16.995  1.00  0.00    -0.391 OA
HETATM   31  H11 UNL     1       1.952  12.990  16.044  1.00  0.00     0.210 HD
ENDBRANCH  29  30
BRANCH  29  32
HETATM   32  C10 UNL     1       2.477  10.930  17.918  1.00  0.00     0.198 C 
BRANCH  32  33
HETATM   33  O3  UNL     1       2.266   9.520  17.930  1.00  0.00    -0.398 OA
HETATM   34  H14 UNL     1       2.026   9.293  17.011  1.00  0.00     0.209 HD
ENDBRANCH  32  33
ENDBRANCH  29  32
ENDBRANCH  28  29
ENDBRANCH  27  28
ENDBRANCH  26  27
ENDBRANCH  14  26
ENDBRANCH   1  14
BRANCH   5  35
HETATM   35  O4  UNL     1      -0.194   7.637  14.719  1.00  0.00    -0.394 OA
HETATM   36  H21 UNL     1       0.483   6.967  14.945  1.00  0.00     0.210 HD
ENDBRANCH   5  35
BRANCH   6  37
HETATM   37  C17 UNL     1       3.173   7.629  12.576  1.00  0.00     0.012 C 
BRANCH  37  38
HETATM   38  C18 UNL     1       4.324   8.478  12.020  1.00  0.00     0.027 C 
BRANCH  38  39
HETATM   39  C19 UNL     1       5.508   7.610  11.611  1.00  0.00     0.164 C 
BRANCH  39  40
HETATM   40  O5  UNL     1       5.409   6.334  12.230  1.00  0.00    -0.401 OA
HETATM   41  H29 UNL     1       5.357   6.474  13.191  1.00  0.00     0.209 HD
ENDBRANCH  39  40
ENDBRANCH  38  39
ENDBRANCH  37  38
ENDBRANCH   6  37
BRANCH  12  42
HETATM   42  O7  UNL     1       1.368   5.527  13.826  1.00  0.00    -0.389 OA
HETATM   43  H41 UNL     1       1.342   4.578  14.045  1.00  0.00     0.210 HD
ENDBRANCH  12  42
BRANCH   8  44
HETATM   44  C23 UNL     1       2.281   8.566   8.744  1.00  0.00     0.265 C 
HETATM   45  O6  UNL     1       2.723   8.942   7.664  1.00  0.00    -0.302 OA
ENDBRANCH   8  44
TORSDOF 20
ENDMDL
MODEL 4
REMARK minimizedAffinity -7.36401892
REMARK CNNscore 0.362331212
REMARK CNNaffinity 6.96667147
REMARK  20 active torsions:
REMARK  status: ('A' for Active; 'I' for Inactive)
REMARK    1  A    between atoms: C2_2  and  C3_3 
REMARK    2  A    between atoms: C2_2  and  C28_35 
REMARK    3  A    between atoms: C4_4  and  C5_5 
REMARK    4  A    between atoms: C6_6  and  C7_7 
REMARK    5  A    between atoms: C6_6  and  C11_14 
REMARK    6  A    between atoms: C7_7  and  O1_8 
REMARK    7  A    between atoms: O1_8  and  C8_9 
REMARK    8  A    between atoms: C8_9  and  C9_10 
REMARK    9  A    between atoms: C9_10  and  O2_11 
REMARK   10  A    between atoms: C9_10  and  C10_12 
REMARK   11  A    between atoms: C10_12  and  O3_13 
REMARK   12  A    between atoms: C15_18  and  O4_19 
REMARK   13  A    between atoms: C16_20  and  C17_21 
REMARK   14  A    between atoms: C17_21  and  C18_22 
REMARK   15  A    between atoms: C18_22  and  C19_23 
REMARK   16  A    between atoms: C19_23  and  O5_24 
REMARK   17  A    between atoms: C21_26  and  C23_28 
REMARK   18  A    between atoms: C26_32  and  O7_34 
REMARK   19  A    between atoms: C28_35  and  C29_36 
REMARK   20  A    between atoms: C29_36  and  C30_37 
ROOT
HETATM    1  C11 UNL     1      -3.813   6.779  13.708  1.00  0.00     0.046 C 
HETATM    2  C12 UNL     1      -4.095   8.140  13.055  1.00  0.00     0.013 C 
HETATM    3  C13 UNL     1      -3.121   9.069  13.765  1.00  0.00     0.017 C 
HETATM    4  C14 UNL     1      -1.797   8.255  13.937  1.00  0.00     0.024 C 
HETATM    5  C15 UNL     1      -2.264   6.770  13.671  1.00  0.00     0.138 C 
HETATM    6  C16 UNL     1      -1.325   8.380  15.456  1.00  0.00     0.029 C 
HETATM    7  C20 UNL     1      -0.937   9.836  15.758  1.00  0.00    -0.066 C 
HETATM    8  C21 UNL     1      -1.508  10.640  16.692  1.00  0.00    -0.021 C 
HETATM    9  C22 UNL     1      -1.118  12.077  16.938  1.00  0.00     0.052 C 
HETATM   10  C24 UNL     1       0.209  10.294  14.875  1.00  0.00     0.038 C 
HETATM   11  C25 UNL     1      -0.163  10.198  13.402  1.00  0.00     0.042 C 
HETATM   12  C26 UNL     1      -0.687   8.808  12.957  1.00  0.00     0.065 C 
HETATM   13  C27 UNL     1      -1.116   8.966  11.478  1.00  0.00     0.047 C 
ENDROOT
BRANCH   1  14
HETATM   14  C6  UNL     1      -4.650   5.611  13.166  1.00  0.00    -0.050 C 
HETATM   15  C5  UNL     1      -5.982   5.393  13.270  1.00  0.00     0.005 C 
BRANCH  15  16
HETATM   16  C4  UNL     1      -7.008   6.233  13.848  1.00  0.00     0.001 C 
HETATM   17  C3  UNL     1      -8.318   5.944  13.796  1.00  0.00     0.006 C 
BRANCH  17  18
HETATM   18  C2  UNL     1      -9.404   6.767  14.327  1.00  0.00    -0.067 C 
HETATM   19  C1  UNL     1      -9.334   7.212  15.593  1.00  0.00     0.019 C 
BRANCH  18  20
HETATM   20  C28 UNL     1     -10.589   7.148  13.452  1.00  0.00     0.041 C 
BRANCH  20  21
HETATM   21  C29 UNL     1     -11.966   6.867  14.078  1.00  0.00     0.032 C 
BRANCH  21  22
HETATM   22  C30 UNL     1     -13.110   7.142  13.135  1.00  0.00    -0.024 C 
HETATM   23  C31 UNL     1     -14.385   6.715  13.230  1.00  0.00    -0.091 C 
HETATM   24  C32 UNL     1     -15.405   7.120  12.197  1.00  0.00     0.042 C 
HETATM   25  C33 UNL     1     -14.926   5.822  14.312  1.00  0.00     0.042 C 
ENDBRANCH  21  22
ENDBRANCH  20  21
ENDBRANCH  18  20
ENDBRANCH  17  18
ENDBRANCH  15  16
BRANCH  14  26
HETATM   26  C7  UNL     1      -3.868   4.622  12.311  1.00  0.00     0.202 C 
BRANCH  26  27
HETATM   27  O1  UNL     1      -4.275   3.279  12.598  1.00  0.00    -0.384 OA
BRANCH  27  28
HETATM   28  C8  UNL     1      -4.642   2.545  11.421  1.00  0.00     0.201 C 
BRANCH  28  29
HETATM   29  C9  UNL     1      -5.882   1.692  11.731  1.00  0.00     0.165 C 
BRANCH  29  30
HETATM   30  O2  UNL     1      -6.333   1.059  10.524  1.00  0.00    -0.391 OA
HETATM   31  H11 UNL     1      -6.059   1.669   9.807  1.00  0.00     0.210 HD
ENDBRANCH  29  30
BRANCH  29  32
HETATM   32  C10 UNL     1      -7.047   2.492  12.332  1.00  0.00     0.198 C 
BRANCH  32  33
HETATM   33  O3  UNL     1      -8.183   1.675  12.605  1.00  0.00    -0.398 OA
HETATM   34  H14 UNL     1      -7.840   0.938  13.145  1.00  0.00     0.209 HD
ENDBRANCH  32  33
ENDBRANCH  29  32
ENDBRANCH  28  29
ENDBRANCH  27  28
ENDBRANCH  26  27
ENDBRANCH  14  26
ENDBRANCH   1  14
BRANCH   5  35
HETATM   35  O4  UNL     1      -1.781   6.263  12.436  1.00  0.00    -0.394 OA
HETATM   36  H21 UNL     1      -0.806   6.329  12.484  1.00  0.00     0.210 HD
ENDBRANCH   5  35
BRANCH   6  37
HETATM   37  C17 UNL     1      -0.187   7.413  15.909  1.00  0.00     0.012 C 
BRANCH  37  38
HETATM   38  C18 UNL     1       1.010   7.412  14.949  1.00  0.00     0.027 C 
BRANCH  38  39
HETATM   39  C19 UNL     1       2.323   7.614  15.699  1.00  0.00     0.164 C 
BRANCH  39  40
HETATM   40  O5  UNL     1       2.235   7.033  16.993  1.00  0.00    -0.401 OA
HETATM   41  H29 UNL     1       1.475   7.436  17.447  1.00  0.00     0.209 HD
ENDBRANCH  39  40
ENDBRANCH  38  39
ENDBRANCH  37  38
ENDBRANCH   6  37
BRANCH  12  42
HETATM   42  O7  UNL     1       0.410   7.878  12.966  1.00  0.00    -0.389 OA
HETATM   43  H41 UNL     1       1.101   8.228  12.375  1.00  0.00     0.210 HD
ENDBRANCH  12  42
BRANCH   8  44
HETATM   44  C23 UNL     1      -2.609  10.175  17.603  1.00  0.00     0.265 C 
HETATM   45  O6  UNL     1      -2.392   9.751  18.733  1.00  0.00    -0.302 OA
ENDBRANCH   8  44
TORSDOF 20
ENDMDL
MODEL 5
REMARK minimizedAffinity -6.47937155
REMARK CNNscore 0.329373598
REMARK CNNaffinity 6.67184496
REMARK  20 active torsions:
REMARK  status: ('A' for Active; 'I' for Inactive)
REMARK    1  A    between atoms: C2_2  and  C3_3 
REMARK    2  A    between atoms: C2_2  and  C28_35 
REMARK    3  A    between atoms: C4_4  and  C5_5 
REMARK    4  A    between atoms: C6_6  and  C7_7 
REMARK    5  A    between atoms: C6_6  and  C11_14 
REMARK    6  A    between atoms: C7_7  and  O1_8 
REMARK    7  A    between atoms: O1_8  and  C8_9 
REMARK    8  A    between atoms: C8_9  and  C9_10 
REMARK    9  A    between atoms: C9_10  and  O2_11 
REMARK   10  A    between atoms: C9_10  and  C10_12 
REMARK   11  A    between atoms: C10_12  and  O3_13 
REMARK   12  A    between atoms: C15_18  and  O4_19 
REMARK   13  A    between atoms: C16_20  and  C17_21 
REMARK   14  A    between atoms: C17_21  and  C18_22 
REMARK   15  A    between atoms: C18_22  and  C19_23 
REMARK   16  A    between atoms: C19_23  and  O5_24 
REMARK   17  A    between atoms: C21_26  and  C23_28 
REMARK   18  A    between atoms: C26_32  and  O7_34 
REMARK   19  A    between atoms: C28_35  and  C29_36 
REMARK   20  A    between atoms: C29_36  and  C30_37 
ROOT
HETATM    1  C11 UNL     1     -12.577   7.997  14.321  1.00  0.00     0.046 C 
HETATM    2  C12 UNL     1     -12.801   7.593  12.856  1.00  0.00     0.013 C 
HETATM    3  C13 UNL     1     -14.135   6.862  12.901  1.00  0.00     0.017 C 
HETATM    4  C14 UNL     1     -15.029   7.661  13.905  1.00  0.00     0.024 C 
HETATM    5  C15 UNL     1     -13.979   8.559  14.669  1.00  0.00     0.138 C 
HETATM    6  C16 UNL     1     -15.668   6.627  14.939  1.00  0.00     0.029 C 
HETATM    7  C20 UNL     1     -16.639   5.692  14.201  1.00  0.00    -0.066 C 
HETATM    8  C21 UNL     1     -16.542   4.340  14.118  1.00  0.00    -0.021 C 
HETATM    9  C22 UNL     1     -17.501   3.458  13.357  1.00  0.00     0.052 C 
HETATM   10  C24 UNL     1     -17.773   6.471  13.561  1.00  0.00     0.038 C 
HETATM   11  C25 UNL     1     -17.241   7.489  12.561  1.00  0.00     0.042 C 
HETATM   12  C26 UNL     1     -16.158   8.445  13.125  1.00  0.00     0.065 C 
HETATM   13  C27 UNL     1     -15.676   9.299  11.927  1.00  0.00     0.047 C 
ENDROOT
BRANCH   1  14
HETATM   14  C6  UNL     1     -11.290   8.789  14.588  1.00  0.00    -0.050 C 
HETATM   15  C5  UNL     1     -10.043   8.330  14.849  1.00  0.00     0.005 C 
BRANCH  15  16
HETATM   16  C4  UNL     1      -9.549   6.971  14.869  1.00  0.00     0.001 C 
HETATM   17  C3  UNL     1      -8.465   6.566  14.188  1.00  0.00     0.006 C 
BRANCH  17  18
HETATM   18  C2  UNL     1      -7.938   5.203  14.137  1.00  0.00    -0.067 C 
HETATM   19  C1  UNL     1      -7.432   4.651  15.254  1.00  0.00     0.019 C 
BRANCH  18  20
HETATM   20  C28 UNL     1      -7.987   4.399  12.847  1.00  0.00     0.041 C 
BRANCH  20  21
HETATM   21  C29 UNL     1      -7.182   3.087  12.876  1.00  0.00     0.032 C 
BRANCH  21  22
HETATM   22  C30 UNL     1      -6.068   3.056  11.860  1.00  0.00    -0.024 C 
HETATM   23  C31 UNL     1      -4.866   3.659  11.928  1.00  0.00    -0.091 C 
HETATM   24  C32 UNL     1      -3.861   3.488  10.818  1.00  0.00     0.042 C 
HETATM   25  C33 UNL     1      -4.397   4.542  13.052  1.00  0.00     0.042 C 
ENDBRANCH  21  22
ENDBRANCH  20  21
ENDBRANCH  18  20
ENDBRANCH  17  18
ENDBRANCH  15  16
BRANCH  14  26
HETATM   26  C7  UNL     1     -11.437  10.298  14.439  1.00  0.00     0.202 C 
BRANCH  26  27
HETATM   27  O1  UNL     1     -10.908  10.970  15.587  1.00  0.00    -0.384 OA
BRANCH  27  28
HETATM   28  C8  UNL     1      -9.652  11.612  15.327  1.00  0.00     0.201 C 
BRANCH  28  29
HETATM   29  C9  UNL     1      -9.891  13.117  15.132  1.00  0.00     0.165 C 
BRANCH  29  30
HETATM   30  O2  UNL     1      -9.791  13.434  13.735  1.00  0.00    -0.391 OA
HETATM   31  H11 UNL     1      -9.169  12.767  13.373  1.00  0.00     0.210 HD
ENDBRANCH  29  30
BRANCH  29  32
HETATM   32  C10 UNL     1      -8.909  14.005  15.910  1.00  0.00     0.198 C 
BRANCH  32  33
HETATM   33  O3  UNL     1      -7.548  13.697  15.615  1.00  0.00    -0.398 OA
HETATM   34  H14 UNL     1      -7.487  13.734  14.641  1.00  0.00     0.209 HD
ENDBRANCH  32  33
ENDBRANCH  29  32
ENDBRANCH  28  29
ENDBRANCH  27  28
ENDBRANCH  26  27
ENDBRANCH  14  26
ENDBRANCH   1  14
BRANCH   5  35
HETATM   35  O4  UNL     1     -14.084   9.932  14.321  1.00  0.00    -0.394 OA
HETATM   36  H21 UNL     1     -15.003  10.191  14.537  1.00  0.00     0.210 HD
ENDBRANCH   5  35
BRANCH   6  37
HETATM   37  C17 UNL     1     -16.361   7.243  16.195  1.00  0.00     0.012 C 
BRANCH  37  38
HETATM   38  C18 UNL     1     -16.391   6.280  17.390  1.00  0.00     0.027 C 
BRANCH  38  39
HETATM   39  C19 UNL     1     -15.760   6.911  18.626  1.00  0.00     0.164 C 
BRANCH  39  40
HETATM   40  O5  UNL     1     -14.446   7.358  18.323  1.00  0.00    -0.401 OA
HETATM   41  H29 UNL     1     -13.942   6.596  17.990  1.00  0.00     0.209 HD
ENDBRANCH  39  40
ENDBRANCH  38  39
ENDBRANCH  37  38
ENDBRANCH   6  37
BRANCH  12  42
HETATM   42  O7  UNL     1     -16.783   9.353  14.048  1.00  0.00    -0.389 OA
HETATM   43  H41 UNL     1     -17.490   9.823  13.571  1.00  0.00     0.210 HD
ENDBRANCH  12  42
BRANCH   8  44
HETATM   44  C23 UNL     1     -15.449   3.559  14.793  1.00  0.00     0.265 C 
HETATM   45  O6  UNL     1     -15.677   2.576  15.489  1.00  0.00    -0.302 OA
ENDBRANCH   8  44
TORSDOF 20
ENDMDL
MODEL 6
REMARK minimizedAffinity -7.72501659
REMARK CNNscore 0.327271581
REMARK CNNaffinity 6.9073658
REMARK  20 active torsions:
REMARK  status: ('A' for Active; 'I' for Inactive)
REMARK    1  A    between atoms: C2_2  and  C3_3 
REMARK    2  A    between atoms: C2_2  and  C28_35 
REMARK    3  A    between atoms: C4_4  and  C5_5 
REMARK    4  A    between atoms: C6_6  and  C7_7 
REMARK    5  A    between atoms: C6_6  and  C11_14 
REMARK    6  A    between atoms: C7_7  and  O1_8 
REMARK    7  A    between atoms: O1_8  and  C8_9 
REMARK    8  A    between atoms: C8_9  and  C9_10 
REMARK    9  A    between atoms: C9_10  and  O2_11 
REMARK   10  A    between atoms: C9_10  and  C10_12 
REMARK   11  A    between atoms: C10_12  and  O3_13 
REMARK   12  A    between atoms: C15_18  and  O4_19 
REMARK   13  A    between atoms: C16_20  and  C17_21 
REMARK   14  A    between atoms: C17_21  and  C18_22 
REMARK   15  A    between atoms: C18_22  and  C19_23 
REMARK   16  A    between atoms: C19_23  and  O5_24 
REMARK   17  A    between atoms: C21_26  and  C23_28 
REMARK   18  A    between atoms: C26_32  and  O7_34 
REMARK   19  A    between atoms: C28_35  and  C29_36 
REMARK   20  A    between atoms: C29_36  and  C30_37 
ROOT
HETATM    1  C11 UNL     1      -3.130   8.834  14.150  1.00  0.00     0.046 C 
HETATM    2  C12 UNL     1      -3.683   7.825  13.133  1.00  0.00     0.013 C 
HETATM    3  C13 UNL     1      -2.426   7.169  12.581  1.00  0.00     0.017 C 
HETATM    4  C14 UNL     1      -1.463   6.991  13.801  1.00  0.00     0.024 C 
HETATM    5  C15 UNL     1      -2.099   7.944  14.888  1.00  0.00     0.138 C 
HETATM    6  C16 UNL     1      -0.029   7.561  13.394  1.00  0.00     0.029 C 
HETATM    7  C20 UNL     1       0.576   6.691  12.282  1.00  0.00    -0.066 C 
HETATM    8  C21 UNL     1       0.929   7.110  11.040  1.00  0.00    -0.021 C 
HETATM    9  C22 UNL     1       1.494   6.216   9.963  1.00  0.00     0.052 C 
HETATM   10  C24 UNL     1       0.758   5.256  12.744  1.00  0.00     0.038 C 
HETATM   11  C25 UNL     1      -0.572   4.641  13.157  1.00  0.00     0.042 C 
HETATM   12  C26 UNL     1      -1.369   5.465  14.202  1.00  0.00     0.065 C 
HETATM   13  C27 UNL     1      -2.721   4.734  14.383  1.00  0.00     0.047 C 
ENDROOT
BRANCH   1  14
HETATM   14  C6  UNL     1      -4.193   9.649  14.902  1.00  0.00    -0.050 C 
HETATM   15  C5  UNL     1      -5.374   9.238  15.422  1.00  0.00     0.005 C 
BRANCH  15  16
HETATM   16  C4  UNL     1      -5.935   7.907  15.490  1.00  0.00     0.001 C 
HETATM   17  C3  UNL     1      -6.810   7.425  14.593  1.00  0.00     0.006 C 
BRANCH  17  18
HETATM   18  C2  UNL     1      -7.440   6.106  14.627  1.00  0.00    -0.067 C 
HETATM   19  C1  UNL     1      -7.692   5.528  15.814  1.00  0.00     0.019 C 
BRANCH  18  20
HETATM   20  C28 UNL     1      -7.838   5.402  13.338  1.00  0.00     0.041 C 
BRANCH  20  21
HETATM   21  C29 UNL     1      -7.167   4.034  13.120  1.00  0.00     0.032 C 
BRANCH  21  22
HETATM   22  C30 UNL     1      -5.815   4.139  12.462  1.00  0.00    -0.024 C 
HETATM   23  C31 UNL     1      -5.207   3.238  11.666  1.00  0.00    -0.091 C 
HETATM   24  C32 UNL     1      -3.855   3.533  11.070  1.00  0.00     0.042 C 
HETATM   25  C33 UNL     1      -5.762   1.891  11.294  1.00  0.00     0.042 C 
ENDBRANCH  21  22
ENDBRANCH  20  21
ENDBRANCH  18  20
ENDBRANCH  17  18
ENDBRANCH  15  16
BRANCH  14  26
HETATM   26  C7  UNL     1      -3.799  11.094  15.176  1.00  0.00     0.202 C 
BRANCH  26  27
HETATM   27  O1  UNL     1      -3.992  11.413  16.558  1.00  0.00    -0.384 OA
BRANCH  27  28
HETATM   28  C8  UNL     1      -2.970  12.275  17.079  1.00  0.00     0.201 C 
BRANCH  28  29
HETATM   29  C9  UNL     1      -2.297  11.586  18.276  1.00  0.00     0.165 C 
BRANCH  29  30
HETATM   30  O2  UNL     1      -0.992  11.130  17.885  1.00  0.00    -0.391 OA
HETATM   31  H11 UNL     1      -1.068  10.955  16.924  1.00  0.00     0.210 HD
ENDBRANCH  29  30
BRANCH  29  32
HETATM   32  C10 UNL     1      -3.091  10.393  18.828  1.00  0.00     0.198 C 
BRANCH  32  33
HETATM   33  O3  UNL     1      -2.869   9.200  18.080  1.00  0.00    -0.398 OA
HETATM   34  H14 UNL     1      -1.898   9.098  18.051  1.00  0.00     0.209 HD
ENDBRANCH  32  33
ENDBRANCH  29  32
ENDBRANCH  28  29
ENDBRANCH  27  28
ENDBRANCH  26  27
ENDBRANCH  14  26
ENDBRANCH   1  14
BRANCH   5  35
HETATM   35  O4  UNL     1      -2.706   7.225  15.951  1.00  0.00    -0.394 OA
HETATM   36  H21 UNL     1      -1.998   6.667  16.333  1.00  0.00     0.210 HD
ENDBRANCH   5  35
BRANCH   6  37
HETATM   37  C17 UNL     1       0.997   7.743  14.556  1.00  0.00     0.012 C 
BRANCH  37  38
HETATM   38  C18 UNL     1       2.395   8.136  14.059  1.00  0.00     0.027 C 
BRANCH  38  39
HETATM   39  C19 UNL     1       3.462   7.831  15.105  1.00  0.00     0.164 C 
BRANCH  39  40
HETATM   40  O5  UNL     1       3.166   6.603  15.755  1.00  0.00    -0.401 OA
HETATM   41  H29 UNL     1       2.274   6.677  16.136  1.00  0.00     0.209 HD
ENDBRANCH  39  40
ENDBRANCH  38  39
ENDBRANCH  37  38
ENDBRANCH   6  37
BRANCH  12  42
HETATM   42  O7  UNL     1      -0.689   5.384  15.467  1.00  0.00    -0.389 OA
HETATM   43  H41 UNL     1      -0.615   4.442  15.704  1.00  0.00     0.210 HD
ENDBRANCH  12  42
BRANCH   8  44
HETATM   44  C23 UNL     1       0.798   8.539  10.595  1.00  0.00     0.265 C 
HETATM   45  O6  UNL     1       0.289   8.850   9.523  1.00  0.00    -0.302 OA
ENDBRANCH   8  44
TORSDOF 20
ENDMDL
MODEL 7
REMARK minimizedAffinity -7.30226755
REMARK CNNscore 0.319602907
REMARK CNNaffinity 7.01858187
REMARK  20 active torsions:
REMARK  status: ('A' for Active; 'I' for Inactive)
REMARK    1  A    between atoms: C2_2  and  C3_3 
REMARK    2  A    between atoms: C2_2  and  C28_35 
REMARK    3  A    between atoms: C4_4  and  C5_5 
REMARK    4  A    between atoms: C6_6  and  C7_7 
REMARK    5  A    between atoms: C6_6  and  C11_14 
REMARK    6  A    between atoms: C7_7  and  O1_8 
REMARK    7  A    between atoms: O1_8  and  C8_9 
REMARK    8  A    between atoms: C8_9  and  C9_10 
REMARK    9  A    between atoms: C9_10  and  O2_11 
REMARK   10  A    between atoms: C9_10  and  C10_12 
REMARK   11  A    between atoms: C10_12  and  O3_13 
REMARK   12  A    between atoms: C15_18  and  O4_19 
REMARK   13  A    between atoms: C16_20  and  C17_21 
REMARK   14  A    between atoms: C17_21  and  C18_22 
REMARK   15  A    between atoms: C18_22  and  C19_23 
REMARK   16  A    between atoms: C19_23  and  O5_24 
REMARK   17  A    between atoms: C21_26  and  C23_28 
REMARK   18  A    between atoms: C26_32  and  O7_34 
REMARK   19  A    between atoms: C28_35  and  C29_36 
REMARK   20  A    between atoms: C29_36  and  C30_37 
ROOT
HETATM    1  C11 UNL     1      -3.109   8.184  14.601  1.00  0.00     0.046 C 
HETATM    2  C12 UNL     1      -2.305   7.241  15.508  1.00  0.00     0.013 C 
HETATM    3  C13 UNL     1      -1.173   6.777  14.603  1.00  0.00     0.017 C 
HETATM    4  C14 UNL     1      -0.746   8.030  13.770  1.00  0.00     0.024 C 
HETATM    5  C15 UNL     1      -1.960   9.019  13.982  1.00  0.00     0.138 C 
HETATM    6  C16 UNL     1      -0.686   7.613  12.232  1.00  0.00     0.029 C 
HETATM    7  C20 UNL     1       0.442   6.592  12.017  1.00  0.00    -0.066 C 
HETATM    8  C21 UNL     1       0.299   5.328  11.542  1.00  0.00    -0.021 C 
HETATM    9  C22 UNL     1       1.430   4.344  11.374  1.00  0.00     0.052 C 
HETATM   10  C24 UNL     1       1.791   7.176  12.395  1.00  0.00     0.038 C 
HETATM   11  C25 UNL     1       1.812   7.607  13.855  1.00  0.00     0.042 C 
HETATM   12  C26 UNL     1       0.659   8.560  14.264  1.00  0.00     0.065 C 
HETATM   13  C27 UNL     1       0.798   8.768  15.792  1.00  0.00     0.047 C 
ENDROOT
BRANCH   1  14
HETATM   14  C6  UNL     1      -4.330   8.839  15.263  1.00  0.00    -0.050 C 
HETATM   15  C5  UNL     1      -5.641   8.521  15.143  1.00  0.00     0.005 C 
BRANCH  15  16
HETATM   16  C4  UNL     1      -6.259   7.427  14.427  1.00  0.00     0.001 C 
HETATM   17  C3  UNL     1      -7.460   6.917  14.746  1.00  0.00     0.006 C 
BRANCH  17  18
HETATM   18  C2  UNL     1      -8.121   5.791  14.087  1.00  0.00    -0.067 C 
HETATM   19  C1  UNL     1      -9.150   6.028  13.256  1.00  0.00     0.019 C 
BRANCH  18  20
HETATM   20  C28 UNL     1      -7.636   4.367  14.311  1.00  0.00     0.041 C 
BRANCH  20  21
HETATM   21  C29 UNL     1      -7.626   3.486  13.049  1.00  0.00     0.032 C 
BRANCH  21  22
HETATM   22  C30 UNL     1      -6.410   3.707  12.186  1.00  0.00    -0.024 C 
HETATM   23  C31 UNL     1      -5.760   2.808  11.422  1.00  0.00    -0.091 C 
HETATM   24  C32 UNL     1      -4.570   3.223  10.596  1.00  0.00     0.042 C 
HETATM   25  C33 UNL     1      -6.110   1.350  11.305  1.00  0.00     0.042 C 
ENDBRANCH  21  22
ENDBRANCH  20  21
ENDBRANCH  18  20
ENDBRANCH  17  18
ENDBRANCH  15  16
BRANCH  14  26
HETATM   26  C7  UNL     1      -3.990   9.935  16.264  1.00  0.00     0.202 C 
BRANCH  26  27
HETATM   27  O1  UNL     1      -4.267  11.226  15.710  1.00  0.00    -0.384 OA
BRANCH  27  28
HETATM   28  C8  UNL     1      -3.626  12.290  16.427  1.00  0.00     0.201 C 
BRANCH  28  29
HETATM   29  C9  UNL     1      -4.546  12.748  17.569  1.00  0.00     0.165 C 
BRANCH  29  30
HETATM   30  O2  UNL     1      -4.882  14.131  17.379  1.00  0.00    -0.391 OA
HETATM   31  H11 UNL     1      -4.116  14.509  16.897  1.00  0.00     0.210 HD
ENDBRANCH  29  30
BRANCH  29  32
HETATM   32  C10 UNL     1      -3.927  12.579  18.964  1.00  0.00     0.198 C 
BRANCH  32  33
HETATM   33  O3  UNL     1      -2.656  11.935  18.921  1.00  0.00    -0.398 OA
HETATM   34  H14 UNL     1      -2.134  12.449  18.276  1.00  0.00     0.209 HD
ENDBRANCH  32  33
ENDBRANCH  29  32
ENDBRANCH  28  29
ENDBRANCH  27  28
ENDBRANCH  26  27
ENDBRANCH  14  26
ENDBRANCH   1  14
BRANCH   5  35
HETATM   35  O4  UNL     1      -1.623  10.123  14.808  1.00  0.00    -0.394 OA
HETATM   36  H21 UNL     1      -0.871  10.567  14.365  1.00  0.00     0.210 HD
ENDBRANCH   5  35
BRANCH   6  37
HETATM   37  C17 UNL     1      -0.561   8.780  11.203  1.00  0.00     0.012 C 
BRANCH  37  38
HETATM   38  C18 UNL     1       0.267   8.399   9.968  1.00  0.00     0.027 C 
BRANCH  38  39
HETATM   39  C19 UNL     1      -0.531   8.591   8.683  1.00  0.00     0.164 C 
BRANCH  39  40
HETATM   40  O5  UNL     1       0.225   8.131   7.572  1.00  0.00    -0.401 OA
HETATM   41  H29 UNL     1       1.070   8.614   7.567  1.00  0.00     0.209 HD
ENDBRANCH  39  40
ENDBRANCH  38  39
ENDBRANCH  37  38
ENDBRANCH   6  37
BRANCH  12  42
HETATM   42  O7  UNL     1       0.884   9.843  13.656  1.00  0.00    -0.389 OA
HETATM   43  H41 UNL     1       1.758  10.160  13.947  1.00  0.00     0.210 HD
ENDBRANCH  12  42
BRANCH   8  44
HETATM   44  C23 UNL     1      -1.028   4.762  11.120  1.00  0.00     0.265 C 
HETATM   45  O6  UNL     1      -1.163   3.595  10.768  1.00  0.00    -0.302 OA
ENDBRANCH   8  44
TORSDOF 20
ENDMDL
MODEL 8
REMARK minimizedAffinity -6.47064161
REMARK CNNscore 0.300469726
REMARK CNNaffinity 6.29569006
REMARK  20 active torsions:
REMARK  status: ('A' for Active; 'I' for Inactive)
REMARK    1  A    between atoms: C2_2  and  C3_3 
REMARK    2  A    between atoms: C2_2  and  C28_35 
REMARK    3  A    between atoms: C4_4  and  C5_5 
REMARK    4  A    between atoms: C6_6  and  C7_7 
REMARK    5  A    between atoms: C6_6  and  C11_14 
REMARK    6  A    between atoms: C7_7  and  O1_8 
REMARK    7  A    between atoms: O1_8  and  C8_9 
REMARK    8  A    between atoms: C8_9  and  C9_10 
REMARK    9  A    between atoms: C9_10  and  O2_11 
REMARK   10  A    between atoms: C9_10  and  C10_12 
REMARK   11  A    between atoms: C10_12  and  O3_13 
REMARK   12  A    between atoms: C15_18  and  O4_19 
REMARK   13  A    between atoms: C16_20  and  C17_21 
REMARK   14  A    between atoms: C17_21  and  C18_22 
REMARK   15  A    between atoms: C18_22  and  C19_23 
REMARK   16  A    between atoms: C19_23  and  O5_24 
REMARK   17  A    between atoms: C21_26  and  C23_28 
REMARK   18  A    between atoms: C26_32  and  O7_34 
REMARK   19  A    between atoms: C28_35  and  C29_36 
REMARK   20  A    between atoms: C29_36  and  C30_37 
ROOT
HETATM    1  C11 UNL     1      -2.964   9.982  14.791  1.00  0.00     0.046 C 
HETATM    2  C12 UNL     1      -1.834  10.424  13.849  1.00  0.00     0.013 C 
HETATM    3  C13 UNL     1      -1.121  11.504  14.650  1.00  0.00     0.017 C 
HETATM    4  C14 UNL     1      -1.100  10.998  16.130  1.00  0.00     0.024 C 
HETATM    5  C15 UNL     1      -2.176   9.843  16.118  1.00  0.00     0.138 C 
HETATM    6  C16 UNL     1      -1.621  12.177  17.070  1.00  0.00     0.029 C 
HETATM    7  C20 UNL     1      -0.624  13.344  17.036  1.00  0.00    -0.066 C 
HETATM    8  C21 UNL     1      -0.888  14.613  16.629  1.00  0.00    -0.021 C 
HETATM    9  C22 UNL     1       0.130  15.726  16.582  1.00  0.00     0.052 C 
HETATM   10  C24 UNL     1       0.742  12.915  17.541  1.00  0.00     0.038 C 
HETATM   11  C25 UNL     1       1.308  11.783  16.694  1.00  0.00     0.042 C 
HETATM   12  C26 UNL     1       0.365  10.562  16.535  1.00  0.00     0.065 C 
HETATM   13  C27 UNL     1       1.074   9.600  15.552  1.00  0.00     0.047 C 
ENDROOT
BRANCH   1  14
HETATM   14  C6  UNL     1      -3.860   8.859  14.251  1.00  0.00    -0.050 C 
HETATM   15  C5  UNL     1      -3.587   7.929  13.305  1.00  0.00     0.005 C 
BRANCH  15  16
HETATM   16  C4  UNL     1      -2.354   7.676  12.593  1.00  0.00     0.001 C 
HETATM   17  C3  UNL     1      -1.383   6.871  13.056  1.00  0.00     0.006 C 
BRANCH  17  18
HETATM   18  C2  UNL     1      -0.102   6.604  12.404  1.00  0.00    -0.067 C 
HETATM   19  C1  UNL     1       0.970   6.307  13.159  1.00  0.00     0.019 C 
BRANCH  18  20
HETATM   20  C28 UNL     1       0.019   6.629  10.888  1.00  0.00     0.041 C 
BRANCH  20  21
HETATM   21  C29 UNL     1       0.630   7.920  10.314  1.00  0.00     0.032 C 
BRANCH  21  22
HETATM   22  C30 UNL     1       0.836   7.861   8.821  1.00  0.00    -0.024 C 
HETATM   23  C31 UNL     1       1.829   7.255   8.144  1.00  0.00    -0.091 C 
HETATM   24  C32 UNL     1       1.854   7.278   6.637  1.00  0.00     0.042 C 
HETATM   25  C33 UNL     1       2.987   6.523   8.765  1.00  0.00     0.042 C 
ENDBRANCH  21  22
ENDBRANCH  20  21
ENDBRANCH  18  20
ENDBRANCH  17  18
ENDBRANCH  15  16
BRANCH  14  26
HETATM   26  C7  UNL     1      -5.201   8.728  14.960  1.00  0.00     0.202 C 
BRANCH  26  27
HETATM   27  O1  UNL     1      -6.156   8.080  14.113  1.00  0.00    -0.384 OA
BRANCH  27  28
HETATM   28  C8  UNL     1      -7.386   7.779  14.787  1.00  0.00     0.201 C 
BRANCH  28  29
HETATM   29  C9  UNL     1      -7.655   6.270  14.685  1.00  0.00     0.165 C 
BRANCH  29  30
HETATM   30  O2  UNL     1      -9.017   6.059  14.280  1.00  0.00    -0.391 OA
HETATM   31  H11 UNL     1      -9.501   6.839  14.624  1.00  0.00     0.210 HD
ENDBRANCH  29  30
BRANCH  29  32
HETATM   32  C10 UNL     1      -7.408   5.509  15.996  1.00  0.00     0.198 C 
BRANCH  32  33
HETATM   33  O3  UNL     1      -7.942   4.188  15.966  1.00  0.00    -0.398 OA
HETATM   34  H14 UNL     1      -7.574   3.785  15.157  1.00  0.00     0.209 HD
ENDBRANCH  32  33
ENDBRANCH  29  32
ENDBRANCH  28  29
ENDBRANCH  27  28
ENDBRANCH  26  27
ENDBRANCH  14  26
ENDBRANCH   1  14
BRANCH   5  35
HETATM   35  O4  UNL     1      -1.591   8.555  16.237  1.00  0.00    -0.394 OA
HETATM   36  H21 UNL     1      -1.087   8.568  17.077  1.00  0.00     0.210 HD
ENDBRANCH   5  35
BRANCH   6  37
HETATM   37  C17 UNL     1      -1.950  11.790  18.546  1.00  0.00     0.012 C 
BRANCH  37  38
HETATM   38  C18 UNL     1      -3.447  11.548  18.779  1.00  0.00     0.027 C 
BRANCH  38  39
HETATM   39  C19 UNL     1      -4.142  12.809  19.281  1.00  0.00     0.164 C 
BRANCH  39  40
HETATM   40  O5  UNL     1      -3.191  13.849  19.453  1.00  0.00    -0.401 OA
HETATM   41  H29 UNL     1      -2.506  13.527  20.065  1.00  0.00     0.209 HD
ENDBRANCH  39  40
ENDBRANCH  38  39
ENDBRANCH  37  38
ENDBRANCH   6  37
BRANCH  12  42
HETATM   42  O7  UNL     1       0.286   9.874  17.795  1.00  0.00    -0.389 OA
HETATM   43  H41 UNL     1       1.192   9.622  18.052  1.00  0.00     0.210 HD
ENDBRANCH  12  42
BRANCH   8  44
HETATM   44  C23 UNL     1      -2.251  15.055  16.176  1.00  0.00     0.265 C 
HETATM   45  O6  UNL     1      -3.095  15.483  16.955  1.00  0.00    -0.302 OA
ENDBRANCH   8  44
TORSDOF 20
ENDMDL
MODEL 9
REMARK minimizedAffinity -7.28845024
REMARK CNNscore 0.273084909
REMARK CNNaffinity 6.69999266
REMARK  20 active torsions:
REMARK  status: ('A' for Active; 'I' for Inactive)
REMARK    1  A    between atoms: C2_2  and  C3_3 
REMARK    2  A    between atoms: C2_2  and  C28_35 
REMARK    3  A    between atoms: C4_4  and  C5_5 
REMARK    4  A    between atoms: C6_6  and  C7_7 
REMARK    5  A    between atoms: C6_6  and  C11_14 
REMARK    6  A    between atoms: C7_7  and  O1_8 
REMARK    7  A    between atoms: O1_8  and  C8_9 
REMARK    8  A    between atoms: C8_9  and  C9_10 
REMARK    9  A    between atoms: C9_10  and  O2_11 
REMARK   10  A    between atoms: C9_10  and  C10_12 
REMARK   11  A    between atoms: C10_12  and  O3_13 
REMARK   12  A    between atoms: C15_18  and  O4_19 
REMARK   13  A    between atoms: C16_20  and  C17_21 
REMARK   14  A    between atoms: C17_21  and  C18_22 
REMARK   15  A    between atoms: C18_22  and  C19_23 
REMARK   16  A    between atoms: C19_23  and  O5_24 
REMARK   17  A    between atoms: C21_26  and  C23_28 
REMARK   18  A    between atoms: C26_32  and  O7_34 
REMARK   19  A    between atoms: C28_35  and  C29_36 
REMARK   20  A    between atoms: C29_36  and  C30_37 
ROOT
HETATM    1  C11 UNL     1      -2.737   9.233  14.305  1.00  0.00     0.046 C 
HETATM    2  C12 UNL     1      -3.429   8.234  13.365  1.00  0.00     0.013 C 
HETATM    3  C13 UNL     1      -2.263   7.455  12.774  1.00  0.00     0.017 C 
HETATM    4  C14 UNL     1      -1.247   7.246  13.944  1.00  0.00     0.024 C 
HETATM    5  C15 UNL     1      -1.738   8.290  15.023  1.00  0.00     0.138 C 
HETATM    6  C16 UNL     1       0.202   7.678  13.434  1.00  0.00     0.029 C 
HETATM    7  C20 UNL     1       0.668   6.718  12.329  1.00  0.00    -0.066 C 
HETATM    8  C21 UNL     1       0.980   7.057  11.052  1.00  0.00    -0.021 C 
HETATM    9  C22 UNL     1       1.405   6.078   9.986  1.00  0.00     0.052 C 
HETATM   10  C24 UNL     1       0.761   5.293  12.843  1.00  0.00     0.038 C 
HETATM   11  C25 UNL     1      -0.588   4.807  13.356  1.00  0.00     0.042 C 
HETATM   12  C26 UNL     1      -1.252   5.734  14.406  1.00  0.00     0.065 C 
HETATM   13  C27 UNL     1      -2.646   5.126  14.694  1.00  0.00     0.047 C 
ENDROOT
BRANCH   1  14
HETATM   14  C6  UNL     1      -3.684  10.162  15.079  1.00  0.00    -0.050 C 
HETATM   15  C5  UNL     1      -4.878   9.879  15.651  1.00  0.00     0.005 C 
BRANCH  15  16
HETATM   16  C4  UNL     1      -5.563   8.611  15.770  1.00  0.00     0.001 C 
HETATM   17  C3  UNL     1      -6.751   8.354  15.198  1.00  0.00     0.006 C 
BRANCH  17  18
HETATM   18  C2  UNL     1      -7.511   7.110  15.311  1.00  0.00    -0.067 C 
HETATM   19  C1  UNL     1      -7.063   6.137  16.122  1.00  0.00     0.019 C 
BRANCH  18  20
HETATM   20  C28 UNL     1      -8.812   6.923  14.545  1.00  0.00     0.041 C 
BRANCH  20  21
HETATM   21  C29 UNL     1      -8.714   5.983  13.331  1.00  0.00     0.032 C 
BRANCH  21  22
HETATM   22  C30 UNL     1      -7.296   5.582  13.010  1.00  0.00    -0.024 C 
HETATM   23  C31 UNL     1      -6.777   4.340  12.955  1.00  0.00    -0.091 C 
HETATM   24  C32 UNL     1      -5.332   4.131  12.584  1.00  0.00     0.042 C 
HETATM   25  C33 UNL     1      -7.527   3.070  13.248  1.00  0.00     0.042 C 
ENDBRANCH  21  22
ENDBRANCH  20  21
ENDBRANCH  18  20
ENDBRANCH  17  18
ENDBRANCH  15  16
BRANCH  14  26
HETATM   26  C7  UNL     1      -3.141  11.566  15.306  1.00  0.00     0.202 C 
BRANCH  26  27
HETATM   27  O1  UNL     1      -4.214  12.502  15.454  1.00  0.00    -0.384 OA
BRANCH  27  28
HETATM   28  C8  UNL     1      -3.809  13.717  16.101  1.00  0.00     0.201 C 
BRANCH  28  29
HETATM   29  C9  UNL     1      -2.685  14.368  15.282  1.00  0.00     0.165 C 
BRANCH  29  30
HETATM   30  O2  UNL     1      -2.119  15.453  16.035  1.00  0.00    -0.391 OA
HETATM   31  H11 UNL     1      -2.854  15.771  16.600  1.00  0.00     0.210 HD
ENDBRANCH  29  30
BRANCH  29  32
HETATM   32  C10 UNL     1      -3.145  14.904  13.918  1.00  0.00     0.198 C 
BRANCH  32  33
HETATM   33  O3  UNL     1      -2.239  14.569  12.869  1.00  0.00    -0.398 OA
HETATM   34  H14 UNL     1      -2.121  13.602  12.937  1.00  0.00     0.209 HD
ENDBRANCH  32  33
ENDBRANCH  29  32
ENDBRANCH  28  29
ENDBRANCH  27  28
ENDBRANCH  26  27
ENDBRANCH  14  26
ENDBRANCH   1  14
BRANCH   5  35
HETATM   35  O4  UNL     1      -2.337   7.666  16.148  1.00  0.00    -0.394 OA
HETATM   36  H21 UNL     1      -1.656   7.066  16.514  1.00  0.00     0.210 HD
ENDBRANCH   5  35
BRANCH   6  37
HETATM   37  C17 UNL     1       1.306   7.820  14.528  1.00  0.00     0.012 C 
BRANCH  37  38
HETATM   38  C18 UNL     1       1.829   9.256  14.663  1.00  0.00     0.027 C 
BRANCH  38  39
HETATM   39  C19 UNL     1       2.815   9.596  13.551  1.00  0.00     0.164 C 
BRANCH  39  40
HETATM   40  O5  UNL     1       2.671  10.959  13.176  1.00  0.00    -0.401 OA
HETATM   41  H29 UNL     1       1.745  11.098  12.914  1.00  0.00     0.209 HD
ENDBRANCH  39  40
ENDBRANCH  38  39
ENDBRANCH  37  38
ENDBRANCH   6  37
BRANCH  12  42
HETATM   42  O7  UNL     1      -0.508   5.647  15.633  1.00  0.00    -0.389 OA
HETATM   43  H41 UNL     1      -0.497   4.712  15.908  1.00  0.00     0.210 HD
ENDBRANCH  12  42
BRANCH   8  44
HETATM   44  C23 UNL     1       0.938   8.474  10.553  1.00  0.00     0.265 C 
HETATM   45  O6  UNL     1       0.035   8.892   9.835  1.00  0.00    -0.302 OA
ENDBRANCH   8  44
TORSDOF 20
ENDMDL
