MODEL 1
REMARK minimizedAffinity -6.86673355
REMARK CNNscore 0.400322318
REMARK CNNaffinity 6.41095495
REMARK  8 active torsions:
REMARK  status: ('A' for Active; 'I' for Inactive)
REMARK    1  A    between atoms: C2_2  and  C3_3 
REMARK    2  A    between atoms: C2_2  and  C9_12 
REMARK    3  A    between atoms: C3_3  and  C4_4 
REMARK    4  A    between atoms: C4_4  and  O1_5 
REMARK    5  A    between atoms: C4_4  and  C5_6 
REMARK    6  A    between atoms: C5_6  and  O2_7 
REMARK    7  A    between atoms: C5_6  and  C6_8 
REMARK    8  A    between atoms: C6_8  and  O3_11 
ROOT
HETATM    1  C9  UNL     1       6.582  11.272  14.866  1.00  0.00    -0.002 C 
HETATM    2  C10 UNL     1       7.344  11.745  13.626  1.00  0.00     0.007 C 
HETATM    3  C11 UNL     1       6.486  11.223  12.483  1.00  0.00     0.015 C 
HETATM    4  C12 UNL     1       6.161   9.762  12.876  1.00  0.00    -0.005 C 
HETATM    5  C13 UNL     1       7.391   8.876  12.518  1.00  0.00     0.021 C 
HETATM    6  C14 UNL     1       4.939   9.211  12.108  1.00  0.00    -0.000 C 
HETATM    7  C15 UNL     1       3.798   8.747  12.676  1.00  0.00    -0.060 C 
HETATM    8  C16 UNL     1       3.659   8.796  14.186  1.00  0.00     0.036 C 
HETATM    9  C17 UNL     1       4.454   9.938  14.798  1.00  0.00     0.015 C 
HETATM   10  C18 UNL     1       5.966   9.870  14.466  1.00  0.00    -0.028 C 
HETATM   11  C19 UNL     1       6.551   8.655  15.214  1.00  0.00     0.016 C 
HETATM   12  C20 UNL     1       2.605   8.112  11.898  1.00  0.00    -0.014 C 
HETATM   13  C21 UNL     1       1.275   8.756  12.380  1.00  0.00     0.020 C 
HETATM   14  C22 UNL     1       2.622   6.597  12.219  1.00  0.00     0.021 C 
HETATM   15  C23 UNL     1       1.704   5.722  11.378  1.00  0.00     0.080 C 
HETATM   16  C24 UNL     1       0.918   6.487  10.347  1.00  0.00     0.135 C 
HETATM   17  O4  UNL     1      -0.269   6.218  10.154  1.00  0.00    -0.297 OA
HETATM   18  C25 UNL     1       1.682   7.501   9.484  1.00  0.00     0.018 C 
HETATM   19  C26 UNL     1       2.295   6.674   8.335  1.00  0.00     0.023 C 
HETATM   20  C27 UNL     1       0.668   8.477   8.837  1.00  0.00     0.023 C 
HETATM   21  C28 UNL     1       2.714   8.330  10.347  1.00  0.00     0.020 C 
HETATM   22  C29 UNL     1       4.161   8.146   9.896  1.00  0.00     0.090 C 
HETATM   23  C30 UNL     1       5.061   9.113  10.616  1.00  0.00     0.157 C 
HETATM   24  O5  UNL     1       5.899   9.760   9.992  1.00  0.00    -0.293 OA
ENDROOT
BRANCH   1  25
HETATM   25  C2  UNL     1       7.339  11.537  16.196  1.00  0.00    -0.011 C 
HETATM   26  C1  UNL     1       6.472  11.181  17.412  1.00  0.00     0.010 C 
BRANCH  25  27
HETATM   27  C3  UNL     1       8.749  10.923  16.319  1.00  0.00     0.039 C 
BRANCH  27  28
HETATM   28  C4  UNL     1       9.769  11.829  17.039  1.00  0.00     0.150 C 
BRANCH  28  29
HETATM   29  O1  UNL     1       9.202  13.154  17.103  1.00  0.00    -0.393 OA
HETATM   30  H8  UNL     1       8.331  13.057  17.533  1.00  0.00     0.210 HD
ENDBRANCH  28  29
BRANCH  28  31
HETATM   31  C5  UNL     1      10.098  11.358  18.485  1.00  0.00     0.180 C 
BRANCH  31  32
HETATM   32  O2  UNL     1       9.240  12.045  19.415  1.00  0.00    -0.390 OA
HETATM   33  H10 UNL     1       9.270  12.986  19.138  1.00  0.00     0.210 HD
ENDBRANCH  31  32
BRANCH  31  34
HETATM   34  C6  UNL     1      11.592  11.541  18.886  1.00  0.00     0.079 C 
HETATM   35  C7  UNL     1      12.539  11.446  17.686  1.00  0.00     0.048 C 
HETATM   36  C8  UNL     1      11.796  12.904  19.564  1.00  0.00     0.048 C 
BRANCH  34  37
HETATM   37  O3  UNL     1      11.962  10.521  19.823  1.00  0.00    -0.388 OA
HETATM   38  H17 UNL     1      11.576  10.757  20.686  1.00  0.00     0.210 HD
ENDBRANCH  34  37
ENDBRANCH  31  34
ENDBRANCH  28  31
ENDBRANCH  27  28
ENDBRANCH  25  27
ENDBRANCH   1  25
TORSDOF 8
ENDMDL
MODEL 2
REMARK minimizedAffinity -8.0072422
REMARK CNNscore 0.376209974
REMARK CNNaffinity 6.92675781
REMARK  8 active torsions:
REMARK  status: ('A' for Active; 'I' for Inactive)
REMARK    1  A    between atoms: C2_2  and  C3_3 
REMARK    2  A    between atoms: C2_2  and  C9_12 
REMARK    3  A    between atoms: C3_3  and  C4_4 
REMARK    4  A    between atoms: C4_4  and  O1_5 
REMARK    5  A    between atoms: C4_4  and  C5_6 
REMARK    6  A    between atoms: C5_6  and  O2_7 
REMARK    7  A    between atoms: C5_6  and  C6_8 
REMARK    8  A    between atoms: C6_8  and  O3_11 
ROOT
HETATM    1  C9  UNL     1      -8.052   6.313  13.631  1.00  0.00    -0.002 C 
HETATM    2  C10 UNL     1      -9.046   5.821  12.576  1.00  0.00     0.007 C 
HETATM    3  C11 UNL     1     -10.038   6.971  12.484  1.00  0.00     0.015 C 
HETATM    4  C12 UNL     1     -10.347   7.338  13.955  1.00  0.00    -0.005 C 
HETATM    5  C13 UNL     1     -11.392   6.321  14.502  1.00  0.00     0.021 C 
HETATM    6  C14 UNL     1     -10.948   8.755  14.087  1.00  0.00    -0.000 C 
HETATM    7  C15 UNL     1     -10.413   9.772  14.810  1.00  0.00    -0.060 C 
HETATM    8  C16 UNL     1      -9.095   9.546  15.527  1.00  0.00     0.036 C 
HETATM    9  C17 UNL     1      -8.226   8.520  14.820  1.00  0.00     0.015 C 
HETATM   10  C18 UNL     1      -8.919   7.143  14.663  1.00  0.00    -0.028 C 
HETATM   11  C19 UNL     1      -9.041   6.522  16.070  1.00  0.00     0.016 C 
HETATM   12  C20 UNL     1     -11.071  11.171  15.008  1.00  0.00    -0.014 C 
HETATM   13  C21 UNL     1     -10.017  12.279  14.735  1.00  0.00     0.020 C 
HETATM   14  C22 UNL     1     -11.553  11.230  16.479  1.00  0.00     0.021 C 
HETATM   15  C23 UNL     1     -12.451  12.403  16.845  1.00  0.00     0.080 C 
HETATM   16  C24 UNL     1     -12.736  13.329  15.693  1.00  0.00     0.135 C 
HETATM   17  O4  UNL     1     -12.728  14.548  15.868  1.00  0.00    -0.297 OA
HETATM   18  C25 UNL     1     -13.150  12.692  14.359  1.00  0.00     0.018 C 
HETATM   19  C26 UNL     1     -14.669  12.451  14.480  1.00  0.00     0.023 C 
HETATM   20  C27 UNL     1     -12.952  13.726  13.224  1.00  0.00     0.023 C 
HETATM   21  C28 UNL     1     -12.284  11.408  14.040  1.00  0.00     0.020 C 
HETATM   22  C29 UNL     1     -13.117  10.134  13.927  1.00  0.00     0.090 C 
HETATM   23  C30 UNL     1     -12.270   8.997  13.421  1.00  0.00     0.157 C 
HETATM   24  O5  UNL     1     -12.684   8.269  12.522  1.00  0.00    -0.293 OA
ENDROOT
BRANCH   1  25
HETATM   25  C2  UNL     1      -7.006   5.242  14.043  1.00  0.00    -0.011 C 
HETATM   26  C1  UNL     1      -7.629   3.839  14.080  1.00  0.00     0.010 C 
BRANCH  25  27
HETATM   27  C3  UNL     1      -5.677   5.242  13.261  1.00  0.00     0.039 C 
BRANCH  27  28
HETATM   28  C4  UNL     1      -5.246   3.850  12.752  1.00  0.00     0.150 C 
BRANCH  28  29
HETATM   29  O1  UNL     1      -5.870   3.646  11.469  1.00  0.00    -0.393 OA
HETATM   30  H8  UNL     1      -5.611   4.407  10.915  1.00  0.00     0.210 HD
ENDBRANCH  28  29
BRANCH  28  31
HETATM   31  C5  UNL     1      -3.706   3.705  12.585  1.00  0.00     0.180 C 
BRANCH  31  32
HETATM   32  O2  UNL     1      -3.108   5.014  12.536  1.00  0.00    -0.390 OA
HETATM   33  H10 UNL     1      -3.668   5.524  11.914  1.00  0.00     0.210 HD
ENDBRANCH  31  32
BRANCH  31  34
HETATM   34  C6  UNL     1      -3.280   2.866  11.344  1.00  0.00     0.079 C 
HETATM   35  C7  UNL     1      -3.498   3.615  10.025  1.00  0.00     0.048 C 
HETATM   36  C8  UNL     1      -1.798   2.478  11.448  1.00  0.00     0.048 C 
BRANCH  34  37
HETATM   37  O3  UNL     1      -4.052   1.658  11.298  1.00  0.00    -0.388 OA
HETATM   38  H17 UNL     1      -3.699   1.055  11.978  1.00  0.00     0.210 HD
ENDBRANCH  34  37
ENDBRANCH  31  34
ENDBRANCH  28  31
ENDBRANCH  27  28
ENDBRANCH  25  27
ENDBRANCH   1  25
TORSDOF 8
ENDMDL
MODEL 3
REMARK minimizedAffinity -7.05577612
REMARK CNNscore 0.349317938
REMARK CNNaffinity 6.04855728
REMARK  8 active torsions:
REMARK  status: ('A' for Active; 'I' for Inactive)
REMARK    1  A    between atoms: C2_2  and  C3_3 
REMARK    2  A    between atoms: C2_2  and  C9_12 
REMARK    3  A    between atoms: C3_3  and  C4_4 
REMARK    4  A    between atoms: C4_4  and  O1_5 
REMARK    5  A    between atoms: C4_4  and  C5_6 
REMARK    6  A    between atoms: C5_6  and  O2_7 
REMARK    7  A    between atoms: C5_6  and  C6_8 
REMARK    8  A    between atoms: C6_8  and  O3_11 
ROOT
HETATM    1  C9  UNL     1       5.930  12.665  22.348  1.00  0.00    -0.002 C 
HETATM    2  C10 UNL     1       5.844  11.160  22.615  1.00  0.00     0.007 C 
HETATM    3  C11 UNL     1       4.653  10.735  21.768  1.00  0.00     0.015 C 
HETATM    4  C12 UNL     1       3.567  11.796  22.063  1.00  0.00    -0.005 C 
HETATM    5  C13 UNL     1       2.887  11.435  23.417  1.00  0.00     0.021 C 
HETATM    6  C14 UNL     1       2.471  11.824  20.974  1.00  0.00    -0.000 C 
HETATM    7  C15 UNL     1       2.146  12.900  20.214  1.00  0.00    -0.060 C 
HETATM    8  C16 UNL     1       2.930  14.187  20.392  1.00  0.00     0.036 C 
HETATM    9  C17 UNL     1       4.356  13.930  20.853  1.00  0.00     0.015 C 
HETATM   10  C18 UNL     1       4.430  13.144  22.186  1.00  0.00    -0.028 C 
HETATM   11  C19 UNL     1       3.911  14.073  23.302  1.00  0.00     0.016 C 
HETATM   12  C20 UNL     1       0.982  12.946  19.179  1.00  0.00    -0.014 C 
HETATM   13  C21 UNL     1       1.502  13.547  17.844  1.00  0.00     0.020 C 
HETATM   14  C22 UNL     1      -0.120  13.849  19.788  1.00  0.00     0.021 C 
HETATM   15  C23 UNL     1      -1.463  13.845  19.074  1.00  0.00     0.080 C 
HETATM   16  C24 UNL     1      -1.505  12.942  17.870  1.00  0.00     0.135 C 
HETATM   17  O4  UNL     1      -2.064  13.318  16.838  1.00  0.00    -0.297 OA
HETATM   18  C25 UNL     1      -0.945  11.522  18.031  1.00  0.00     0.018 C 
HETATM   19  C26 UNL     1      -2.102  10.696  18.633  1.00  0.00     0.023 C 
HETATM   20  C27 UNL     1      -0.659  10.930  16.629  1.00  0.00     0.023 C 
HETATM   21  C28 UNL     1       0.394  11.522  18.871  1.00  0.00     0.020 C 
HETATM   22  C29 UNL     1       0.297  10.710  20.160  1.00  0.00     0.090 C 
HETATM   23  C30 UNL     1       1.653  10.579  20.800  1.00  0.00     0.157 C 
HETATM   24  O5  UNL     1       2.042   9.487  21.208  1.00  0.00    -0.293 OA
ENDROOT
BRANCH   1  25
HETATM   25  C2  UNL     1       6.979  13.391  23.232  1.00  0.00    -0.011 C 
HETATM   26  C1  UNL     1       8.361  12.732  23.113  1.00  0.00     0.010 C 
BRANCH  25  27
HETATM   27  C3  UNL     1       7.076  14.922  23.069  1.00  0.00     0.039 C 
BRANCH  27  28
HETATM   28  C4  UNL     1       8.214  15.385  22.135  1.00  0.00     0.150 C 
BRANCH  28  29
HETATM   29  O1  UNL     1       7.626  15.686  20.853  1.00  0.00    -0.393 OA
HETATM   30  H8  UNL     1       6.916  16.334  21.024  1.00  0.00     0.210 HD
ENDBRANCH  28  29
BRANCH  28  31
HETATM   31  C5  UNL     1       8.958  16.650  22.651  1.00  0.00     0.180 C 
BRANCH  31  32
HETATM   32  O2  UNL     1      10.369  16.374  22.726  1.00  0.00    -0.390 OA
HETATM   33  H10 UNL     1      10.432  15.499  23.166  1.00  0.00     0.210 HD
ENDBRANCH  31  32
BRANCH  31  34
HETATM   34  C6  UNL     1       8.433  17.179  24.019  1.00  0.00     0.079 C 
HETATM   35  C7  UNL     1       6.918  17.404  24.020  1.00  0.00     0.048 C 
HETATM   36  C8  UNL     1       8.783  16.189  25.140  1.00  0.00     0.048 C 
BRANCH  34  37
HETATM   37  O3  UNL     1       9.066  18.430  24.320  1.00  0.00    -0.388 OA
HETATM   38  H17 UNL     1       9.978  18.240  24.606  1.00  0.00     0.210 HD
ENDBRANCH  34  37
ENDBRANCH  31  34
ENDBRANCH  28  31
ENDBRANCH  27  28
ENDBRANCH  25  27
ENDBRANCH   1  25
TORSDOF 8
ENDMDL
MODEL 4
REMARK minimizedAffinity -11.015583
REMARK CNNscore 0.334807605
REMARK CNNaffinity 7.06170273
REMARK  8 active torsions:
REMARK  status: ('A' for Active; 'I' for Inactive)
REMARK    1  A    between atoms: C2_2  and  C3_3 
REMARK    2  A    between atoms: C2_2  and  C9_12 
REMARK    3  A    between atoms: C3_3  and  C4_4 
REMARK    4  A    between atoms: C4_4  and  O1_5 
REMARK    5  A    between atoms: C4_4  and  C5_6 
REMARK    6  A    between atoms: C5_6  and  O2_7 
REMARK    7  A    between atoms: C5_6  and  C6_8 
REMARK    8  A    between atoms: C6_8  and  O3_11 
ROOT
HETATM    1  C9  UNL     1       0.422   7.287  11.790  1.00  0.00    -0.002 C 
HETATM    2  C10 UNL     1       0.440   6.019  10.932  1.00  0.00     0.007 C 
HETATM    3  C11 UNL     1      -0.989   5.509  11.055  1.00  0.00     0.015 C 
HETATM    4  C12 UNL     1      -1.309   5.607  12.565  1.00  0.00    -0.005 C 
HETATM    5  C13 UNL     1      -0.679   4.374  13.278  1.00  0.00     0.021 C 
HETATM    6  C14 UNL     1      -2.829   5.590  12.840  1.00  0.00    -0.000 C 
HETATM    7  C15 UNL     1      -3.526   6.569  13.470  1.00  0.00    -0.060 C 
HETATM    8  C16 UNL     1      -2.790   7.818  13.919  1.00  0.00     0.036 C 
HETATM    9  C17 UNL     1      -1.591   8.125  13.038  1.00  0.00     0.015 C 
HETATM   10  C18 UNL     1      -0.564   6.966  12.986  1.00  0.00    -0.028 C 
HETATM   11  C19 UNL     1       0.096   6.868  14.376  1.00  0.00     0.016 C 
HETATM   12  C20 UNL     1      -5.044   6.504  13.820  1.00  0.00    -0.014 C 
HETATM   13  C21 UNL     1      -5.731   7.825  13.376  1.00  0.00     0.020 C 
HETATM   14  C22 UNL     1      -5.138   6.333  15.356  1.00  0.00     0.021 C 
HETATM   15  C23 UNL     1      -6.514   5.994  15.911  1.00  0.00     0.080 C 
HETATM   16  C24 UNL     1      -7.579   5.872  14.854  1.00  0.00     0.135 C 
HETATM   17  O4  UNL     1      -8.698   6.350  15.051  1.00  0.00    -0.297 OA
HETATM   18  C25 UNL     1      -7.248   5.038  13.610  1.00  0.00     0.018 C 
HETATM   19  C26 UNL     1      -7.546   3.578  14.011  1.00  0.00     0.023 C 
HETATM   20  C27 UNL     1      -8.243   5.400  12.480  1.00  0.00     0.023 C 
HETATM   21  C28 UNL     1      -5.776   5.314  13.104  1.00  0.00     0.020 C 
HETATM   22  C29 UNL     1      -4.890   4.071  13.123  1.00  0.00     0.090 C 
HETATM   23  C30 UNL     1      -3.578   4.352  12.441  1.00  0.00     0.157 C 
HETATM   24  O5  UNL     1      -3.124   3.558  11.622  1.00  0.00    -0.293 OA
ENDROOT
BRANCH   1  25
HETATM   25  C2  UNL     1       1.824   7.929  11.973  1.00  0.00    -0.011 C 
HETATM   26  C1  UNL     1       2.030   8.417  13.414  1.00  0.00     0.010 C 
BRANCH  25  27
HETATM   27  C3  UNL     1       3.030   7.099  11.487  1.00  0.00     0.039 C 
BRANCH  27  28
HETATM   28  C4  UNL     1       3.509   7.457  10.065  1.00  0.00     0.150 C 
BRANCH  28  29
HETATM   29  O1  UNL     1       4.876   7.014   9.944  1.00  0.00    -0.393 OA
HETATM   30  H8  UNL     1       4.877   6.065  10.175  1.00  0.00     0.210 HD
ENDBRANCH  28  29
BRANCH  28  31
HETATM   31  C5  UNL     1       2.667   6.782   8.944  1.00  0.00     0.180 C 
BRANCH  31  32
HETATM   32  O2  UNL     1       3.435   5.722   8.346  1.00  0.00    -0.390 OA
HETATM   33  H10 UNL     1       4.322   6.110   8.189  1.00  0.00     0.210 HD
ENDBRANCH  31  32
BRANCH  31  34
HETATM   34  C6  UNL     1       2.161   7.770   7.851  1.00  0.00     0.079 C 
HETATM   35  C7  UNL     1       1.930   7.085   6.500  1.00  0.00     0.048 C 
HETATM   36  C8  UNL     1       0.847   8.428   8.297  1.00  0.00     0.048 C 
BRANCH  34  37
HETATM   37  O3  UNL     1       3.133   8.807   7.660  1.00  0.00    -0.388 OA
HETATM   38  H17 UNL     1       3.066   9.419   8.415  1.00  0.00     0.210 HD
ENDBRANCH  34  37
ENDBRANCH  31  34
ENDBRANCH  28  31
ENDBRANCH  27  28
ENDBRANCH  25  27
ENDBRANCH   1  25
TORSDOF 8
ENDMDL
MODEL 5
REMARK minimizedAffinity -7.71791506
REMARK CNNscore 0.304373235
REMARK CNNaffinity 5.97404909
REMARK  8 active torsions:
REMARK  status: ('A' for Active; 'I' for Inactive)
REMARK    1  A    between atoms: C2_2  and  C3_3 
REMARK    2  A    between atoms: C2_2  and  C9_12 
REMARK    3  A    between atoms: C3_3  and  C4_4 
REMARK    4  A    between atoms: C4_4  and  O1_5 
REMARK    5  A    between atoms: C4_4  and  C5_6 
REMARK    6  A    between atoms: C5_6  and  O2_7 
REMARK    7  A    between atoms: C5_6  and  C6_8 
REMARK    8  A    between atoms: C6_8  and  O3_11 
ROOT
HETATM    1  C9  UNL     1      -4.697  -9.286   6.685  1.00  0.00    -0.002 C 
HETATM    2  C10 UNL     1      -3.190  -9.167   6.450  1.00  0.00     0.007 C 
HETATM    3  C11 UNL     1      -3.063  -9.393   4.950  1.00  0.00     0.015 C 
HETATM    4  C12 UNL     1      -3.955 -10.624   4.665  1.00  0.00    -0.005 C 
HETATM    5  C13 UNL     1      -3.155 -11.905   5.048  1.00  0.00     0.021 C 
HETATM    6  C14 UNL     1      -4.338 -10.732   3.173  1.00  0.00    -0.000 C 
HETATM    7  C15 UNL     1      -5.604 -10.734   2.684  1.00  0.00    -0.060 C 
HETATM    8  C16 UNL     1      -6.763 -10.578   3.651  1.00  0.00     0.036 C 
HETATM    9  C17 UNL     1      -6.378  -9.773   4.881  1.00  0.00     0.015 C 
HETATM   10  C18 UNL     1      -5.191 -10.390   5.663  1.00  0.00    -0.028 C 
HETATM   11  C19 UNL     1      -5.688 -11.703   6.301  1.00  0.00     0.016 C 
HETATM   12  C20 UNL     1      -5.984 -10.931   1.185  1.00  0.00    -0.014 C 
HETATM   13  C21 UNL     1      -7.003  -9.836   0.764  1.00  0.00     0.020 C 
HETATM   14  C22 UNL     1      -6.622 -12.338   1.070  1.00  0.00     0.021 C 
HETATM   15  C23 UNL     1      -6.847 -12.860  -0.342  1.00  0.00     0.080 C 
HETATM   16  C24 UNL     1      -6.399 -11.907  -1.417  1.00  0.00     0.135 C 
HETATM   17  O4  UNL     1      -7.095 -11.741  -2.421  1.00  0.00    -0.297 OA
HETATM   18  C25 UNL     1      -5.012 -11.268  -1.264  1.00  0.00     0.018 C 
HETATM   19  C26 UNL     1      -4.024 -12.304  -1.837  1.00  0.00     0.023 C 
HETATM   20  C27 UNL     1      -4.927 -10.020  -2.178  1.00  0.00     0.023 C 
HETATM   21  C28 UNL     1      -4.742 -10.828   0.230  1.00  0.00     0.020 C 
HETATM   22  C29 UNL     1      -3.543 -11.536   0.858  1.00  0.00     0.090 C 
HETATM   23  C30 UNL     1      -3.217 -10.926   2.195  1.00  0.00     0.157 C 
HETATM   24  O5  UNL     1      -2.055 -10.647   2.481  1.00  0.00    -0.293 OA
ENDROOT
BRANCH   1  25
HETATM   25  C2  UNL     1      -5.094  -9.258   8.186  1.00  0.00    -0.011 C 
HETATM   26  C1  UNL     1      -6.544  -8.787   8.371  1.00  0.00     0.010 C 
BRANCH  25  27
HETATM   27  C3  UNL     1      -4.816 -10.540   8.996  1.00  0.00     0.039 C 
BRANCH  27  28
HETATM   28  C4  UNL     1      -4.624 -10.301  10.508  1.00  0.00     0.150 C 
BRANCH  28  29
HETATM   29  O1  UNL     1      -3.378  -9.595  10.680  1.00  0.00    -0.393 OA
HETATM   30  H8  UNL     1      -3.437  -8.797  10.120  1.00  0.00     0.210 HD
ENDBRANCH  28  29
BRANCH  28  31
HETATM   31  C5  UNL     1      -5.765  -9.460  11.148  1.00  0.00     0.180 C 
BRANCH  31  32
HETATM   32  O2  UNL     1      -5.190  -8.409  11.947  1.00  0.00    -0.390 OA
HETATM   33  H10 UNL     1      -4.487  -8.847  12.473  1.00  0.00     0.210 HD
ENDBRANCH  31  32
BRANCH  31  34
HETATM   34  C6  UNL     1      -6.770 -10.296  11.994  1.00  0.00     0.079 C 
HETATM   35  C7  UNL     1      -8.163 -10.362  11.358  1.00  0.00     0.048 C 
HETATM   36  C8  UNL     1      -6.248 -11.729  12.176  1.00  0.00     0.048 C 
BRANCH  34  37
HETATM   37  O3  UNL     1      -6.906  -9.706  13.294  1.00  0.00    -0.388 OA
HETATM   38  H17 UNL     1      -6.106  -9.927  13.805  1.00  0.00     0.210 HD
ENDBRANCH  34  37
ENDBRANCH  31  34
ENDBRANCH  28  31
ENDBRANCH  27  28
ENDBRANCH  25  27
ENDBRANCH   1  25
TORSDOF 8
ENDMDL
MODEL 6
REMARK minimizedAffinity -9.76316738
REMARK CNNscore 0.298058122
REMARK CNNaffinity 6.96149445
REMARK  8 active torsions:
REMARK  status: ('A' for Active; 'I' for Inactive)
REMARK    1  A    between atoms: C2_2  and  C3_3 
REMARK    2  A    between atoms: C2_2  and  C9_12 
REMARK    3  A    between atoms: C3_3  and  C4_4 
REMARK    4  A    between atoms: C4_4  and  O1_5 
REMARK    5  A    between atoms: C4_4  and  C5_6 
REMARK    6  A    between atoms: C5_6  and  O2_7 
REMARK    7  A    between atoms: C5_6  and  C6_8 
REMARK    8  A    between atoms: C6_8  and  O3_11 
ROOT
HETATM    1  C9  UNL     1       0.572   7.611  11.893  1.00  0.00    -0.002 C 
HETATM    2  C10 UNL     1       0.623   6.403  10.956  1.00  0.00     0.007 C 
HETATM    3  C11 UNL     1      -0.794   5.854  11.036  1.00  0.00     0.015 C 
HETATM    4  C12 UNL     1      -1.124   5.846  12.547  1.00  0.00    -0.005 C 
HETATM    5  C13 UNL     1      -0.470   4.584  13.183  1.00  0.00     0.021 C 
HETATM    6  C14 UNL     1      -2.645   5.777  12.811  1.00  0.00    -0.000 C 
HETATM    7  C15 UNL     1      -3.366   6.698  13.499  1.00  0.00    -0.060 C 
HETATM    8  C16 UNL     1      -2.662   7.931  14.033  1.00  0.00     0.036 C 
HETATM    9  C17 UNL     1      -1.466   8.321  13.181  1.00  0.00     0.015 C 
HETATM   10  C18 UNL     1      -0.412   7.191  13.060  1.00  0.00    -0.028 C 
HETATM   11  C19 UNL     1       0.243   7.018  14.445  1.00  0.00     0.016 C 
HETATM   12  C20 UNL     1      -4.884   6.576  13.834  1.00  0.00    -0.014 C 
HETATM   13  C21 UNL     1      -5.599   7.907  13.473  1.00  0.00     0.020 C 
HETATM   14  C22 UNL     1      -4.982   6.303  15.356  1.00  0.00     0.021 C 
HETATM   15  C23 UNL     1      -6.352   5.898  15.879  1.00  0.00     0.080 C 
HETATM   16  C24 UNL     1      -7.409   5.821  14.810  1.00  0.00     0.135 C 
HETATM   17  O4  UNL     1      -8.539   6.259  15.030  1.00  0.00    -0.297 OA
HETATM   18  C25 UNL     1      -7.053   5.077  13.516  1.00  0.00     0.018 C 
HETATM   19  C26 UNL     1      -7.319   3.587  13.820  1.00  0.00     0.023 C 
HETATM   20  C27 UNL     1      -8.051   5.489  12.406  1.00  0.00     0.023 C 
HETATM   21  C28 UNL     1      -5.586   5.418  13.038  1.00  0.00     0.020 C 
HETATM   22  C29 UNL     1      -4.671   4.197  12.983  1.00  0.00     0.090 C 
HETATM   23  C30 UNL     1      -3.363   4.551  12.328  1.00  0.00     0.157 C 
HETATM   24  O5  UNL     1      -2.887   3.822  11.462  1.00  0.00    -0.293 OA
ENDROOT
BRANCH   1  25
HETATM   25  C2  UNL     1       1.958   8.272  12.127  1.00  0.00    -0.011 C 
HETATM   26  C1  UNL     1       1.862   9.432  13.128  1.00  0.00     0.010 C 
BRANCH  25  27
HETATM   27  C3  UNL     1       3.121   7.324  12.482  1.00  0.00     0.039 C 
BRANCH  27  28
HETATM   28  C4  UNL     1       4.219   7.241  11.400  1.00  0.00     0.150 C 
BRANCH  28  29
HETATM   29  O1  UNL     1       4.115   8.426  10.586  1.00  0.00    -0.393 OA
HETATM   30  H8  UNL     1       4.169   9.184  11.199  1.00  0.00     0.210 HD
ENDBRANCH  28  29
BRANCH  28  31
HETATM   31  C5  UNL     1       5.658   7.165  11.987  1.00  0.00     0.180 C 
BRANCH  31  32
HETATM   32  O2  UNL     1       6.062   5.786  12.077  1.00  0.00    -0.390 OA
HETATM   33  H10 UNL     1       5.296   5.324  12.477  1.00  0.00     0.210 HD
ENDBRANCH  31  32
BRANCH  31  34
HETATM   34  C6  UNL     1       5.816   7.869  13.367  1.00  0.00     0.079 C 
HETATM   35  C7  UNL     1       7.209   7.669  13.973  1.00  0.00     0.048 C 
HETATM   36  C8  UNL     1       5.555   9.376  13.228  1.00  0.00     0.048 C 
BRANCH  34  37
HETATM   37  O3  UNL     1       4.854   7.336  14.287  1.00  0.00    -0.388 OA
HETATM   38  H17 UNL     1       3.985   7.713  14.059  1.00  0.00     0.210 HD
ENDBRANCH  34  37
ENDBRANCH  31  34
ENDBRANCH  28  31
ENDBRANCH  27  28
ENDBRANCH  25  27
ENDBRANCH   1  25
TORSDOF 8
ENDMDL
MODEL 7
REMARK minimizedAffinity -7.03930616
REMARK CNNscore 0.27300033
REMARK CNNaffinity 5.67588186
REMARK  8 active torsions:
REMARK  status: ('A' for Active; 'I' for Inactive)
REMARK    1  A    between atoms: C2_2  and  C3_3 
REMARK    2  A    between atoms: C2_2  and  C9_12 
REMARK    3  A    between atoms: C3_3  and  C4_4 
REMARK    4  A    between atoms: C4_4  and  O1_5 
REMARK    5  A    between atoms: C4_4  and  C5_6 
REMARK    6  A    between atoms: C5_6  and  O2_7 
REMARK    7  A    between atoms: C5_6  and  C6_8 
REMARK    8  A    between atoms: C6_8  and  O3_11 
ROOT
HETATM    1  C9  UNL     1     -15.986  -0.849  13.340  1.00  0.00    -0.002 C 
HETATM    2  C10 UNL     1     -16.975  -0.758  12.177  1.00  0.00     0.007 C 
HETATM    3  C11 UNL     1     -17.177   0.742  12.022  1.00  0.00     0.015 C 
HETATM    4  C12 UNL     1     -17.386   1.258  13.465  1.00  0.00    -0.005 C 
HETATM    5  C13 UNL     1     -18.863   0.980  13.872  1.00  0.00     0.021 C 
HETATM    6  C14 UNL     1     -17.140   2.779  13.581  1.00  0.00    -0.000 C 
HETATM    7  C15 UNL     1     -16.219   3.367  14.385  1.00  0.00    -0.060 C 
HETATM    8  C16 UNL     1     -15.310   2.488  15.223  1.00  0.00     0.036 C 
HETATM    9  C17 UNL     1     -15.064   1.136  14.574  1.00  0.00     0.015 C 
HETATM   10  C18 UNL     1     -16.369   0.345  14.306  1.00  0.00    -0.028 C 
HETATM   11  C19 UNL     1     -16.947  -0.073  15.673  1.00  0.00     0.016 C 
HETATM   12  C20 UNL     1     -16.036   4.905  14.560  1.00  0.00    -0.014 C 
HETATM   13  C21 UNL     1     -14.530   5.263  14.429  1.00  0.00     0.020 C 
HETATM   14  C22 UNL     1     -16.556   5.256  15.977  1.00  0.00     0.021 C 
HETATM   15  C23 UNL     1     -16.714   6.737  16.287  1.00  0.00     0.080 C 
HETATM   16  C24 UNL     1     -16.337   7.638  15.142  1.00  0.00     0.135 C 
HETATM   17  O4  UNL     1     -15.691   8.666  15.355  1.00  0.00    -0.297 OA
HETATM   18  C25 UNL     1     -16.890   7.288  13.754  1.00  0.00     0.018 C 
HETATM   19  C26 UNL     1     -18.303   7.906  13.714  1.00  0.00     0.023 C 
HETATM   20  C27 UNL     1     -16.053   8.021  12.677  1.00  0.00     0.023 C 
HETATM   21  C28 UNL     1     -16.825   5.732  13.483  1.00  0.00     0.020 C 
HETATM   22  C29 UNL     1     -18.196   5.104  13.247  1.00  0.00     0.090 C 
HETATM   23  C30 UNL     1     -18.048   3.677  12.793  1.00  0.00     0.157 C 
HETATM   24  O5  UNL     1     -18.695   3.261  11.835  1.00  0.00    -0.293 OA
ENDROOT
BRANCH   1  25
HETATM   25  C2  UNL     1     -15.729  -2.303  13.822  1.00  0.00    -0.011 C 
HETATM   26  C1  UNL     1     -16.970  -3.185  13.623  1.00  0.00     0.010 C 
BRANCH  25  27
HETATM   27  C3  UNL     1     -14.462  -2.994  13.278  1.00  0.00     0.039 C 
BRANCH  27  28
HETATM   28  C4  UNL     1     -13.493  -3.486  14.373  1.00  0.00     0.150 C 
BRANCH  28  29
HETATM   29  O1  UNL     1     -13.520  -2.517  15.441  1.00  0.00    -0.393 OA
HETATM   30  H8  UNL     1     -14.456  -2.424  15.702  1.00  0.00     0.210 HD
ENDBRANCH  28  29
BRANCH  28  31
HETATM   31  C5  UNL     1     -13.875  -4.878  14.955  1.00  0.00     0.180 C 
BRANCH  31  32
HETATM   32  O2  UNL     1     -14.784  -4.699  16.057  1.00  0.00    -0.390 OA
HETATM   33  H10 UNL     1     -14.387  -3.983  16.598  1.00  0.00     0.210 HD
ENDBRANCH  31  32
BRANCH  31  34
HETATM   34  C6  UNL     1     -12.653  -5.738  15.392  1.00  0.00     0.079 C 
HETATM   35  C7  UNL     1     -13.060  -6.958  16.225  1.00  0.00     0.048 C 
HETATM   36  C8  UNL     1     -11.877  -6.224  14.159  1.00  0.00     0.048 C 
BRANCH  34  37
HETATM   37  O3  UNL     1     -11.766  -4.937  16.186  1.00  0.00    -0.388 OA
HETATM   38  H17 UNL     1     -11.285  -4.342  15.582  1.00  0.00     0.210 HD
ENDBRANCH  34  37
ENDBRANCH  31  34
ENDBRANCH  28  31
ENDBRANCH  27  28
ENDBRANCH  25  27
ENDBRANCH   1  25
TORSDOF 8
ENDMDL
MODEL 8
REMARK minimizedAffinity -7.17173052
REMARK CNNscore 0.264985889
REMARK CNNaffinity 5.9886241
REMARK  8 active torsions:
REMARK  status: ('A' for Active; 'I' for Inactive)
REMARK    1  A    between atoms: C2_2  and  C3_3 
REMARK    2  A    between atoms: C2_2  and  C9_12 
REMARK    3  A    between atoms: C3_3  and  C4_4 
REMARK    4  A    between atoms: C4_4  and  O1_5 
REMARK    5  A    between atoms: C4_4  and  C5_6 
REMARK    6  A    between atoms: C5_6  and  O2_7 
REMARK    7  A    between atoms: C5_6  and  C6_8 
REMARK    8  A    between atoms: C6_8  and  O3_11 
ROOT
HETATM    1  C9  UNL     1      -5.439 -10.062   4.364  1.00  0.00    -0.002 C 
HETATM    2  C10 UNL     1      -4.062 -10.306   3.742  1.00  0.00     0.007 C 
HETATM    3  C11 UNL     1      -4.313 -10.063   2.261  1.00  0.00     0.015 C 
HETATM    4  C12 UNL     1      -5.621 -10.830   1.957  1.00  0.00    -0.005 C 
HETATM    5  C13 UNL     1      -5.272 -12.337   1.774  1.00  0.00     0.021 C 
HETATM    6  C14 UNL     1      -6.296 -10.338   0.657  1.00  0.00    -0.000 C 
HETATM    7  C15 UNL     1      -7.548  -9.823   0.567  1.00  0.00    -0.060 C 
HETATM    8  C16 UNL     1      -8.368  -9.665   1.834  1.00  0.00     0.036 C 
HETATM    9  C17 UNL     1      -7.494  -9.443   3.058  1.00  0.00     0.015 C 
HETATM   10  C18 UNL     1      -6.478 -10.589   3.293  1.00  0.00    -0.028 C 
HETATM   11  C19 UNL     1      -7.278 -11.840   3.712  1.00  0.00     0.016 C 
HETATM   12  C20 UNL     1      -8.252  -9.410  -0.761  1.00  0.00    -0.014 C 
HETATM   13  C21 UNL     1      -8.875  -7.996  -0.595  1.00  0.00     0.020 C 
HETATM   14  C22 UNL     1      -9.358 -10.463  -1.023  1.00  0.00     0.021 C 
HETATM   15  C23 UNL     1     -10.019 -10.415  -2.393  1.00  0.00     0.080 C 
HETATM   16  C24 UNL     1      -9.476  -9.334  -3.289  1.00  0.00     0.135 C 
HETATM   17  O4  UNL     1     -10.245  -8.664  -3.980  1.00  0.00    -0.297 OA
HETATM   18  C25 UNL     1      -7.950  -9.201  -3.391  1.00  0.00     0.018 C 
HETATM   19  C26 UNL     1      -7.524 -10.233  -4.456  1.00  0.00     0.023 C 
HETATM   20  C27 UNL     1      -7.603  -7.804  -3.963  1.00  0.00     0.023 C 
HETATM   21  C28 UNL     1      -7.261  -9.362  -1.978  1.00  0.00     0.020 C 
HETATM   22  C29 UNL     1      -6.296 -10.543  -1.910  1.00  0.00     0.090 C 
HETATM   23  C30 UNL     1      -5.525 -10.516  -0.618  1.00  0.00     0.157 C 
HETATM   24  O5  UNL     1      -4.309 -10.686  -0.620  1.00  0.00    -0.293 OA
ENDROOT
BRANCH   1  25
HETATM   25  C2  UNL     1      -5.504 -10.407   5.877  1.00  0.00    -0.011 C 
HETATM   26  C1  UNL     1      -4.237  -9.945   6.610  1.00  0.00     0.010 C 
BRANCH  25  27
HETATM   27  C3  UNL     1      -6.776  -9.965   6.629  1.00  0.00     0.039 C 
BRANCH  27  28
HETATM   28  C4  UNL     1      -6.505  -9.041   7.835  1.00  0.00     0.150 C 
BRANCH  28  29
HETATM   29  O1  UNL     1      -6.371  -7.697   7.329  1.00  0.00    -0.393 OA
HETATM   30  H8  UNL     1      -7.184  -7.515   6.819  1.00  0.00     0.210 HD
ENDBRANCH  28  29
BRANCH  28  31
HETATM   31  C5  UNL     1      -7.644  -9.062   8.895  1.00  0.00     0.180 C 
BRANCH  31  32
HETATM   32  O2  UNL     1      -8.759  -8.292   8.410  1.00  0.00    -0.390 OA
HETATM   33  H10 UNL     1      -8.363  -7.463   8.065  1.00  0.00     0.210 HD
ENDBRANCH  31  32
BRANCH  31  34
HETATM   34  C6  UNL     1      -7.208  -8.559  10.303  1.00  0.00     0.079 C 
HETATM   35  C7  UNL     1      -8.183  -8.980  11.407  1.00  0.00     0.048 C 
HETATM   36  C8  UNL     1      -5.813  -9.098  10.651  1.00  0.00     0.048 C 
BRANCH  34  37
HETATM   37  O3  UNL     1      -7.140  -7.126  10.296  1.00  0.00    -0.388 OA
HETATM   38  H17 UNL     1      -6.329  -6.870   9.820  1.00  0.00     0.210 HD
ENDBRANCH  34  37
ENDBRANCH  31  34
ENDBRANCH  28  31
ENDBRANCH  27  28
ENDBRANCH  25  27
ENDBRANCH   1  25
TORSDOF 8
ENDMDL
MODEL 9
REMARK minimizedAffinity -8.51571274
REMARK CNNscore 0.261801332
REMARK CNNaffinity 6.55867052
REMARK  8 active torsions:
REMARK  status: ('A' for Active; 'I' for Inactive)
REMARK    1  A    between atoms: C2_2  and  C3_3 
REMARK    2  A    between atoms: C2_2  and  C9_12 
REMARK    3  A    between atoms: C3_3  and  C4_4 
REMARK    4  A    between atoms: C4_4  and  O1_5 
REMARK    5  A    between atoms: C4_4  and  C5_6 
REMARK    6  A    between atoms: C5_6  and  O2_7 
REMARK    7  A    between atoms: C5_6  and  C6_8 
REMARK    8  A    between atoms: C6_8  and  O3_11 
ROOT
HETATM    1  C9  UNL     1       0.023   7.737  14.915  1.00  0.00    -0.002 C 
HETATM    2  C10 UNL     1      -0.988   8.640  15.625  1.00  0.00     0.007 C 
HETATM    3  C11 UNL     1      -2.310   7.931  15.372  1.00  0.00     0.015 C 
HETATM    4  C12 UNL     1      -2.278   7.572  13.868  1.00  0.00    -0.005 C 
HETATM    5  C13 UNL     1      -2.665   8.842  13.055  1.00  0.00     0.021 C 
HETATM    6  C14 UNL     1      -3.286   6.456  13.514  1.00  0.00    -0.000 C 
HETATM    7  C15 UNL     1      -2.970   5.257  12.962  1.00  0.00    -0.060 C 
HETATM    8  C16 UNL     1      -1.511   4.936  12.694  1.00  0.00     0.036 C 
HETATM    9  C17 UNL     1      -0.581   5.643  13.666  1.00  0.00     0.015 C 
HETATM   10  C18 UNL     1      -0.736   7.184  13.641  1.00  0.00    -0.028 C 
HETATM   11  C19 UNL     1      -0.198   7.683  12.285  1.00  0.00     0.016 C 
HETATM   12  C20 UNL     1      -4.002   4.172  12.529  1.00  0.00    -0.014 C 
HETATM   13  C21 UNL     1      -3.558   2.789  13.081  1.00  0.00     0.020 C 
HETATM   14  C22 UNL     1      -4.010   4.161  10.980  1.00  0.00     0.021 C 
HETATM   15  C23 UNL     1      -5.121   3.358  10.319  1.00  0.00     0.080 C 
HETATM   16  C24 UNL     1      -6.054   2.697  11.299  1.00  0.00     0.135 C 
HETATM   17  O4  UNL     1      -6.440   1.544  11.099  1.00  0.00    -0.297 OA
HETATM   18  C25 UNL     1      -6.584   3.552  12.458  1.00  0.00     0.018 C 
HETATM   19  C26 UNL     1      -7.800   4.307  11.881  1.00  0.00     0.023 C 
HETATM   20  C27 UNL     1      -7.126   2.618  13.568  1.00  0.00     0.023 C 
HETATM   21  C28 UNL     1      -5.447   4.466  13.068  1.00  0.00     0.020 C 
HETATM   22  C29 UNL     1      -5.750   5.959  12.955  1.00  0.00     0.090 C 
HETATM   23  C30 UNL     1      -4.739   6.758  13.732  1.00  0.00     0.157 C 
HETATM   24  O5  UNL     1      -5.106   7.661  14.480  1.00  0.00    -0.293 OA
ENDROOT
BRANCH   1  25
HETATM   25  C2  UNL     1       1.460   8.326  14.879  1.00  0.00    -0.011 C 
HETATM   26  C1  UNL     1       1.739   9.195  16.114  1.00  0.00     0.010 C 
BRANCH  25  27
HETATM   27  C3  UNL     1       2.607   7.325  14.630  1.00  0.00     0.039 C 
BRANCH  27  28
HETATM   28  C4  UNL     1       4.016   7.944  14.737  1.00  0.00     0.150 C 
BRANCH  28  29
HETATM   29  O1  UNL     1       4.745   7.192  15.728  1.00  0.00    -0.393 OA
HETATM   30  H8  UNL     1       4.704   6.258  15.447  1.00  0.00     0.210 HD
ENDBRANCH  28  29
BRANCH  28  31
HETATM   31  C5  UNL     1       4.810   7.904  13.399  1.00  0.00     0.180 C 
BRANCH  31  32
HETATM   32  O2  UNL     1       4.167   6.989  12.493  1.00  0.00    -0.390 OA
HETATM   33  H10 UNL     1       3.982   6.189  13.030  1.00  0.00     0.210 HD
ENDBRANCH  31  32
BRANCH  31  34
HETATM   34  C6  UNL     1       6.314   7.537  13.566  1.00  0.00     0.079 C 
HETATM   35  C7  UNL     1       7.060   7.490  12.229  1.00  0.00     0.048 C 
HETATM   36  C8  UNL     1       7.011   8.556  14.480  1.00  0.00     0.048 C 
BRANCH  34  37
HETATM   37  O3  UNL     1       6.424   6.245  14.179  1.00  0.00    -0.388 OA
HETATM   38  H17 UNL     1       6.219   6.348  15.126  1.00  0.00     0.210 HD
ENDBRANCH  34  37
ENDBRANCH  31  34
ENDBRANCH  28  31
ENDBRANCH  27  28
ENDBRANCH  25  27
ENDBRANCH   1  25
TORSDOF 8
ENDMDL
