MODEL 1
REMARK minimizedAffinity -7.1640048
REMARK CNNscore 0.455116451
REMARK CNNaffinity 6.38542509
REMARK  9 active torsions:
REMARK  status: ('A' for Active; 'I' for Inactive)
REMARK    1  A    between atoms: C2_2  and  C3_3 
REMARK    2  A    between atoms: C2_2  and  C9_12 
REMARK    3  A    between atoms: C3_3  and  C4_4 
REMARK    4  A    between atoms: C4_4  and  C5_5 
REMARK    5  A    between atoms: C5_5  and  O1_6 
REMARK    6  A    between atoms: C5_5  and  C6_7 
REMARK    7  A    between atoms: C6_7  and  O2_9 
REMARK    8  A    between atoms: C6_7  and  C8_10 
REMARK    9  A    between atoms: C8_10  and  O3_11 
ROOT
HETATM    1  C9  UNL     1       7.203  10.746  15.441  1.00  0.00    -0.001 C 
HETATM    2  C10 UNL     1       8.410  10.558  14.474  1.00  0.00     0.007 C 
HETATM    3  C11 UNL     1       7.864   9.973  13.161  1.00  0.00     0.015 C 
HETATM    4  C12 UNL     1       6.338  10.155  13.249  1.00  0.00    -0.004 C 
HETATM    5  C13 UNL     1       6.028  11.621  12.807  1.00  0.00     0.021 C 
HETATM    6  C14 UNL     1       5.403   9.300  12.406  1.00  0.00     0.007 C 
HETATM    7  C15 UNL     1       4.134   8.997  12.785  1.00  0.00     0.007 C 
HETATM    8  C16 UNL     1       3.708   9.406  14.188  1.00  0.00     0.157 C 
HETATM    9  O4  UNL     1       2.611   9.082  14.631  1.00  0.00    -0.293 OA
HETATM   10  C17 UNL     1       4.655  10.194  15.088  1.00  0.00     0.094 C 
HETATM   11  C18 UNL     1       6.112   9.852  14.776  1.00  0.00    -0.022 C 
HETATM   12  C19 UNL     1       6.370   8.360  15.159  1.00  0.00     0.017 C 
HETATM   13  C20 UNL     1       3.103   8.244  11.900  1.00  0.00    -0.007 C 
HETATM   14  C21 UNL     1       2.936   6.824  12.482  1.00  0.00     0.021 C 
HETATM   15  C22 UNL     1       1.741   8.988  11.867  1.00  0.00     0.022 C 
HETATM   16  C23 UNL     1       0.722   8.494  10.841  1.00  0.00     0.080 C 
HETATM   17  C24 UNL     1       1.212   7.450   9.869  1.00  0.00     0.135 C 
HETATM   18  O5  UNL     1       0.405   6.638   9.407  1.00  0.00    -0.297 OA
HETATM   19  C25 UNL     1       2.666   7.490   9.392  1.00  0.00     0.018 C 
HETATM   20  C26 UNL     1       2.660   8.252   8.049  1.00  0.00     0.023 C 
HETATM   21  C27 UNL     1       3.122   6.042   9.107  1.00  0.00     0.023 C 
HETATM   22  C28 UNL     1       3.588   8.242  10.408  1.00  0.00     0.021 C 
HETATM   23  C29 UNL     1       5.057   7.835  10.317  1.00  0.00     0.090 C 
HETATM   24  C30 UNL     1       5.898   8.823  11.077  1.00  0.00     0.157 C 
HETATM   25  O6  UNL     1       6.983   9.188  10.627  1.00  0.00    -0.293 OA
ENDROOT
BRANCH   1  26
HETATM   26  C2  UNL     1       7.624  10.542  16.931  1.00  0.00    -0.014 C 
HETATM   27  C1  UNL     1       6.986  11.572  17.866  1.00  0.00     0.010 C 
BRANCH  26  28
HETATM   28  C3  UNL     1       9.177  10.601  17.040  1.00  0.00     0.007 C 
BRANCH  28  29
HETATM   29  C4  UNL     1       9.749  10.499  18.458  1.00  0.00     0.035 C 
BRANCH  29  30
HETATM   30  C5  UNL     1      11.228  10.873  18.641  1.00  0.00     0.154 C 
BRANCH  30  31
HETATM   31  O1  UNL     1      11.802  10.962  17.314  1.00  0.00    -0.392 OA
HETATM   32  H10 UNL     1      11.740  10.078  16.909  1.00  0.00     0.210 HD
ENDBRANCH  30  31
BRANCH  30  33
HETATM   33  C6  UNL     1      11.574  12.217  19.347  1.00  0.00     0.101 C 
HETATM   34  C7  UNL     1      10.883  12.389  20.705  1.00  0.00     0.051 C 
BRANCH  33  35
HETATM   35  O2  UNL     1      11.057  13.276  18.493  1.00  0.00    -0.385 OA
HETATM   36  H14 UNL     1      10.144  12.983  18.285  1.00  0.00     0.210 HD
ENDBRANCH  33  35
BRANCH  33  37
HETATM   37  C8  UNL     1      13.087  12.482  19.469  1.00  0.00     0.204 C 
BRANCH  37  38
HETATM   38  O3  UNL     1      13.542  12.135  20.778  1.00  0.00    -0.398 OA
HETATM   39  H17 UNL     1      12.808  12.412  21.369  1.00  0.00     0.209 HD
ENDBRANCH  37  38
ENDBRANCH  33  37
ENDBRANCH  30  33
ENDBRANCH  29  30
ENDBRANCH  28  29
ENDBRANCH  26  28
ENDBRANCH   1  26
TORSDOF 9
ENDMDL
MODEL 2
REMARK minimizedAffinity -6.54031897
REMARK CNNscore 0.421123356
REMARK CNNaffinity 6.37307358
REMARK  9 active torsions:
REMARK  status: ('A' for Active; 'I' for Inactive)
REMARK    1  A    between atoms: C2_2  and  C3_3 
REMARK    2  A    between atoms: C2_2  and  C9_12 
REMARK    3  A    between atoms: C3_3  and  C4_4 
REMARK    4  A    between atoms: C4_4  and  C5_5 
REMARK    5  A    between atoms: C5_5  and  O1_6 
REMARK    6  A    between atoms: C5_5  and  C6_7 
REMARK    7  A    between atoms: C6_7  and  O2_9 
REMARK    8  A    between atoms: C6_7  and  C8_10 
REMARK    9  A    between atoms: C8_10  and  O3_11 
ROOT
HETATM    1  C9  UNL     1      -1.600  11.617  16.216  1.00  0.00    -0.001 C 
HETATM    2  C10 UNL     1      -2.319  12.928  16.654  1.00  0.00     0.007 C 
HETATM    3  C11 UNL     1      -1.467  13.574  17.761  1.00  0.00     0.015 C 
HETATM    4  C12 UNL     1      -0.118  12.836  17.706  1.00  0.00    -0.004 C 
HETATM    5  C13 UNL     1       0.722  13.506  16.572  1.00  0.00     0.021 C 
HETATM    6  C14 UNL     1       0.813  12.826  18.910  1.00  0.00     0.007 C 
HETATM    7  C15 UNL     1       1.691  11.820  19.158  1.00  0.00     0.007 C 
HETATM    8  C16 UNL     1       1.608  10.586  18.270  1.00  0.00     0.157 C 
HETATM    9  O4  UNL     1       2.305   9.602  18.497  1.00  0.00    -0.293 OA
HETATM   10  C17 UNL     1       0.627  10.534  17.104  1.00  0.00     0.094 C 
HETATM   11  C18 UNL     1      -0.615  11.375  17.400  1.00  0.00    -0.022 C 
HETATM   12  C19 UNL     1      -1.392  10.721  18.587  1.00  0.00     0.017 C 
HETATM   13  C20 UNL     1       2.750  11.832  20.295  1.00  0.00    -0.007 C 
HETATM   14  C21 UNL     1       2.284  10.834  21.378  1.00  0.00     0.021 C 
HETATM   15  C22 UNL     1       4.155  11.444  19.759  1.00  0.00     0.022 C 
HETATM   16  C23 UNL     1       5.328  11.657  20.713  1.00  0.00     0.080 C 
HETATM   17  C24 UNL     1       5.012  12.369  22.005  1.00  0.00     0.135 C 
HETATM   18  O5  UNL     1       5.689  12.120  23.007  1.00  0.00    -0.297 OA
HETATM   19  C25 UNL     1       3.941  13.464  22.018  1.00  0.00     0.018 C 
HETATM   20  C26 UNL     1       4.690  14.804  21.854  1.00  0.00     0.023 C 
HETATM   21  C27 UNL     1       3.271  13.468  23.409  1.00  0.00     0.023 C 
HETATM   22  C28 UNL     1       2.925  13.292  20.841  1.00  0.00     0.021 C 
HETATM   23  C29 UNL     1       1.567  13.936  21.108  1.00  0.00     0.090 C 
HETATM   24  C30 UNL     1       0.787  14.011  19.824  1.00  0.00     0.157 C 
HETATM   25  O6  UNL     1       0.115  15.007  19.564  1.00  0.00    -0.293 OA
ENDROOT
BRANCH   1  26
HETATM   26  C2  UNL     1      -2.623  10.523  15.773  1.00  0.00    -0.014 C 
HETATM   27  C1  UNL     1      -3.681  10.244  16.843  1.00  0.00     0.010 C 
BRANCH  26  28
HETATM   28  C3  UNL     1      -1.855   9.215  15.418  1.00  0.00     0.007 C 
BRANCH  28  29
HETATM   29  C4  UNL     1      -2.483   7.915  15.932  1.00  0.00     0.035 C 
BRANCH  29  30
HETATM   30  C5  UNL     1      -2.843   6.852  14.882  1.00  0.00     0.154 C 
BRANCH  30  31
HETATM   31  O1  UNL     1      -2.751   5.566  15.542  1.00  0.00    -0.392 OA
HETATM   32  H10 UNL     1      -1.824   5.446  15.818  1.00  0.00     0.210 HD
ENDBRANCH  30  31
BRANCH  30  33
HETATM   33  C6  UNL     1      -4.258   6.898  14.232  1.00  0.00     0.101 C 
HETATM   34  C7  UNL     1      -4.623   5.617  13.471  1.00  0.00     0.051 C 
BRANCH  33  35
HETATM   35  O2  UNL     1      -4.220   7.961  13.239  1.00  0.00    -0.385 OA
HETATM   36  H14 UNL     1      -3.392   7.788  12.742  1.00  0.00     0.210 HD
ENDBRANCH  33  35
BRANCH  33  37
HETATM   37  C8  UNL     1      -5.379   7.285  15.214  1.00  0.00     0.204 C 
BRANCH  37  38
HETATM   38  O3  UNL     1      -5.576   6.243  16.171  1.00  0.00    -0.398 OA
HETATM   39  H17 UNL     1      -5.455   5.417  15.654  1.00  0.00     0.209 HD
ENDBRANCH  37  38
ENDBRANCH  33  37
ENDBRANCH  30  33
ENDBRANCH  29  30
ENDBRANCH  28  29
ENDBRANCH  26  28
ENDBRANCH   1  26
TORSDOF 9
ENDMDL
MODEL 3
REMARK minimizedAffinity -7.08126402
REMARK CNNscore 0.391368598
REMARK CNNaffinity 6.00858498
REMARK  9 active torsions:
REMARK  status: ('A' for Active; 'I' for Inactive)
REMARK    1  A    between atoms: C2_2  and  C3_3 
REMARK    2  A    between atoms: C2_2  and  C9_12 
REMARK    3  A    between atoms: C3_3  and  C4_4 
REMARK    4  A    between atoms: C4_4  and  C5_5 
REMARK    5  A    between atoms: C5_5  and  O1_6 
REMARK    6  A    between atoms: C5_5  and  C6_7 
REMARK    7  A    between atoms: C6_7  and  O2_9 
REMARK    8  A    between atoms: C6_7  and  C8_10 
REMARK    9  A    between atoms: C8_10  and  O3_11 
ROOT
HETATM    1  C9  UNL     1     -17.066   3.659  14.821  1.00  0.00    -0.001 C 
HETATM    2  C10 UNL     1     -17.281   3.636  13.277  1.00  0.00     0.007 C 
HETATM    3  C11 UNL     1     -17.225   2.166  12.825  1.00  0.00     0.015 C 
HETATM    4  C12 UNL     1     -17.331   1.347  14.124  1.00  0.00    -0.004 C 
HETATM    5  C13 UNL     1     -18.849   1.253  14.480  1.00  0.00     0.021 C 
HETATM    6  C14 UNL     1     -16.840  -0.093  14.177  1.00  0.00     0.007 C 
HETATM    7  C15 UNL     1     -16.392  -0.680  15.316  1.00  0.00     0.007 C 
HETATM    8  C16 UNL     1     -16.232   0.207  16.542  1.00  0.00     0.157 C 
HETATM    9  O4  UNL     1     -15.743  -0.234  17.577  1.00  0.00    -0.293 OA
HETATM   10  C17 UNL     1     -16.639   1.676  16.495  1.00  0.00     0.094 C 
HETATM   11  C18 UNL     1     -16.468   2.244  15.087  1.00  0.00    -0.022 C 
HETATM   12  C19 UNL     1     -14.948   2.254  14.731  1.00  0.00     0.017 C 
HETATM   13  C20 UNL     1     -16.010  -2.181  15.446  1.00  0.00    -0.007 C 
HETATM   14  C21 UNL     1     -14.472  -2.264  15.555  1.00  0.00     0.021 C 
HETATM   15  C22 UNL     1     -16.685  -2.828  16.685  1.00  0.00     0.022 C 
HETATM   16  C23 UNL     1     -16.596  -4.349  16.791  1.00  0.00     0.080 C 
HETATM   17  C24 UNL     1     -16.007  -5.063  15.599  1.00  0.00     0.135 C 
HETATM   18  O5  UNL     1     -15.414  -6.132  15.776  1.00  0.00    -0.297 OA
HETATM   19  C25 UNL     1     -16.252  -4.509  14.193  1.00  0.00     0.018 C 
HETATM   20  C26 UNL     1     -17.465  -5.281  13.630  1.00  0.00     0.023 C 
HETATM   21  C27 UNL     1     -15.029  -4.855  13.317  1.00  0.00     0.023 C 
HETATM   22  C28 UNL     1     -16.582  -2.980  14.223  1.00  0.00     0.021 C 
HETATM   23  C29 UNL     1     -16.268  -2.262  12.912  1.00  0.00     0.090 C 
HETATM   24  C30 UNL     1     -16.911  -0.903  12.920  1.00  0.00     0.157 C 
HETATM   25  O6  UNL     1     -17.440  -0.462  11.901  1.00  0.00    -0.293 OA
ENDROOT
BRANCH   1  26
HETATM   26  C2  UNL     1     -16.321   4.954  15.277  1.00  0.00    -0.014 C 
HETATM   27  C1  UNL     1     -17.189   5.845  16.168  1.00  0.00     0.010 C 
BRANCH  26  28
HETATM   28  C3  UNL     1     -15.847   5.744  14.021  1.00  0.00     0.007 C 
BRANCH  28  29
HETATM   29  C4  UNL     1     -14.691   6.724  14.249  1.00  0.00     0.035 C 
BRANCH  29  30
HETATM   30  C5  UNL     1     -13.892   7.160  13.010  1.00  0.00     0.154 C 
BRANCH  30  31
HETATM   31  O1  UNL     1     -14.795   7.935  12.184  1.00  0.00    -0.392 OA
HETATM   32  H10 UNL     1     -15.521   7.345  11.910  1.00  0.00     0.210 HD
ENDBRANCH  30  31
BRANCH  30  33
HETATM   33  C6  UNL     1     -12.630   8.049  13.213  1.00  0.00     0.101 C 
HETATM   34  C7  UNL     1     -11.328   7.372  12.766  1.00  0.00     0.051 C 
BRANCH  33  35
HETATM   35  O2  UNL     1     -12.503   8.263  14.647  1.00  0.00    -0.385 OA
HETATM   36  H14 UNL     1     -12.611   7.365  15.027  1.00  0.00     0.210 HD
ENDBRANCH  33  35
BRANCH  33  37
HETATM   37  C8  UNL     1     -12.753   9.453  12.591  1.00  0.00     0.204 C 
BRANCH  37  38
HETATM   38  O3  UNL     1     -11.851   9.585  11.492  1.00  0.00    -0.398 OA
HETATM   39  H17 UNL     1     -11.049   9.096  11.780  1.00  0.00     0.209 HD
ENDBRANCH  37  38
ENDBRANCH  33  37
ENDBRANCH  30  33
ENDBRANCH  29  30
ENDBRANCH  28  29
ENDBRANCH  26  28
ENDBRANCH   1  26
TORSDOF 9
ENDMDL
MODEL 4
REMARK minimizedAffinity -8.70249557
REMARK CNNscore 0.357307255
REMARK CNNaffinity 6.7749095
REMARK  9 active torsions:
REMARK  status: ('A' for Active; 'I' for Inactive)
REMARK    1  A    between atoms: C2_2  and  C3_3 
REMARK    2  A    between atoms: C2_2  and  C9_12 
REMARK    3  A    between atoms: C3_3  and  C4_4 
REMARK    4  A    between atoms: C4_4  and  C5_5 
REMARK    5  A    between atoms: C5_5  and  O1_6 
REMARK    6  A    between atoms: C5_5  and  C6_7 
REMARK    7  A    between atoms: C6_7  and  O2_9 
REMARK    8  A    between atoms: C6_7  and  C8_10 
REMARK    9  A    between atoms: C8_10  and  O3_11 
ROOT
HETATM    1  C9  UNL     1      -5.824   6.496  15.039  1.00  0.00    -0.001 C 
HETATM    2  C10 UNL     1      -6.123   5.252  14.150  1.00  0.00     0.007 C 
HETATM    3  C11 UNL     1      -4.882   5.000  13.275  1.00  0.00     0.015 C 
HETATM    4  C12 UNL     1      -3.772   5.861  13.903  1.00  0.00    -0.004 C 
HETATM    5  C13 UNL     1      -3.182   5.044  15.097  1.00  0.00     0.021 C 
HETATM    6  C14 UNL     1      -2.554   6.273  13.089  1.00  0.00     0.007 C 
HETATM    7  C15 UNL     1      -1.850   7.408  13.334  1.00  0.00     0.007 C 
HETATM    8  C16 UNL     1      -2.417   8.372  14.367  1.00  0.00     0.157 C 
HETATM    9  O4  UNL     1      -1.885   9.459  14.570  1.00  0.00    -0.293 OA
HETATM   10  C17 UNL     1      -3.683   8.023  15.141  1.00  0.00     0.094 C 
HETATM   11  C18 UNL     1      -4.604   7.134  14.305  1.00  0.00    -0.022 C 
HETATM   12  C19 UNL     1      -5.117   7.955  13.079  1.00  0.00     0.017 C 
HETATM   13  C20 UNL     1      -0.526   7.799  12.620  1.00  0.00    -0.007 C 
HETATM   14  C21 UNL     1      -0.842   8.964  11.657  1.00  0.00     0.021 C 
HETATM   15  C22 UNL     1       0.565   8.213  13.644  1.00  0.00     0.022 C 
HETATM   16  C23 UNL     1       1.981   8.381  13.097  1.00  0.00     0.080 C 
HETATM   17  C24 UNL     1       2.191   7.967  11.662  1.00  0.00     0.135 C 
HETATM   18  O5  UNL     1       3.067   8.532  10.999  1.00  0.00    -0.297 OA
HETATM   19  C25 UNL     1       1.397   6.787  11.095  1.00  0.00     0.018 C 
HETATM   20  C26 UNL     1       2.308   5.548  11.232  1.00  0.00     0.023 C 
HETATM   21  C27 UNL     1       1.169   7.037   9.588  1.00  0.00     0.023 C 
HETATM   22  C28 UNL     1       0.073   6.546  11.891  1.00  0.00     0.021 C 
HETATM   23  C29 UNL     1      -1.003   5.825  11.082  1.00  0.00     0.090 C 
HETATM   24  C30 UNL     1      -2.090   5.349  12.006  1.00  0.00     0.157 C 
HETATM   25  O6  UNL     1      -2.607   4.246  11.840  1.00  0.00    -0.293 OA
ENDROOT
BRANCH   1  26
HETATM   26  C2  UNL     1      -7.119   7.319  15.329  1.00  0.00    -0.014 C 
HETATM   27  C1  UNL     1      -7.583   7.187  16.781  1.00  0.00     0.010 C 
BRANCH  26  28
HETATM   28  C3  UNL     1      -8.247   6.862  14.357  1.00  0.00     0.007 C 
BRANCH  28  29
HETATM   29  C4  UNL     1      -9.626   7.484  14.599  1.00  0.00     0.035 C 
BRANCH  29  30
HETATM   30  C5  UNL     1     -10.803   6.901  13.801  1.00  0.00     0.154 C 
BRANCH  30  31
HETATM   31  O1  UNL     1     -11.684   6.268  14.760  1.00  0.00    -0.392 OA
HETATM   32  H10 UNL     1     -11.186   5.542  15.178  1.00  0.00     0.210 HD
ENDBRANCH  30  31
BRANCH  30  33
HETATM   33  C6  UNL     1     -11.698   7.874  12.977  1.00  0.00     0.101 C 
HETATM   34  C7  UNL     1     -13.181   7.482  12.970  1.00  0.00     0.051 C 
BRANCH  33  35
HETATM   35  O2  UNL     1     -11.248   7.777  11.596  1.00  0.00    -0.385 OA
HETATM   36  H14 UNL     1     -11.193   6.811  11.436  1.00  0.00     0.210 HD
ENDBRANCH  33  35
BRANCH  33  37
HETATM   37  C8  UNL     1     -11.528   9.354  13.367  1.00  0.00     0.204 C 
BRANCH  37  38
HETATM   38  O3  UNL     1     -12.196  10.192  12.423  1.00  0.00    -0.398 OA
HETATM   39  H17 UNL     1     -12.041   9.751  11.559  1.00  0.00     0.209 HD
ENDBRANCH  37  38
ENDBRANCH  33  37
ENDBRANCH  30  33
ENDBRANCH  29  30
ENDBRANCH  28  29
ENDBRANCH  26  28
ENDBRANCH   1  26
TORSDOF 9
ENDMDL
MODEL 5
REMARK minimizedAffinity -7.14099407
REMARK CNNscore 0.332062542
REMARK CNNaffinity 6.44671488
REMARK  9 active torsions:
REMARK  status: ('A' for Active; 'I' for Inactive)
REMARK    1  A    between atoms: C2_2  and  C3_3 
REMARK    2  A    between atoms: C2_2  and  C9_12 
REMARK    3  A    between atoms: C3_3  and  C4_4 
REMARK    4  A    between atoms: C4_4  and  C5_5 
REMARK    5  A    between atoms: C5_5  and  O1_6 
REMARK    6  A    between atoms: C5_5  and  C6_7 
REMARK    7  A    between atoms: C6_7  and  O2_9 
REMARK    8  A    between atoms: C6_7  and  C8_10 
REMARK    9  A    between atoms: C8_10  and  O3_11 
ROOT
HETATM    1  C9  UNL     1      -1.651   9.763  15.129  1.00  0.00    -0.001 C 
HETATM    2  C10 UNL     1      -0.457   8.903  14.616  1.00  0.00     0.007 C 
HETATM    3  C11 UNL     1      -1.044   7.643  13.959  1.00  0.00     0.015 C 
HETATM    4  C12 UNL     1      -2.543   7.946  13.785  1.00  0.00    -0.004 C 
HETATM    5  C13 UNL     1      -2.690   8.784  12.474  1.00  0.00     0.021 C 
HETATM    6  C14 UNL     1      -3.552   6.818  13.627  1.00  0.00     0.007 C 
HETATM    7  C15 UNL     1      -4.850   6.927  14.010  1.00  0.00     0.007 C 
HETATM    8  C16 UNL     1      -5.250   8.183  14.771  1.00  0.00     0.157 C 
HETATM    9  O4  UNL     1      -6.382   8.306  15.229  1.00  0.00    -0.293 OA
HETATM   10  C17 UNL     1      -4.238   9.297  15.016  1.00  0.00     0.094 C 
HETATM   11  C18 UNL     1      -2.821   8.733  15.119  1.00  0.00    -0.022 C 
HETATM   12  C19 UNL     1      -2.728   7.840  16.397  1.00  0.00     0.017 C 
HETATM   13  C20 UNL     1      -5.943   5.855  13.745  1.00  0.00    -0.007 C 
HETATM   14  C21 UNL     1      -6.268   5.178  15.094  1.00  0.00     0.021 C 
HETATM   15  C22 UNL     1      -7.218   6.491  13.128  1.00  0.00     0.022 C 
HETATM   16  C23 UNL     1      -8.270   5.521  12.592  1.00  0.00     0.080 C 
HETATM   17  C24 UNL     1      -7.879   4.064  12.573  1.00  0.00     0.135 C 
HETATM   18  O5  UNL     1      -8.761   3.207  12.686  1.00  0.00    -0.297 OA
HETATM   19  C25 UNL     1      -6.422   3.678  12.302  1.00  0.00     0.018 C 
HETATM   20  C26 UNL     1      -6.329   3.374  10.791  1.00  0.00     0.023 C 
HETATM   21  C27 UNL     1      -6.119   2.369  13.063  1.00  0.00     0.023 C 
HETATM   22  C28 UNL     1      -5.441   4.843  12.657  1.00  0.00     0.021 C 
HETATM   23  C29 UNL     1      -4.022   4.372  12.970  1.00  0.00     0.090 C 
HETATM   24  C30 UNL     1      -3.091   5.554  12.971  1.00  0.00     0.157 C 
HETATM   25  O6  UNL     1      -1.968   5.458  12.480  1.00  0.00    -0.293 OA
ENDROOT
BRANCH   1  26
HETATM   26  C2  UNL     1      -1.275  10.553  16.423  1.00  0.00    -0.014 C 
HETATM   27  C1  UNL     1      -2.360  11.551  16.835  1.00  0.00     0.010 C 
BRANCH  26  28
HETATM   28  C3  UNL     1       0.080  11.288  16.202  1.00  0.00     0.007 C 
BRANCH  28  29
HETATM   29  C4  UNL     1       0.050  12.809  16.389  1.00  0.00     0.035 C 
BRANCH  29  30
HETATM   30  C5  UNL     1       0.347  13.669  15.150  1.00  0.00     0.154 C 
BRANCH  30  31
HETATM   31  O1  UNL     1       1.144  12.853  14.258  1.00  0.00    -0.392 OA
HETATM   32  H10 UNL     1       1.979  12.648  14.717  1.00  0.00     0.210 HD
ENDBRANCH  30  31
BRANCH  30  33
HETATM   33  C6  UNL     1      -0.850  14.188  14.300  1.00  0.00     0.101 C 
HETATM   34  C7  UNL     1      -1.965  14.824  15.139  1.00  0.00     0.051 C 
BRANCH  33  35
HETATM   35  O2  UNL     1      -1.440  13.019  13.664  1.00  0.00    -0.385 OA
HETATM   36  H14 UNL     1      -1.525  12.372  14.396  1.00  0.00     0.210 HD
ENDBRANCH  33  35
BRANCH  33  37
HETATM   37  C8  UNL     1      -0.434  15.123  13.149  1.00  0.00     0.204 C 
BRANCH  37  38
HETATM   38  O3  UNL     1       0.811  15.754  13.454  1.00  0.00    -0.398 OA
HETATM   39  H17 UNL     1       0.760  15.932  14.418  1.00  0.00     0.209 HD
ENDBRANCH  37  38
ENDBRANCH  33  37
ENDBRANCH  30  33
ENDBRANCH  29  30
ENDBRANCH  28  29
ENDBRANCH  26  28
ENDBRANCH   1  26
TORSDOF 9
ENDMDL
MODEL 6
REMARK minimizedAffinity -7.86527586
REMARK CNNscore 0.33016333
REMARK CNNaffinity 6.77598047
REMARK  9 active torsions:
REMARK  status: ('A' for Active; 'I' for Inactive)
REMARK    1  A    between atoms: C2_2  and  C3_3 
REMARK    2  A    between atoms: C2_2  and  C9_12 
REMARK    3  A    between atoms: C3_3  and  C4_4 
REMARK    4  A    between atoms: C4_4  and  C5_5 
REMARK    5  A    between atoms: C5_5  and  O1_6 
REMARK    6  A    between atoms: C5_5  and  C6_7 
REMARK    7  A    between atoms: C6_7  and  O2_9 
REMARK    8  A    between atoms: C6_7  and  C8_10 
REMARK    9  A    between atoms: C8_10  and  O3_11 
ROOT
HETATM    1  C9  UNL     1      -7.178   6.947  15.279  1.00  0.00    -0.001 C 
HETATM    2  C10 UNL     1      -7.256   5.477  14.767  1.00  0.00     0.007 C 
HETATM    3  C11 UNL     1      -5.895   5.134  14.137  1.00  0.00     0.015 C 
HETATM    4  C12 UNL     1      -4.950   6.260  14.595  1.00  0.00    -0.004 C 
HETATM    5  C13 UNL     1      -4.459   5.886  16.030  1.00  0.00     0.021 C 
HETATM    6  C14 UNL     1      -3.673   6.564  13.826  1.00  0.00     0.007 C 
HETATM    7  C15 UNL     1      -3.102   7.795  13.798  1.00  0.00     0.007 C 
HETATM    8  C16 UNL     1      -3.876   8.939  14.439  1.00  0.00     0.157 C 
HETATM    9  O4  UNL     1      -3.465  10.092  14.368  1.00  0.00    -0.293 OA
HETATM   10  C17 UNL     1      -5.201   8.677  15.147  1.00  0.00     0.094 C 
HETATM   11  C18 UNL     1      -5.929   7.489  14.519  1.00  0.00    -0.022 C 
HETATM   12  C19 UNL     1      -6.340   7.867  13.061  1.00  0.00     0.017 C 
HETATM   13  C20 UNL     1      -1.731   8.120  13.140  1.00  0.00    -0.007 C 
HETATM   14  C21 UNL     1      -2.011   8.921  11.851  1.00  0.00     0.021 C 
HETATM   15  C22 UNL     1      -0.822   8.928  14.104  1.00  0.00     0.022 C 
HETATM   16  C23 UNL     1       0.636   9.098  13.681  1.00  0.00     0.080 C 
HETATM   17  C24 UNL     1       1.065   8.324  12.459  1.00  0.00     0.135 C 
HETATM   18  O5  UNL     1       1.973   8.776  11.753  1.00  0.00    -0.297 OA
HETATM   19  C25 UNL     1       0.451   6.948  12.185  1.00  0.00     0.018 C 
HETATM   20  C26 UNL     1       1.433   5.911  12.772  1.00  0.00     0.023 C 
HETATM   21  C27 UNL     1       0.404   6.736  10.656  1.00  0.00     0.023 C 
HETATM   22  C28 UNL     1      -0.942   6.789  12.877  1.00  0.00     0.021 C 
HETATM   23  C29 UNL     1      -1.841   5.751  12.208  1.00  0.00     0.090 C 
HETATM   24  C30 UNL     1      -2.998   5.432  13.115  1.00  0.00     0.157 C 
HETATM   25  O6  UNL     1      -3.397   4.275  13.227  1.00  0.00    -0.293 OA
ENDROOT
BRANCH   1  26
HETATM   26  C2  UNL     1      -8.563   7.663  15.180  1.00  0.00    -0.014 C 
HETATM   27  C1  UNL     1      -9.152   7.989  16.554  1.00  0.00     0.010 C 
BRANCH  26  28
HETATM   28  C3  UNL     1      -9.547   6.770  14.367  1.00  0.00     0.007 C 
BRANCH  28  29
HETATM   29  C4  UNL     1     -11.036   7.070  14.567  1.00  0.00     0.035 C 
BRANCH  29  30
HETATM   30  C5  UNL     1     -11.748   7.841  13.444  1.00  0.00     0.154 C 
BRANCH  30  31
HETATM   31  O1  UNL     1     -12.671   6.914  12.823  1.00  0.00    -0.392 OA
HETATM   32  H10 UNL     1     -12.144   6.192  12.435  1.00  0.00     0.210 HD
ENDBRANCH  30  31
BRANCH  30  33
HETATM   33  C6  UNL     1     -12.591   9.095  13.821  1.00  0.00     0.101 C 
HETATM   34  C7  UNL     1     -12.090   9.812  15.081  1.00  0.00     0.051 C 
BRANCH  33  35
HETATM   35  O2  UNL     1     -13.928   8.613  14.136  1.00  0.00    -0.385 OA
HETATM   36  H14 UNL     1     -13.768   7.857  14.739  1.00  0.00     0.210 HD
ENDBRANCH  33  35
BRANCH  33  37
HETATM   37  C8  UNL     1     -12.770  10.094  12.662  1.00  0.00     0.204 C 
BRANCH  37  38
HETATM   38  O3  UNL     1     -12.003   9.676  11.531  1.00  0.00    -0.398 OA
HETATM   39  H17 UNL     1     -11.179   9.312  11.921  1.00  0.00     0.209 HD
ENDBRANCH  37  38
ENDBRANCH  33  37
ENDBRANCH  30  33
ENDBRANCH  29  30
ENDBRANCH  28  29
ENDBRANCH  26  28
ENDBRANCH   1  26
TORSDOF 9
ENDMDL
MODEL 7
REMARK minimizedAffinity -7.52089739
REMARK CNNscore 0.296271861
REMARK CNNaffinity 6.13129663
REMARK  9 active torsions:
REMARK  status: ('A' for Active; 'I' for Inactive)
REMARK    1  A    between atoms: C2_2  and  C3_3 
REMARK    2  A    between atoms: C2_2  and  C9_12 
REMARK    3  A    between atoms: C3_3  and  C4_4 
REMARK    4  A    between atoms: C4_4  and  C5_5 
REMARK    5  A    between atoms: C5_5  and  O1_6 
REMARK    6  A    between atoms: C5_5  and  C6_7 
REMARK    7  A    between atoms: C6_7  and  O2_9 
REMARK    8  A    between atoms: C6_7  and  C8_10 
REMARK    9  A    between atoms: C8_10  and  O3_11 
ROOT
HETATM    1  C9  UNL     1       1.915  11.918  17.178  1.00  0.00    -0.001 C 
HETATM    2  C10 UNL     1       3.006  10.809  17.257  1.00  0.00     0.007 C 
HETATM    3  C11 UNL     1       2.434   9.548  16.586  1.00  0.00     0.015 C 
HETATM    4  C12 UNL     1       1.185  10.034  15.829  1.00  0.00    -0.004 C 
HETATM    5  C13 UNL     1       1.677  10.621  14.467  1.00  0.00     0.021 C 
HETATM    6  C14 UNL     1       0.081   9.059  15.443  1.00  0.00     0.007 C 
HETATM    7  C15 UNL     1      -1.216   9.431  15.295  1.00  0.00     0.007 C 
HETATM    8  C16 UNL     1      -1.584  10.854  15.694  1.00  0.00     0.157 C 
HETATM    9  O4  UNL     1      -2.752  11.228  15.676  1.00  0.00    -0.293 OA
HETATM   10  C17 UNL     1      -0.511  11.830  16.163  1.00  0.00     0.094 C 
HETATM   11  C18 UNL     1       0.633  11.090  16.856  1.00  0.00    -0.022 C 
HETATM   12  C19 UNL     1       0.091  10.451  18.174  1.00  0.00     0.017 C 
HETATM   13  C20 UNL     1      -2.348   8.503  14.773  1.00  0.00    -0.007 C 
HETATM   14  C21 UNL     1      -3.252   8.149  15.974  1.00  0.00     0.021 C 
HETATM   15  C22 UNL     1      -3.170   9.194  13.652  1.00  0.00     0.022 C 
HETATM   16  C23 UNL     1      -4.149   8.309  12.883  1.00  0.00     0.080 C 
HETATM   17  C24 UNL     1      -4.087   6.833  13.189  1.00  0.00     0.135 C 
HETATM   18  O5  UNL     1      -5.112   6.153  13.066  1.00  0.00    -0.297 OA
HETATM   19  C25 UNL     1      -2.740   6.190  13.531  1.00  0.00     0.018 C 
HETATM   20  C26 UNL     1      -2.197   5.596  12.214  1.00  0.00     0.023 C 
HETATM   21  C27 UNL     1      -2.998   5.017  14.503  1.00  0.00     0.023 C 
HETATM   22  C28 UNL     1      -1.722   7.241  14.083  1.00  0.00     0.021 C 
HETATM   23  C29 UNL     1      -0.630   6.631  14.959  1.00  0.00     0.090 C 
HETATM   24  C30 UNL     1       0.467   7.640  15.165  1.00  0.00     0.157 C 
HETATM   25  O6  UNL     1       1.645   7.287  15.146  1.00  0.00    -0.293 OA
ENDROOT
BRANCH   1  26
HETATM   26  C2  UNL     1       1.976  12.873  18.413  1.00  0.00    -0.014 C 
HETATM   27  C1  UNL     1       2.557  14.244  18.062  1.00  0.00     0.010 C 
BRANCH  26  28
HETATM   28  C3  UNL     1       2.815  12.202  19.540  1.00  0.00     0.007 C 
BRANCH  28  29
HETATM   29  C4  UNL     1       2.036  11.794  20.796  1.00  0.00     0.035 C 
BRANCH  29  30
HETATM   30  C5  UNL     1       2.124  10.320  21.222  1.00  0.00     0.154 C 
BRANCH  30  31
HETATM   31  O1  UNL     1       2.696   9.597  20.105  1.00  0.00    -0.392 OA
HETATM   32  H10 UNL     1       2.078   9.681  19.356  1.00  0.00     0.210 HD
ENDBRANCH  30  31
BRANCH  30  33
HETATM   33  C6  UNL     1       2.996   9.954  22.459  1.00  0.00     0.101 C 
HETATM   34  C7  UNL     1       3.141  11.102  23.466  1.00  0.00     0.051 C 
BRANCH  33  35
HETATM   35  O2  UNL     1       4.335   9.687  21.955  1.00  0.00    -0.385 OA
HETATM   36  H14 UNL     1       4.516  10.446  21.359  1.00  0.00     0.210 HD
ENDBRANCH  33  35
BRANCH  33  37
HETATM   37  C8  UNL     1       2.553   8.661  23.170  1.00  0.00     0.204 C 
BRANCH  37  38
HETATM   38  O3  UNL     1       1.835   7.823  22.263  1.00  0.00    -0.398 OA
HETATM   39  H17 UNL     1       1.309   8.452  21.722  1.00  0.00     0.209 HD
ENDBRANCH  37  38
ENDBRANCH  33  37
ENDBRANCH  30  33
ENDBRANCH  29  30
ENDBRANCH  28  29
ENDBRANCH  26  28
ENDBRANCH   1  26
TORSDOF 9
ENDMDL
MODEL 8
REMARK minimizedAffinity -8.78565979
REMARK CNNscore 0.278176308
REMARK CNNaffinity 6.65912628
REMARK  9 active torsions:
REMARK  status: ('A' for Active; 'I' for Inactive)
REMARK    1  A    between atoms: C2_2  and  C3_3 
REMARK    2  A    between atoms: C2_2  and  C9_12 
REMARK    3  A    between atoms: C3_3  and  C4_4 
REMARK    4  A    between atoms: C4_4  and  C5_5 
REMARK    5  A    between atoms: C5_5  and  O1_6 
REMARK    6  A    between atoms: C5_5  and  C6_7 
REMARK    7  A    between atoms: C6_7  and  O2_9 
REMARK    8  A    between atoms: C6_7  and  C8_10 
REMARK    9  A    between atoms: C8_10  and  O3_11 
ROOT
HETATM    1  C9  UNL     1      -6.391   6.910  14.909  1.00  0.00    -0.001 C 
HETATM    2  C10 UNL     1      -6.139   8.260  15.645  1.00  0.00     0.007 C 
HETATM    3  C11 UNL     1      -4.698   8.697  15.330  1.00  0.00     0.015 C 
HETATM    4  C12 UNL     1      -4.259   7.801  14.158  1.00  0.00    -0.004 C 
HETATM    5  C13 UNL     1      -4.818   8.452  12.852  1.00  0.00     0.021 C 
HETATM    6  C14 UNL     1      -2.784   7.572  13.865  1.00  0.00     0.007 C 
HETATM    7  C15 UNL     1      -2.314   6.445  13.270  1.00  0.00     0.007 C 
HETATM    8  C16 UNL     1      -3.304   5.311  13.041  1.00  0.00     0.157 C 
HETATM    9  O4  UNL     1      -2.930   4.231  12.596  1.00  0.00    -0.293 OA
HETATM   10  C17 UNL     1      -4.776   5.483  13.402  1.00  0.00     0.094 C 
HETATM   11  C18 UNL     1      -4.940   6.446  14.577  1.00  0.00    -0.022 C 
HETATM   12  C19 UNL     1      -4.306   5.799  15.849  1.00  0.00     0.017 C 
HETATM   13  C20 UNL     1      -0.840   6.226  12.830  1.00  0.00    -0.007 C 
HETATM   14  C21 UNL     1      -0.208   5.208  13.804  1.00  0.00     0.021 C 
HETATM   15  C22 UNL     1      -0.759   5.711  11.368  1.00  0.00     0.022 C 
HETATM   16  C23 UNL     1       0.629   5.691  10.730  1.00  0.00     0.080 C 
HETATM   17  C24 UNL     1       1.737   6.327  11.533  1.00  0.00     0.135 C 
HETATM   18  O5  UNL     1       2.891   5.909  11.395  1.00  0.00    -0.297 OA
HETATM   19  C25 UNL     1       1.428   7.543  12.411  1.00  0.00     0.018 C 
HETATM   20  C26 UNL     1       1.783   8.786  11.568  1.00  0.00     0.023 C 
HETATM   21  C27 UNL     1       2.378   7.515  13.628  1.00  0.00     0.023 C 
HETATM   22  C28 UNL     1      -0.085   7.601  12.805  1.00  0.00     0.021 C 
HETATM   23  C29 UNL     1      -0.351   8.388  14.087  1.00  0.00     0.090 C 
HETATM   24  C30 UNL     1      -1.824   8.669  14.205  1.00  0.00     0.157 C 
HETATM   25  O6  UNL     1      -2.216   9.761  14.613  1.00  0.00    -0.293 OA
ENDROOT
BRANCH   1  26
HETATM   26  C2  UNL     1      -7.374   5.996  15.708  1.00  0.00    -0.014 C 
HETATM   27  C1  UNL     1      -7.537   4.615  15.069  1.00  0.00     0.010 C 
BRANCH  26  28
HETATM   28  C3  UNL     1      -8.756   6.705  15.824  1.00  0.00     0.007 C 
BRANCH  28  29
HETATM   29  C4  UNL     1      -9.084   7.709  14.713  1.00  0.00     0.035 C 
BRANCH  29  30
HETATM   30  C5  UNL     1     -10.511   8.278  14.688  1.00  0.00     0.154 C 
BRANCH  30  31
HETATM   31  O1  UNL     1     -10.391   9.692  14.400  1.00  0.00    -0.392 OA
HETATM   32  H10 UNL     1      -9.894  10.099  15.133  1.00  0.00     0.210 HD
ENDBRANCH  30  31
BRANCH  30  33
HETATM   33  C6  UNL     1     -11.519   7.713  13.644  1.00  0.00     0.101 C 
HETATM   34  C7  UNL     1     -12.363   6.548  14.177  1.00  0.00     0.051 C 
BRANCH  33  35
HETATM   35  O2  UNL     1     -10.722   7.169  12.554  1.00  0.00    -0.385 OA
HETATM   36  H14 UNL     1     -10.042   6.629  13.010  1.00  0.00     0.210 HD
ENDBRANCH  33  35
BRANCH  33  37
HETATM   37  C8  UNL     1     -12.419   8.788  13.006  1.00  0.00     0.204 C 
BRANCH  37  38
HETATM   38  O3  UNL     1     -11.769   9.362  11.870  1.00  0.00    -0.398 OA
HETATM   39  H17 UNL     1     -10.825   9.413  12.134  1.00  0.00     0.209 HD
ENDBRANCH  37  38
ENDBRANCH  33  37
ENDBRANCH  30  33
ENDBRANCH  29  30
ENDBRANCH  28  29
ENDBRANCH  26  28
ENDBRANCH   1  26
TORSDOF 9
ENDMDL
MODEL 9
REMARK minimizedAffinity -8.89537907
REMARK CNNscore 0.266670972
REMARK CNNaffinity 6.47088623
REMARK  9 active torsions:
REMARK  status: ('A' for Active; 'I' for Inactive)
REMARK    1  A    between atoms: C2_2  and  C3_3 
REMARK    2  A    between atoms: C2_2  and  C9_12 
REMARK    3  A    between atoms: C3_3  and  C4_4 
REMARK    4  A    between atoms: C4_4  and  C5_5 
REMARK    5  A    between atoms: C5_5  and  O1_6 
REMARK    6  A    between atoms: C5_5  and  C6_7 
REMARK    7  A    between atoms: C6_7  and  O2_9 
REMARK    8  A    between atoms: C6_7  and  C8_10 
REMARK    9  A    between atoms: C8_10  and  O3_11 
ROOT
HETATM    1  C9  UNL     1       2.441   8.945  12.875  1.00  0.00    -0.001 C 
HETATM    2  C10 UNL     1       3.202   7.967  11.931  1.00  0.00     0.007 C 
HETATM    3  C11 UNL     1       2.217   6.858  11.523  1.00  0.00     0.015 C 
HETATM    4  C12 UNL     1       0.832   7.384  11.938  1.00  0.00    -0.004 C 
HETATM    5  C13 UNL     1       0.344   8.334  10.797  1.00  0.00     0.021 C 
HETATM    6  C14 UNL     1      -0.331   6.426  12.155  1.00  0.00     0.007 C 
HETATM    7  C15 UNL     1      -1.357   6.689  13.004  1.00  0.00     0.007 C 
HETATM    8  C16 UNL     1      -1.237   7.925  13.884  1.00  0.00     0.157 C 
HETATM    9  O4  UNL     1      -2.080   8.172  14.740  1.00  0.00    -0.293 OA
HETATM   10  C17 UNL     1      -0.040   8.861  13.746  1.00  0.00     0.094 C 
HETATM   11  C18 UNL     1       1.201   8.095  13.292  1.00  0.00    -0.022 C 
HETATM   12  C19 UNL     1       1.619   7.101  14.422  1.00  0.00     0.017 C 
HETATM   13  C20 UNL     1      -2.627   5.806  13.156  1.00  0.00    -0.007 C 
HETATM   14  C21 UNL     1      -2.530   5.079  14.514  1.00  0.00     0.021 C 
HETATM   15  C22 UNL     1      -3.920   6.663  13.082  1.00  0.00     0.022 C 
HETATM   16  C23 UNL     1      -5.237   5.897  12.968  1.00  0.00     0.080 C 
HETATM   17  C24 UNL     1      -5.121   4.406  12.775  1.00  0.00     0.135 C 
HETATM   18  O5  UNL     1      -6.024   3.676  13.199  1.00  0.00    -0.297 OA
HETATM   19  C25 UNL     1      -3.953   3.839  11.963  1.00  0.00     0.018 C 
HETATM   20  C26 UNL     1      -4.480   3.644  10.525  1.00  0.00     0.023 C 
HETATM   21  C27 UNL     1      -3.603   2.445  12.527  1.00  0.00     0.023 C 
HETATM   22  C28 UNL     1      -2.736   4.822  11.939  1.00  0.00     0.021 C 
HETATM   23  C29 UNL     1      -1.399   4.131  11.680  1.00  0.00     0.090 C 
HETATM   24  C30 UNL     1      -0.358   5.165  11.349  1.00  0.00     0.157 C 
HETATM   25  O6  UNL     1       0.471   4.949  10.467  1.00  0.00    -0.293 OA
ENDROOT
BRANCH   1  26
HETATM   26  C2  UNL     1       3.393   9.570  13.944  1.00  0.00    -0.014 C 
HETATM   27  C1  UNL     1       3.569  11.079  13.759  1.00  0.00     0.010 C 
BRANCH  26  28
HETATM   28  C3  UNL     1       4.775   8.853  13.882  1.00  0.00     0.007 C 
BRANCH  28  29
HETATM   29  C4  UNL     1       5.969   9.667  14.393  1.00  0.00     0.035 C 
BRANCH  29  30
HETATM   30  C5  UNL     1       6.842   9.016  15.479  1.00  0.00     0.154 C 
BRANCH  30  31
HETATM   31  O1  UNL     1       6.090   7.893  15.999  1.00  0.00    -0.392 OA
HETATM   32  H10 UNL     1       5.279   8.248  16.407  1.00  0.00     0.210 HD
ENDBRANCH  30  31
BRANCH  30  33
HETATM   33  C6  UNL     1       8.233   8.447  15.073  1.00  0.00     0.101 C 
HETATM   34  C7  UNL     1       8.819   9.103  13.816  1.00  0.00     0.051 C 
BRANCH  33  35
HETATM   35  O2  UNL     1       8.023   7.046  14.737  1.00  0.00    -0.385 OA
HETATM   36  H14 UNL     1       7.242   7.063  14.144  1.00  0.00     0.210 HD
ENDBRANCH  33  35
BRANCH  33  37
HETATM   37  C8  UNL     1       9.263   8.451  16.218  1.00  0.00     0.204 C 
BRANCH  37  38
HETATM   38  O3  UNL     1       8.973   7.403  17.144  1.00  0.00    -0.398 OA
HETATM   39  H17 UNL     1       7.992   7.384  17.185  1.00  0.00     0.209 HD
ENDBRANCH  37  38
ENDBRANCH  33  37
ENDBRANCH  30  33
ENDBRANCH  29  30
ENDBRANCH  28  29
ENDBRANCH  26  28
ENDBRANCH   1  26
TORSDOF 9
ENDMDL
