MODEL 1
REMARK minimizedAffinity -7.13549757
REMARK CNNscore 0.321812809
REMARK CNNaffinity 6.73583221
REMARK  6 active torsions:
REMARK  status: ('A' for Active; 'I' for Inactive)
REMARK    1  A    between atoms: C3_3  and  C4_4 
REMARK    2  A    between atoms: C4_4  and  O2_6 
REMARK    3  A    between atoms: O2_6  and  C5_7 
REMARK    4  A    between atoms: C5_7  and  C6_8 
REMARK    5  A    between atoms: C6_8  and  C7_9 
REMARK    6  A    between atoms: C13_15  and  C14_16 
ROOT
HETATM    1  C1  UNL     1       3.822  52.551 -15.372  1.00  0.00     0.069 C 
HETATM    2  C2  UNL     1       2.552  51.812 -15.707  1.00  0.00     0.018 A 
HETATM    3  C3  UNL     1       2.056  50.770 -15.000  1.00  0.00     0.052 A 
HETATM    4  C13 UNL     1       0.789  50.036 -15.431  1.00  0.00     0.104 A 
HETATM    5  C23 UNL     1       0.215  50.572 -16.737  1.00  0.00     0.024 A 
HETATM    6  C24 UNL     1       0.758  51.635 -17.364  1.00  0.00     0.020 A 
HETATM    7  C25 UNL     1       0.170  52.239 -18.615  1.00  0.00     0.058 C 
HETATM    8  C26 UNL     1      -1.304  51.888 -18.776  1.00  0.00     0.014 C 
HETATM    9  C27 UNL     1      -1.520  50.390 -18.642  1.00  0.00     0.084 C 
HETATM   10  C28 UNL     1      -0.940  49.857 -17.351  1.00  0.00     0.158 C 
HETATM   11  O5  UNL     1      -1.362  48.814 -16.854  1.00  0.00    -0.293 OA
HETATM   12  N1  UNL     1       1.894  52.234 -16.853  1.00  0.00    -0.362 N 
HETATM   13  H24 UNL     1       2.240  53.071 -17.315  1.00  0.00     0.165 HD
ENDROOT
BRANCH   4  14
HETATM   14  C14 UNL     1      -0.241  50.008 -14.311  1.00  0.00     0.029 A 
HETATM   15  C15 UNL     1      -0.639  48.872 -13.717  1.00  0.00     0.154 A 
HETATM   16  O3  UNL     1      -1.548  48.747 -12.699  1.00  0.00    -0.321 OA
HETATM   17  C16 UNL     1      -2.127  49.892 -12.219  1.00  0.00     0.089 A 
HETATM   18  C17 UNL     1      -3.047  49.756 -11.180  1.00  0.00     0.040 A 
HETATM   19  C21 UNL     1      -1.828  51.154 -12.727  1.00  0.00     0.050 A 
HETATM   20  C18 UNL     1      -3.667  50.890 -10.650  1.00  0.00     0.026 A 
HETATM   21  C19 UNL     1      -3.363  52.153 -11.163  1.00  0.00     0.035 A 
HETATM   22 CL1  UNL     1      -4.130  53.545 -10.506  1.00  0.00    -0.084 Cl
HETATM   23  C20 UNL     1      -2.446  52.294 -12.201  1.00  0.00     0.042 A 
HETATM   24  C22 UNL     1      -0.854  51.270 -13.826  1.00  0.00     0.194 A 
HETATM   25  O4  UNL     1      -0.581  52.366 -14.299  1.00  0.00    -0.287 OA
ENDBRANCH   4  14
BRANCH   3  26
HETATM   26  C4  UNL     1       2.700  50.234 -13.783  1.00  0.00     0.292 C 
HETATM   27  O1  UNL     1       2.843  49.038 -13.573  1.00  0.00    -0.259 OA
BRANCH  26  28
HETATM   28  O2  UNL     1       3.004  51.239 -12.927  1.00  0.00    -0.317 OA
BRANCH  28  29
HETATM   29  C5  UNL     1       1.993  51.555 -11.956  1.00  0.00     0.183 C 
BRANCH  29  30
HETATM   30  C6  UNL     1       2.228  52.947 -11.372  1.00  0.00     0.065 C 
BRANCH  30  31
HETATM   31  C7  UNL     1       1.048  53.423 -10.567  1.00  0.00    -0.056 A 
HETATM   32  C8  UNL     1       0.389  54.612 -10.902  1.00  0.00     0.007 A 
HETATM   33  C9  UNL     1      -0.719  55.038 -10.169  1.00  0.00     0.001 A 
HETATM   34  C10 UNL     1      -1.181  54.276  -9.097  1.00  0.00     0.000 A 
HETATM   35  C11 UNL     1      -0.535  53.089  -8.757  1.00  0.00     0.001 A 
HETATM   36  C12 UNL     1       0.574  52.663  -9.489  1.00  0.00     0.007 A 
ENDBRANCH  30  31
ENDBRANCH  29  30
ENDBRANCH  28  29
ENDBRANCH  26  28
ENDBRANCH   3  26
TORSDOF 6
ENDMDL
MODEL 2
REMARK minimizedAffinity -7.93400478
REMARK CNNscore 0.290787697
REMARK CNNaffinity 6.45159149
REMARK  6 active torsions:
REMARK  status: ('A' for Active; 'I' for Inactive)
REMARK    1  A    between atoms: C3_3  and  C4_4 
REMARK    2  A    between atoms: C4_4  and  O2_6 
REMARK    3  A    between atoms: O2_6  and  C5_7 
REMARK    4  A    between atoms: C5_7  and  C6_8 
REMARK    5  A    between atoms: C6_8  and  C7_9 
REMARK    6  A    between atoms: C13_15  and  C14_16 
ROOT
HETATM    1  C1  UNL     1       3.833  52.869 -15.736  1.00  0.00     0.069 C 
HETATM    2  C2  UNL     1       2.664  51.919 -15.736  1.00  0.00     0.018 A 
HETATM    3  C3  UNL     1       2.404  51.016 -14.761  1.00  0.00     0.052 A 
HETATM    4  C13 UNL     1       1.227  50.049 -14.855  1.00  0.00     0.104 A 
HETATM    5  C23 UNL     1       0.452  50.190 -16.159  1.00  0.00     0.024 A 
HETATM    6  C24 UNL     1       0.763  51.139 -17.066  1.00  0.00     0.020 A 
HETATM    7  C25 UNL     1      -0.031  51.357 -18.331  1.00  0.00     0.058 C 
HETATM    8  C26 UNL     1      -1.443  50.795 -18.218  1.00  0.00     0.014 C 
HETATM    9  C27 UNL     1      -1.415  49.355 -17.737  1.00  0.00     0.084 C 
HETATM   10  C28 UNL     1      -0.636  49.214 -16.449  1.00  0.00     0.158 C 
HETATM   11  O5  UNL     1      -0.844  48.269 -15.688  1.00  0.00    -0.293 OA
HETATM   12  N1  UNL     1       1.840  51.978 -16.850  1.00  0.00    -0.362 N 
HETATM   13  H24 UNL     1       2.008  52.721 -17.522  1.00  0.00     0.165 HD
ENDROOT
BRANCH   4  14
HETATM   14  C14 UNL     1       0.329  50.153 -13.631  1.00  0.00     0.029 A 
HETATM   15  C15 UNL     1       0.225  49.172 -12.720  1.00  0.00     0.154 A 
HETATM   16  O3  UNL     1      -0.545  49.176 -11.585  1.00  0.00    -0.321 OA
HETATM   17  C16 UNL     1      -1.299  50.292 -11.334  1.00  0.00     0.089 A 
HETATM   18  C17 UNL     1      -2.076  50.290 -10.175  1.00  0.00     0.040 A 
HETATM   19  C21 UNL     1      -1.310  51.397 -12.181  1.00  0.00     0.050 A 
HETATM   20  C18 UNL     1      -2.864  51.402  -9.867  1.00  0.00     0.026 A 
HETATM   21  C19 UNL     1      -2.871  52.507 -10.719  1.00  0.00     0.035 A 
HETATM   22 CL1  UNL     1      -3.843  53.872 -10.334  1.00  0.00    -0.084 Cl
HETATM   23  C20 UNL     1      -2.098  52.514 -11.878  1.00  0.00     0.042 A 
HETATM   24  C22 UNL     1      -0.483  51.373 -13.399  1.00  0.00     0.194 A 
HETATM   25  O4  UNL     1      -0.482  52.328 -14.166  1.00  0.00    -0.287 OA
ENDBRANCH   4  14
BRANCH   3  26
HETATM   26  C4  UNL     1       3.238  50.862 -13.551  1.00  0.00     0.292 C 
HETATM   27  O1  UNL     1       3.978  49.907 -13.366  1.00  0.00    -0.259 OA
BRANCH  26  28
HETATM   28  O2  UNL     1       2.986  51.862 -12.673  1.00  0.00    -0.317 OA
BRANCH  28  29
HETATM   29  C5  UNL     1       3.271  51.565 -11.296  1.00  0.00     0.183 C 
BRANCH  29  30
HETATM   30  C6  UNL     1       3.080  52.808 -10.429  1.00  0.00     0.065 C 
BRANCH  30  31
HETATM   31  C7  UNL     1       4.396  53.382  -9.976  1.00  0.00    -0.056 A 
HETATM   32  C8  UNL     1       4.676  54.744 -10.143  1.00  0.00     0.007 A 
HETATM   33  C9  UNL     1       5.887  55.276  -9.700  1.00  0.00     0.001 A 
HETATM   34  C10 UNL     1       6.827  54.453  -9.082  1.00  0.00     0.000 A 
HETATM   35  C11 UNL     1       6.557  53.097  -8.908  1.00  0.00     0.001 A 
HETATM   36  C12 UNL     1       5.347  52.563  -9.351  1.00  0.00     0.007 A 
ENDBRANCH  30  31
ENDBRANCH  29  30
ENDBRANCH  28  29
ENDBRANCH  26  28
ENDBRANCH   3  26
TORSDOF 6
ENDMDL
MODEL 3
REMARK minimizedAffinity -9.19521332
REMARK CNNscore 0.24953045
REMARK CNNaffinity 6.80715179
REMARK  6 active torsions:
REMARK  status: ('A' for Active; 'I' for Inactive)
REMARK    1  A    between atoms: C3_3  and  C4_4 
REMARK    2  A    between atoms: C4_4  and  O2_6 
REMARK    3  A    between atoms: O2_6  and  C5_7 
REMARK    4  A    between atoms: C5_7  and  C6_8 
REMARK    5  A    between atoms: C6_8  and  C7_9 
REMARK    6  A    between atoms: C13_15  and  C14_16 
ROOT
HETATM    1  C1  UNL     1       0.329  52.885 -25.016  1.00  0.00     0.069 C 
HETATM    2  C2  UNL     1      -0.162  52.568 -23.628  1.00  0.00     0.018 A 
HETATM    3  C3  UNL     1      -1.361  52.009 -23.343  1.00  0.00     0.052 A 
HETATM    4  C13 UNL     1      -1.814  51.764 -21.906  1.00  0.00     0.104 A 
HETATM    5  C23 UNL     1      -0.804  52.263 -20.879  1.00  0.00     0.024 A 
HETATM    6  C24 UNL     1       0.383  52.784 -21.251  1.00  0.00     0.020 A 
HETATM    7  C25 UNL     1       1.436  53.216 -20.261  1.00  0.00     0.058 C 
HETATM    8  C26 UNL     1       1.251  52.543 -18.906  1.00  0.00     0.014 C 
HETATM    9  C27 UNL     1      -0.176  52.704 -18.412  1.00  0.00     0.084 C 
HETATM   10  C28 UNL     1      -1.177  52.219 -19.437  1.00  0.00     0.158 C 
HETATM   11  O5  UNL     1      -2.304  51.863 -19.095  1.00  0.00    -0.293 OA
HETATM   12  N1  UNL     1       0.687  52.926 -22.592  1.00  0.00    -0.362 N 
HETATM   13  H24 UNL     1       1.614  53.264 -22.837  1.00  0.00     0.165 HD
ENDROOT
BRANCH   4  14
HETATM   14  C14 UNL     1      -2.193  50.307 -21.687  1.00  0.00     0.029 A 
HETATM   15  C15 UNL     1      -1.281  49.327 -21.580  1.00  0.00     0.154 A 
HETATM   16  O3  UNL     1      -1.522  47.993 -21.373  1.00  0.00    -0.321 OA
HETATM   17  C16 UNL     1      -2.828  47.593 -21.262  1.00  0.00     0.089 A 
HETATM   18  C17 UNL     1      -3.064  46.235 -21.046  1.00  0.00     0.040 A 
HETATM   19  C21 UNL     1      -3.896  48.482 -21.353  1.00  0.00     0.050 A 
HETATM   20  C18 UNL     1      -4.376  45.771 -20.923  1.00  0.00     0.026 A 
HETATM   21  C19 UNL     1      -5.442  46.667 -21.015  1.00  0.00     0.035 A 
HETATM   22 CL1  UNL     1      -7.054  46.089 -20.861  1.00  0.00    -0.084 Cl
HETATM   23  C20 UNL     1      -5.212  48.024 -21.230  1.00  0.00     0.042 A 
HETATM   24  C22 UNL     1      -3.619  49.911 -21.582  1.00  0.00     0.194 A 
HETATM   25  O4  UNL     1      -4.540  50.712 -21.678  1.00  0.00    -0.287 OA
ENDBRANCH   4  14
BRANCH   3  26
HETATM   26  C4  UNL     1      -2.343  51.618 -24.377  1.00  0.00     0.292 C 
HETATM   27  O1  UNL     1      -3.411  52.190 -24.534  1.00  0.00    -0.259 OA
BRANCH  26  28
HETATM   28  O2  UNL     1      -1.924  50.507 -25.029  1.00  0.00    -0.317 OA
BRANCH  28  29
HETATM   29  C5  UNL     1      -2.859  49.416 -25.058  1.00  0.00     0.183 C 
BRANCH  29  30
HETATM   30  C6  UNL     1      -2.891  48.774 -26.444  1.00  0.00     0.065 C 
BRANCH  30  31
HETATM   31  C7  UNL     1      -4.276  48.319 -26.819  1.00  0.00    -0.056 A 
HETATM   32  C8  UNL     1      -5.251  48.118 -25.834  1.00  0.00     0.007 A 
HETATM   33  C9  UNL     1      -6.541  47.719 -26.187  1.00  0.00     0.001 A 
HETATM   34  C10 UNL     1      -6.867  47.519 -27.527  1.00  0.00     0.000 A 
HETATM   35  C11 UNL     1      -5.905  47.718 -28.516  1.00  0.00     0.001 A 
HETATM   36  C12 UNL     1      -4.615  48.117 -28.164  1.00  0.00     0.007 A 
ENDBRANCH  30  31
ENDBRANCH  29  30
ENDBRANCH  28  29
ENDBRANCH  26  28
ENDBRANCH   3  26
TORSDOF 6
ENDMDL
MODEL 4
REMARK minimizedAffinity -7.2237711
REMARK CNNscore 0.235046402
REMARK CNNaffinity 5.70449305
REMARK  6 active torsions:
REMARK  status: ('A' for Active; 'I' for Inactive)
REMARK    1  A    between atoms: C3_3  and  C4_4 
REMARK    2  A    between atoms: C4_4  and  O2_6 
REMARK    3  A    between atoms: O2_6  and  C5_7 
REMARK    4  A    between atoms: C5_7  and  C6_8 
REMARK    5  A    between atoms: C6_8  and  C7_9 
REMARK    6  A    between atoms: C13_15  and  C14_16 
ROOT
HETATM    1  C1  UNL     1      -9.159  49.062 -30.689  1.00  0.00     0.069 C 
HETATM    2  C2  UNL     1      -9.557  47.614 -30.808  1.00  0.00     0.018 A 
HETATM    3  C3  UNL     1      -9.465  46.704 -29.811  1.00  0.00     0.052 A 
HETATM    4  C13 UNL     1      -9.839  45.238 -30.022  1.00  0.00     0.104 A 
HETATM    5  C23 UNL     1     -10.257  44.939 -31.456  1.00  0.00     0.024 A 
HETATM    6  C24 UNL     1     -10.348  45.915 -32.384  1.00  0.00     0.020 A 
HETATM    7  C25 UNL     1     -10.832  45.667 -33.791  1.00  0.00     0.058 C 
HETATM    8  C26 UNL     1     -11.667  44.396 -33.888  1.00  0.00     0.014 C 
HETATM    9  C27 UNL     1     -10.936  43.221 -33.261  1.00  0.00     0.084 C 
HETATM   10  C28 UNL     1     -10.512  43.523 -31.841  1.00  0.00     0.158 C 
HETATM   11  O5  UNL     1     -10.310  42.613 -31.038  1.00  0.00    -0.293 OA
HETATM   12  N1  UNL     1     -10.008  47.214 -32.057  1.00  0.00    -0.362 N 
HETATM   13  H24 UNL     1     -10.148  47.934 -32.761  1.00  0.00     0.165 HD
ENDROOT
BRANCH   4  14
HETATM   14  C14 UNL     1     -10.876  44.783 -29.007  1.00  0.00     0.029 A 
HETATM   15  C15 UNL     1     -10.602  43.903 -28.031  1.00  0.00     0.154 A 
HETATM   16  O3  UNL     1     -11.462  43.440 -27.068  1.00  0.00    -0.321 OA
HETATM   17  C16 UNL     1     -12.748  43.914 -27.085  1.00  0.00     0.089 A 
HETATM   18  C17 UNL     1     -13.615  43.443 -26.100  1.00  0.00     0.040 A 
HETATM   19  C21 UNL     1     -13.198  44.829 -28.034  1.00  0.00     0.050 A 
HETATM   20  C18 UNL     1     -14.937  43.893 -26.068  1.00  0.00     0.026 A 
HETATM   21  C19 UNL     1     -15.383  44.810 -27.020  1.00  0.00     0.035 A 
HETATM   22 CL1  UNL     1     -17.012  45.360 -26.974  1.00  0.00    -0.084 Cl
HETATM   23  C20 UNL     1     -14.522  45.284 -28.007  1.00  0.00     0.042 A 
HETATM   24  C22 UNL     1     -12.263  45.310 -29.065  1.00  0.00     0.194 A 
HETATM   25  O4  UNL     1     -12.636  46.106 -29.917  1.00  0.00    -0.287 OA
ENDBRANCH   4  14
BRANCH   3  26
HETATM   26  C4  UNL     1      -8.972  47.029 -28.456  1.00  0.00     0.292 C 
HETATM   27  O1  UNL     1      -9.632  47.649 -27.635  1.00  0.00    -0.259 OA
BRANCH  26  28
HETATM   28  O2  UNL     1      -7.686  46.629 -28.313  1.00  0.00    -0.317 OA
BRANCH  28  29
HETATM   29  C5  UNL     1      -6.934  47.310 -27.294  1.00  0.00     0.183 C 
BRANCH  29  30
HETATM   30  C6  UNL     1      -5.604  47.811 -27.855  1.00  0.00     0.065 C 
BRANCH  30  31
HETATM   31  C7  UNL     1      -4.664  48.244 -26.762  1.00  0.00    -0.056 A 
HETATM   32  C8  UNL     1      -5.094  48.298 -25.431  1.00  0.00     0.007 A 
HETATM   33  C9  UNL     1      -4.213  48.678 -24.418  1.00  0.00     0.001 A 
HETATM   34  C10 UNL     1      -2.894  49.004 -24.726  1.00  0.00     0.000 A 
HETATM   35  C11 UNL     1      -2.454  48.951 -26.048  1.00  0.00     0.001 A 
HETATM   36  C12 UNL     1      -3.334  48.572 -27.062  1.00  0.00     0.007 A 
ENDBRANCH  30  31
ENDBRANCH  29  30
ENDBRANCH  28  29
ENDBRANCH  26  28
ENDBRANCH   3  26
TORSDOF 6
ENDMDL
MODEL 5
REMARK minimizedAffinity -7.40865135
REMARK CNNscore 0.217738956
REMARK CNNaffinity 5.80711222
REMARK  6 active torsions:
REMARK  status: ('A' for Active; 'I' for Inactive)
REMARK    1  A    between atoms: C3_3  and  C4_4 
REMARK    2  A    between atoms: C4_4  and  O2_6 
REMARK    3  A    between atoms: O2_6  and  C5_7 
REMARK    4  A    between atoms: C5_7  and  C6_8 
REMARK    5  A    between atoms: C6_8  and  C7_9 
REMARK    6  A    between atoms: C13_15  and  C14_16 
ROOT
HETATM    1  C1  UNL     1     -10.909  47.249 -31.092  1.00  0.00     0.069 C 
HETATM    2  C2  UNL     1     -11.268  46.584 -29.789  1.00  0.00     0.018 A 
HETATM    3  C3  UNL     1     -10.371  46.103 -28.896  1.00  0.00     0.052 A 
HETATM    4  C13 UNL     1     -10.810  45.392 -27.618  1.00  0.00     0.104 A 
HETATM    5  C23 UNL     1     -12.325  45.252 -27.515  1.00  0.00     0.024 A 
HETATM    6  C24 UNL     1     -13.149  45.787 -28.439  1.00  0.00     0.020 A 
HETATM    7  C25 UNL     1     -14.652  45.734 -28.328  1.00  0.00     0.058 C 
HETATM    8  C26 UNL     1     -15.106  45.511 -26.891  1.00  0.00     0.014 C 
HETATM    9  C27 UNL     1     -14.391  44.319 -26.277  1.00  0.00     0.084 C 
HETATM   10  C28 UNL     1     -12.889  44.454 -26.390  1.00  0.00     0.158 C 
HETATM   11  O5  UNL     1     -12.143  43.857 -25.614  1.00  0.00    -0.293 OA
HETATM   12  N1  UNL     1     -12.624  46.436 -29.542  1.00  0.00    -0.362 N 
HETATM   13  H24 UNL     1     -13.273  46.881 -30.185  1.00  0.00     0.165 HD
ENDROOT
BRANCH   4  14
HETATM   14  C14 UNL     1     -10.202  46.046 -26.387  1.00  0.00     0.029 A 
HETATM   15  C15 UNL     1     -10.628  47.223 -25.903  1.00  0.00     0.154 A 
HETATM   16  O3  UNL     1     -10.152  47.884 -24.799  1.00  0.00    -0.321 OA
HETATM   17  C16 UNL     1      -9.131  47.298 -24.099  1.00  0.00     0.089 A 
HETATM   18  C17 UNL     1      -8.657  47.974 -22.975  1.00  0.00     0.040 A 
HETATM   19  C21 UNL     1      -8.571  46.078 -24.469  1.00  0.00     0.050 A 
HETATM   20  C18 UNL     1      -7.618  47.423 -22.222  1.00  0.00     0.026 A 
HETATM   21  C19 UNL     1      -7.060  46.199 -22.596  1.00  0.00     0.035 A 
HETATM   22 CL1  UNL     1      -5.782  45.526 -21.663  1.00  0.00    -0.084 Cl
HETATM   23  C20 UNL     1      -7.530  45.520 -23.718  1.00  0.00     0.042 A 
HETATM   24  C22 UNL     1      -9.089  45.385 -25.661  1.00  0.00     0.194 A 
HETATM   25  O4  UNL     1      -8.606  44.316 -26.014  1.00  0.00    -0.287 OA
ENDBRANCH   4  14
BRANCH   3  26
HETATM   26  C4  UNL     1      -8.908  46.190 -29.085  1.00  0.00     0.292 C 
HETATM   27  O1  UNL     1      -8.203  45.217 -29.308  1.00  0.00    -0.259 OA
BRANCH  26  28
HETATM   28  O2  UNL     1      -8.480  47.459 -28.881  1.00  0.00    -0.317 OA
BRANCH  28  29
HETATM   29  C5  UNL     1      -7.560  47.636 -27.792  1.00  0.00     0.183 C 
BRANCH  29  30
HETATM   30  C6  UNL     1      -6.136  47.812 -28.316  1.00  0.00     0.065 C 
BRANCH  30  31
HETATM   31  C7  UNL     1      -5.160  48.090 -27.204  1.00  0.00    -0.056 A 
HETATM   32  C8  UNL     1      -3.801  48.284 -27.480  1.00  0.00     0.007 A 
HETATM   33  C9  UNL     1      -2.904  48.564 -26.449  1.00  0.00     0.001 A 
HETATM   34  C10 UNL     1      -3.357  48.657 -25.135  1.00  0.00     0.000 A 
HETATM   35  C11 UNL     1      -4.708  48.469 -24.849  1.00  0.00     0.001 A 
HETATM   36  C12 UNL     1      -5.607  48.187 -25.879  1.00  0.00     0.007 A 
ENDBRANCH  30  31
ENDBRANCH  29  30
ENDBRANCH  28  29
ENDBRANCH  26  28
ENDBRANCH   3  26
TORSDOF 6
ENDMDL
MODEL 6
REMARK minimizedAffinity -7.60792017
REMARK CNNscore 0.20384331
REMARK CNNaffinity 6.10845804
REMARK  6 active torsions:
REMARK  status: ('A' for Active; 'I' for Inactive)
REMARK    1  A    between atoms: C3_3  and  C4_4 
REMARK    2  A    between atoms: C4_4  and  O2_6 
REMARK    3  A    between atoms: O2_6  and  C5_7 
REMARK    4  A    between atoms: C5_7  and  C6_8 
REMARK    5  A    between atoms: C6_8  and  C7_9 
REMARK    6  A    between atoms: C13_15  and  C14_16 
ROOT
HETATM    1  C1  UNL     1       4.119  52.990 -16.106  1.00  0.00     0.069 C 
HETATM    2  C2  UNL     1       2.786  52.291 -16.172  1.00  0.00     0.018 A 
HETATM    3  C3  UNL     1       2.336  51.400 -15.258  1.00  0.00     0.052 A 
HETATM    4  C13 UNL     1       0.993  50.691 -15.419  1.00  0.00     0.104 A 
HETATM    5  C23 UNL     1       0.285  51.061 -16.717  1.00  0.00     0.024 A 
HETATM    6  C24 UNL     1       0.793  51.982 -17.561  1.00  0.00     0.020 A 
HETATM    7  C25 UNL     1       0.081  52.428 -18.814  1.00  0.00     0.058 C 
HETATM    8  C26 UNL     1      -1.415  52.151 -18.746  1.00  0.00     0.014 C 
HETATM    9  C27 UNL     1      -1.680  50.706 -18.356  1.00  0.00     0.084 C 
HETATM   10  C28 UNL     1      -0.967  50.337 -17.074  1.00  0.00     0.158 C 
HETATM   11  O5  UNL     1      -1.371  49.408 -16.376  1.00  0.00    -0.293 OA
HETATM   12  N1  UNL     1       2.010  52.578 -17.286  1.00  0.00    -0.362 N 
HETATM   13  H24 UNL     1       2.333  53.313 -17.909  1.00  0.00     0.165 HD
ENDROOT
BRANCH   4  14
HETATM   14  C14 UNL     1       0.111  50.896 -14.197  1.00  0.00     0.029 A 
HETATM   15  C15 UNL     1      -0.452  52.077 -13.897  1.00  0.00     0.154 A 
HETATM   16  O3  UNL     1      -1.266  52.357 -12.829  1.00  0.00    -0.321 OA
HETATM   17  C16 UNL     1      -1.549  51.335 -11.961  1.00  0.00     0.089 A 
HETATM   18  C17 UNL     1      -2.382  51.628 -10.881  1.00  0.00     0.040 A 
HETATM   19  C21 UNL     1      -1.043  50.049 -12.126  1.00  0.00     0.050 A 
HETATM   20  C18 UNL     1      -2.706  50.624  -9.966  1.00  0.00     0.026 A 
HETATM   21  C19 UNL     1      -2.197  49.336 -10.135  1.00  0.00     0.035 A 
HETATM   22 CL1  UNL     1      -2.601  48.105  -9.004  1.00  0.00    -0.084 Cl
HETATM   23  C20 UNL     1      -1.364  49.039 -11.212  1.00  0.00     0.042 A 
HETATM   24  C22 UNL     1      -0.165  49.767 -13.274  1.00  0.00     0.194 A 
HETATM   25  O4  UNL     1       0.303  48.646 -13.436  1.00  0.00    -0.287 OA
ENDBRANCH   4  14
BRANCH   3  26
HETATM   26  C4  UNL     1       3.101  51.012 -14.056  1.00  0.00     0.292 C 
HETATM   27  O1  UNL     1       3.651  49.927 -13.934  1.00  0.00    -0.259 OA
BRANCH  26  28
HETATM   28  O2  UNL     1       3.015  51.977 -13.109  1.00  0.00    -0.317 OA
BRANCH  28  29
HETATM   29  C5  UNL     1       2.766  51.513 -11.772  1.00  0.00     0.183 C 
BRANCH  29  30
HETATM   30  C6  UNL     1       2.382  52.680 -10.863  1.00  0.00     0.065 C 
BRANCH  30  31
HETATM   31  C7  UNL     1       3.587  53.476 -10.435  1.00  0.00    -0.056 A 
HETATM   32  C8  UNL     1       4.615  52.873  -9.700  1.00  0.00     0.007 A 
HETATM   33  C9  UNL     1       5.741  53.607  -9.325  1.00  0.00     0.001 A 
HETATM   34  C10 UNL     1       5.851  54.948  -9.685  1.00  0.00     0.000 A 
HETATM   35  C11 UNL     1       4.835  55.558 -10.419  1.00  0.00     0.001 A 
HETATM   36  C12 UNL     1       3.708  54.825 -10.794  1.00  0.00     0.007 A 
ENDBRANCH  30  31
ENDBRANCH  29  30
ENDBRANCH  28  29
ENDBRANCH  26  28
ENDBRANCH   3  26
TORSDOF 6
ENDMDL
MODEL 7
REMARK minimizedAffinity -9.08179188
REMARK CNNscore 0.176338792
REMARK CNNaffinity 6.79390669
REMARK  6 active torsions:
REMARK  status: ('A' for Active; 'I' for Inactive)
REMARK    1  A    between atoms: C3_3  and  C4_4 
REMARK    2  A    between atoms: C4_4  and  O2_6 
REMARK    3  A    between atoms: O2_6  and  C5_7 
REMARK    4  A    between atoms: C5_7  and  C6_8 
REMARK    5  A    between atoms: C6_8  and  C7_9 
REMARK    6  A    between atoms: C13_15  and  C14_16 
ROOT
HETATM    1  C1  UNL     1       0.593  52.990 -22.259  1.00  0.00     0.069 C 
HETATM    2  C2  UNL     1      -0.134  52.329 -21.117  1.00  0.00     0.018 A 
HETATM    3  C3  UNL     1      -1.379  51.804 -21.195  1.00  0.00     0.052 A 
HETATM    4  C13 UNL     1      -2.073  51.195 -19.980  1.00  0.00     0.104 A 
HETATM    5  C23 UNL     1      -1.237  51.303 -18.710  1.00  0.00     0.024 A 
HETATM    6  C24 UNL     1       0.010  51.817 -18.727  1.00  0.00     0.020 A 
HETATM    7  C25 UNL     1       0.893  51.869 -17.505  1.00  0.00     0.058 C 
HETATM    8  C26 UNL     1       0.465  50.853 -16.453  1.00  0.00     0.014 C 
HETATM    9  C27 UNL     1      -1.020  50.975 -16.157  1.00  0.00     0.084 C 
HETATM   10  C28 UNL     1      -1.848  50.879 -17.419  1.00  0.00     0.158 C 
HETATM   11  O5  UNL     1      -3.026  50.527 -17.373  1.00  0.00    -0.293 OA
HETATM   12  N1  UNL     1       0.539  52.312 -19.904  1.00  0.00    -0.362 N 
HETATM   13  H24 UNL     1       1.503  52.634 -19.895  1.00  0.00     0.165 HD
ENDROOT
BRANCH   4  14
HETATM   14  C14 UNL     1      -2.524  49.769 -20.259  1.00  0.00     0.029 A 
HETATM   15  C15 UNL     1      -1.662  48.750 -20.405  1.00  0.00     0.154 A 
HETATM   16  O3  UNL     1      -1.970  47.435 -20.648  1.00  0.00    -0.321 OA
HETATM   17  C16 UNL     1      -3.295  47.103 -20.756  1.00  0.00     0.089 A 
HETATM   18  C17 UNL     1      -3.599  45.763 -20.997  1.00  0.00     0.040 A 
HETATM   19  C21 UNL     1      -4.317  48.041 -20.633  1.00  0.00     0.050 A 
HETATM   20  C18 UNL     1      -4.933  45.366 -21.114  1.00  0.00     0.026 A 
HETATM   21  C19 UNL     1      -5.954  46.310 -20.990  1.00  0.00     0.035 A 
HETATM   22 CL1  UNL     1      -7.594  45.814 -21.135  1.00  0.00    -0.084 Cl
HETATM   23  C20 UNL     1      -5.655  47.649 -20.750  1.00  0.00     0.042 A 
HETATM   24  C22 UNL     1      -3.968  49.449 -20.380  1.00  0.00     0.194 A 
HETATM   25  O4  UNL     1      -4.847  50.296 -20.279  1.00  0.00    -0.287 OA
ENDBRANCH   4  14
BRANCH   3  26
HETATM   26  C4  UNL     1      -2.183  51.799 -22.435  1.00  0.00     0.292 C 
HETATM   27  O1  UNL     1      -3.308  52.273 -22.505  1.00  0.00    -0.259 OA
BRANCH  26  28
HETATM   28  O2  UNL     1      -1.536  51.124 -23.415  1.00  0.00    -0.317 OA
BRANCH  28  29
HETATM   29  C5  UNL     1      -1.795  51.575 -24.755  1.00  0.00     0.183 C 
BRANCH  29  30
HETATM   30  C6  UNL     1      -1.281  50.557 -25.771  1.00  0.00     0.065 C 
BRANCH  30  31
HETATM   31  C7  UNL     1      -0.012  51.023 -26.436  1.00  0.00    -0.056 A 
HETATM   32  C8  UNL     1       1.205  51.003 -25.744  1.00  0.00     0.007 A 
HETATM   33  C9  UNL     1       2.382  51.413 -26.371  1.00  0.00     0.001 A 
HETATM   34  C10 UNL     1       2.353  51.843 -27.696  1.00  0.00     0.000 A 
HETATM   35  C11 UNL     1       1.148  51.865 -28.396  1.00  0.00     0.001 A 
HETATM   36  C12 UNL     1      -0.030  51.456 -27.769  1.00  0.00     0.007 A 
ENDBRANCH  30  31
ENDBRANCH  29  30
ENDBRANCH  28  29
ENDBRANCH  26  28
ENDBRANCH   3  26
TORSDOF 6
ENDMDL
MODEL 8
REMARK minimizedAffinity -9.7524786
REMARK CNNscore 0.163099587
REMARK CNNaffinity 6.374125
REMARK  6 active torsions:
REMARK  status: ('A' for Active; 'I' for Inactive)
REMARK    1  A    between atoms: C3_3  and  C4_4 
REMARK    2  A    between atoms: C4_4  and  O2_6 
REMARK    3  A    between atoms: O2_6  and  C5_7 
REMARK    4  A    between atoms: C5_7  and  C6_8 
REMARK    5  A    between atoms: C6_8  and  C7_9 
REMARK    6  A    between atoms: C13_15  and  C14_16 
ROOT
HETATM    1  C1  UNL     1       1.304  53.703 -21.463  1.00  0.00     0.069 C 
HETATM    2  C2  UNL     1       0.542  52.934 -22.511  1.00  0.00     0.018 A 
HETATM    3  C3  UNL     1      -0.148  51.793 -22.281  1.00  0.00     0.052 A 
HETATM    4  C13 UNL     1      -0.854  51.039 -23.405  1.00  0.00     0.104 A 
HETATM    5  C23 UNL     1      -0.639  51.683 -24.770  1.00  0.00     0.024 A 
HETATM    6  C24 UNL     1       0.041  52.839 -24.906  1.00  0.00     0.020 A 
HETATM    7  C25 UNL     1       0.206  53.543 -26.230  1.00  0.00     0.058 C 
HETATM    8  C26 UNL     1      -0.865  53.127 -27.231  1.00  0.00     0.014 C 
HETATM    9  C27 UNL     1      -0.950  51.614 -27.333  1.00  0.00     0.084 C 
HETATM   10  C28 UNL     1      -1.152  50.976 -25.977  1.00  0.00     0.158 C 
HETATM   11  O5  UNL     1      -1.662  49.861 -25.876  1.00  0.00    -0.293 OA
HETATM   12  N1  UNL     1       0.611  53.442 -23.800  1.00  0.00    -0.362 N 
HETATM   13  H24 UNL     1       1.062  54.344 -23.928  1.00  0.00     0.165 HD
ENDROOT
BRANCH   4  14
HETATM   14  C14 UNL     1      -2.327  50.827 -23.087  1.00  0.00     0.029 A 
HETATM   15  C15 UNL     1      -3.217  51.832 -23.065  1.00  0.00     0.154 A 
HETATM   16  O3  UNL     1      -4.560  51.740 -22.801  1.00  0.00    -0.321 OA
HETATM   17  C16 UNL     1      -5.070  50.498 -22.527  1.00  0.00     0.089 A 
HETATM   18  C17 UNL     1      -6.437  50.414 -22.265  1.00  0.00     0.040 A 
HETATM   19  C21 UNL     1      -4.282  49.351 -22.506  1.00  0.00     0.050 A 
HETATM   20  C18 UNL     1      -7.013  49.173 -21.982  1.00  0.00     0.026 A 
HETATM   21  C19 UNL     1      -6.218  48.025 -21.962  1.00  0.00     0.035 A 
HETATM   22 CL1  UNL     1      -6.934  46.501 -21.614  1.00  0.00    -0.084 Cl
HETATM   23  C20 UNL     1      -4.852  48.104 -22.223  1.00  0.00     0.042 A 
HETATM   24  C22 UNL     1      -2.840  49.468 -22.785  1.00  0.00     0.194 A 
HETATM   25  O4  UNL     1      -2.122  48.476 -22.762  1.00  0.00    -0.287 OA
ENDBRANCH   4  14
BRANCH   3  26
HETATM   26  C4  UNL     1      -0.256  51.162 -20.949  1.00  0.00     0.292 C 
HETATM   27  O1  UNL     1       0.076  50.007 -20.727  1.00  0.00    -0.259 OA
BRANCH  26  28
HETATM   28  O2  UNL     1      -0.849  52.008 -20.072  1.00  0.00    -0.317 OA
BRANCH  28  29
HETATM   29  C5  UNL     1      -0.478  51.834 -18.695  1.00  0.00     0.183 C 
BRANCH  29  30
HETATM   30  C6  UNL     1       0.712  52.725 -18.344  1.00  0.00     0.065 C 
BRANCH  30  31
HETATM   31  C7  UNL     1       1.422  52.249 -17.104  1.00  0.00    -0.056 A 
HETATM   32  C8  UNL     1       0.813  51.327 -16.244  1.00  0.00     0.007 A 
HETATM   33  C9  UNL     1       1.484  50.870 -15.109  1.00  0.00     0.001 A 
HETATM   34  C10 UNL     1       2.769  51.327 -14.826  1.00  0.00     0.000 A 
HETATM   35  C11 UNL     1       3.386  52.243 -15.677  1.00  0.00     0.001 A 
HETATM   36  C12 UNL     1       2.716  52.702 -16.812  1.00  0.00     0.007 A 
ENDBRANCH  30  31
ENDBRANCH  29  30
ENDBRANCH  28  29
ENDBRANCH  26  28
ENDBRANCH   3  26
TORSDOF 6
ENDMDL
MODEL 9
REMARK minimizedAffinity -7.86688137
REMARK CNNscore 0.161651969
REMARK CNNaffinity 6.24846029
REMARK  6 active torsions:
REMARK  status: ('A' for Active; 'I' for Inactive)
REMARK    1  A    between atoms: C3_3  and  C4_4 
REMARK    2  A    between atoms: C4_4  and  O2_6 
REMARK    3  A    between atoms: O2_6  and  C5_7 
REMARK    4  A    between atoms: C5_7  and  C6_8 
REMARK    5  A    between atoms: C6_8  and  C7_9 
REMARK    6  A    between atoms: C13_15  and  C14_16 
ROOT
HETATM    1  C1  UNL     1      -2.022  50.817 -15.425  1.00  0.00     0.069 C 
HETATM    2  C2  UNL     1      -1.638  50.865 -13.969  1.00  0.00     0.018 A 
HETATM    3  C3  UNL     1      -0.377  51.039 -13.508  1.00  0.00     0.052 A 
HETATM    4  C13 UNL     1      -0.057  51.025 -12.016  1.00  0.00     0.104 A 
HETATM    5  C23 UNL     1      -1.283  50.745 -11.154  1.00  0.00     0.024 A 
HETATM    6  C24 UNL     1      -2.511  50.612 -11.695  1.00  0.00     0.020 A 
HETATM    7  C25 UNL     1      -3.755  50.412 -10.866  1.00  0.00     0.058 C 
HETATM    8  C26 UNL     1      -3.565  50.890  -9.432  1.00  0.00     0.014 C 
HETATM    9  C27 UNL     1      -2.307  50.293  -8.826  1.00  0.00     0.084 C 
HETATM   10  C28 UNL     1      -1.093  50.561  -9.687  1.00  0.00     0.158 C 
HETATM   11  O5  UNL     1       0.037  50.555  -9.201  1.00  0.00    -0.293 OA
HETATM   12  N1  UNL     1      -2.674  50.675 -13.066  1.00  0.00    -0.362 N 
HETATM   13  H24 UNL     1      -3.620  50.633 -13.436  1.00  0.00     0.165 HD
ENDROOT
BRANCH   4  14
HETATM   14  C14 UNL     1       0.671  52.293 -11.596  1.00  0.00     0.029 A 
HETATM   15  C15 UNL     1       0.066  53.489 -11.523  1.00  0.00     0.154 A 
HETATM   16  O3  UNL     1       0.631  54.680 -11.148  1.00  0.00    -0.321 OA
HETATM   17  C16 UNL     1       1.958  54.673 -10.806  1.00  0.00     0.089 A 
HETATM   18  C17 UNL     1       2.524  55.889 -10.421  1.00  0.00     0.040 A 
HETATM   19  C21 UNL     1       2.734  53.517 -10.831  1.00  0.00     0.050 A 
HETATM   20  C18 UNL     1       3.873  55.941 -10.060  1.00  0.00     0.026 A 
HETATM   21  C19 UNL     1       4.646  54.779 -10.086  1.00  0.00     0.035 A 
HETATM   22 CL1  UNL     1       6.305  54.851  -9.640  1.00  0.00    -0.084 Cl
HETATM   23  C20 UNL     1       4.086  53.563 -10.471  1.00  0.00     0.042 A 
HETATM   24  C22 UNL     1       2.112  52.247 -11.243  1.00  0.00     0.194 A 
HETATM   25  O4  UNL     1       2.775  51.218 -11.285  1.00  0.00    -0.287 OA
ENDBRANCH   4  14
BRANCH   3  26
HETATM   26  C4  UNL     1       0.793  51.223 -14.392  1.00  0.00     0.292 C 
HETATM   27  O1  UNL     1       1.727  50.436 -14.436  1.00  0.00    -0.259 OA
BRANCH  26  28
HETATM   28  O2  UNL     1       0.711  52.407 -15.044  1.00  0.00    -0.317 OA
BRANCH  28  29
HETATM   29  C5  UNL     1       1.285  52.431 -16.361  1.00  0.00     0.183 C 
BRANCH  29  30
HETATM   30  C6  UNL     1       0.475  51.554 -17.314  1.00  0.00     0.065 C 
BRANCH  30  31
HETATM   31  C7  UNL     1       0.527  52.068 -18.729  1.00  0.00    -0.056 A 
HETATM   32  C8  UNL     1      -0.149  51.399 -19.757  1.00  0.00     0.007 A 
HETATM   33  C9  UNL     1      -0.117  51.892 -21.061  1.00  0.00     0.001 A 
HETATM   34  C10 UNL     1       0.586  53.059 -21.350  1.00  0.00     0.000 A 
HETATM   35  C11 UNL     1       1.260  53.736 -20.334  1.00  0.00     0.001 A 
HETATM   36  C12 UNL     1       1.230  53.243 -19.029  1.00  0.00     0.007 A 
ENDBRANCH  30  31
ENDBRANCH  29  30
ENDBRANCH  28  29
ENDBRANCH  26  28
ENDBRANCH   3  26
TORSDOF 6
ENDMDL
