MODEL 1
REMARK minimizedAffinity -9.6773138
REMARK  7 active torsions:
REMARK  status: ('A' for Active; 'I' for Inactive)
REMARK    1  A    between atoms: C2_2  and  C30_33 
REMARK    2  A    between atoms: C3_3  and  C4_4 
REMARK    3  A    between atoms: C4_4  and  C5_5 
REMARK    4  A    between atoms: C5_5  and  C6_6 
REMARK    5  A    between atoms: C6_6  and  C8_8 
REMARK    6  A    between atoms: C10_10  and  O1_11 
REMARK    7  A    between atoms: C30_33  and  O5_35 
ROOT
HETATM    1  C8  UNL     1      -0.044  51.464 -20.761  1.00  0.00     0.001 C 
HETATM    2  C9  UNL     1      -0.456  52.112 -19.416  1.00  0.00     0.038 C 
HETATM    3  C10 UNL     1      -1.860  51.556 -19.071  1.00  0.00     0.131 C 
HETATM    4  C11 UNL     1      -2.057  50.344 -20.028  1.00  0.00     0.014 C 
HETATM    5  C12 UNL     1      -1.357  49.098 -19.397  1.00  0.00     0.023 C 
HETATM    6  C13 UNL     1      -3.461  49.863 -20.381  1.00  0.00    -0.058 C 
HETATM    7  C14 UNL     1      -3.728  49.224 -21.548  1.00  0.00    -0.000 C 
HETATM    8  C15 UNL     1      -2.580  49.060 -22.552  1.00  0.00     0.157 C 
HETATM    9  O2  UNL     1      -2.705  48.350 -23.550  1.00  0.00    -0.293 OA
HETATM   10  C16 UNL     1      -1.253  49.781 -22.335  1.00  0.00     0.094 C 
HETATM   11  C17 UNL     1      -1.388  50.915 -21.324  1.00  0.00    -0.019 C 
HETATM   12  C18 UNL     1      -2.203  52.060 -22.001  1.00  0.00     0.017 C 
HETATM   13  C19 UNL     1      -5.141  48.730 -21.963  1.00  0.00    -0.008 C 
HETATM   14  C20 UNL     1      -5.495  49.537 -23.248  1.00  0.00     0.021 C 
HETATM   15  C21 UNL     1      -5.130  47.206 -22.299  1.00  0.00     0.022 C 
HETATM   16  C22 UNL     1      -5.590  46.306 -21.164  1.00  0.00     0.080 C 
HETATM   17  C23 UNL     1      -7.014  46.609 -20.768  1.00  0.00     0.135 C 
HETATM   18  O3  UNL     1      -7.744  45.713 -20.339  1.00  0.00    -0.297 OA
HETATM   19  C24 UNL     1      -7.504  48.055 -20.905  1.00  0.00     0.018 C 
HETATM   20  C25 UNL     1      -8.328  48.145 -22.202  1.00  0.00     0.023 C 
HETATM   21  C26 UNL     1      -8.486  48.350 -19.747  1.00  0.00     0.023 C 
HETATM   22  C27 UNL     1      -6.270  49.044 -20.881  1.00  0.00     0.014 C 
HETATM   23  C28 UNL     1      -5.688  49.148 -19.453  1.00  0.00     0.011 C 
HETATM   24  C29 UNL     1      -4.519  50.108 -19.350  1.00  0.00     0.036 C 
ENDROOT
BRANCH   1  25
HETATM   25  C6  UNL     1       0.869  52.307 -21.702  1.00  0.00    -0.013 C 
HETATM   26  C7  UNL     1       1.455  53.485 -20.901  1.00  0.00     0.010 C 
BRANCH  25  27
HETATM   27  C5  UNL     1       0.189  52.848 -22.980  1.00  0.00     0.008 C 
BRANCH  27  28
HETATM   28  C4  UNL     1       0.761  52.243 -24.268  1.00  0.00     0.028 C 
BRANCH  28  29
HETATM   29  C3  UNL     1       0.402  53.083 -25.462  1.00  0.00    -0.013 C 
HETATM   30  C2  UNL     1       0.168  52.659 -26.720  1.00  0.00     0.008 C 
HETATM   31  C1  UNL     1       0.267  51.242 -27.201  1.00  0.00     0.055 C 
BRANCH  30  32
HETATM   32  C30 UNL     1      -0.195  53.704 -27.714  1.00  0.00     0.171 C 
HETATM   33  O4  UNL     1      -0.394  54.884 -27.492  1.00  0.00    -0.646 OA
BRANCH  32  34
HETATM   34  O5  UNL     1      -0.295  53.210 -28.959  1.00  0.00    -0.773 OA
HETATM   35  H44 UNL     1      -0.540  53.992 -29.495  1.00  0.00     0.167 HD
ENDBRANCH  32  34
ENDBRANCH  30  32
ENDBRANCH  28  29
ENDBRANCH  27  28
ENDBRANCH  25  27
ENDBRANCH   1  25
BRANCH   3  36
HETATM   36  O1  UNL     1      -1.927  51.212 -17.695  1.00  0.00    -0.394 OA
HETATM   37  H17 UNL     1      -1.707  52.009 -17.182  1.00  0.00     0.210 HD
ENDBRANCH   3  36
TORSDOF 7
ENDMDL
MODEL 2
REMARK minimizedAffinity -9.67310333
REMARK  7 active torsions:
REMARK  status: ('A' for Active; 'I' for Inactive)
REMARK    1  A    between atoms: C2_2  and  C30_33 
REMARK    2  A    between atoms: C3_3  and  C4_4 
REMARK    3  A    between atoms: C4_4  and  C5_5 
REMARK    4  A    between atoms: C5_5  and  C6_6 
REMARK    5  A    between atoms: C6_6  and  C8_8 
REMARK    6  A    between atoms: C10_10  and  O1_11 
REMARK    7  A    between atoms: C30_33  and  O5_35 
ROOT
HETATM    1  C8  UNL     1      -0.301  51.766 -16.993  1.00  0.00     0.001 C 
HETATM    2  C9  UNL     1       1.151  52.176 -17.347  1.00  0.00     0.038 C 
HETATM    3  C10 UNL     1       1.220  52.260 -18.891  1.00  0.00     0.131 C 
HETATM    4  C11 UNL     1      -0.264  52.252 -19.361  1.00  0.00     0.014 C 
HETATM    5  C12 UNL     1      -0.822  53.708 -19.261  1.00  0.00     0.023 C 
HETATM    6  C13 UNL     1      -0.622  51.796 -20.772  1.00  0.00    -0.058 C 
HETATM    7  C14 UNL     1      -1.835  51.263 -21.067  1.00  0.00    -0.000 C 
HETATM    8  C15 UNL     1      -2.827  51.060 -19.916  1.00  0.00     0.157 C 
HETATM    9  O2  UNL     1      -3.996  50.742 -20.132  1.00  0.00    -0.293 OA
HETATM   10  C16 UNL     1      -2.381  51.247 -18.468  1.00  0.00     0.094 C 
HETATM   11  C17 UNL     1      -0.861  51.223 -18.341  1.00  0.00    -0.019 C 
HETATM   12  C18 UNL     1      -0.387  49.756 -18.576  1.00  0.00     0.017 C 
HETATM   13  C19 UNL     1      -2.244  50.768 -22.482  1.00  0.00    -0.008 C 
HETATM   14  C20 UNL     1      -2.502  49.240 -22.321  1.00  0.00     0.021 C 
HETATM   15  C21 UNL     1      -3.554  51.463 -22.967  1.00  0.00     0.022 C 
HETATM   16  C22 UNL     1      -3.334  52.652 -23.887  1.00  0.00     0.080 C 
HETATM   17  C23 UNL     1      -2.618  52.241 -25.151  1.00  0.00     0.135 C 
HETATM   18  O3  UNL     1      -2.839  52.832 -26.210  1.00  0.00    -0.297 OA
HETATM   19  C24 UNL     1      -1.613  51.088 -25.062  1.00  0.00     0.018 C 
HETATM   20  C25 UNL     1      -2.311  49.822 -25.590  1.00  0.00     0.023 C 
HETATM   21  C26 UNL     1      -0.448  51.379 -26.039  1.00  0.00     0.023 C 
HETATM   22  C27 UNL     1      -1.095  50.941 -23.575  1.00  0.00     0.014 C 
HETATM   23  C28 UNL     1      -0.131  52.096 -23.221  1.00  0.00     0.011 C 
HETATM   24  C29 UNL     1       0.431  52.000 -21.817  1.00  0.00     0.036 C 
ENDROOT
BRANCH   1  25
HETATM   25  C6  UNL     1      -0.499  50.910 -15.705  1.00  0.00    -0.013 C 
HETATM   26  C7  UNL     1       0.595  49.829 -15.653  1.00  0.00     0.010 C 
BRANCH  25  27
HETATM   27  C5  UNL     1      -1.885  50.240 -15.558  1.00  0.00     0.008 C 
BRANCH  27  28
HETATM   28  C4  UNL     1      -2.240  49.906 -14.104  1.00  0.00     0.028 C 
BRANCH  28  29
HETATM   29  C3  UNL     1      -3.122  50.969 -13.509  1.00  0.00    -0.013 C 
HETATM   30  C2  UNL     1      -2.739  52.036 -12.779  1.00  0.00     0.008 C 
HETATM   31  C1  UNL     1      -1.334  52.357 -12.366  1.00  0.00     0.055 C 
BRANCH  30  32
HETATM   32  C30 UNL     1      -3.819  52.953 -12.329  1.00  0.00     0.171 C 
HETATM   33  O4  UNL     1      -4.327  52.995 -11.223  1.00  0.00    -0.646 OA
BRANCH  32  34
HETATM   34  O5  UNL     1      -4.220  53.785 -13.304  1.00  0.00    -0.773 OA
HETATM   35  H44 UNL     1      -4.924  54.315 -12.876  1.00  0.00     0.167 HD
ENDBRANCH  32  34
ENDBRANCH  30  32
ENDBRANCH  28  29
ENDBRANCH  27  28
ENDBRANCH  25  27
ENDBRANCH   1  25
BRANCH   3  36
HETATM   36  O1  UNL     1       1.935  53.421 -19.288  1.00  0.00    -0.394 OA
HETATM   37  H17 UNL     1       2.817  53.377 -18.879  1.00  0.00     0.210 HD
ENDBRANCH   3  36
TORSDOF 7
ENDMDL
MODEL 3
REMARK minimizedAffinity -9.67043209
REMARK  7 active torsions:
REMARK  status: ('A' for Active; 'I' for Inactive)
REMARK    1  A    between atoms: C2_2  and  C30_33 
REMARK    2  A    between atoms: C3_3  and  C4_4 
REMARK    3  A    between atoms: C4_4  and  C5_5 
REMARK    4  A    between atoms: C5_5  and  C6_6 
REMARK    5  A    between atoms: C6_6  and  C8_8 
REMARK    6  A    between atoms: C10_10  and  O1_11 
REMARK    7  A    between atoms: C30_33  and  O5_35 
ROOT
HETATM    1  C8  UNL     1      -1.267  51.835 -22.431  1.00  0.00     0.001 C 
HETATM    2  C9  UNL     1      -0.649  51.438 -23.795  1.00  0.00     0.038 C 
HETATM    3  C10 UNL     1      -1.708  50.575 -24.524  1.00  0.00     0.131 C 
HETATM    4  C11 UNL     1      -3.025  50.798 -23.727  1.00  0.00     0.014 C 
HETATM    5  C12 UNL     1      -3.689  52.120 -24.230  1.00  0.00     0.023 C 
HETATM    6  C13 UNL     1      -4.142  49.759 -23.778  1.00  0.00    -0.058 C 
HETATM    7  C14 UNL     1      -5.026  49.606 -22.760  1.00  0.00    -0.000 C 
HETATM    8  C15 UNL     1      -4.829  50.465 -21.506  1.00  0.00     0.157 C 
HETATM    9  O2  UNL     1      -5.682  50.501 -20.619  1.00  0.00    -0.293 OA
HETATM   10  C16 UNL     1      -3.561  51.297 -21.328  1.00  0.00     0.094 C 
HETATM   11  C17 UNL     1      -2.452  50.838 -22.269  1.00  0.00    -0.019 C 
HETATM   12  C18 UNL     1      -1.936  49.457 -21.758  1.00  0.00     0.017 C 
HETATM   13  C19 UNL     1      -6.168  48.553 -22.755  1.00  0.00    -0.008 C 
HETATM   14  C20 UNL     1      -5.848  47.608 -21.559  1.00  0.00     0.021 C 
HETATM   15  C21 UNL     1      -7.556  49.227 -22.521  1.00  0.00     0.022 C 
HETATM   16  C22 UNL     1      -8.351  49.492 -23.788  1.00  0.00     0.080 C 
HETATM   17  C23 UNL     1      -8.658  48.209 -24.520  1.00  0.00     0.135 C 
HETATM   18  O3  UNL     1      -9.696  48.101 -25.177  1.00  0.00    -0.297 OA
HETATM   19  C24 UNL     1      -7.638  47.069 -24.427  1.00  0.00     0.018 C 
HETATM   20  C25 UNL     1      -8.160  46.063 -23.384  1.00  0.00     0.023 C 
HETATM   21  C26 UNL     1      -7.619  46.318 -25.780  1.00  0.00     0.023 C 
HETATM   22  C27 UNL     1      -6.212  47.653 -24.071  1.00  0.00     0.014 C 
HETATM   23  C28 UNL     1      -5.608  48.384 -25.292  1.00  0.00     0.011 C 
HETATM   24  C29 UNL     1      -4.223  48.942 -25.031  1.00  0.00     0.036 C 
ENDROOT
BRANCH   1  25
HETATM   25  C6  UNL     1      -0.283  52.023 -21.237  1.00  0.00    -0.013 C 
HETATM   26  C7  UNL     1       1.063  52.540 -21.778  1.00  0.00     0.010 C 
BRANCH  25  27
HETATM   27  C5  UNL     1      -0.034  50.764 -20.375  1.00  0.00     0.008 C 
BRANCH  27  28
HETATM   28  C4  UNL     1      -0.646  50.866 -18.971  1.00  0.00     0.028 C 
BRANCH  28  29
HETATM   29  C3  UNL     1       0.274  51.601 -18.036  1.00  0.00    -0.013 C 
HETATM   30  C2  UNL     1       0.758  51.166 -16.856  1.00  0.00     0.008 C 
HETATM   31  C1  UNL     1       0.432  49.856 -16.203  1.00  0.00     0.055 C 
BRANCH  30  32
HETATM   32  C30 UNL     1       1.675  52.088 -16.136  1.00  0.00     0.171 C 
HETATM   33  O4  UNL     1       2.511  51.785 -15.304  1.00  0.00    -0.646 OA
BRANCH  32  34
HETATM   34  O5  UNL     1       1.497  53.370 -16.498  1.00  0.00    -0.773 OA
HETATM   35  H44 UNL     1       2.150  53.853 -15.951  1.00  0.00     0.167 HD
ENDBRANCH  32  34
ENDBRANCH  30  32
ENDBRANCH  28  29
ENDBRANCH  27  28
ENDBRANCH  25  27
ENDBRANCH   1  25
BRANCH   3  36
HETATM   36  O1  UNL     1      -1.797  50.957 -25.889  1.00  0.00    -0.394 OA
HETATM   37  H17 UNL     1      -0.911  50.864 -26.279  1.00  0.00     0.210 HD
ENDBRANCH   3  36
TORSDOF 7
ENDMDL
MODEL 4
REMARK minimizedAffinity -9.60288239
REMARK  7 active torsions:
REMARK  status: ('A' for Active; 'I' for Inactive)
REMARK    1  A    between atoms: C2_2  and  C30_33 
REMARK    2  A    between atoms: C3_3  and  C4_4 
REMARK    3  A    between atoms: C4_4  and  C5_5 
REMARK    4  A    between atoms: C5_5  and  C6_6 
REMARK    5  A    between atoms: C6_6  and  C8_8 
REMARK    6  A    between atoms: C10_10  and  O1_11 
REMARK    7  A    between atoms: C30_33  and  O5_35 
ROOT
HETATM    1  C8  UNL     1      -0.895  50.212 -22.168  1.00  0.00     0.001 C 
HETATM    2  C9  UNL     1      -0.505  49.982 -20.687  1.00  0.00     0.038 C 
HETATM    3  C10 UNL     1      -1.682  49.213 -20.036  1.00  0.00     0.131 C 
HETATM    4  C11 UNL     1      -2.543  48.711 -21.232  1.00  0.00     0.014 C 
HETATM    5  C12 UNL     1      -1.916  47.386 -21.771  1.00  0.00     0.023 C 
HETATM    6  C13 UNL     1      -4.021  48.388 -21.033  1.00  0.00    -0.058 C 
HETATM    7  C14 UNL     1      -4.916  48.474 -22.049  1.00  0.00    -0.000 C 
HETATM    8  C15 UNL     1      -4.413  48.982 -23.405  1.00  0.00     0.157 C 
HETATM    9  O2  UNL     1      -5.124  48.927 -24.409  1.00  0.00    -0.293 OA
HETATM   10  C16 UNL     1      -3.012  49.574 -23.539  1.00  0.00     0.094 C 
HETATM   11  C17 UNL     1      -2.430  49.953 -22.181  1.00  0.00    -0.019 C 
HETATM   12  C18 UNL     1      -3.200  51.209 -21.669  1.00  0.00     0.017 C 
HETATM   13  C19 UNL     1      -6.433  48.173 -21.896  1.00  0.00    -0.008 C 
HETATM   14  C20 UNL     1      -7.151  49.519 -22.212  1.00  0.00     0.021 C 
HETATM   15  C21 UNL     1      -6.899  47.089 -22.917  1.00  0.00     0.022 C 
HETATM   16  C22 UNL     1      -6.974  45.680 -22.353  1.00  0.00     0.080 C 
HETATM   17  C23 UNL     1      -7.962  45.598 -21.216  1.00  0.00     0.135 C 
HETATM   18  O3  UNL     1      -8.590  44.556 -21.013  1.00  0.00    -0.297 OA
HETATM   19  C24 UNL     1      -8.142  46.836 -20.331  1.00  0.00     0.018 C 
HETATM   20  C25 UNL     1      -9.425  47.553 -20.790  1.00  0.00     0.023 C 
HETATM   21  C26 UNL     1      -8.405  46.366 -18.880  1.00  0.00     0.023 C 
HETATM   22  C27 UNL     1      -6.853  47.749 -20.417  1.00  0.00     0.014 C 
HETATM   23  C28 UNL     1      -5.680  47.101 -19.647  1.00  0.00     0.011 C 
HETATM   24  C29 UNL     1      -4.418  47.940 -19.660  1.00  0.00     0.036 C 
ENDROOT
BRANCH   1  25
HETATM   25  C6  UNL     1      -0.352  51.505 -22.849  1.00  0.00    -0.013 C 
HETATM   26  C7  UNL     1       0.156  52.466 -21.758  1.00  0.00     0.010 C 
BRANCH  25  27
HETATM   27  C5  UNL     1      -1.356  52.251 -23.757  1.00  0.00     0.008 C 
BRANCH  27  28
HETATM   28  C4  UNL     1      -0.685  52.962 -24.940  1.00  0.00     0.028 C 
BRANCH  28  29
HETATM   29  C3  UNL     1       0.633  52.319 -25.274  1.00  0.00    -0.013 C 
HETATM   30  C2  UNL     1       1.151  52.106 -26.500  1.00  0.00     0.008 C 
HETATM   31  C1  UNL     1       0.483  52.430 -27.803  1.00  0.00     0.055 C 
BRANCH  30  32
HETATM   32  C30 UNL     1       2.493  51.469 -26.550  1.00  0.00     0.171 C 
HETATM   33  O4  UNL     1       2.872  50.514 -25.896  1.00  0.00    -0.646 OA
BRANCH  32  34
HETATM   34  O5  UNL     1       3.311  52.070 -27.429  1.00  0.00    -0.773 OA
HETATM   35  H44 UNL     1       4.143  51.559 -27.352  1.00  0.00     0.167 HD
ENDBRANCH  32  34
ENDBRANCH  30  32
ENDBRANCH  28  29
ENDBRANCH  27  28
ENDBRANCH  25  27
ENDBRANCH   1  25
BRANCH   3  36
HETATM   36  O1  UNL     1      -1.189  48.167 -19.212  1.00  0.00    -0.394 OA
HETATM   37  H17 UNL     1      -0.597  48.568 -18.551  1.00  0.00     0.210 HD
ENDBRANCH   3  36
TORSDOF 7
ENDMDL
MODEL 5
REMARK minimizedAffinity -9.44152641
REMARK  7 active torsions:
REMARK  status: ('A' for Active; 'I' for Inactive)
REMARK    1  A    between atoms: C2_2  and  C30_33 
REMARK    2  A    between atoms: C3_3  and  C4_4 
REMARK    3  A    between atoms: C4_4  and  C5_5 
REMARK    4  A    between atoms: C5_5  and  C6_6 
REMARK    5  A    between atoms: C6_6  and  C8_8 
REMARK    6  A    between atoms: C10_10  and  O1_11 
REMARK    7  A    between atoms: C30_33  and  O5_35 
ROOT
HETATM    1  C8  UNL     1      -3.101  50.176 -21.884  1.00  0.00     0.001 C 
HETATM    2  C9  UNL     1      -2.026  49.995 -22.986  1.00  0.00     0.038 C 
HETATM    3  C10 UNL     1      -2.756  49.414 -24.222  1.00  0.00     0.131 C 
HETATM    4  C11 UNL     1      -4.271  49.616 -23.924  1.00  0.00     0.014 C 
HETATM    5  C12 UNL     1      -4.663  51.075 -24.321  1.00  0.00     0.023 C 
HETATM    6  C13 UNL     1      -5.313  48.735 -24.608  1.00  0.00    -0.058 C 
HETATM    7  C14 UNL     1      -6.518  48.478 -24.039  1.00  0.00    -0.000 C 
HETATM    8  C15 UNL     1      -6.784  49.044 -22.639  1.00  0.00     0.157 C 
HETATM    9  O2  UNL     1      -7.907  48.994 -22.136  1.00  0.00    -0.293 OA
HETATM   10  C16 UNL     1      -5.655  49.681 -21.834  1.00  0.00     0.094 C 
HETATM   11  C17 UNL     1      -4.286  49.301 -22.389  1.00  0.00    -0.019 C 
HETATM   12  C18 UNL     1      -4.036  47.799 -22.052  1.00  0.00     0.017 C 
HETATM   13  C19 UNL     1      -7.606  47.576 -24.684  1.00  0.00    -0.008 C 
HETATM   14  C20 UNL     1      -7.783  46.382 -23.699  1.00  0.00     0.021 C 
HETATM   15  C21 UNL     1      -8.962  48.336 -24.820  1.00  0.00     0.022 C 
HETATM   16  C22 UNL     1      -9.216  48.933 -26.194  1.00  0.00     0.080 C 
HETATM   17  C23 UNL     1      -9.260  47.863 -27.257  1.00  0.00     0.135 C 
HETATM   18  O3  UNL     1      -9.978  48.001 -28.249  1.00  0.00    -0.297 OA
HETATM   19  C24 UNL     1      -8.379  46.623 -27.061  1.00  0.00     0.018 C 
HETATM   20  C25 UNL     1      -9.280  45.492 -26.532  1.00  0.00     0.023 C 
HETATM   21  C26 UNL     1      -7.873  46.160 -28.449  1.00  0.00     0.023 C 
HETATM   22  C27 UNL     1      -7.176  46.966 -26.094  1.00  0.00     0.014 C 
HETATM   23  C28 UNL     1      -6.139  47.857 -26.816  1.00  0.00     0.011 C 
HETATM   24  C29 UNL     1      -4.939  48.198 -25.955  1.00  0.00     0.036 C 
ENDROOT
BRANCH   1  25
HETATM   25  C6  UNL     1      -2.632  50.014 -20.407  1.00  0.00    -0.013 C 
HETATM   26  C7  UNL     1      -3.053  51.264 -19.611  1.00  0.00     0.010 C 
BRANCH  25  27
HETATM   27  C5  UNL     1      -1.118  49.772 -20.211  1.00  0.00     0.008 C 
BRANCH  27  28
HETATM   28  C4  UNL     1      -0.261  50.397 -21.320  1.00  0.00     0.028 C 
BRANCH  28  29
HETATM   29  C3  UNL     1       0.321  51.710 -20.872  1.00  0.00    -0.013 C 
HETATM   30  C2  UNL     1       0.610  52.780 -21.640  1.00  0.00     0.008 C 
HETATM   31  C1  UNL     1       0.451  52.860 -23.128  1.00  0.00     0.055 C 
BRANCH  30  32
HETATM   32  C30 UNL     1       1.159  53.969 -20.937  1.00  0.00     0.171 C 
HETATM   33  O4  UNL     1       1.960  54.773 -21.379  1.00  0.00    -0.646 OA
BRANCH  32  34
HETATM   34  O5  UNL     1       0.673  54.095 -19.691  1.00  0.00    -0.773 OA
HETATM   35  H44 UNL     1       1.117  54.900 -19.354  1.00  0.00     0.167 HD
ENDBRANCH  32  34
ENDBRANCH  30  32
ENDBRANCH  28  29
ENDBRANCH  27  28
ENDBRANCH  25  27
ENDBRANCH   1  25
BRANCH   3  36
HETATM   36  O1  UNL     1      -2.317  50.068 -25.403  1.00  0.00    -0.394 OA
HETATM   37  H17 UNL     1      -1.352  49.959 -25.458  1.00  0.00     0.210 HD
ENDBRANCH   3  36
TORSDOF 7
ENDMDL
MODEL 6
REMARK minimizedAffinity -9.42544842
REMARK  7 active torsions:
REMARK  status: ('A' for Active; 'I' for Inactive)
REMARK    1  A    between atoms: C2_2  and  C30_33 
REMARK    2  A    between atoms: C3_3  and  C4_4 
REMARK    3  A    between atoms: C4_4  and  C5_5 
REMARK    4  A    between atoms: C5_5  and  C6_6 
REMARK    5  A    between atoms: C6_6  and  C8_8 
REMARK    6  A    between atoms: C10_10  and  O1_11 
REMARK    7  A    between atoms: C30_33  and  O5_35 
ROOT
HETATM    1  C8  UNL     1      -2.020  50.949 -23.057  1.00  0.00     0.001 C 
HETATM    2  C9  UNL     1      -1.281  50.581 -24.368  1.00  0.00     0.038 C 
HETATM    3  C10 UNL     1      -2.297  49.808 -25.245  1.00  0.00     0.131 C 
HETATM    4  C11 UNL     1      -3.680  50.066 -24.577  1.00  0.00     0.014 C 
HETATM    5  C12 UNL     1      -4.222  51.442 -25.080  1.00  0.00     0.023 C 
HETATM    6  C13 UNL     1      -4.833  49.091 -24.796  1.00  0.00    -0.058 C 
HETATM    7  C14 UNL     1      -5.826  48.940 -23.883  1.00  0.00    -0.000 C 
HETATM    8  C15 UNL     1      -5.722  49.731 -22.574  1.00  0.00     0.157 C 
HETATM    9  O2  UNL     1      -6.661  49.773 -21.779  1.00  0.00    -0.293 OA
HETATM   10  C16 UNL     1      -4.441  50.485 -22.225  1.00  0.00     0.094 C 
HETATM   11  C17 UNL     1      -3.262  50.010 -23.068  1.00  0.00    -0.019 C 
HETATM   12  C18 UNL     1      -2.871  48.583 -22.576  1.00  0.00     0.017 C 
HETATM   13  C19 UNL     1      -7.012  47.950 -24.048  1.00  0.00    -0.008 C 
HETATM   14  C20 UNL     1      -6.866  46.937 -22.874  1.00  0.00     0.021 C 
HETATM   15  C21 UNL     1      -8.383  48.686 -23.926  1.00  0.00     0.022 C 
HETATM   16  C22 UNL     1      -9.026  49.049 -25.254  1.00  0.00     0.080 C 
HETATM   17  C23 UNL     1      -9.316  47.817 -26.076  1.00  0.00     0.135 C 
HETATM   18  O3  UNL     1     -10.282  47.794 -26.841  1.00  0.00    -0.297 OA
HETATM   19  C24 UNL     1      -8.367  46.622 -25.934  1.00  0.00     0.018 C 
HETATM   20  C25 UNL     1      -9.044  45.600 -25.002  1.00  0.00     0.023 C 
HETATM   21  C26 UNL     1      -8.241  45.932 -27.314  1.00  0.00     0.023 C 
HETATM   22  C27 UNL     1      -6.960  47.113 -25.405  1.00  0.00     0.014 C 
HETATM   23  C28 UNL     1      -6.196  47.864 -26.518  1.00  0.00     0.011 C 
HETATM   24  C29 UNL     1      -4.821  48.336 -26.089  1.00  0.00     0.036 C 
ENDROOT
BRANCH   1  25
HETATM   25  C6  UNL     1      -1.160  51.031 -21.761  1.00  0.00    -0.013 C 
HETATM   26  C7  UNL     1      -2.082  50.866 -20.539  1.00  0.00     0.010 C 
BRANCH  25  27
HETATM   27  C5  UNL     1      -0.324  52.322 -21.597  1.00  0.00     0.008 C 
BRANCH  27  28
HETATM   28  C4  UNL     1       0.781  52.461 -22.651  1.00  0.00     0.028 C 
BRANCH  28  29
HETATM   29  C3  UNL     1       0.285  53.216 -23.853  1.00  0.00    -0.013 C 
HETATM   30  C2  UNL     1       0.630  53.020 -25.142  1.00  0.00     0.008 C 
HETATM   31  C1  UNL     1       1.634  52.023 -25.639  1.00  0.00     0.055 C 
BRANCH  30  32
HETATM   32  C30 UNL     1      -0.032  53.896 -26.144  1.00  0.00     0.171 C 
HETATM   33  O4  UNL     1       0.246  55.054 -26.399  1.00  0.00    -0.646 OA
BRANCH  32  34
HETATM   34  O5  UNL     1      -1.029  53.268 -26.790  1.00  0.00    -0.773 OA
HETATM   35  H44 UNL     1      -1.370  53.953 -27.401  1.00  0.00     0.167 HD
ENDBRANCH  32  34
ENDBRANCH  30  32
ENDBRANCH  28  29
ENDBRANCH  27  28
ENDBRANCH  25  27
ENDBRANCH   1  25
BRANCH   3  36
HETATM   36  O1  UNL     1      -2.224  50.254 -26.591  1.00  0.00    -0.394 OA
HETATM   37  H17 UNL     1      -1.306  50.132 -26.891  1.00  0.00     0.210 HD
ENDBRANCH   3  36
TORSDOF 7
ENDMDL
MODEL 7
REMARK minimizedAffinity -9.35652542
REMARK  7 active torsions:
REMARK  status: ('A' for Active; 'I' for Inactive)
REMARK    1  A    between atoms: C2_2  and  C30_33 
REMARK    2  A    between atoms: C3_3  and  C4_4 
REMARK    3  A    between atoms: C4_4  and  C5_5 
REMARK    4  A    between atoms: C5_5  and  C6_6 
REMARK    5  A    between atoms: C6_6  and  C8_8 
REMARK    6  A    between atoms: C10_10  and  O1_11 
REMARK    7  A    between atoms: C30_33  and  O5_35 
ROOT
HETATM    1  C8  UNL     1      -2.986  50.690 -24.693  1.00  0.00     0.001 C 
HETATM    2  C9  UNL     1      -4.131  51.707 -24.928  1.00  0.00     0.038 C 
HETATM    3  C10 UNL     1      -5.251  51.350 -23.919  1.00  0.00     0.131 C 
HETATM    4  C11 UNL     1      -4.580  50.383 -22.900  1.00  0.00     0.014 C 
HETATM    5  C12 UNL     1      -3.825  51.236 -21.832  1.00  0.00     0.023 C 
HETATM    6  C13 UNL     1      -5.429  49.409 -22.089  1.00  0.00    -0.058 C 
HETATM    7  C14 UNL     1      -4.929  48.236 -21.625  1.00  0.00    -0.000 C 
HETATM    8  C15 UNL     1      -3.488  47.873 -22.004  1.00  0.00     0.157 C 
HETATM    9  O2  UNL     1      -2.917  46.914 -21.485  1.00  0.00    -0.293 OA
HETATM   10  C16 UNL     1      -2.729  48.696 -23.041  1.00  0.00     0.094 C 
HETATM   11  C17 UNL     1      -3.673  49.557 -23.875  1.00  0.00    -0.019 C 
HETATM   12  C18 UNL     1      -4.469  48.607 -24.823  1.00  0.00     0.017 C 
HETATM   13  C19 UNL     1      -5.756  47.203 -20.811  1.00  0.00    -0.008 C 
HETATM   14  C20 UNL     1      -5.789  45.919 -21.693  1.00  0.00     0.021 C 
HETATM   15  C21 UNL     1      -5.065  46.874 -19.450  1.00  0.00     0.022 C 
HETATM   16  C22 UNL     1      -5.612  47.646 -18.262  1.00  0.00     0.080 C 
HETATM   17  C23 UNL     1      -7.074  47.346 -18.040  1.00  0.00     0.135 C 
HETATM   18  O3  UNL     1      -7.548  47.367 -16.902  1.00  0.00    -0.297 OA
HETATM   19  C24 UNL     1      -7.935  47.032 -19.269  1.00  0.00     0.018 C 
HETATM   20  C25 UNL     1      -8.102  45.503 -19.340  1.00  0.00     0.023 C 
HETATM   21  C26 UNL     1      -9.351  47.612 -19.035  1.00  0.00     0.023 C 
HETATM   22  C27 UNL     1      -7.267  47.647 -20.564  1.00  0.00     0.014 C 
HETATM   23  C28 UNL     1      -7.427  49.184 -20.576  1.00  0.00     0.011 C 
HETATM   24  C29 UNL     1      -6.836  49.839 -21.809  1.00  0.00     0.036 C 
ENDROOT
BRANCH   1  25
HETATM   25  C6  UNL     1      -2.124  50.299 -25.930  1.00  0.00    -0.013 C 
HETATM   26  C7  UNL     1      -2.547  48.898 -26.409  1.00  0.00     0.010 C 
BRANCH  25  27
HETATM   27  C5  UNL     1      -0.594  50.321 -25.710  1.00  0.00     0.008 C 
BRANCH  27  28
HETATM   28  C4  UNL     1       0.182  50.834 -26.930  1.00  0.00     0.028 C 
BRANCH  28  29
HETATM   29  C3  UNL     1      -0.037  52.309 -27.125  1.00  0.00    -0.013 C 
HETATM   30  C2  UNL     1       0.198  53.295 -26.236  1.00  0.00     0.008 C 
HETATM   31  C1  UNL     1       0.690  53.112 -24.832  1.00  0.00     0.055 C 
BRANCH  30  32
HETATM   32  C30 UNL     1      -0.085  54.680 -26.695  1.00  0.00     0.171 C 
HETATM   33  O4  UNL     1       0.297  55.713 -26.176  1.00  0.00    -0.646 OA
BRANCH  32  34
HETATM   34  O5  UNL     1      -0.848  54.706 -27.800  1.00  0.00    -0.773 OA
HETATM   35  H44 UNL     1      -0.957  55.662 -27.979  1.00  0.00     0.167 HD
ENDBRANCH  32  34
ENDBRANCH  30  32
ENDBRANCH  28  29
ENDBRANCH  27  28
ENDBRANCH  25  27
ENDBRANCH   1  25
BRANCH   3  36
HETATM   36  O1  UNL     1      -5.770  52.531 -23.324  1.00  0.00    -0.394 OA
HETATM   37  H17 UNL     1      -6.087  53.106 -24.042  1.00  0.00     0.210 HD
ENDBRANCH   3  36
TORSDOF 7
ENDMDL
MODEL 8
REMARK minimizedAffinity -9.2444067
REMARK  7 active torsions:
REMARK  status: ('A' for Active; 'I' for Inactive)
REMARK    1  A    between atoms: C2_2  and  C30_33 
REMARK    2  A    between atoms: C3_3  and  C4_4 
REMARK    3  A    between atoms: C4_4  and  C5_5 
REMARK    4  A    between atoms: C5_5  and  C6_6 
REMARK    5  A    between atoms: C6_6  and  C8_8 
REMARK    6  A    between atoms: C10_10  and  O1_11 
REMARK    7  A    between atoms: C30_33  and  O5_35 
ROOT
HETATM    1  C8  UNL     1      -1.834  52.309 -23.300  1.00  0.00     0.001 C 
HETATM    2  C9  UNL     1      -1.909  51.966 -24.809  1.00  0.00     0.038 C 
HETATM    3  C10 UNL     1      -2.982  50.859 -24.956  1.00  0.00     0.131 C 
HETATM    4  C11 UNL     1      -3.742  50.854 -23.598  1.00  0.00     0.014 C 
HETATM    5  C12 UNL     1      -4.828  51.976 -23.635  1.00  0.00     0.023 C 
HETATM    6  C13 UNL     1      -4.490  49.605 -23.139  1.00  0.00    -0.058 C 
HETATM    7  C14 UNL     1      -4.696  49.336 -21.826  1.00  0.00    -0.000 C 
HETATM    8  C15 UNL     1      -4.086  50.292 -20.794  1.00  0.00     0.157 C 
HETATM    9  O2  UNL     1      -4.371  50.205 -19.600  1.00  0.00    -0.293 OA
HETATM   10  C16 UNL     1      -3.105  51.377 -21.230  1.00  0.00     0.094 C 
HETATM   11  C17 UNL     1      -2.542  51.100 -22.620  1.00  0.00    -0.019 C 
HETATM   12  C18 UNL     1      -1.565  49.890 -22.506  1.00  0.00     0.017 C 
HETATM   13  C19 UNL     1      -5.435  48.072 -21.305  1.00  0.00    -0.008 C 
HETATM   14  C20 UNL     1      -4.373  47.288 -20.478  1.00  0.00     0.021 C 
HETATM   15  C21 UNL     1      -6.629  48.458 -20.377  1.00  0.00     0.022 C 
HETATM   16  C22 UNL     1      -7.984  48.475 -21.063  1.00  0.00     0.080 C 
HETATM   17  C23 UNL     1      -8.338  47.113 -21.610  1.00  0.00     0.135 C 
HETATM   18  O3  UNL     1      -9.515  46.753 -21.666  1.00  0.00    -0.297 OA
HETATM   19  C24 UNL     1      -7.193  46.216 -22.095  1.00  0.00     0.018 C 
HETATM   20  C25 UNL     1      -6.903  45.191 -20.985  1.00  0.00     0.023 C 
HETATM   21  C26 UNL     1      -7.693  45.404 -23.315  1.00  0.00     0.023 C 
HETATM   22  C27 UNL     1      -5.938  47.103 -22.468  1.00  0.00     0.014 C 
HETATM   23  C28 UNL     1      -6.189  47.867 -23.788  1.00  0.00     0.011 C 
HETATM   24  C29 UNL     1      -5.010  48.714 -24.225  1.00  0.00     0.036 C 
ENDROOT
BRANCH   1  25
HETATM   25  C6  UNL     1      -0.451  52.769 -22.748  1.00  0.00    -0.013 C 
HETATM   26  C7  UNL     1       0.662  52.057 -23.538  1.00  0.00     0.010 C 
BRANCH  25  27
HETATM   27  C5  UNL     1      -0.229  52.540 -21.236  1.00  0.00     0.008 C 
BRANCH  27  28
HETATM   28  C4  UNL     1       0.746  53.548 -20.612  1.00  0.00     0.028 C 
BRANCH  28  29
HETATM   29  C3  UNL     1       0.991  53.231 -19.162  1.00  0.00    -0.013 C 
HETATM   30  C2  UNL     1       0.570  52.147 -18.480  1.00  0.00     0.008 C 
HETATM   31  C1  UNL     1      -0.284  51.043 -19.027  1.00  0.00     0.055 C 
BRANCH  30  32
HETATM   32  C30 UNL     1       0.974  52.067 -17.051  1.00  0.00     0.171 C 
HETATM   33  O4  UNL     1       0.980  51.071 -16.350  1.00  0.00    -0.646 OA
BRANCH  32  34
HETATM   34  O5  UNL     1       1.355  53.258 -16.561  1.00  0.00    -0.773 OA
HETATM   35  H44 UNL     1       1.582  53.058 -15.630  1.00  0.00     0.167 HD
ENDBRANCH  32  34
ENDBRANCH  30  32
ENDBRANCH  28  29
ENDBRANCH  27  28
ENDBRANCH  25  27
ENDBRANCH   1  25
BRANCH   3  36
HETATM   36  O1  UNL     1      -3.817  51.130 -26.073  1.00  0.00    -0.394 OA
HETATM   37  H17 UNL     1      -3.245  51.198 -26.858  1.00  0.00     0.210 HD
ENDBRANCH   3  36
TORSDOF 7
ENDMDL
MODEL 9
REMARK minimizedAffinity -9.18806362
REMARK  7 active torsions:
REMARK  status: ('A' for Active; 'I' for Inactive)
REMARK    1  A    between atoms: C2_2  and  C30_33 
REMARK    2  A    between atoms: C3_3  and  C4_4 
REMARK    3  A    between atoms: C4_4  and  C5_5 
REMARK    4  A    between atoms: C5_5  and  C6_6 
REMARK    5  A    between atoms: C6_6  and  C8_8 
REMARK    6  A    between atoms: C10_10  and  O1_11 
REMARK    7  A    between atoms: C30_33  and  O5_35 
ROOT
HETATM    1  C8  UNL     1      -1.630  51.452 -22.736  1.00  0.00     0.001 C 
HETATM    2  C9  UNL     1      -1.677  51.189 -24.262  1.00  0.00     0.038 C 
HETATM    3  C10 UNL     1      -2.871  50.234 -24.508  1.00  0.00     0.131 C 
HETATM    4  C11 UNL     1      -3.688  50.264 -23.183  1.00  0.00     0.014 C 
HETATM    5  C12 UNL     1      -4.623  51.515 -23.208  1.00  0.00     0.023 C 
HETATM    6  C13 UNL     1      -4.605  49.100 -22.818  1.00  0.00    -0.058 C 
HETATM    7  C14 UNL     1      -4.903  48.800 -21.529  1.00  0.00    -0.000 C 
HETATM    8  C15 UNL     1      -4.228  49.626 -20.427  1.00  0.00     0.157 C 
HETATM    9  O2  UNL     1      -4.577  49.522 -19.251  1.00  0.00    -0.293 OA
HETATM   10  C16 UNL     1      -3.101  50.597 -20.768  1.00  0.00     0.094 C 
HETATM   11  C17 UNL     1      -2.513  50.314 -22.146  1.00  0.00    -0.019 C 
HETATM   12  C18 UNL     1      -1.700  48.986 -22.053  1.00  0.00     0.017 C 
HETATM   13  C19 UNL     1      -5.817  47.618 -21.103  1.00  0.00    -0.008 C 
HETATM   14  C20 UNL     1      -4.899  46.671 -20.273  1.00  0.00     0.021 C 
HETATM   15  C21 UNL     1      -6.995  48.109 -20.205  1.00  0.00     0.022 C 
HETATM   16  C22 UNL     1      -8.304  48.327 -20.944  1.00  0.00     0.080 C 
HETATM   17  C23 UNL     1      -8.798  47.047 -21.572  1.00  0.00     0.135 C 
HETATM   18  O3  UNL     1     -10.007  46.840 -21.693  1.00  0.00    -0.297 OA
HETATM   19  C24 UNL     1      -7.752  46.035 -22.055  1.00  0.00     0.018 C 
HETATM   20  C25 UNL     1      -7.643  44.933 -20.986  1.00  0.00     0.023 C 
HETATM   21  C26 UNL     1      -8.292  45.348 -23.332  1.00  0.00     0.023 C 
HETATM   22  C27 UNL     1      -6.381  46.773 -22.332  1.00  0.00     0.014 C 
HETATM   23  C28 UNL     1      -6.474  47.620 -23.621  1.00  0.00     0.011 C 
HETATM   24  C29 UNL     1      -5.180  48.331 -23.967  1.00  0.00     0.036 C 
ENDROOT
BRANCH   1  25
HETATM   25  C6  UNL     1      -0.228  51.710 -22.106  1.00  0.00    -0.013 C 
HETATM   26  C7  UNL     1      -0.401  51.986 -20.601  1.00  0.00     0.010 C 
BRANCH  25  27
HETATM   27  C5  UNL     1       0.588  52.857 -22.744  1.00  0.00     0.008 C 
BRANCH  27  28
HETATM   28  C4  UNL     1       0.202  53.131 -24.204  1.00  0.00     0.028 C 
BRANCH  28  29
HETATM   29  C3  UNL     1       1.170  52.472 -25.147  1.00  0.00    -0.013 C 
HETATM   30  C2  UNL     1       1.108  52.442 -26.494  1.00  0.00     0.008 C 
HETATM   31  C1  UNL     1       0.014  53.030 -27.334  1.00  0.00     0.055 C 
BRANCH  30  32
HETATM   32  C30 UNL     1       2.215  51.738 -27.192  1.00  0.00     0.171 C 
HETATM   33  O4  UNL     1       2.408  51.693 -28.393  1.00  0.00    -0.646 OA
BRANCH  32  34
HETATM   34  O5  UNL     1       3.039  51.110 -26.337  1.00  0.00    -0.773 OA
HETATM   35  H44 UNL     1       3.702  50.693 -26.925  1.00  0.00     0.167 HD
ENDBRANCH  32  34
ENDBRANCH  30  32
ENDBRANCH  28  29
ENDBRANCH  27  28
ENDBRANCH  25  27
ENDBRANCH   1  25
BRANCH   3  36
HETATM   36  O1  UNL     1      -3.612  50.657 -25.643  1.00  0.00    -0.394 OA
HETATM   37  H17 UNL     1      -3.000  50.687 -26.399  1.00  0.00     0.210 HD
ENDBRANCH   3  36
TORSDOF 7
ENDMDL
