MODEL 1
REMARK minimizedAffinity -5.86881256
REMARK CNNscore 0.280287951
REMARK CNNaffinity 5.06162405
REMARK  6 active torsions:
REMARK  status: ('A' for Active; 'I' for Inactive)
REMARK    1  A    between atoms: C9_10  and  C10_11 
REMARK    2  A    between atoms: C11_13  and  O3_14 
REMARK    3  A    between atoms: C12_15  and  C13_16 
REMARK    4  A    between atoms: C14_18  and  O5_19 
REMARK    5  A    between atoms: C16_21  and  C17_22 
REMARK    6  A    between atoms: C17_22  and  C18_23 
ROOT
HETATM    1  C1  UNL     1     -14.593 -13.156  15.068  1.00  0.00     0.043 C 
HETATM    2  C2  UNL     1     -14.249 -13.516  13.652  1.00  0.00    -0.087 C 
HETATM    3  C3  UNL     1     -13.245 -14.339  13.290  1.00  0.00    -0.024 C 
HETATM    4  C4  UNL     1     -12.164 -14.938  14.129  1.00  0.00     0.030 C 
HETATM    5  C5  UNL     1     -10.969 -14.025  14.478  1.00  0.00     0.042 C 
HETATM    6  C6  UNL     1     -10.431 -12.965  13.453  1.00  0.00     0.069 C 
HETATM    7  C7  UNL     1     -10.225 -13.610  12.062  1.00  0.00     0.047 C 
HETATM    8  O1  UNL     1      -9.067 -12.711  13.928  1.00  0.00    -0.338 OA
HETATM    9  C8  UNL     1      -8.464 -11.640  13.324  1.00  0.00     0.095 A 
HETATM   10  C9  UNL     1      -7.155 -11.743  12.845  1.00  0.00     0.070 A 
HETATM   11  C11 UNL     1      -6.533 -10.622  12.275  1.00  0.00     0.097 A 
HETATM   12  C12 UNL     1      -7.213  -9.399  12.225  1.00  0.00     0.069 A 
HETATM   13  C14 UNL     1      -8.515  -9.302  12.745  1.00  0.00     0.091 A 
HETATM   14  C15 UNL     1      -9.155 -10.427  13.278  1.00  0.00     0.015 A 
HETATM   15  C16 UNL     1     -10.513 -10.383  13.947  1.00  0.00     0.032 C 
HETATM   16  C21 UNL     1     -11.325 -11.634  13.509  1.00  0.00     0.034 C 
HETATM   17  C22 UNL     1     -12.263 -11.472  12.294  1.00  0.00     0.006 A 
HETATM   18  C23 UNL     1     -13.554 -10.707  12.577  1.00  0.00    -0.001 A 
HETATM   19  C24 UNL     1     -14.936 -11.309  12.478  1.00  0.00     0.010 C 
HETATM   20  C25 UNL     1     -15.065 -12.841  12.560  1.00  0.00     0.034 C 
HETATM   21  C26 UNL     1     -12.705 -10.318  11.378  1.00  0.00    -0.039 A 
HETATM   22  C27 UNL     1     -12.063  -8.957  11.378  1.00  0.00     0.015 C 
HETATM   23  C28 UNL     1     -13.147 -10.729   9.986  1.00  0.00     0.015 C 
ENDROOT
BRANCH  15  24
HETATM   24  C17 UNL     1     -10.266 -10.306  15.489  1.00  0.00     0.014 C 
BRANCH  24  25
HETATM   25  C18 UNL     1     -10.853  -9.105  16.262  1.00  0.00    -0.022 C 
HETATM   26  C19 UNL     1     -10.636  -9.184  17.767  1.00  0.00     0.009 C 
HETATM   27  C20 UNL     1     -12.325  -8.849  15.937  1.00  0.00     0.009 C 
ENDBRANCH  24  25
ENDBRANCH  15  24
BRANCH  13  28
HETATM   28  O5  UNL     1      -9.192  -8.110  12.785  1.00  0.00    -0.359 OA
HETATM   29  H15 UNL     1      -8.627  -7.415  12.374  1.00  0.00     0.217 HD
ENDBRANCH  13  28
BRANCH  10  30
HETATM   30  C10 UNL     1      -6.449 -13.034  12.942  1.00  0.00     0.275 C 
HETATM   31  O2  UNL     1      -6.782 -13.977  12.228  1.00  0.00    -0.301 OA
ENDBRANCH  10  30
BRANCH  12  32
HETATM   32  C13 UNL     1      -6.545  -8.216  11.646  1.00  0.00     0.275 C 
HETATM   33  O4  UNL     1      -6.483  -7.165  12.280  1.00  0.00    -0.301 OA
ENDBRANCH  12  32
BRANCH  11  34
HETATM   34  O3  UNL     1      -5.257 -10.685  11.771  1.00  0.00    -0.359 OA
HETATM   35  H13 UNL     1      -4.914 -11.602  11.890  1.00  0.00     0.217 HD
ENDBRANCH  11  34
TORSDOF 6
ENDMDL
MODEL 2
REMARK minimizedAffinity -6.10381031
REMARK CNNscore 0.231766254
REMARK CNNaffinity 5.27007914
REMARK  6 active torsions:
REMARK  status: ('A' for Active; 'I' for Inactive)
REMARK    1  A    between atoms: C9_10  and  C10_11 
REMARK    2  A    between atoms: C11_13  and  O3_14 
REMARK    3  A    between atoms: C12_15  and  C13_16 
REMARK    4  A    between atoms: C14_18  and  O5_19 
REMARK    5  A    between atoms: C16_21  and  C17_22 
REMARK    6  A    between atoms: C17_22  and  C18_23 
ROOT
HETATM    1  C1  UNL     1     -13.793  -6.500   9.053  1.00  0.00     0.043 C 
HETATM    2  C2  UNL     1     -15.222  -6.041   9.031  1.00  0.00    -0.087 C 
HETATM    3  C3  UNL     1     -15.617  -4.765   8.853  1.00  0.00    -0.024 C 
HETATM    4  C4  UNL     1     -14.795  -3.518   8.806  1.00  0.00     0.030 C 
HETATM    5  C5  UNL     1     -14.340  -2.935  10.160  1.00  0.00     0.042 C 
HETATM    6  C6  UNL     1     -15.263  -3.012  11.429  1.00  0.00     0.069 C 
HETATM    7  C7  UNL     1     -16.693  -2.530  11.091  1.00  0.00     0.047 C 
HETATM    8  O1  UNL     1     -14.729  -1.951  12.289  1.00  0.00    -0.338 OA
HETATM    9  C8  UNL     1     -15.229  -1.973  13.564  1.00  0.00     0.095 A 
HETATM   10  C9  UNL     1     -15.675  -0.793  14.168  1.00  0.00     0.070 A 
HETATM   11  C11 UNL     1     -16.137  -0.822  15.492  1.00  0.00     0.097 A 
HETATM   12  C12 UNL     1     -16.111  -2.023  16.211  1.00  0.00     0.069 A 
HETATM   13  C14 UNL     1     -15.624  -3.193  15.603  1.00  0.00     0.091 A 
HETATM   14  C15 UNL     1     -15.200  -3.177  14.269  1.00  0.00     0.015 A 
HETATM   15  C16 UNL     1     -14.570  -4.366  13.574  1.00  0.00     0.032 C 
HETATM   16  C21 UNL     1     -15.129  -4.451  12.126  1.00  0.00     0.034 C 
HETATM   17  C22 UNL     1     -16.356  -5.360  11.898  1.00  0.00     0.006 A 
HETATM   18  C23 UNL     1     -16.052  -6.857  11.891  1.00  0.00    -0.001 A 
HETATM   19  C24 UNL     1     -16.239  -7.754  10.690  1.00  0.00     0.010 C 
HETATM   20  C25 UNL     1     -16.282  -7.099   9.297  1.00  0.00     0.034 C 
HETATM   21  C26 UNL     1     -17.191  -6.332  12.749  1.00  0.00    -0.039 A 
HETATM   22  C27 UNL     1     -17.065  -6.456  14.244  1.00  0.00     0.015 C 
HETATM   23  C28 UNL     1     -18.624  -6.528  12.290  1.00  0.00     0.015 C 
ENDROOT
BRANCH  15  24
HETATM   24  C17 UNL     1     -13.020  -4.171  13.636  1.00  0.00     0.014 C 
BRANCH  24  25
HETATM   25  C18 UNL     1     -12.149  -5.378  14.048  1.00  0.00    -0.022 C 
HETATM   26  C19 UNL     1     -12.525  -6.671  13.337  1.00  0.00     0.009 C 
HETATM   27  C20 UNL     1     -12.094  -5.585  15.562  1.00  0.00     0.009 C 
ENDBRANCH  24  25
ENDBRANCH  15  24
BRANCH  13  28
HETATM   28  O5  UNL     1     -15.511  -4.374  16.290  1.00  0.00    -0.359 OA
HETATM   29  H15 UNL     1     -15.849  -4.237  17.205  1.00  0.00     0.217 HD
ENDBRANCH  13  28
BRANCH  10  30
HETATM   30  C10 UNL     1     -15.658   0.465  13.399  1.00  0.00     0.275 C 
HETATM   31  O2  UNL     1     -16.111   0.497  12.256  1.00  0.00    -0.301 OA
ENDBRANCH  10  30
BRANCH  12  32
HETATM   32  C13 UNL     1     -16.575  -2.043  17.613  1.00  0.00     0.275 C 
HETATM   33  O4  UNL     1     -16.169  -2.905  18.391  1.00  0.00    -0.301 OA
ENDBRANCH  12  32
BRANCH  11  34
HETATM   34  O3  UNL     1     -16.606   0.308  16.116  1.00  0.00    -0.359 OA
HETATM   35  H13 UNL     1     -16.548   1.064  15.486  1.00  0.00     0.217 HD
ENDBRANCH  11  34
TORSDOF 6
ENDMDL
MODEL 3
REMARK minimizedAffinity -5.54126883
REMARK CNNscore 0.215005964
REMARK CNNaffinity 5.20767832
REMARK  6 active torsions:
REMARK  status: ('A' for Active; 'I' for Inactive)
REMARK    1  A    between atoms: C9_10  and  C10_11 
REMARK    2  A    between atoms: C11_13  and  O3_14 
REMARK    3  A    between atoms: C12_15  and  C13_16 
REMARK    4  A    between atoms: C14_18  and  O5_19 
REMARK    5  A    between atoms: C16_21  and  C17_22 
REMARK    6  A    between atoms: C17_22  and  C18_23 
ROOT
HETATM    1  C1  UNL     1       5.180  15.312  21.658  1.00  0.00     0.043 C 
HETATM    2  C2  UNL     1       5.901  14.009  21.846  1.00  0.00    -0.087 C 
HETATM    3  C3  UNL     1       6.834  13.518  21.007  1.00  0.00    -0.024 C 
HETATM    4  C4  UNL     1       7.253  14.017  19.662  1.00  0.00     0.030 C 
HETATM    5  C5  UNL     1       6.338  13.656  18.472  1.00  0.00     0.042 C 
HETATM    6  C6  UNL     1       5.596  12.274  18.408  1.00  0.00     0.069 C 
HETATM    7  C7  UNL     1       6.580  11.116  18.699  1.00  0.00     0.047 C 
HETATM    8  O1  UNL     1       5.296  12.127  16.981  1.00  0.00    -0.338 OA
HETATM    9  C8  UNL     1       4.440  11.095  16.701  1.00  0.00     0.095 A 
HETATM   10  C9  UNL     1       4.722  10.206  15.659  1.00  0.00     0.070 A 
HETATM   11  C11 UNL     1       3.811   9.184  15.352  1.00  0.00     0.097 A 
HETATM   12  C12 UNL     1       2.610   9.086  16.065  1.00  0.00     0.069 A 
HETATM   13  C14 UNL     1       2.324  10.011  17.084  1.00  0.00     0.091 A 
HETATM   14  C15 UNL     1       3.247  11.007  17.421  1.00  0.00     0.015 A 
HETATM   15  C16 UNL     1       2.973  12.098  18.434  1.00  0.00     0.032 C 
HETATM   16  C21 UNL     1       4.254  12.322  19.285  1.00  0.00     0.034 C 
HETATM   17  C22 UNL     1       4.360  11.544  20.614  1.00  0.00     0.006 A 
HETATM   18  C23 UNL     1       3.488  12.085  21.745  1.00  0.00    -0.001 A 
HETATM   19  C24 UNL     1       4.031  12.661  23.033  1.00  0.00     0.010 C 
HETATM   20  C25 UNL     1       5.485  13.166  23.043  1.00  0.00     0.034 C 
HETATM   21  C26 UNL     1       3.454  10.600  21.423  1.00  0.00    -0.039 A 
HETATM   22  C27 UNL     1       2.168  10.020  20.899  1.00  0.00     0.015 C 
HETATM   23  C28 UNL     1       4.181   9.623  22.328  1.00  0.00     0.015 C 
ENDROOT
BRANCH  15  24
HETATM   24  C17 UNL     1       2.521  13.366  17.637  1.00  0.00     0.014 C 
BRANCH  24  25
HETATM   25  C18 UNL     1       1.114  13.938  17.915  1.00  0.00    -0.022 C 
HETATM   26  C19 UNL     1       1.085  15.457  18.023  1.00  0.00     0.009 C 
HETATM   27  C20 UNL     1       0.436  13.293  19.124  1.00  0.00     0.009 C 
ENDBRANCH  24  25
ENDBRANCH  15  24
BRANCH  13  28
HETATM   28  O5  UNL     1       1.130   9.998  17.758  1.00  0.00    -0.359 OA
HETATM   29  H15 UNL     1       0.589   9.247  17.423  1.00  0.00     0.217 HD
ENDBRANCH  13  28
BRANCH  10  30
HETATM   30  C10 UNL     1       5.978  10.354  14.902  1.00  0.00     0.275 C 
HETATM   31  O2  UNL     1       6.671   9.370  14.654  1.00  0.00    -0.301 OA
ENDBRANCH  10  30
BRANCH  12  32
HETATM   32  C13 UNL     1       1.643   8.024  15.721  1.00  0.00     0.275 C 
HETATM   33  O4  UNL     1       1.088   7.377  16.606  1.00  0.00    -0.301 OA
ENDBRANCH  12  32
BRANCH  11  34
HETATM   34  O3  UNL     1       4.059   8.275  14.353  1.00  0.00    -0.359 OA
HETATM   35  H13 UNL     1       4.931   8.485  13.943  1.00  0.00     0.217 HD
ENDBRANCH  11  34
TORSDOF 6
ENDMDL
MODEL 4
REMARK minimizedAffinity -7.21013451
REMARK CNNscore 0.195957661
REMARK CNNaffinity 5.32966375
REMARK  6 active torsions:
REMARK  status: ('A' for Active; 'I' for Inactive)
REMARK    1  A    between atoms: C9_10  and  C10_11 
REMARK    2  A    between atoms: C11_13  and  O3_14 
REMARK    3  A    between atoms: C12_15  and  C13_16 
REMARK    4  A    between atoms: C14_18  and  O5_19 
REMARK    5  A    between atoms: C16_21  and  C17_22 
REMARK    6  A    between atoms: C17_22  and  C18_23 
ROOT
HETATM    1  C1  UNL     1      17.855  -5.007  11.840  1.00  0.00     0.043 C 
HETATM    2  C2  UNL     1      18.745  -5.126  10.637  1.00  0.00    -0.087 C 
HETATM    3  C3  UNL     1      18.840  -4.206   9.657  1.00  0.00    -0.024 C 
HETATM    4  C4  UNL     1      18.015  -2.981   9.426  1.00  0.00     0.030 C 
HETATM    5  C5  UNL     1      16.634  -3.189   8.768  1.00  0.00     0.042 C 
HETATM    6  C6  UNL     1      16.415  -4.291   7.672  1.00  0.00     0.069 C 
HETATM    7  C7  UNL     1      17.517  -4.209   6.590  1.00  0.00     0.047 C 
HETATM    8  O1  UNL     1      15.208  -3.830   6.978  1.00  0.00    -0.338 OA
HETATM    9  C8  UNL     1      14.680  -4.755   6.117  1.00  0.00     0.095 A 
HETATM   10  C9  UNL     1      14.295  -4.380   4.827  1.00  0.00     0.070 A 
HETATM   11  C11 UNL     1      13.708  -5.327   3.973  1.00  0.00     0.097 A 
HETATM   12  C12 UNL     1      13.478  -6.629   4.434  1.00  0.00     0.069 A 
HETATM   13  C14 UNL     1      13.836  -6.980   5.747  1.00  0.00     0.091 A 
HETATM   14  C15 UNL     1      14.458  -6.051   6.588  1.00  0.00     0.015 A 
HETATM   15  C16 UNL     1      14.782  -6.319   8.043  1.00  0.00     0.032 C 
HETATM   16  C21 UNL     1      16.181  -5.721   8.360  1.00  0.00     0.034 C 
HETATM   17  C22 UNL     1      17.394  -6.668   8.237  1.00  0.00     0.006 A 
HETATM   18  C23 UNL     1      17.541  -7.674   9.376  1.00  0.00    -0.001 A 
HETATM   19  C24 UNL     1      18.706  -7.700  10.339  1.00  0.00     0.010 C 
HETATM   20  C25 UNL     1      19.539  -6.416  10.502  1.00  0.00     0.034 C 
HETATM   21  C26 UNL     1      17.611  -8.161   7.939  1.00  0.00    -0.039 A 
HETATM   22  C27 UNL     1      16.527  -9.084   7.452  1.00  0.00     0.015 C 
HETATM   23  C28 UNL     1      18.958  -8.512   7.334  1.00  0.00     0.015 C 
ENDROOT
BRANCH  15  24
HETATM   24  C17 UNL     1      13.627  -5.698   8.895  1.00  0.00     0.014 C 
BRANCH  24  25
HETATM   25  C18 UNL     1      12.200  -6.254   8.703  1.00  0.00    -0.022 C 
HETATM   26  C19 UNL     1      11.323  -5.387   7.809  1.00  0.00     0.009 C 
HETATM   27  C20 UNL     1      11.495  -6.558  10.025  1.00  0.00     0.009 C 
ENDBRANCH  24  25
ENDBRANCH  15  24
BRANCH  13  28
HETATM   28  O5  UNL     1      13.563  -8.221   6.265  1.00  0.00    -0.359 OA
HETATM   29  H15 UNL     1      13.135  -8.765   5.564  1.00  0.00     0.217 HD
ENDBRANCH  13  28
BRANCH  10  30
HETATM   30  C10 UNL     1      14.517  -2.993   4.380  1.00  0.00     0.275 C 
HETATM   31  O2  UNL     1      13.738  -2.103   4.715  1.00  0.00    -0.301 OA
ENDBRANCH  10  30
BRANCH  12  32
HETATM   32  C13 UNL     1      12.838  -7.615   3.540  1.00  0.00     0.275 C 
HETATM   33  O4  UNL     1      13.187  -8.794   3.561  1.00  0.00    -0.301 OA
ENDBRANCH  12  32
BRANCH  11  34
HETATM   34  O3  UNL     1      13.337  -5.008   2.690  1.00  0.00    -0.359 OA
HETATM   35  H13 UNL     1      13.553  -4.060   2.525  1.00  0.00     0.217 HD
ENDBRANCH  11  34
TORSDOF 6
ENDMDL
MODEL 5
REMARK minimizedAffinity -5.31404924
REMARK CNNscore 0.191107094
REMARK CNNaffinity 5.19019651
REMARK  6 active torsions:
REMARK  status: ('A' for Active; 'I' for Inactive)
REMARK    1  A    between atoms: C9_10  and  C10_11 
REMARK    2  A    between atoms: C11_13  and  O3_14 
REMARK    3  A    between atoms: C12_15  and  C13_16 
REMARK    4  A    between atoms: C14_18  and  O5_19 
REMARK    5  A    between atoms: C16_21  and  C17_22 
REMARK    6  A    between atoms: C17_22  and  C18_23 
ROOT
HETATM    1  C1  UNL     1     -11.965   2.547  24.363  1.00  0.00     0.043 C 
HETATM    2  C2  UNL     1     -13.460   2.420  24.424  1.00  0.00    -0.087 C 
HETATM    3  C3  UNL     1     -14.293   2.646  23.390  1.00  0.00    -0.024 C 
HETATM    4  C4  UNL     1     -13.994   3.215  22.041  1.00  0.00     0.030 C 
HETATM    5  C5  UNL     1     -13.852   4.749  21.950  1.00  0.00     0.042 C 
HETATM    6  C6  UNL     1     -14.736   5.700  22.833  1.00  0.00     0.069 C 
HETATM    7  C7  UNL     1     -16.226   5.294  22.744  1.00  0.00     0.047 C 
HETATM    8  O1  UNL     1     -14.677   6.973  22.106  1.00  0.00    -0.338 OA
HETATM    9  C8  UNL     1     -15.190   8.031  22.808  1.00  0.00     0.095 A 
HETATM   10  C9  UNL     1     -16.071   8.926  22.192  1.00  0.00     0.070 A 
HETATM   11  C11 UNL     1     -16.549  10.034  22.908  1.00  0.00     0.097 A 
HETATM   12  C12 UNL     1     -16.110  10.257  24.219  1.00  0.00     0.069 A 
HETATM   13  C14 UNL     1     -15.195   9.370  24.810  1.00  0.00     0.091 A 
HETATM   14  C15 UNL     1     -14.746   8.241  24.115  1.00  0.00     0.015 A 
HETATM   15  C16 UNL     1     -13.688   7.295  24.642  1.00  0.00     0.032 C 
HETATM   16  C21 UNL     1     -14.108   5.837  24.302  1.00  0.00     0.034 C 
HETATM   17  C22 UNL     1     -14.896   5.064  25.381  1.00  0.00     0.006 A 
HETATM   18  C23 UNL     1     -14.056   4.570  26.558  1.00  0.00    -0.001 A 
HETATM   19  C24 UNL     1     -13.840   3.112  26.893  1.00  0.00     0.010 C 
HETATM   20  C25 UNL     1     -14.060   2.074  25.778  1.00  0.00     0.034 C 
HETATM   21  C26 UNL     1     -15.347   5.326  26.828  1.00  0.00    -0.039 A 
HETATM   22  C27 UNL     1     -15.252   6.666  27.505  1.00  0.00     0.015 C 
HETATM   23  C28 UNL     1     -16.580   4.561  27.271  1.00  0.00     0.015 C 
ENDROOT
BRANCH  15  24
HETATM   24  C17 UNL     1     -12.327   7.720  24.000  1.00  0.00     0.014 C 
BRANCH  24  25
HETATM   25  C18 UNL     1     -12.094   9.219  23.712  1.00  0.00    -0.022 C 
HETATM   26  C19 UNL     1     -11.648   9.502  22.284  1.00  0.00     0.009 C 
HETATM   27  C20 UNL     1     -11.153   9.881  24.718  1.00  0.00     0.009 C 
ENDBRANCH  24  25
ENDBRANCH  15  24
BRANCH  13  28
HETATM   28  O5  UNL     1     -14.682   9.588  26.063  1.00  0.00    -0.359 OA
HETATM   29  H15 UNL     1     -15.088  10.406  26.430  1.00  0.00     0.217 HD
ENDBRANCH  13  28
BRANCH  10  30
HETATM   30  C10 UNL     1     -16.489   8.687  20.799  1.00  0.00     0.275 C 
HETATM   31  O2  UNL     1     -16.409   9.587  19.966  1.00  0.00    -0.301 OA
ENDBRANCH  10  30
BRANCH  12  32
HETATM   32  C13 UNL     1     -16.597  11.439  24.959  1.00  0.00     0.275 C 
HETATM   33  O4  UNL     1     -15.801  12.243  25.441  1.00  0.00    -0.301 OA
ENDBRANCH  12  32
BRANCH  11  34
HETATM   34  O3  UNL     1     -17.433  10.925  22.350  1.00  0.00    -0.359 OA
HETATM   35  H13 UNL     1     -17.633  10.637  21.428  1.00  0.00     0.217 HD
ENDBRANCH  11  34
TORSDOF 6
ENDMDL
MODEL 6
REMARK minimizedAffinity -5.26752043
REMARK CNNscore 0.183772817
REMARK CNNaffinity 4.95898819
REMARK  6 active torsions:
REMARK  status: ('A' for Active; 'I' for Inactive)
REMARK    1  A    between atoms: C9_10  and  C10_11 
REMARK    2  A    between atoms: C11_13  and  O3_14 
REMARK    3  A    between atoms: C12_15  and  C13_16 
REMARK    4  A    between atoms: C14_18  and  O5_19 
REMARK    5  A    between atoms: C16_21  and  C17_22 
REMARK    6  A    between atoms: C17_22  and  C18_23 
ROOT
HETATM    1  C1  UNL     1      -9.329  15.995  19.812  1.00  0.00     0.043 C 
HETATM    2  C2  UNL     1     -10.761  15.671  19.500  1.00  0.00    -0.087 C 
HETATM    3  C3  UNL     1     -11.801  15.917  20.320  1.00  0.00    -0.024 C 
HETATM    4  C4  UNL     1     -11.797  16.387  21.739  1.00  0.00     0.030 C 
HETATM    5  C5  UNL     1     -11.504  15.326  22.820  1.00  0.00     0.042 C 
HETATM    6  C6  UNL     1     -12.013  13.848  22.666  1.00  0.00     0.069 C 
HETATM    7  C7  UNL     1     -13.512  13.826  22.285  1.00  0.00     0.047 C 
HETATM    8  O1  UNL     1     -11.995  13.349  24.045  1.00  0.00    -0.338 OA
HETATM    9  C8  UNL     1     -12.182  11.995  24.143  1.00  0.00     0.095 A 
HETATM   10  C9  UNL     1     -13.081  11.472  25.077  1.00  0.00     0.070 A 
HETATM   11  C11 UNL     1     -13.225  10.082  25.201  1.00  0.00     0.097 A 
HETATM   12  C12 UNL     1     -12.439   9.229  24.416  1.00  0.00     0.069 A 
HETATM   13  C14 UNL     1     -11.512   9.771  23.508  1.00  0.00     0.091 A 
HETATM   14  C15 UNL     1     -11.394  11.157  23.352  1.00  0.00     0.015 A 
HETATM   15  C16 UNL     1     -10.354  11.817  22.473  1.00  0.00     0.032 C 
HETATM   16  C21 UNL     1     -11.015  13.012  21.730  1.00  0.00     0.034 C 
HETATM   17  C22 UNL     1     -11.581  12.736  20.320  1.00  0.00     0.006 A 
HETATM   18  C23 UNL     1     -10.529  12.605  19.221  1.00  0.00    -0.001 A 
HETATM   19  C24 UNL     1     -10.406  13.552  18.049  1.00  0.00     0.010 C 
HETATM   20  C25 UNL     1     -11.026  14.955  18.184  1.00  0.00     0.034 C 
HETATM   21  C26 UNL     1     -11.609  11.543  19.349  1.00  0.00    -0.039 A 
HETATM   22  C27 UNL     1     -11.187  10.148  19.723  1.00  0.00     0.015 C 
HETATM   23  C28 UNL     1     -12.767  11.534  18.368  1.00  0.00     0.015 C 
ENDROOT
BRANCH  15  24
HETATM   24  C17 UNL     1      -9.165  12.236  23.399  1.00  0.00     0.014 C 
BRANCH  24  25
HETATM   25  C18 UNL     1      -8.345  13.485  23.011  1.00  0.00    -0.022 C 
HETATM   26  C19 UNL     1      -7.012  13.159  22.350  1.00  0.00     0.009 C 
HETATM   27  C20 UNL     1      -8.150  14.456  24.176  1.00  0.00     0.009 C 
ENDBRANCH  24  25
ENDBRANCH  15  24
BRANCH  13  28
HETATM   28  O5  UNL     1     -10.671   8.976  22.773  1.00  0.00    -0.359 OA
HETATM   29  H15 UNL     1     -10.870   8.033  22.979  1.00  0.00     0.217 HD
ENDBRANCH  13  28
BRANCH  10  30
HETATM   30  C10 UNL     1     -13.871  12.393  25.916  1.00  0.00     0.275 C 
HETATM   31  O2  UNL     1     -13.777  12.349  27.140  1.00  0.00    -0.301 OA
ENDBRANCH  10  30
BRANCH  12  32
HETATM   32  C13 UNL     1     -12.576   7.767  24.568  1.00  0.00     0.275 C 
HETATM   33  O4  UNL     1     -12.699   7.047  23.578  1.00  0.00    -0.301 OA
ENDBRANCH  12  32
BRANCH  11  34
HETATM   34  O3  UNL     1     -14.113   9.526  26.088  1.00  0.00    -0.359 OA
HETATM   35  H13 UNL     1     -14.577  10.252  26.569  1.00  0.00     0.217 HD
ENDBRANCH  11  34
TORSDOF 6
ENDMDL
MODEL 7
REMARK minimizedAffinity -4.99616146
REMARK CNNscore 0.173734635
REMARK CNNaffinity 5.3422451
REMARK  6 active torsions:
REMARK  status: ('A' for Active; 'I' for Inactive)
REMARK    1  A    between atoms: C9_10  and  C10_11 
REMARK    2  A    between atoms: C11_13  and  O3_14 
REMARK    3  A    between atoms: C12_15  and  C13_16 
REMARK    4  A    between atoms: C14_18  and  O5_19 
REMARK    5  A    between atoms: C16_21  and  C17_22 
REMARK    6  A    between atoms: C17_22  and  C18_23 
ROOT
HETATM    1  C1  UNL     1      16.558  -2.788  -2.024  1.00  0.00     0.043 C 
HETATM    2  C2  UNL     1      17.347  -3.970  -1.542  1.00  0.00    -0.087 C 
HETATM    3  C3  UNL     1      16.860  -5.220  -1.415  1.00  0.00    -0.024 C 
HETATM    4  C4  UNL     1      15.452  -5.704  -1.544  1.00  0.00     0.030 C 
HETATM    5  C5  UNL     1      14.527  -5.478  -0.330  1.00  0.00     0.042 C 
HETATM    6  C6  UNL     1      15.075  -5.574   1.138  1.00  0.00     0.069 C 
HETATM    7  C7  UNL     1      15.899  -6.869   1.326  1.00  0.00     0.047 C 
HETATM    8  O1  UNL     1      13.862  -5.813   1.927  1.00  0.00    -0.338 OA
HETATM    9  C8  UNL     1      14.055  -5.705   3.279  1.00  0.00     0.095 A 
HETATM   10  C9  UNL     1      13.546  -6.678   4.145  1.00  0.00     0.070 A 
HETATM   11  C11 UNL     1      13.707  -6.528   5.531  1.00  0.00     0.097 A 
HETATM   12  C12 UNL     1      14.342  -5.387   6.037  1.00  0.00     0.069 A 
HETATM   13  C14 UNL     1      14.814  -4.399   5.155  1.00  0.00     0.091 A 
HETATM   14  C15 UNL     1      14.691  -4.564   3.771  1.00  0.00     0.015 A 
HETATM   15  C16 UNL     1      15.082  -3.505   2.761  1.00  0.00     0.032 C 
HETATM   16  C21 UNL     1      15.783  -4.198   1.558  1.00  0.00     0.034 C 
HETATM   17  C22 UNL     1      17.324  -4.286   1.599  1.00  0.00     0.006 A 
HETATM   18  C23 UNL     1      18.049  -2.977   1.296  1.00  0.00    -0.001 A 
HETATM   19  C24 UNL     1      18.950  -2.764   0.101  1.00  0.00     0.010 C 
HETATM   20  C25 UNL     1      18.781  -3.701  -1.109  1.00  0.00     0.034 C 
HETATM   21  C26 UNL     1      18.441  -3.779   2.526  1.00  0.00    -0.039 A 
HETATM   22  C27 UNL     1      18.193  -3.165   3.878  1.00  0.00     0.015 C 
HETATM   23  C28 UNL     1      19.719  -4.597   2.509  1.00  0.00     0.015 C 
ENDROOT
BRANCH  15  24
HETATM   24  C17 UNL     1      13.778  -2.737   2.369  1.00  0.00     0.014 C 
BRANCH  24  25
HETATM   25  C18 UNL     1      13.546  -1.337   2.977  1.00  0.00    -0.022 C 
HETATM   26  C19 UNL     1      14.827  -0.538   3.173  1.00  0.00     0.009 C 
HETATM   27  C20 UNL     1      12.725  -1.375   4.266  1.00  0.00     0.009 C 
ENDBRANCH  24  25
ENDBRANCH  15  24
BRANCH  13  28
HETATM   28  O5  UNL     1      15.375  -3.233   5.608  1.00  0.00    -0.359 OA
HETATM   29  H15 UNL     1      15.401  -3.259   6.592  1.00  0.00     0.217 HD
ENDBRANCH  13  28
BRANCH  10  30
HETATM   30  C10 UNL     1      12.852  -7.852   3.586  1.00  0.00     0.275 C 
HETATM   31  O2  UNL     1      13.484  -8.867   3.300  1.00  0.00    -0.301 OA
ENDBRANCH  10  30
BRANCH  12  32
HETATM   32  C13 UNL     1      14.486  -5.221   7.498  1.00  0.00     0.275 C 
HETATM   33  O4  UNL     1      13.756  -4.445   8.111  1.00  0.00    -0.301 OA
ENDBRANCH  12  32
BRANCH  11  34
HETATM   34  O3  UNL     1      13.244  -7.470   6.416  1.00  0.00    -0.359 OA
HETATM   35  H13 UNL     1      12.816  -8.199   5.908  1.00  0.00     0.217 HD
ENDBRANCH  11  34
TORSDOF 6
ENDMDL
MODEL 8
REMARK minimizedAffinity -5.17987394
REMARK CNNscore 0.173484772
REMARK CNNaffinity 4.53990746
REMARK  6 active torsions:
REMARK  status: ('A' for Active; 'I' for Inactive)
REMARK    1  A    between atoms: C9_10  and  C10_11 
REMARK    2  A    between atoms: C11_13  and  O3_14 
REMARK    3  A    between atoms: C12_15  and  C13_16 
REMARK    4  A    between atoms: C14_18  and  O5_19 
REMARK    5  A    between atoms: C16_21  and  C17_22 
REMARK    6  A    between atoms: C17_22  and  C18_23 
ROOT
HETATM    1  C1  UNL     1     -18.895  11.252  -0.989  1.00  0.00     0.043 C 
HETATM    2  C2  UNL     1     -18.968  12.219  -2.136  1.00  0.00    -0.087 C 
HETATM    3  C3  UNL     1     -18.976  11.868  -3.437  1.00  0.00    -0.024 C 
HETATM    4  C4  UNL     1     -18.755  10.527  -4.057  1.00  0.00     0.030 C 
HETATM    5  C5  UNL     1     -17.291  10.055  -4.187  1.00  0.00     0.042 C 
HETATM    6  C6  UNL     1     -16.135  11.071  -4.498  1.00  0.00     0.069 C 
HETATM    7  C7  UNL     1     -16.515  11.977  -5.694  1.00  0.00     0.047 C 
HETATM    8  O1  UNL     1     -15.076  10.211  -5.034  1.00  0.00    -0.338 OA
HETATM    9  C8  UNL     1     -13.868  10.843  -5.168  1.00  0.00     0.095 A 
HETATM   10  C9  UNL     1     -13.127  10.708  -6.345  1.00  0.00     0.070 A 
HETATM   11  C11 UNL     1     -11.868  11.319  -6.448  1.00  0.00     0.097 A 
HETATM   12  C12 UNL     1     -11.348  12.027  -5.358  1.00  0.00     0.069 A 
HETATM   13  C14 UNL     1     -12.089  12.122  -4.168  1.00  0.00     0.091 A 
HETATM   14  C15 UNL     1     -13.362  11.548  -4.074  1.00  0.00     0.015 A 
HETATM   15  C16 UNL     1     -14.179  11.519  -2.800  1.00  0.00     0.032 C 
HETATM   16  C21 UNL     1     -15.665  11.807  -3.153  1.00  0.00     0.034 C 
HETATM   17  C22 UNL     1     -16.139  13.274  -3.057  1.00  0.00     0.006 A 
HETATM   18  C23 UNL     1     -16.355  13.786  -1.635  1.00  0.00    -0.001 A 
HETATM   19  C24 UNL     1     -17.695  14.217  -1.083  1.00  0.00     0.010 C 
HETATM   20  C25 UNL     1     -18.965  13.698  -1.782  1.00  0.00     0.034 C 
HETATM   21  C26 UNL     1     -15.527  14.610  -2.605  1.00  0.00    -0.039 A 
HETATM   22  C27 UNL     1     -14.065  14.802  -2.301  1.00  0.00     0.015 C 
HETATM   23  C28 UNL     1     -16.134  15.848  -3.240  1.00  0.00     0.015 C 
ENDROOT
BRANCH  15  24
HETATM   24  C17 UNL     1     -13.953  10.121  -2.137  1.00  0.00     0.014 C 
BRANCH  24  25
HETATM   25  C18 UNL     1     -14.363   9.940  -0.660  1.00  0.00    -0.022 C 
HETATM   26  C19 UNL     1     -14.612  11.253   0.069  1.00  0.00     0.009 C 
HETATM   27  C20 UNL     1     -13.392   9.057   0.125  1.00  0.00     0.009 C 
ENDBRANCH  24  25
ENDBRANCH  15  24
BRANCH  13  28
HETATM   28  O5  UNL     1     -11.589  12.742  -3.051  1.00  0.00    -0.359 OA
HETATM   29  H15 UNL     1     -10.697  13.100  -3.265  1.00  0.00     0.217 HD
ENDBRANCH  13  28
BRANCH  10  30
HETATM   30  C10 UNL     1     -13.683   9.927  -7.465  1.00  0.00     0.275 C 
HETATM   31  O2  UNL     1     -13.063   8.967  -7.919  1.00  0.00    -0.301 OA
ENDBRANCH  10  30
BRANCH  12  32
HETATM   32  C13 UNL     1     -10.012  12.648  -5.463  1.00  0.00     0.275 C 
HETATM   33  O4  UNL     1      -9.113  12.326  -4.688  1.00  0.00    -0.301 OA
ENDBRANCH  12  32
BRANCH  11  34
HETATM   34  O3  UNL     1     -11.116  11.232  -7.594  1.00  0.00    -0.359 OA
HETATM   35  H13 UNL     1     -11.612  10.696  -8.258  1.00  0.00     0.217 HD
ENDBRANCH  11  34
TORSDOF 6
ENDMDL
MODEL 9
REMARK minimizedAffinity -5.66165924
REMARK CNNscore 0.173242614
REMARK CNNaffinity 4.98911285
REMARK  6 active torsions:
REMARK  status: ('A' for Active; 'I' for Inactive)
REMARK    1  A    between atoms: C9_10  and  C10_11 
REMARK    2  A    between atoms: C11_13  and  O3_14 
REMARK    3  A    between atoms: C12_15  and  C13_16 
REMARK    4  A    between atoms: C14_18  and  O5_19 
REMARK    5  A    between atoms: C16_21  and  C17_22 
REMARK    6  A    between atoms: C17_22  and  C18_23 
ROOT
HETATM    1  C1  UNL     1       3.439  13.565  32.762  1.00  0.00     0.043 C 
HETATM    2  C2  UNL     1       3.297  15.043  32.547  1.00  0.00    -0.087 C 
HETATM    3  C3  UNL     1       2.250  15.784  32.961  1.00  0.00    -0.024 C 
HETATM    4  C4  UNL     1       0.951  15.338  33.552  1.00  0.00     0.030 C 
HETATM    5  C5  UNL     1      -0.116  14.814  32.567  1.00  0.00     0.042 C 
HETATM    6  C6  UNL     1      -0.277  15.440  31.136  1.00  0.00     0.069 C 
HETATM    7  C7  UNL     1      -0.338  16.983  31.222  1.00  0.00     0.047 C 
HETATM    8  O1  UNL     1      -1.641  15.056  30.761  1.00  0.00    -0.338 OA
HETATM    9  C8  UNL     1      -1.938  15.294  29.445  1.00  0.00     0.095 A 
HETATM   10  C9  UNL     1      -3.140  15.916  29.093  1.00  0.00     0.070 A 
HETATM   11  C11 UNL     1      -3.453  16.107  27.739  1.00  0.00     0.097 A 
HETATM   12  C12 UNL     1      -2.579  15.640  26.750  1.00  0.00     0.069 A 
HETATM   13  C14 UNL     1      -1.393  14.982  27.120  1.00  0.00     0.091 A 
HETATM   14  C15 UNL     1      -1.056  14.824  28.470  1.00  0.00     0.015 A 
HETATM   15  C16 UNL     1       0.148  14.043  28.949  1.00  0.00     0.032 C 
HETATM   16  C21 UNL     1       0.804  14.812  30.131  1.00  0.00     0.034 C 
HETATM   17  C22 UNL     1       1.957  15.779  29.786  1.00  0.00     0.006 A 
HETATM   18  C23 UNL     1       3.286  15.102  29.460  1.00  0.00    -0.001 A 
HETATM   19  C24 UNL     1       4.543  15.262  30.285  1.00  0.00     0.010 C 
HETATM   20  C25 UNL     1       4.396  15.724  31.746  1.00  0.00     0.034 C 
HETATM   21  C26 UNL     1       2.742  16.164  28.520  1.00  0.00    -0.039 A 
HETATM   22  C27 UNL     1       2.349  15.742  27.130  1.00  0.00     0.015 C 
HETATM   23  C28 UNL     1       3.349  17.554  28.533  1.00  0.00     0.015 C 
ENDROOT
BRANCH  15  24
HETATM   24  C17 UNL     1      -0.353  12.613  29.335  1.00  0.00     0.014 C 
BRANCH  24  25
HETATM   25  C18 UNL     1      -0.212  11.485  28.289  1.00  0.00    -0.022 C 
HETATM   26  C19 UNL     1       0.984  11.659  27.363  1.00  0.00     0.009 C 
HETATM   27  C20 UNL     1      -1.493  11.252  27.487  1.00  0.00     0.009 C 
ENDBRANCH  24  25
ENDBRANCH  15  24
BRANCH  13  28
HETATM   28  O5  UNL     1      -0.543  14.443  26.188  1.00  0.00    -0.359 OA
HETATM   29  H15 UNL     1      -0.901  14.634  25.290  1.00  0.00     0.217 HD
ENDBRANCH  13  28
BRANCH  10  30
HETATM   30  C10 UNL     1      -4.059  16.367  30.154  1.00  0.00     0.275 C 
HETATM   31  O2  UNL     1      -5.200  15.915  30.218  1.00  0.00    -0.301 OA
ENDBRANCH  10  30
BRANCH  12  32
HETATM   32  C13 UNL     1      -2.925  15.821  25.326  1.00  0.00     0.275 C 
HETATM   33  O4  UNL     1      -2.065  16.158  24.514  1.00  0.00    -0.301 OA
ENDBRANCH  12  32
BRANCH  11  34
HETATM   34  O3  UNL     1      -4.611  16.734  27.349  1.00  0.00    -0.359 OA
HETATM   35  H13 UNL     1      -5.119  16.991  28.155  1.00  0.00     0.217 HD
ENDBRANCH  11  34
TORSDOF 6
ENDMDL
