MODEL 1
REMARK minimizedAffinity -10.5783319
REMARK  6 active torsions:
REMARK  status: ('A' for Active; 'I' for Inactive)
REMARK    1  A    between atoms: C3_3  and  C4_4 
REMARK    2  A    between atoms: C4_4  and  O1_5 
REMARK    3  A    between atoms: C6_9  and  C7_10 
REMARK    4  A    between atoms: C7_10  and  O4_12 
REMARK    5  A    between atoms: C7_10  and  C9_13 
REMARK    6  A    between atoms: C12_16  and  O5_17 
ROOT
HETATM    1  C9  UNL     1      -6.026  49.384 -22.386  1.00  0.00     0.033 C 
HETATM    2  C10 UNL     1      -6.595  49.155 -20.959  1.00  0.00     0.011 C 
HETATM    3  C11 UNL     1      -5.500  49.620 -19.966  1.00  0.00     0.039 C 
HETATM    4  C12 UNL     1      -4.498  50.371 -20.845  1.00  0.00     0.070 C 
HETATM    5  C13 UNL     1      -3.089  50.627 -20.280  1.00  0.00     0.030 C 
HETATM    6  C14 UNL     1      -3.142  51.484 -19.005  1.00  0.00     0.035 C 
HETATM    7  C15 UNL     1      -1.791  51.945 -18.561  1.00  0.00    -0.022 C 
HETATM    8  C16 UNL     1      -0.689  51.935 -19.331  1.00  0.00    -0.068 C 
HETATM    9  C17 UNL     1       0.620  52.441 -18.754  1.00  0.00     0.035 C 
HETATM   10  C18 UNL     1       1.438  53.262 -19.750  1.00  0.00     0.012 C 
HETATM   11  C19 UNL     1       0.586  53.788 -20.890  1.00  0.00     0.080 C 
HETATM   12  C20 UNL     1      -0.008  52.612 -21.636  1.00  0.00     0.139 C 
HETATM   13  O6  UNL     1       0.075  52.563 -22.864  1.00  0.00    -0.297 OA
HETATM   14  C21 UNL     1      -0.699  51.494 -20.805  1.00  0.00     0.044 C 
HETATM   15  C22 UNL     1       0.150  50.215 -20.939  1.00  0.00     0.029 C 
HETATM   16  C23 UNL     1      -2.174  51.307 -21.350  1.00  0.00     0.013 C 
HETATM   17  C24 UNL     1      -2.261  50.587 -22.731  1.00  0.00     0.007 C 
HETATM   18  C25 UNL     1      -3.687  50.260 -23.218  1.00  0.00     0.013 C 
HETATM   19  C26 UNL     1      -4.486  49.504 -22.145  1.00  0.00    -0.006 C 
HETATM   20  C27 UNL     1      -3.823  48.119 -21.925  1.00  0.00     0.019 C 
ENDROOT
BRANCH   1  21
HETATM   21  C7  UNL     1      -6.644  48.560 -23.554  1.00  0.00     0.085 C 
HETATM   22  C8  UNL     1      -6.735  47.078 -23.124  1.00  0.00     0.049 C 
BRANCH  21  23
HETATM   23  C6  UNL     1      -6.062  48.677 -24.996  1.00  0.00     0.170 C 
HETATM   24  O3  UNL     1      -6.902  47.844 -25.849  1.00  0.00    -0.309 OA
HETATM   25  C5  UNL     1      -6.588  47.673 -27.154  1.00  0.00     0.292 C 
HETATM   26  C3  UNL     1      -5.220  48.062 -27.587  1.00  0.00     0.042 C 
HETATM   27  O2  UNL     1      -7.385  47.181 -27.944  1.00  0.00    -0.260 OA
HETATM   28  C2  UNL     1      -4.263  48.291 -26.663  1.00  0.00    -0.067 C 
HETATM   29  C1  UNL     1      -2.815  48.562 -26.965  1.00  0.00     0.044 C 
HETATM   30  C28 UNL     1      -4.607  48.265 -25.193  1.00  0.00     0.070 C 
BRANCH  26  31
HETATM   31  C4  UNL     1      -5.058  48.109 -29.080  1.00  0.00     0.209 C 
BRANCH  31  32
HETATM   32  O1  UNL     1      -4.583  49.387 -29.480  1.00  0.00    -0.396 OA
HETATM   33  H6  UNL     1      -3.692  49.480 -29.087  1.00  0.00     0.209 HD
ENDBRANCH  31  32
ENDBRANCH  26  31
ENDBRANCH  21  23
BRANCH  21  34
HETATM   34  O4  UNL     1      -8.016  49.016 -23.652  1.00  0.00    -0.387 OA
HETATM   35  H11 UNL     1      -8.424  48.521 -24.389  1.00  0.00     0.210 HD
ENDBRANCH  21  34
ENDBRANCH   1  21
BRANCH   4  36
HETATM   36  O5  UNL     1      -5.120  51.654 -21.067  1.00  0.00    -0.389 OA
HETATM   37  H17 UNL     1      -4.660  52.124 -21.780  1.00  0.00     0.210 HD
ENDBRANCH   4  36
TORSDOF 6
ENDMDL
MODEL 2
REMARK minimizedAffinity -10.4239225
REMARK  6 active torsions:
REMARK  status: ('A' for Active; 'I' for Inactive)
REMARK    1  A    between atoms: C3_3  and  C4_4 
REMARK    2  A    between atoms: C4_4  and  O1_5 
REMARK    3  A    between atoms: C6_9  and  C7_10 
REMARK    4  A    between atoms: C7_10  and  O4_12 
REMARK    5  A    between atoms: C7_10  and  C9_13 
REMARK    6  A    between atoms: C12_16  and  O5_17 
ROOT
HETATM    1  C9  UNL     1      -1.273  51.693 -25.195  1.00  0.00     0.033 C 
HETATM    2  C10 UNL     1      -0.717  50.853 -26.378  1.00  0.00     0.011 C 
HETATM    3  C11 UNL     1      -1.754  49.735 -26.653  1.00  0.00     0.039 C 
HETATM    4  C12 UNL     1      -2.981  50.161 -25.845  1.00  0.00     0.070 C 
HETATM    5  C13 UNL     1      -4.061  49.103 -25.555  1.00  0.00     0.030 C 
HETATM    6  C14 UNL     1      -4.674  48.556 -26.853  1.00  0.00     0.035 C 
HETATM    7  C15 UNL     1      -5.878  47.703 -26.610  1.00  0.00    -0.022 C 
HETATM    8  C16 UNL     1      -6.576  47.676 -25.461  1.00  0.00    -0.068 C 
HETATM    9  C17 UNL     1      -7.786  46.767 -25.352  1.00  0.00     0.035 C 
HETATM   10  C18 UNL     1      -8.953  47.407 -24.601  1.00  0.00     0.012 C 
HETATM   11  C19 UNL     1      -8.839  48.920 -24.555  1.00  0.00     0.080 C 
HETATM   12  C20 UNL     1      -7.562  49.290 -23.831  1.00  0.00     0.139 C 
HETATM   13  O6  UNL     1      -7.594  50.127 -22.927  1.00  0.00    -0.297 OA
HETATM   14  C21 UNL     1      -6.248  48.578 -24.258  1.00  0.00     0.044 C 
HETATM   15  C22 UNL     1      -5.792  47.686 -23.088  1.00  0.00     0.029 C 
HETATM   16  C23 UNL     1      -5.180  49.686 -24.632  1.00  0.00     0.013 C 
HETATM   17  C24 UNL     1      -4.586  50.444 -23.405  1.00  0.00     0.007 C 
HETATM   18  C25 UNL     1      -3.439  51.424 -23.724  1.00  0.00     0.013 C 
HETATM   19  C26 UNL     1      -2.334  50.745 -24.548  1.00  0.00    -0.006 C 
HETATM   20  C27 UNL     1      -1.674  49.648 -23.672  1.00  0.00     0.019 C 
ENDROOT
BRANCH   1  21
HETATM   21  C7  UNL     1      -0.260  52.534 -24.363  1.00  0.00     0.085 C 
HETATM   22  C8  UNL     1       1.171  52.216 -24.854  1.00  0.00     0.049 C 
BRANCH  21  23
HETATM   23  C6  UNL     1      -0.321  52.525 -22.806  1.00  0.00     0.170 C 
HETATM   24  O3  UNL     1       0.682  53.481 -22.348  1.00  0.00    -0.309 OA
HETATM   25  C5  UNL     1       0.928  53.628 -21.026  1.00  0.00     0.292 C 
HETATM   26  C3  UNL     1       0.412  52.576 -20.111  1.00  0.00     0.042 C 
HETATM   27  O2  UNL     1       1.583  54.572 -20.599  1.00  0.00    -0.260 OA
HETATM   28  C2  UNL     1      -0.015  51.399 -20.615  1.00  0.00    -0.067 C 
HETATM   29  C1  UNL     1      -0.435  50.209 -19.796  1.00  0.00     0.044 C 
HETATM   30  C28 UNL     1      -0.076  51.191 -22.109  1.00  0.00     0.070 C 
BRANCH  26  31
HETATM   31  C4  UNL     1       0.477  52.963 -18.661  1.00  0.00     0.209 C 
BRANCH  31  32
HETATM   32  O1  UNL     1       1.831  53.061 -18.241  1.00  0.00    -0.396 OA
HETATM   33  H6  UNL     1       2.222  53.795 -18.756  1.00  0.00     0.209 HD
ENDBRANCH  31  32
ENDBRANCH  26  31
ENDBRANCH  21  23
BRANCH  21  34
HETATM   34  O4  UNL     1      -0.502  53.908 -24.753  1.00  0.00    -0.387 OA
HETATM   35  H11 UNL     1       0.115  54.459 -24.233  1.00  0.00     0.210 HD
ENDBRANCH  21  34
ENDBRANCH   1  21
BRANCH   4  36
HETATM   36  O5  UNL     1      -3.587  51.196 -26.649  1.00  0.00    -0.389 OA
HETATM   37  H17 UNL     1      -4.252  51.672 -26.126  1.00  0.00     0.210 HD
ENDBRANCH   4  36
TORSDOF 6
ENDMDL
MODEL 3
REMARK minimizedAffinity -10.2181206
REMARK  6 active torsions:
REMARK  status: ('A' for Active; 'I' for Inactive)
REMARK    1  A    between atoms: C3_3  and  C4_4 
REMARK    2  A    between atoms: C4_4  and  O1_5 
REMARK    3  A    between atoms: C6_9  and  C7_10 
REMARK    4  A    between atoms: C7_10  and  O4_12 
REMARK    5  A    between atoms: C7_10  and  C9_13 
REMARK    6  A    between atoms: C12_16  and  O5_17 
ROOT
HETATM    1  C9  UNL     1      -1.586  50.367 -21.798  1.00  0.00     0.033 C 
HETATM    2  C10 UNL     1      -1.207  51.836 -22.133  1.00  0.00     0.011 C 
HETATM    3  C11 UNL     1      -0.642  52.456 -20.831  1.00  0.00     0.039 C 
HETATM    4  C12 UNL     1      -0.433  51.254 -19.909  1.00  0.00     0.070 C 
HETATM    5  C13 UNL     1      -0.264  51.518 -18.402  1.00  0.00     0.030 C 
HETATM    6  C14 UNL     1       0.970  52.390 -18.119  1.00  0.00     0.035 C 
HETATM    7  C15 UNL     1       1.297  52.475 -16.663  1.00  0.00    -0.022 C 
HETATM    8  C16 UNL     1       0.823  51.638 -15.723  1.00  0.00    -0.068 C 
HETATM    9  C17 UNL     1       1.244  51.834 -14.279  1.00  0.00     0.035 C 
HETATM   10  C18 UNL     1       1.513  50.520 -13.547  1.00  0.00     0.012 C 
HETATM   11  C19 UNL     1       1.767  49.374 -14.510  1.00  0.00     0.080 C 
HETATM   12  C20 UNL     1       0.539  49.182 -15.373  1.00  0.00     0.139 C 
HETATM   13  O6  UNL     1       0.061  48.055 -15.513  1.00  0.00    -0.297 OA
HETATM   14  C21 UNL     1      -0.083  50.437 -16.047  1.00  0.00     0.044 C 
HETATM   15  C22 UNL     1      -1.464  50.681 -15.409  1.00  0.00     0.029 C 
HETATM   16  C23 UNL     1      -0.169  50.175 -17.607  1.00  0.00     0.013 C 
HETATM   17  C24 UNL     1      -1.286  49.171 -18.027  1.00  0.00     0.007 C 
HETATM   18  C25 UNL     1      -1.492  49.006 -19.546  1.00  0.00     0.013 C 
HETATM   19  C26 UNL     1      -1.676  50.366 -20.237  1.00  0.00    -0.006 C 
HETATM   20  C27 UNL     1      -3.001  50.996 -19.733  1.00  0.00     0.019 C 
ENDROOT
BRANCH   1  21
HETATM   21  C7  UNL     1      -2.629  49.660 -22.712  1.00  0.00     0.085 C 
HETATM   22  C8  UNL     1      -2.706  48.168 -22.318  1.00  0.00     0.049 C 
BRANCH  21  23
HETATM   23  C6  UNL     1      -2.552  49.815 -24.262  1.00  0.00     0.170 C 
HETATM   24  O3  UNL     1      -2.921  51.195 -24.558  1.00  0.00    -0.309 OA
HETATM   25  C5  UNL     1      -3.033  51.609 -25.841  1.00  0.00     0.292 C 
HETATM   26  C3  UNL     1      -3.105  50.563 -26.895  1.00  0.00     0.042 C 
HETATM   27  O2  UNL     1      -3.109  52.799 -26.124  1.00  0.00    -0.260 OA
HETATM   28  C2  UNL     1      -3.345  49.280 -26.552  1.00  0.00    -0.067 C 
HETATM   29  C1  UNL     1      -3.571  48.153 -27.522  1.00  0.00     0.044 C 
HETATM   30  C28 UNL     1      -3.426  48.887 -25.097  1.00  0.00     0.070 C 
BRANCH  26  31
HETATM   31  C4  UNL     1      -2.937  51.106 -28.286  1.00  0.00     0.209 C 
BRANCH  31  32
HETATM   32  O1  UNL     1      -3.787  50.412 -29.188  1.00  0.00    -0.396 OA
HETATM   33  H6  UNL     1      -4.703  50.612 -28.906  1.00  0.00     0.209 HD
ENDBRANCH  31  32
ENDBRANCH  26  31
ENDBRANCH  21  23
BRANCH  21  34
HETATM   34  O4  UNL     1      -3.909  50.224 -22.330  1.00  0.00    -0.387 OA
HETATM   35  H11 UNL     1      -4.581  49.804 -22.901  1.00  0.00     0.210 HD
ENDBRANCH  21  34
ENDBRANCH   1  21
BRANCH   4  36
HETATM   36  O5  UNL     1       0.790  50.654 -20.387  1.00  0.00    -0.389 OA
HETATM   37  H17 UNL     1       0.896  49.770 -20.002  1.00  0.00     0.210 HD
ENDBRANCH   4  36
TORSDOF 6
ENDMDL
MODEL 4
REMARK minimizedAffinity -10.1726561
REMARK  6 active torsions:
REMARK  status: ('A' for Active; 'I' for Inactive)
REMARK    1  A    between atoms: C3_3  and  C4_4 
REMARK    2  A    between atoms: C4_4  and  O1_5 
REMARK    3  A    between atoms: C6_9  and  C7_10 
REMARK    4  A    between atoms: C7_10  and  O4_12 
REMARK    5  A    between atoms: C7_10  and  C9_13 
REMARK    6  A    between atoms: C12_16  and  O5_17 
ROOT
HETATM    1  C9  UNL     1      -2.237  48.545 -19.479  1.00  0.00     0.033 C 
HETATM    2  C10 UNL     1      -3.539  47.742 -19.746  1.00  0.00     0.011 C 
HETATM    3  C11 UNL     1      -3.936  48.017 -21.218  1.00  0.00     0.039 C 
HETATM    4  C12 UNL     1      -2.702  48.698 -21.813  1.00  0.00     0.070 C 
HETATM    5  C13 UNL     1      -2.867  49.472 -23.133  1.00  0.00     0.030 C 
HETATM    6  C14 UNL     1      -3.335  48.550 -24.270  1.00  0.00     0.035 C 
HETATM    7  C15 UNL     1      -3.285  49.211 -25.610  1.00  0.00    -0.022 C 
HETATM    8  C16 UNL     1      -2.598  50.336 -25.882  1.00  0.00    -0.068 C 
HETATM    9  C17 UNL     1      -2.627  50.896 -27.291  1.00  0.00     0.035 C 
HETATM   10  C18 UNL     1      -1.273  51.436 -27.751  1.00  0.00     0.012 C 
HETATM   11  C19 UNL     1      -0.128  50.877 -26.927  1.00  0.00     0.080 C 
HETATM   12  C20 UNL     1      -0.324  51.285 -25.482  1.00  0.00     0.139 C 
HETATM   13  O6  UNL     1       0.612  51.788 -24.858  1.00  0.00    -0.297 OA
HETATM   14  C21 UNL     1      -1.722  51.056 -24.842  1.00  0.00     0.044 C 
HETATM   15  C22 UNL     1      -2.340  52.438 -24.555  1.00  0.00     0.029 C 
HETATM   16  C23 UNL     1      -1.535  50.187 -23.531  1.00  0.00     0.013 C 
HETATM   17  C24 UNL     1      -0.911  50.964 -22.331  1.00  0.00     0.007 C 
HETATM   18  C25 UNL     1      -0.851  50.188 -21.000  1.00  0.00     0.013 C 
HETATM   19  C26 UNL     1      -2.223  49.602 -20.631  1.00  0.00    -0.006 C 
HETATM   20  C27 UNL     1      -3.198  50.775 -20.353  1.00  0.00     0.019 C 
ENDROOT
BRANCH   1  21
HETATM   21  C7  UNL     1      -1.887  48.891 -18.001  1.00  0.00     0.085 C 
HETATM   22  C8  UNL     1      -3.128  49.525 -17.332  1.00  0.00     0.049 C 
BRANCH  21  23
HETATM   23  C6  UNL     1      -0.604  49.710 -17.666  1.00  0.00     0.170 C 
HETATM   24  O3  UNL     1      -0.376  49.551 -16.234  1.00  0.00    -0.309 OA
HETATM   25  C5  UNL     1       0.626  50.227 -15.626  1.00  0.00     0.292 C 
HETATM   26  C3  UNL     1       1.241  51.357 -16.370  1.00  0.00     0.042 C 
HETATM   27  O2  UNL     1       0.990  49.945 -14.490  1.00  0.00    -0.260 OA
HETATM   28  C2  UNL     1       0.625  51.856 -17.462  1.00  0.00    -0.067 C 
HETATM   29  C1  UNL     1       1.069  53.074 -18.225  1.00  0.00     0.044 C 
HETATM   30  C28 UNL     1      -0.625  51.198 -17.995  1.00  0.00     0.070 C 
BRANCH  26  31
HETATM   31  C4  UNL     1       2.517  51.855 -15.751  1.00  0.00     0.209 C 
BRANCH  31  32
HETATM   32  O1  UNL     1       2.764  53.196 -16.151  1.00  0.00    -0.396 OA
HETATM   33  H6  UNL     1       2.033  53.729 -15.780  1.00  0.00     0.209 HD
ENDBRANCH  31  32
ENDBRANCH  26  31
ENDBRANCH  21  23
BRANCH  21  34
HETATM   34  O4  UNL     1      -1.711  47.609 -17.347  1.00  0.00    -0.387 OA
HETATM   35  H11 UNL     1      -1.478  47.800 -16.418  1.00  0.00     0.210 HD
ENDBRANCH  21  34
ENDBRANCH   1  21
BRANCH   4  36
HETATM   36  O5  UNL     1      -1.784  47.610 -22.055  1.00  0.00    -0.389 OA
HETATM   37  H17 UNL     1      -0.898  47.961 -22.238  1.00  0.00     0.210 HD
ENDBRANCH   4  36
TORSDOF 6
ENDMDL
MODEL 5
REMARK minimizedAffinity -10.1008654
REMARK  6 active torsions:
REMARK  status: ('A' for Active; 'I' for Inactive)
REMARK    1  A    between atoms: C3_3  and  C4_4 
REMARK    2  A    between atoms: C4_4  and  O1_5 
REMARK    3  A    between atoms: C6_9  and  C7_10 
REMARK    4  A    between atoms: C7_10  and  O4_12 
REMARK    5  A    between atoms: C7_10  and  C9_13 
REMARK    6  A    between atoms: C12_16  and  O5_17 
ROOT
HETATM    1  C9  UNL     1       4.634  65.723 -34.350  1.00  0.00     0.033 C 
HETATM    2  C10 UNL     1       6.038  66.383 -34.424  1.00  0.00     0.011 C 
HETATM    3  C11 UNL     1       6.016  67.337 -35.644  1.00  0.00     0.039 C 
HETATM    4  C12 UNL     1       4.536  67.419 -36.023  1.00  0.00     0.070 C 
HETATM    5  C13 UNL     1       4.174  67.950 -37.421  1.00  0.00     0.030 C 
HETATM    6  C14 UNL     1       4.662  69.394 -37.618  1.00  0.00     0.035 C 
HETATM    7  C15 UNL     1       4.132  70.020 -38.868  1.00  0.00    -0.022 C 
HETATM    8  C16 UNL     1       3.087  69.550 -39.573  1.00  0.00    -0.068 C 
HETATM    9  C17 UNL     1       2.647  70.290 -40.822  1.00  0.00     0.035 C 
HETATM   10  C18 UNL     1       1.129  70.361 -40.976  1.00  0.00     0.012 C 
HETATM   11  C19 UNL     1       0.412  70.118 -39.660  1.00  0.00     0.080 C 
HETATM   12  C20 UNL     1       0.764  68.733 -39.162  1.00  0.00     0.139 C 
HETATM   13  O6  UNL     1      -0.132  67.969 -38.799  1.00  0.00    -0.297 OA
HETATM   14  C21 UNL     1       2.264  68.325 -39.140  1.00  0.00     0.044 C 
HETATM   15  C22 UNL     1       2.464  67.207 -40.182  1.00  0.00     0.029 C 
HETATM   16  C23 UNL     1       2.634  67.862 -37.671  1.00  0.00     0.013 C 
HETATM   17  C24 UNL     1       2.059  66.467 -37.275  1.00  0.00     0.007 C 
HETATM   18  C25 UNL     1       2.522  65.924 -35.908  1.00  0.00     0.013 C 
HETATM   19  C26 UNL     1       4.053  65.952 -35.783  1.00  0.00    -0.006 C 
HETATM   20  C27 UNL     1       4.647  64.959 -36.816  1.00  0.00     0.019 C 
ENDROOT
BRANCH   1  21
HETATM   21  C7  UNL     1       4.507  64.372 -33.585  1.00  0.00     0.085 C 
HETATM   22  C8  UNL     1       4.155  64.668 -32.109  1.00  0.00     0.049 C 
BRANCH  21  23
HETATM   23  C6  UNL     1       5.641  63.306 -33.674  1.00  0.00     0.170 C 
HETATM   24  O3  UNL     1       6.867  64.032 -33.988  1.00  0.00    -0.309 OA
HETATM   25  C5  UNL     1       8.017  63.358 -34.218  1.00  0.00     0.292 C 
HETATM   26  C3  UNL     1       7.916  61.898 -34.475  1.00  0.00     0.042 C 
HETATM   27  O2  UNL     1       9.099  63.933 -34.252  1.00  0.00    -0.260 OA
HETATM   28  C2  UNL     1       6.715  61.347 -34.754  1.00  0.00    -0.067 C 
HETATM   29  C1  UNL     1       6.494  59.915 -35.160  1.00  0.00     0.044 C 
HETATM   30  C28 UNL     1       5.463  62.187 -34.694  1.00  0.00     0.070 C 
BRANCH  26  31
HETATM   31  C4  UNL     1       9.241  61.191 -34.433  1.00  0.00     0.209 C 
BRANCH  31  32
HETATM   32  O1  UNL     1       9.784  61.249 -33.121  1.00  0.00    -0.396 OA
HETATM   33  H6  UNL     1       9.168  60.747 -32.551  1.00  0.00     0.209 HD
ENDBRANCH  31  32
ENDBRANCH  26  31
ENDBRANCH  21  23
BRANCH  21  34
HETATM   34  O4  UNL     1       3.330  63.734 -34.140  1.00  0.00    -0.387 OA
HETATM   35  H11 UNL     1       3.235  62.876 -33.683  1.00  0.00     0.210 HD
ENDBRANCH  21  34
ENDBRANCH   1  21
BRANCH   4  36
HETATM   36  O5  UNL     1       3.976  68.328 -35.052  1.00  0.00    -0.389 OA
HETATM   37  H17 UNL     1       3.007  68.284 -35.079  1.00  0.00     0.210 HD
ENDBRANCH   4  36
TORSDOF 6
ENDMDL
MODEL 6
REMARK minimizedAffinity -10.0522327
REMARK  6 active torsions:
REMARK  status: ('A' for Active; 'I' for Inactive)
REMARK    1  A    between atoms: C3_3  and  C4_4 
REMARK    2  A    between atoms: C4_4  and  O1_5 
REMARK    3  A    between atoms: C6_9  and  C7_10 
REMARK    4  A    between atoms: C7_10  and  O4_12 
REMARK    5  A    between atoms: C7_10  and  C9_13 
REMARK    6  A    between atoms: C12_16  and  O5_17 
ROOT
HETATM    1  C9  UNL     1      -3.315  50.485 -25.237  1.00  0.00     0.033 C 
HETATM    2  C10 UNL     1      -3.702  49.556 -26.420  1.00  0.00     0.011 C 
HETATM    3  C11 UNL     1      -4.596  48.436 -25.830  1.00  0.00     0.039 C 
HETATM    4  C12 UNL     1      -4.935  48.935 -24.424  1.00  0.00     0.070 C 
HETATM    5  C13 UNL     1      -5.469  47.915 -23.403  1.00  0.00     0.030 C 
HETATM    6  C14 UNL     1      -6.789  47.286 -23.875  1.00  0.00     0.035 C 
HETATM    7  C15 UNL     1      -7.453  46.470 -22.813  1.00  0.00    -0.022 C 
HETATM    8  C16 UNL     1      -7.158  46.534 -21.502  1.00  0.00    -0.068 C 
HETATM    9  C17 UNL     1      -7.917  45.652 -20.530  1.00  0.00     0.035 C 
HETATM   10  C18 UNL     1      -8.261  46.359 -19.220  1.00  0.00     0.012 C 
HETATM   11  C19 UNL     1      -8.207  47.870 -19.357  1.00  0.00     0.080 C 
HETATM   12  C20 UNL     1      -6.800  48.272 -19.746  1.00  0.00     0.139 C 
HETATM   13  O6  UNL     1      -6.229  49.171 -19.126  1.00  0.00    -0.297 OA
HETATM   14  C21 UNL     1      -6.123  47.514 -20.922  1.00  0.00     0.044 C 
HETATM   15  C22 UNL     1      -4.949  46.700 -20.345  1.00  0.00     0.029 C 
HETATM   16  C23 UNL     1      -5.657  48.578 -21.999  1.00  0.00     0.013 C 
HETATM   17  C24 UNL     1      -4.408  49.412 -21.577  1.00  0.00     0.007 C 
HETATM   18  C25 UNL     1      -3.842  50.351 -22.661  1.00  0.00     0.013 C 
HETATM   19  C26 UNL     1      -3.593  49.600 -23.978  1.00  0.00    -0.006 C 
HETATM   20  C27 UNL     1      -2.468  48.559 -23.743  1.00  0.00     0.019 C 
ENDROOT
BRANCH   1  21
HETATM   21  C7  UNL     1      -2.042  51.368 -25.395  1.00  0.00     0.085 C 
HETATM   22  C8  UNL     1      -1.018  50.613 -26.272  1.00  0.00     0.049 C 
BRANCH  21  23
HETATM   23  C6  UNL     1      -1.345  51.977 -24.140  1.00  0.00     0.170 C 
HETATM   24  O3  UNL     1      -0.285  52.847 -24.638  1.00  0.00    -0.309 OA
HETATM   25  C5  UNL     1       0.560  53.453 -23.773  1.00  0.00     0.292 C 
HETATM   26  C3  UNL     1       0.591  52.946 -22.376  1.00  0.00     0.042 C 
HETATM   27  O2  UNL     1       1.302  54.360 -24.133  1.00  0.00    -0.260 OA
HETATM   28  C2  UNL     1       0.022  51.759 -22.080  1.00  0.00    -0.067 C 
HETATM   29  C1  UNL     1       0.095  51.074 -20.743  1.00  0.00     0.044 C 
HETATM   30  C28 UNL     1      -0.742  50.999 -23.137  1.00  0.00     0.070 C 
BRANCH  26  31
HETATM   31  C4  UNL     1       1.331  53.850 -21.430  1.00  0.00     0.209 C 
BRANCH  31  32
HETATM   32  O1  UNL     1       1.741  55.031 -22.104  1.00  0.00    -0.396 OA
HETATM   33  H6  UNL     1       0.920  55.494 -22.366  1.00  0.00     0.209 HD
ENDBRANCH  31  32
ENDBRANCH  26  31
ENDBRANCH  21  23
BRANCH  21  34
HETATM   34  O4  UNL     1      -2.466  52.502 -26.191  1.00  0.00    -0.387 OA
HETATM   35  H11 UNL     1      -1.685  53.080 -26.294  1.00  0.00     0.210 HD
ENDBRANCH  21  34
ENDBRANCH   1  21
BRANCH   4  36
HETATM   36  O5  UNL     1      -5.968  49.919 -24.642  1.00  0.00    -0.389 OA
HETATM   37  H17 UNL     1      -6.103  50.440 -23.835  1.00  0.00     0.210 HD
ENDBRANCH   4  36
TORSDOF 6
ENDMDL
MODEL 7
REMARK minimizedAffinity -9.89955425
REMARK  6 active torsions:
REMARK  status: ('A' for Active; 'I' for Inactive)
REMARK    1  A    between atoms: C3_3  and  C4_4 
REMARK    2  A    between atoms: C4_4  and  O1_5 
REMARK    3  A    between atoms: C6_9  and  C7_10 
REMARK    4  A    between atoms: C7_10  and  O4_12 
REMARK    5  A    between atoms: C7_10  and  C9_13 
REMARK    6  A    between atoms: C12_16  and  O5_17 
ROOT
HETATM    1  C9  UNL     1      -3.752  50.021 -22.760  1.00  0.00     0.033 C 
HETATM    2  C10 UNL     1      -2.541  49.586 -23.631  1.00  0.00     0.011 C 
HETATM    3  C11 UNL     1      -3.115  48.751 -24.803  1.00  0.00     0.039 C 
HETATM    4  C12 UNL     1      -4.623  49.000 -24.731  1.00  0.00     0.070 C 
HETATM    5  C13 UNL     1      -5.554  48.029 -25.478  1.00  0.00     0.030 C 
HETATM    6  C14 UNL     1      -5.275  48.033 -26.989  1.00  0.00     0.035 C 
HETATM    7  C15 UNL     1      -6.305  47.283 -27.771  1.00  0.00    -0.022 C 
HETATM    8  C16 UNL     1      -7.517  46.936 -27.302  1.00  0.00    -0.068 C 
HETATM    9  C17 UNL     1      -8.470  46.180 -28.208  1.00  0.00     0.035 C 
HETATM   10  C18 UNL     1      -9.921  46.642 -28.073  1.00  0.00     0.012 C 
HETATM   11  C19 UNL     1     -10.023  48.024 -27.454  1.00  0.00     0.080 C 
HETATM   12  C20 UNL     1      -9.417  47.982 -26.067  1.00  0.00     0.139 C 
HETATM   13  O6  UNL     1     -10.041  48.453 -25.115  1.00  0.00    -0.297 OA
HETATM   14  C21 UNL     1      -8.018  47.326 -25.901  1.00  0.00     0.044 C 
HETATM   15  C22 UNL     1      -8.195  46.041 -25.070  1.00  0.00     0.029 C 
HETATM   16  C23 UNL     1      -7.055  48.374 -25.206  1.00  0.00     0.013 C 
HETATM   17  C24 UNL     1      -7.335  48.592 -23.687  1.00  0.00     0.007 C 
HETATM   18  C25 UNL     1      -6.324  49.494 -22.950  1.00  0.00     0.013 C 
HETATM   19  C26 UNL     1      -4.880  49.027 -23.189  1.00  0.00    -0.006 C 
HETATM   20  C27 UNL     1      -4.701  47.631 -22.537  1.00  0.00     0.019 C 
ENDROOT
BRANCH   1  21
HETATM   21  C7  UNL     1      -3.476  50.408 -21.277  1.00  0.00     0.085 C 
HETATM   22  C8  UNL     1      -4.779  50.963 -20.658  1.00  0.00     0.049 C 
BRANCH  21  23
HETATM   23  C6  UNL     1      -2.265  51.319 -20.913  1.00  0.00     0.170 C 
HETATM   24  O3  UNL     1      -1.398  51.342 -22.087  1.00  0.00    -0.309 OA
HETATM   25  C5  UNL     1      -0.209  51.985 -22.041  1.00  0.00     0.292 C 
HETATM   26  C3  UNL     1       0.320  52.356 -20.703  1.00  0.00     0.042 C 
HETATM   27  O2  UNL     1       0.429  52.222 -23.061  1.00  0.00    -0.260 OA
HETATM   28  C2  UNL     1      -0.221  51.811 -19.593  1.00  0.00    -0.067 C 
HETATM   29  C1  UNL     1       0.301  51.998 -18.195  1.00  0.00     0.044 C 
HETATM   30  C28 UNL     1      -1.433  50.917 -19.701  1.00  0.00     0.070 C 
BRANCH  26  31
HETATM   31  C4  UNL     1       1.482  53.307 -20.763  1.00  0.00     0.209 C 
BRANCH  31  32
HETATM   32  O1  UNL     1       1.184  54.490 -20.036  1.00  0.00    -0.396 OA
HETATM   33  H6  UNL     1       1.080  54.216 -19.102  1.00  0.00     0.209 HD
ENDBRANCH  31  32
ENDBRANCH  26  31
ENDBRANCH  21  23
BRANCH  21  34
HETATM   34  O4  UNL     1      -3.234  49.151 -20.598  1.00  0.00    -0.387 OA
HETATM   35  H11 UNL     1      -3.045  49.369 -19.664  1.00  0.00     0.210 HD
ENDBRANCH  21  34
ENDBRANCH   1  21
BRANCH   4  36
HETATM   36  O5  UNL     1      -4.790  50.307 -25.320  1.00  0.00    -0.389 OA
HETATM   37  H17 UNL     1      -5.682  50.641 -25.133  1.00  0.00     0.210 HD
ENDBRANCH   4  36
TORSDOF 6
ENDMDL
MODEL 8
REMARK minimizedAffinity -9.8628521
REMARK  6 active torsions:
REMARK  status: ('A' for Active; 'I' for Inactive)
REMARK    1  A    between atoms: C3_3  and  C4_4 
REMARK    2  A    between atoms: C4_4  and  O1_5 
REMARK    3  A    between atoms: C6_9  and  C7_10 
REMARK    4  A    between atoms: C7_10  and  O4_12 
REMARK    5  A    between atoms: C7_10  and  C9_13 
REMARK    6  A    between atoms: C12_16  and  O5_17 
ROOT
HETATM    1  C9  UNL     1      -0.060  51.818 -16.071  1.00  0.00     0.033 C 
HETATM    2  C10 UNL     1       1.438  52.197 -16.234  1.00  0.00     0.011 C 
HETATM    3  C11 UNL     1       1.721  52.242 -17.756  1.00  0.00     0.039 C 
HETATM    4  C12 UNL     1       0.331  52.198 -18.393  1.00  0.00     0.070 C 
HETATM    5  C13 UNL     1       0.227  51.825 -19.882  1.00  0.00     0.030 C 
HETATM    6  C14 UNL     1       0.982  52.829 -20.767  1.00  0.00     0.035 C 
HETATM    7  C15 UNL     1       0.713  52.633 -22.225  1.00  0.00    -0.022 C 
HETATM    8  C16 UNL     1      -0.312  51.920 -22.724  1.00  0.00    -0.068 C 
HETATM    9  C17 UNL     1      -0.472  51.808 -24.228  1.00  0.00     0.035 C 
HETATM   10  C18 UNL     1      -1.927  51.892 -24.686  1.00  0.00     0.012 C 
HETATM   11  C19 UNL     1      -2.818  52.532 -23.637  1.00  0.00     0.080 C 
HETATM   12  C20 UNL     1      -2.774  51.687 -22.381  1.00  0.00     0.139 C 
HETATM   13  O6  UNL     1      -3.826  51.358 -21.830  1.00  0.00    -0.297 OA
HETATM   14  C21 UNL     1      -1.383  51.257 -21.839  1.00  0.00     0.044 C 
HETATM   15  C22 UNL     1      -1.268  49.728 -21.995  1.00  0.00     0.029 C 
HETATM   16  C23 UNL     1      -1.267  51.726 -20.331  1.00  0.00     0.013 C 
HETATM   17  C24 UNL     1      -2.120  50.885 -19.331  1.00  0.00     0.007 C 
HETATM   18  C25 UNL     1      -1.916  51.222 -17.840  1.00  0.00     0.013 C 
HETATM   19  C26 UNL     1      -0.428  51.200 -17.459  1.00  0.00    -0.006 C 
HETATM   20  C27 UNL     1       0.093  49.746 -17.602  1.00  0.00     0.019 C 
ENDROOT
BRANCH   1  21
HETATM   21  C7  UNL     1      -0.509  51.198 -14.715  1.00  0.00     0.085 C 
HETATM   22  C8  UNL     1      -1.395  49.964 -15.002  1.00  0.00     0.049 C 
BRANCH  21  23
HETATM   23  C6  UNL     1      -1.154  52.093 -13.614  1.00  0.00     0.170 C 
HETATM   24  O3  UNL     1      -0.064  52.533 -12.750  1.00  0.00    -0.309 OA
HETATM   25  C5  UNL     1      -0.328  53.260 -11.639  1.00  0.00     0.292 C 
HETATM   26  C3  UNL     1      -1.735  53.295 -11.161  1.00  0.00     0.042 C 
HETATM   27  O2  UNL     1       0.563  53.837 -11.027  1.00  0.00    -0.260 OA
HETATM   28  C2  UNL     1      -2.631  52.408 -11.645  1.00  0.00    -0.067 C 
HETATM   29  C1  UNL     1      -4.043  52.250 -11.153  1.00  0.00     0.044 C 
HETATM   30  C28 UNL     1      -2.236  51.457 -12.749  1.00  0.00     0.070 C 
BRANCH  26  31
HETATM   31  C4  UNL     1      -1.982  54.341 -10.112  1.00  0.00     0.209 C 
BRANCH  31  32
HETATM   32  O1  UNL     1      -1.472  55.595 -10.542  1.00  0.00    -0.396 OA
HETATM   33  H6  UNL     1      -1.995  55.845 -11.331  1.00  0.00     0.209 HD
ENDBRANCH  31  32
ENDBRANCH  26  31
ENDBRANCH  21  23
BRANCH  21  34
HETATM   34  O4  UNL     1       0.704  50.668 -14.124  1.00  0.00    -0.387 OA
HETATM   35  H11 UNL     1       0.450  50.283 -13.263  1.00  0.00     0.210 HD
ENDBRANCH  21  34
ENDBRANCH   1  21
BRANCH   4  36
HETATM   36  O5  UNL     1      -0.165  53.546 -18.244  1.00  0.00    -0.389 OA
HETATM   37  H17 UNL     1      -1.117  53.569 -18.430  1.00  0.00     0.210 HD
ENDBRANCH   4  36
TORSDOF 6
ENDMDL
MODEL 9
REMARK minimizedAffinity -9.66968536
REMARK  6 active torsions:
REMARK  status: ('A' for Active; 'I' for Inactive)
REMARK    1  A    between atoms: C3_3  and  C4_4 
REMARK    2  A    between atoms: C4_4  and  O1_5 
REMARK    3  A    between atoms: C6_9  and  C7_10 
REMARK    4  A    between atoms: C7_10  and  O4_12 
REMARK    5  A    between atoms: C7_10  and  C9_13 
REMARK    6  A    between atoms: C12_16  and  O5_17 
ROOT
HETATM    1  C9  UNL     1      -0.078  51.810 -24.379  1.00  0.00     0.033 C 
HETATM    2  C10 UNL     1       0.528  53.233 -24.237  1.00  0.00     0.011 C 
HETATM    3  C11 UNL     1       0.571  53.547 -22.721  1.00  0.00     0.039 C 
HETATM    4  C12 UNL     1       0.287  52.199 -22.055  1.00  0.00     0.070 C 
HETATM    5  C13 UNL     1      -0.143  52.197 -20.577  1.00  0.00     0.030 C 
HETATM    6  C14 UNL     1       0.941  52.807 -19.675  1.00  0.00     0.035 C 
HETATM    7  C15 UNL     1       0.660  52.613 -18.220  1.00  0.00    -0.022 C 
HETATM    8  C16 UNL     1      -0.222  51.727 -17.723  1.00  0.00    -0.068 C 
HETATM    9  C17 UNL     1      -0.404  51.629 -16.220  1.00  0.00     0.035 C 
HETATM   10  C18 UNL     1      -0.566  50.192 -15.728  1.00  0.00     0.012 C 
HETATM   11  C19 UNL     1      -0.045  49.182 -16.734  1.00  0.00     0.080 C 
HETATM   12  C20 UNL     1      -0.833  49.325 -18.019  1.00  0.00     0.139 C 
HETATM   13  O6  UNL     1      -1.308  48.323 -18.557  1.00  0.00    -0.297 OA
HETATM   14  C21 UNL     1      -1.020  50.751 -18.606  1.00  0.00     0.044 C 
HETATM   15  C22 UNL     1      -2.514  51.111 -18.505  1.00  0.00     0.029 C 
HETATM   16  C23 UNL     1      -0.492  50.750 -20.100  1.00  0.00     0.013 C 
HETATM   17  C24 UNL     1      -1.427  50.014 -21.108  1.00  0.00     0.007 C 
HETATM   18  C25 UNL     1      -1.016  50.120 -22.591  1.00  0.00     0.013 C 
HETATM   19  C26 UNL     1      -0.789  51.582 -23.005  1.00  0.00    -0.006 C 
HETATM   20  C27 UNL     1      -2.146  52.330 -22.924  1.00  0.00     0.019 C 
ENDROOT
BRANCH   1  21
HETATM   21  C7  UNL     1      -0.721  51.428 -25.745  1.00  0.00     0.085 C 
HETATM   22  C8  UNL     1      -0.739  52.678 -26.653  1.00  0.00     0.049 C 
BRANCH  21  23
HETATM   23  C6  UNL     1      -2.096  50.696 -25.792  1.00  0.00     0.170 C 
HETATM   24  O3  UNL     1      -2.098  49.751 -24.680  1.00  0.00    -0.309 OA
HETATM   25  C5  UNL     1      -3.136  48.898 -24.514  1.00  0.00     0.292 C 
HETATM   26  C3  UNL     1      -4.071  48.725 -25.657  1.00  0.00     0.042 C 
HETATM   27  O2  UNL     1      -3.282  48.263 -23.476  1.00  0.00    -0.260 OA
HETATM   28  C2  UNL     1      -3.722  49.171 -26.883  1.00  0.00    -0.067 C 
HETATM   29  C1  UNL     1      -4.512  48.944 -28.142  1.00  0.00     0.044 C 
HETATM   30  C28 UNL     1      -2.439  49.943 -27.072  1.00  0.00     0.070 C 
BRANCH  26  31
HETATM   31  C4  UNL     1      -5.333  47.997 -25.290  1.00  0.00     0.209 C 
BRANCH  31  32
HETATM   32  O1  UNL     1      -6.067  48.745 -24.331  1.00  0.00    -0.396 OA
HETATM   33  H6  UNL     1      -6.329  49.575 -24.778  1.00  0.00     0.209 HD
ENDBRANCH  31  32
ENDBRANCH  26  31
ENDBRANCH  21  23
BRANCH  21  34
HETATM   34  O4  UNL     1       0.224  50.519 -26.364  1.00  0.00    -0.387 OA
HETATM   35  H11 UNL     1      -0.164  50.254 -27.221  1.00  0.00     0.210 HD
ENDBRANCH  21  34
ENDBRANCH   1  21
BRANCH   4  36
HETATM   36  O5  UNL     1       1.543  51.493 -22.146  1.00  0.00    -0.389 OA
HETATM   37  H17 UNL     1       1.409  50.554 -21.939  1.00  0.00     0.210 HD
ENDBRANCH   4  36
TORSDOF 6
ENDMDL
