MODEL 1
REMARK minimizedAffinity -9.71307564
REMARK  12 active torsions:
REMARK  status: ('A' for Active; 'I' for Inactive)
REMARK    1  A    between atoms: C2_2  and  C3_3 
REMARK    2  A    between atoms: C2_2  and  C26_31 
REMARK    3  A    between atoms: C3_3  and  C4_4 
REMARK    4  A    between atoms: C4_4  and  C5_5 
REMARK    5  A    between atoms: C5_5  and  C7_7 
REMARK    6  A    between atoms: C8_8  and  O1_9 
REMARK    7  A    between atoms: C9_10  and  O2_11 
REMARK    8  A    between atoms: C20_22  and  O3_23 
REMARK    9  A    between atoms: C23_26  and  O4_27 
REMARK   10  A    between atoms: C25_29  and  O5_30 
REMARK   11  A    between atoms: C26_31  and  C28_33 
REMARK   12  A    between atoms: C28_33  and  O6_34 
ROOT
HETATM    1  C7  UNL     1      -2.449  49.095 -25.866  1.00  0.00     0.029 C 
HETATM    2  C8  UNL     1      -1.583  50.180 -26.585  1.00  0.00     0.152 C 
HETATM    3  C9  UNL     1      -0.976  51.071 -25.472  1.00  0.00     0.155 C 
HETATM    4  C10 UNL     1      -1.467  50.457 -24.159  1.00  0.00     0.060 C 
HETATM    5  C11 UNL     1      -2.824  49.782 -24.505  1.00  0.00    -0.029 C 
HETATM    6  C12 UNL     1      -4.003  50.768 -24.681  1.00  0.00     0.016 C 
HETATM    7  C13 UNL     1      -3.157  48.796 -23.357  1.00  0.00     0.011 C 
HETATM    8  C14 UNL     1      -2.449  49.106 -22.023  1.00  0.00     0.009 C 
HETATM    9  C15 UNL     1      -2.276  50.616 -21.736  1.00  0.00     0.029 C 
HETATM   10  C16 UNL     1      -1.760  50.920 -20.264  1.00  0.00    -0.031 C 
HETATM   11  C17 UNL     1      -3.028  50.884 -19.353  1.00  0.00     0.016 C 
HETATM   12  C18 UNL     1      -0.756  49.863 -19.724  1.00  0.00     0.012 C 
HETATM   13  C19 UNL     1      -0.241  50.165 -18.315  1.00  0.00     0.032 C 
HETATM   14  C20 UNL     1       0.341  51.565 -18.181  1.00  0.00     0.118 C 
HETATM   15  C21 UNL     1      -0.581  52.647 -18.751  1.00  0.00     0.039 C 
HETATM   16  C22 UNL     1      -1.106  52.338 -20.171  1.00  0.00     0.025 C 
HETATM   17  C23 UNL     1      -0.045  52.635 -21.265  1.00  0.00     0.126 C 
HETATM   18  C24 UNL     1      -0.080  51.700 -22.469  1.00  0.00     0.071 C 
HETATM   19  C25 UNL     1      -1.499  51.335 -22.884  1.00  0.00     0.071 C 
ENDROOT
BRANCH   1  20
HETATM   20  C5  UNL     1      -3.578  48.486 -26.754  1.00  0.00    -0.011 C 
HETATM   21  C6  UNL     1      -3.812  49.281 -28.045  1.00  0.00     0.010 C 
BRANCH  20  22
HETATM   22  C4  UNL     1      -4.907  48.410 -25.949  1.00  0.00     0.009 C 
BRANCH  22  23
HETATM   23  C3  UNL     1      -6.055  47.735 -26.722  1.00  0.00     0.034 C 
BRANCH  23  24
HETATM   24  C2  UNL     1      -7.365  47.510 -25.970  1.00  0.00    -0.083 C 
HETATM   25  C1  UNL     1      -7.417  47.165 -24.669  1.00  0.00     0.015 C 
BRANCH  24  26
HETATM   26  C26 UNL     1      -8.622  47.744 -26.826  1.00  0.00     0.033 C 
HETATM   27  C27 UNL     1      -8.352  48.245 -28.255  1.00  0.00     0.017 C 
BRANCH  26  28
HETATM   28  C28 UNL     1      -9.650  48.665 -26.130  1.00  0.00     0.172 C 
BRANCH  28  29
HETATM   29  O6  UNL     1      -9.357  50.048 -26.291  1.00  0.00    -0.400 OA
HETATM   30  H48 UNL     1      -9.181  50.211 -27.233  1.00  0.00     0.209 HD
ENDBRANCH  28  29
ENDBRANCH  26  28
ENDBRANCH  24  26
ENDBRANCH  23  24
ENDBRANCH  22  23
ENDBRANCH  20  22
ENDBRANCH   1  20
BRANCH   2  31
HETATM   31  O1  UNL     1      -2.330  51.022 -27.466  1.00  0.00    -0.393 OA
HETATM   32  H13 UNL     1      -2.578  50.499 -28.249  1.00  0.00     0.210 HD
ENDBRANCH   2  31
BRANCH   3  33
HETATM   33  O2  UNL     1      -1.385  52.432 -25.612  1.00  0.00    -0.392 OA
HETATM   34  H15 UNL     1      -1.877  52.451 -26.466  1.00  0.00     0.210 HD
ENDBRANCH   3  33
BRANCH  19  35
HETATM   35  O5  UNL     1      -2.179  52.573 -23.135  1.00  0.00    -0.389 OA
HETATM   36  H41 UNL     1      -1.929  52.857 -24.045  1.00  0.00     0.210 HD
ENDBRANCH  19  35
BRANCH  17  37
HETATM   37  O4  UNL     1       1.290  52.625 -20.759  1.00  0.00    -0.395 OA
HETATM   38  H38 UNL     1       1.862  52.996 -21.453  1.00  0.00     0.210 HD
ENDBRANCH  17  37
BRANCH  14  39
HETATM   39  O3  UNL     1       0.567  51.827 -16.795  1.00  0.00    -0.396 OA
HETATM   40  H33 UNL     1       0.992  52.701 -16.743  1.00  0.00     0.210 HD
ENDBRANCH  14  39
TORSDOF 12
ENDMDL
MODEL 2
REMARK minimizedAffinity -9.53997517
REMARK  12 active torsions:
REMARK  status: ('A' for Active; 'I' for Inactive)
REMARK    1  A    between atoms: C2_2  and  C3_3 
REMARK    2  A    between atoms: C2_2  and  C26_31 
REMARK    3  A    between atoms: C3_3  and  C4_4 
REMARK    4  A    between atoms: C4_4  and  C5_5 
REMARK    5  A    between atoms: C5_5  and  C7_7 
REMARK    6  A    between atoms: C8_8  and  O1_9 
REMARK    7  A    between atoms: C9_10  and  O2_11 
REMARK    8  A    between atoms: C20_22  and  O3_23 
REMARK    9  A    between atoms: C23_26  and  O4_27 
REMARK   10  A    between atoms: C25_29  and  O5_30 
REMARK   11  A    between atoms: C26_31  and  C28_33 
REMARK   12  A    between atoms: C28_33  and  O6_34 
ROOT
HETATM    1  C7  UNL     1      -0.101  50.961 -20.772  1.00  0.00     0.029 C 
HETATM    2  C8  UNL     1      -0.377  51.607 -19.376  1.00  0.00     0.152 C 
HETATM    3  C9  UNL     1      -1.672  50.951 -18.832  1.00  0.00     0.155 C 
HETATM    4  C10 UNL     1      -2.075  49.928 -19.896  1.00  0.00     0.060 C 
HETATM    5  C11 UNL     1      -1.525  50.492 -21.236  1.00  0.00    -0.029 C 
HETATM    6  C12 UNL     1      -2.341  51.671 -21.818  1.00  0.00     0.016 C 
HETATM    7  C13 UNL     1      -1.518  49.329 -22.260  1.00  0.00     0.011 C 
HETATM    8  C14 UNL     1      -2.484  48.176 -21.925  1.00  0.00     0.009 C 
HETATM    9  C15 UNL     1      -3.807  48.633 -21.266  1.00  0.00     0.029 C 
HETATM   10  C16 UNL     1      -4.882  47.469 -21.142  1.00  0.00    -0.031 C 
HETATM   11  C17 UNL     1      -5.591  47.394 -22.531  1.00  0.00     0.016 C 
HETATM   12  C18 UNL     1      -4.259  46.074 -20.850  1.00  0.00     0.012 C 
HETATM   13  C19 UNL     1      -5.293  44.955 -20.709  1.00  0.00     0.032 C 
HETATM   14  C20 UNL     1      -6.380  45.274 -19.691  1.00  0.00     0.118 C 
HETATM   15  C21 UNL     1      -6.991  46.663 -19.893  1.00  0.00     0.039 C 
HETATM   16  C22 UNL     1      -5.947  47.792 -20.043  1.00  0.00     0.025 C 
HETATM   17  C23 UNL     1      -5.354  48.227 -18.675  1.00  0.00     0.126 C 
HETATM   18  C24 UNL     1      -3.892  48.654 -18.711  1.00  0.00     0.071 C 
HETATM   19  C25 UNL     1      -3.548  49.453 -19.962  1.00  0.00     0.071 C 
ENDROOT
BRANCH   1  20
HETATM   20  C5  UNL     1       0.765  51.843 -21.724  1.00  0.00    -0.011 C 
HETATM   21  C6  UNL     1       1.539  52.938 -20.980  1.00  0.00     0.010 C 
BRANCH  20  22
HETATM   22  C4  UNL     1      -0.136  52.499 -22.810  1.00  0.00     0.009 C 
BRANCH  22  23
HETATM   23  C3  UNL     1       0.595  52.760 -24.139  1.00  0.00     0.034 C 
BRANCH  23  24
HETATM   24  C2  UNL     1       0.188  51.909 -25.339  1.00  0.00    -0.083 C 
HETATM   25  C1  UNL     1      -0.902  51.117 -25.344  1.00  0.00     0.015 C 
BRANCH  24  26
HETATM   26  C26 UNL     1       1.118  52.063 -26.556  1.00  0.00     0.033 C 
HETATM   27  C27 UNL     1       0.517  51.604 -27.895  1.00  0.00     0.017 C 
BRANCH  26  28
HETATM   28  C28 UNL     1       2.494  51.395 -26.338  1.00  0.00     0.172 C 
BRANCH  28  29
HETATM   29  O6  UNL     1       3.352  51.505 -27.468  1.00  0.00    -0.400 OA
HETATM   30  H48 UNL     1       3.349  52.432 -27.759  1.00  0.00     0.209 HD
ENDBRANCH  28  29
ENDBRANCH  26  28
ENDBRANCH  24  26
ENDBRANCH  23  24
ENDBRANCH  22  23
ENDBRANCH  20  22
ENDBRANCH   1  20
BRANCH   2  31
HETATM   31  O1  UNL     1      -0.587  53.020 -19.426  1.00  0.00    -0.393 OA
HETATM   32  H13 UNL     1       0.268  53.448 -19.612  1.00  0.00     0.210 HD
ENDBRANCH   2  31
BRANCH   3  33
HETATM   33  O2  UNL     1      -2.695  51.922 -18.608  1.00  0.00    -0.392 OA
HETATM   34  H15 UNL     1      -2.249  52.785 -18.770  1.00  0.00     0.210 HD
ENDBRANCH   3  33
BRANCH  19  35
HETATM   35  O5  UNL     1      -4.444  50.572 -19.988  1.00  0.00    -0.389 OA
HETATM   36  H41 UNL     1      -4.067  51.254 -19.385  1.00  0.00     0.210 HD
ENDBRANCH  19  35
BRANCH  17  37
HETATM   37  O4  UNL     1      -5.477  47.218 -17.673  1.00  0.00    -0.395 OA
HETATM   38  H38 UNL     1      -5.257  47.632 -16.820  1.00  0.00     0.210 HD
ENDBRANCH  17  37
BRANCH  14  39
HETATM   39  O3  UNL     1      -7.409  44.289 -19.809  1.00  0.00    -0.396 OA
HETATM   40  H33 UNL     1      -8.058  44.482 -19.111  1.00  0.00     0.210 HD
ENDBRANCH  14  39
TORSDOF 12
ENDMDL
MODEL 3
REMARK minimizedAffinity -9.22350407
REMARK  12 active torsions:
REMARK  status: ('A' for Active; 'I' for Inactive)
REMARK    1  A    between atoms: C2_2  and  C3_3 
REMARK    2  A    between atoms: C2_2  and  C26_31 
REMARK    3  A    between atoms: C3_3  and  C4_4 
REMARK    4  A    between atoms: C4_4  and  C5_5 
REMARK    5  A    between atoms: C5_5  and  C7_7 
REMARK    6  A    between atoms: C8_8  and  O1_9 
REMARK    7  A    between atoms: C9_10  and  O2_11 
REMARK    8  A    between atoms: C20_22  and  O3_23 
REMARK    9  A    between atoms: C23_26  and  O4_27 
REMARK   10  A    between atoms: C25_29  and  O5_30 
REMARK   11  A    between atoms: C26_31  and  C28_33 
REMARK   12  A    between atoms: C28_33  and  O6_34 
ROOT
HETATM    1  C7  UNL     1      -0.328  50.109 -19.126  1.00  0.00     0.029 C 
HETATM    2  C8  UNL     1      -1.506  49.098 -19.313  1.00  0.00     0.152 C 
HETATM    3  C9  UNL     1      -1.977  49.232 -20.783  1.00  0.00     0.155 C 
HETATM    4  C10 UNL     1      -1.041  50.269 -21.407  1.00  0.00     0.060 C 
HETATM    5  C11 UNL     1      -0.607  51.189 -20.231  1.00  0.00    -0.029 C 
HETATM    6  C12 UNL     1      -1.689  52.194 -19.771  1.00  0.00     0.016 C 
HETATM    7  C13 UNL     1       0.646  51.973 -20.695  1.00  0.00     0.011 C 
HETATM    8  C14 UNL     1       0.803  52.082 -22.225  1.00  0.00     0.009 C 
HETATM    9  C15 UNL     1      -0.536  52.218 -22.989  1.00  0.00     0.029 C 
HETATM   10  C16 UNL     1      -0.348  52.561 -24.529  1.00  0.00    -0.031 C 
HETATM   11  C17 UNL     1      -0.141  54.107 -24.599  1.00  0.00     0.016 C 
HETATM   12  C18 UNL     1       0.897  51.885 -25.170  1.00  0.00     0.012 C 
HETATM   13  C19 UNL     1       1.069  52.196 -26.659  1.00  0.00     0.032 C 
HETATM   14  C20 UNL     1      -0.179  51.894 -27.477  1.00  0.00     0.118 C 
HETATM   15  C21 UNL     1      -1.450  52.485 -26.861  1.00  0.00     0.039 C 
HETATM   16  C22 UNL     1      -1.619  52.178 -25.357  1.00  0.00     0.025 C 
HETATM   17  C23 UNL     1      -2.143  50.737 -25.109  1.00  0.00     0.126 C 
HETATM   18  C24 UNL     1      -1.613  50.065 -23.848  1.00  0.00     0.071 C 
HETATM   19  C25 UNL     1      -1.501  51.030 -22.675  1.00  0.00     0.071 C 
ENDROOT
BRANCH   1  20
HETATM   20  C5  UNL     1      -0.100  50.561 -17.651  1.00  0.00    -0.011 C 
HETATM   21  C6  UNL     1      -1.390  51.029 -16.968  1.00  0.00     0.010 C 
BRANCH  20  22
HETATM   22  C4  UNL     1       0.953  51.706 -17.601  1.00  0.00     0.009 C 
BRANCH  22  23
HETATM   23  C3  UNL     1       1.245  52.210 -16.176  1.00  0.00     0.034 C 
BRANCH  23  24
HETATM   24  C2  UNL     1       2.643  51.954 -15.619  1.00  0.00    -0.083 C 
HETATM   25  C1  UNL     1       3.742  52.595 -16.063  1.00  0.00     0.015 C 
BRANCH  24  26
HETATM   26  C26 UNL     1       2.679  50.918 -14.481  1.00  0.00     0.033 C 
HETATM   27  C27 UNL     1       1.439  50.014 -14.384  1.00  0.00     0.017 C 
BRANCH  26  28
HETATM   28  C28 UNL     1       2.972  51.560 -13.106  1.00  0.00     0.172 C 
BRANCH  28  29
HETATM   29  O6  UNL     1       2.095  52.636 -12.795  1.00  0.00    -0.400 OA
HETATM   30  H48 UNL     1       1.185  52.341 -12.963  1.00  0.00     0.209 HD
ENDBRANCH  28  29
ENDBRANCH  26  28
ENDBRANCH  24  26
ENDBRANCH  23  24
ENDBRANCH  22  23
ENDBRANCH  20  22
ENDBRANCH   1  20
BRANCH   2  31
HETATM   31  O1  UNL     1      -2.627  49.360 -18.465  1.00  0.00    -0.393 OA
HETATM   32  H13 UNL     1      -2.382  49.122 -17.553  1.00  0.00     0.210 HD
ENDBRANCH   2  31
BRANCH   3  33
HETATM   33  O2  UNL     1      -3.345  49.632 -20.859  1.00  0.00    -0.392 OA
HETATM   34  H15 UNL     1      -3.655  49.615 -19.923  1.00  0.00     0.210 HD
ENDBRANCH   3  33
BRANCH  19  35
HETATM   35  O5  UNL     1      -2.806  51.593 -22.486  1.00  0.00    -0.389 OA
HETATM   36  H41 UNL     1      -3.327  50.939 -21.966  1.00  0.00     0.210 HD
ENDBRANCH  19  35
BRANCH  17  37
HETATM   37  O4  UNL     1      -1.879  49.857 -26.201  1.00  0.00    -0.395 OA
HETATM   38  H38 UNL     1      -2.394  49.045 -26.047  1.00  0.00     0.210 HD
ENDBRANCH  17  37
BRANCH  14  39
HETATM   39  O3  UNL     1       0.001  52.436 -28.787  1.00  0.00    -0.396 OA
HETATM   40  H33 UNL     1      -0.782  52.178 -29.304  1.00  0.00     0.210 HD
ENDBRANCH  14  39
TORSDOF 12
ENDMDL
MODEL 4
REMARK minimizedAffinity -9.16842937
REMARK  12 active torsions:
REMARK  status: ('A' for Active; 'I' for Inactive)
REMARK    1  A    between atoms: C2_2  and  C3_3 
REMARK    2  A    between atoms: C2_2  and  C26_31 
REMARK    3  A    between atoms: C3_3  and  C4_4 
REMARK    4  A    between atoms: C4_4  and  C5_5 
REMARK    5  A    between atoms: C5_5  and  C7_7 
REMARK    6  A    between atoms: C8_8  and  O1_9 
REMARK    7  A    between atoms: C9_10  and  O2_11 
REMARK    8  A    between atoms: C20_22  and  O3_23 
REMARK    9  A    between atoms: C23_26  and  O4_27 
REMARK   10  A    between atoms: C25_29  and  O5_30 
REMARK   11  A    between atoms: C26_31  and  C28_33 
REMARK   12  A    between atoms: C28_33  and  O6_34 
ROOT
HETATM    1  C7  UNL     1      -0.309  51.473 -22.796  1.00  0.00     0.029 C 
HETATM    2  C8  UNL     1       0.391  51.887 -21.461  1.00  0.00     0.152 C 
HETATM    3  C9  UNL     1      -0.221  51.000 -20.346  1.00  0.00     0.155 C 
HETATM    4  C10 UNL     1      -1.211  50.082 -21.068  1.00  0.00     0.060 C 
HETATM    5  C11 UNL     1      -1.683  50.886 -22.312  1.00  0.00    -0.029 C 
HETATM    6  C12 UNL     1      -2.695  52.014 -21.999  1.00  0.00     0.016 C 
HETATM    7  C13 UNL     1      -2.334  49.880 -23.293  1.00  0.00     0.011 C 
HETATM    8  C14 UNL     1      -2.829  48.576 -22.637  1.00  0.00     0.009 C 
HETATM    9  C15 UNL     1      -3.400  48.763 -21.211  1.00  0.00     0.029 C 
HETATM   10  C16 UNL     1      -4.114  47.462 -20.644  1.00  0.00    -0.031 C 
HETATM   11  C17 UNL     1      -5.560  47.479 -21.234  1.00  0.00     0.016 C 
HETATM   12  C18 UNL     1      -3.435  46.135 -21.088  1.00  0.00     0.012 C 
HETATM   13  C19 UNL     1      -4.108  44.881 -20.525  1.00  0.00     0.032 C 
HETATM   14  C20 UNL     1      -4.264  44.917 -19.011  1.00  0.00     0.118 C 
HETATM   15  C21 UNL     1      -4.875  46.228 -18.510  1.00  0.00     0.039 C 
HETATM   16  C22 UNL     1      -4.200  47.494 -19.083  1.00  0.00     0.025 C 
HETATM   17  C23 UNL     1      -2.860  47.819 -18.367  1.00  0.00     0.126 C 
HETATM   18  C24 UNL     1      -1.787  48.436 -19.256  1.00  0.00     0.071 C 
HETATM   19  C25 UNL     1      -2.358  49.431 -20.257  1.00  0.00     0.071 C 
ENDROOT
BRANCH   1  20
HETATM   20  C5  UNL     1      -0.293  52.579 -23.896  1.00  0.00    -0.011 C 
HETATM   21  C6  UNL     1      -1.688  52.877 -24.459  1.00  0.00     0.010 C 
BRANCH  20  22
HETATM   22  C4  UNL     1       0.651  52.160 -25.060  1.00  0.00     0.009 C 
BRANCH  22  23
HETATM   23  C3  UNL     1       0.172  50.910 -25.820  1.00  0.00     0.034 C 
BRANCH  23  24
HETATM   24  C2  UNL     1      -0.711  51.134 -27.045  1.00  0.00    -0.083 C 
HETATM   25  C1  UNL     1      -1.952  50.624 -27.161  1.00  0.00     0.015 C 
BRANCH  24  26
HETATM   26  C26 UNL     1      -0.066  52.024 -28.123  1.00  0.00     0.033 C 
HETATM   27  C27 UNL     1       1.450  51.838 -28.298  1.00  0.00     0.017 C 
BRANCH  26  28
HETATM   28  C28 UNL     1      -0.394  53.522 -27.928  1.00  0.00     0.172 C 
BRANCH  28  29
HETATM   29  O6  UNL     1      -1.740  53.845 -28.259  1.00  0.00    -0.400 OA
HETATM   30  H48 UNL     1      -2.321  53.202 -27.820  1.00  0.00     0.209 HD
ENDBRANCH  28  29
ENDBRANCH  26  28
ENDBRANCH  24  26
ENDBRANCH  23  24
ENDBRANCH  22  23
ENDBRANCH  20  22
ENDBRANCH   1  20
BRANCH   2  31
HETATM   31  O1  UNL     1       0.181  53.254 -21.101  1.00  0.00    -0.393 OA
HETATM   32  H13 UNL     1       0.698  53.812 -21.709  1.00  0.00     0.210 HD
ENDBRANCH   2  31
BRANCH   3  33
HETATM   33  O2  UNL     1      -0.858  51.790 -19.341  1.00  0.00    -0.392 OA
HETATM   34  H15 UNL     1      -0.639  52.719 -19.588  1.00  0.00     0.210 HD
ENDBRANCH   3  33
BRANCH  19  35
HETATM   35  O5  UNL     1      -3.066  50.416 -19.492  1.00  0.00    -0.389 OA
HETATM   36  H41 UNL     1      -2.395  51.056 -19.160  1.00  0.00     0.210 HD
ENDBRANCH  19  35
BRANCH  17  37
HETATM   37  O4  UNL     1      -2.282  46.679 -17.732  1.00  0.00    -0.395 OA
HETATM   38  H38 UNL     1      -1.562  47.002 -17.163  1.00  0.00     0.210 HD
ENDBRANCH  17  37
BRANCH  14  39
HETATM   39  O3  UNL     1      -5.105  43.830 -18.620  1.00  0.00    -0.396 OA
HETATM   40  H33 UNL     1      -5.139  43.841 -17.648  1.00  0.00     0.210 HD
ENDBRANCH  14  39
TORSDOF 12
ENDMDL
MODEL 5
REMARK minimizedAffinity -9.03062534
REMARK  12 active torsions:
REMARK  status: ('A' for Active; 'I' for Inactive)
REMARK    1  A    between atoms: C2_2  and  C3_3 
REMARK    2  A    between atoms: C2_2  and  C26_31 
REMARK    3  A    between atoms: C3_3  and  C4_4 
REMARK    4  A    between atoms: C4_4  and  C5_5 
REMARK    5  A    between atoms: C5_5  and  C7_7 
REMARK    6  A    between atoms: C8_8  and  O1_9 
REMARK    7  A    between atoms: C9_10  and  O2_11 
REMARK    8  A    between atoms: C20_22  and  O3_23 
REMARK    9  A    between atoms: C23_26  and  O4_27 
REMARK   10  A    between atoms: C25_29  and  O5_30 
REMARK   11  A    between atoms: C26_31  and  C28_33 
REMARK   12  A    between atoms: C28_33  and  O6_34 
ROOT
HETATM    1  C7  UNL     1      -1.324  51.828 -21.208  1.00  0.00     0.029 C 
HETATM    2  C8  UNL     1      -2.815  51.363 -21.272  1.00  0.00     0.152 C 
HETATM    3  C9  UNL     1      -3.188  50.873 -19.850  1.00  0.00     0.155 C 
HETATM    4  C10 UNL     1      -1.933  51.108 -19.007  1.00  0.00     0.060 C 
HETATM    5  C11 UNL     1      -0.744  51.003 -20.004  1.00  0.00    -0.029 C 
HETATM    6  C12 UNL     1      -0.392  49.559 -20.432  1.00  0.00     0.016 C 
HETATM    7  C13 UNL     1       0.490  51.644 -19.321  1.00  0.00     0.011 C 
HETATM    8  C14 UNL     1       0.414  51.699 -17.782  1.00  0.00     0.009 C 
HETATM    9  C15 UNL     1      -0.295  50.481 -17.142  1.00  0.00     0.029 C 
HETATM   10  C16 UNL     1      -0.161  50.438 -15.559  1.00  0.00    -0.031 C 
HETATM   11  C17 UNL     1       1.230  49.792 -15.267  1.00  0.00     0.016 C 
HETATM   12  C18 UNL     1      -0.183  51.843 -14.893  1.00  0.00     0.012 C 
HETATM   13  C19 UNL     1      -0.075  51.803 -13.367  1.00  0.00     0.032 C 
HETATM   14  C20 UNL     1      -1.112  50.894 -12.721  1.00  0.00     0.118 C 
HETATM   15  C21 UNL     1      -1.179  49.512 -13.376  1.00  0.00     0.039 C 
HETATM   16  C22 UNL     1      -1.280  49.552 -14.917  1.00  0.00     0.025 C 
HETATM   17  C23 UNL     1      -2.719  49.876 -15.401  1.00  0.00     0.126 C 
HETATM   18  C24 UNL     1      -2.800  50.698 -16.682  1.00  0.00     0.071 C 
HETATM   19  C25 UNL     1      -1.742  50.297 -17.702  1.00  0.00     0.071 C 
ENDROOT
BRANCH   1  20
HETATM   20  C5  UNL     1      -0.585  51.801 -22.582  1.00  0.00    -0.011 C 
HETATM   21  C6  UNL     1       0.749  52.557 -22.554  1.00  0.00     0.010 C 
BRANCH  20  22
HETATM   22  C4  UNL     1      -1.496  52.407 -23.689  1.00  0.00     0.009 C 
BRANCH  22  23
HETATM   23  C3  UNL     1      -0.726  52.836 -24.951  1.00  0.00     0.034 C 
BRANCH  23  24
HETATM   24  C2  UNL     1      -0.322  51.737 -25.930  1.00  0.00    -0.083 C 
HETATM   25  C1  UNL     1      -0.999  50.579 -26.056  1.00  0.00     0.015 C 
BRANCH  24  26
HETATM   26  C26 UNL     1       0.910  52.086 -26.784  1.00  0.00     0.033 C 
HETATM   27  C27 UNL     1       0.731  51.881 -28.298  1.00  0.00     0.017 C 
BRANCH  26  28
HETATM   28  C28 UNL     1       2.189  51.364 -26.301  1.00  0.00     0.172 C 
BRANCH  28  29
HETATM   29  O6  UNL     1       3.261  51.447 -27.233  1.00  0.00    -0.400 OA
HETATM   30  H48 UNL     1       3.351  52.374 -27.507  1.00  0.00     0.209 HD
ENDBRANCH  28  29
ENDBRANCH  26  28
ENDBRANCH  24  26
ENDBRANCH  23  24
ENDBRANCH  22  23
ENDBRANCH  20  22
ENDBRANCH   1  20
BRANCH   2  31
HETATM   31  O1  UNL     1      -3.042  50.285 -22.184  1.00  0.00    -0.393 OA
HETATM   32  H13 UNL     1      -2.964  50.631 -23.090  1.00  0.00     0.210 HD
ENDBRANCH   2  31
BRANCH   3  33
HETATM   33  O2  UNL     1      -3.579  49.500 -19.857  1.00  0.00    -0.392 OA
HETATM   34  H15 UNL     1      -3.602  49.259 -20.812  1.00  0.00     0.210 HD
ENDBRANCH   3  33
BRANCH  19  35
HETATM   35  O5  UNL     1      -1.920  48.895 -17.941  1.00  0.00    -0.389 OA
HETATM   36  H41 UNL     1      -2.655  48.807 -18.592  1.00  0.00     0.210 HD
ENDBRANCH  19  35
BRANCH  17  37
HETATM   37  O4  UNL     1      -3.497  50.551 -14.413  1.00  0.00    -0.395 OA
HETATM   38  H38 UNL     1      -4.420  50.548 -14.722  1.00  0.00     0.210 HD
ENDBRANCH  17  37
BRANCH  14  39
HETATM   39  O3  UNL     1      -0.778  50.742 -11.340  1.00  0.00    -0.396 OA
HETATM   40  H33 UNL     1      -1.486  50.208 -10.941  1.00  0.00     0.210 HD
ENDBRANCH  14  39
TORSDOF 12
ENDMDL
MODEL 6
REMARK minimizedAffinity -8.99341202
REMARK  12 active torsions:
REMARK  status: ('A' for Active; 'I' for Inactive)
REMARK    1  A    between atoms: C2_2  and  C3_3 
REMARK    2  A    between atoms: C2_2  and  C26_31 
REMARK    3  A    between atoms: C3_3  and  C4_4 
REMARK    4  A    between atoms: C4_4  and  C5_5 
REMARK    5  A    between atoms: C5_5  and  C7_7 
REMARK    6  A    between atoms: C8_8  and  O1_9 
REMARK    7  A    between atoms: C9_10  and  O2_11 
REMARK    8  A    between atoms: C20_22  and  O3_23 
REMARK    9  A    between atoms: C23_26  and  O4_27 
REMARK   10  A    between atoms: C25_29  and  O5_30 
REMARK   11  A    between atoms: C26_31  and  C28_33 
REMARK   12  A    between atoms: C28_33  and  O6_34 
ROOT
HETATM    1  C7  UNL     1      -2.640  51.349 -21.527  1.00  0.00     0.029 C 
HETATM    2  C8  UNL     1      -3.617  50.174 -21.855  1.00  0.00     0.152 C 
HETATM    3  C9  UNL     1      -3.658  49.268 -20.599  1.00  0.00     0.155 C 
HETATM    4  C10 UNL     1      -2.750  49.960 -19.579  1.00  0.00     0.060 C 
HETATM    5  C11 UNL     1      -1.703  50.737 -20.425  1.00  0.00    -0.029 C 
HETATM    6  C12 UNL     1      -0.603  49.850 -21.055  1.00  0.00     0.016 C 
HETATM    7  C13 UNL     1      -1.038  51.781 -19.494  1.00  0.00     0.011 C 
HETATM    8  C14 UNL     1      -1.138  51.453 -17.991  1.00  0.00     0.009 C 
HETATM    9  C15 UNL     1      -1.049  49.942 -17.667  1.00  0.00     0.029 C 
HETATM   10  C16 UNL     1      -0.919  49.639 -16.113  1.00  0.00    -0.031 C 
HETATM   11  C17 UNL     1       0.595  49.811 -15.771  1.00  0.00     0.016 C 
HETATM   12  C18 UNL     1      -1.724  50.624 -15.217  1.00  0.00     0.012 C 
HETATM   13  C19 UNL     1      -1.617  50.321 -13.720  1.00  0.00     0.032 C 
HETATM   14  C20 UNL     1      -1.973  48.881 -13.378  1.00  0.00     0.118 C 
HETATM   15  C21 UNL     1      -1.254  47.865 -14.270  1.00  0.00     0.039 C 
HETATM   16  C22 UNL     1      -1.355  48.174 -15.779  1.00  0.00     0.025 C 
HETATM   17  C23 UNL     1      -2.728  47.757 -16.373  1.00  0.00     0.126 C 
HETATM   18  C24 UNL     1      -3.250  48.655 -17.488  1.00  0.00     0.071 C 
HETATM   19  C25 UNL     1      -2.144  49.126 -18.424  1.00  0.00     0.071 C 
ENDROOT
BRANCH   1  20
HETATM   20  C5  UNL     1      -2.007  52.025 -22.782  1.00  0.00    -0.011 C 
HETATM   21  C6  UNL     1      -3.057  52.499 -23.794  1.00  0.00     0.010 C 
BRANCH  20  22
HETATM   22  C4  UNL     1      -1.028  51.039 -23.483  1.00  0.00     0.009 C 
BRANCH  22  23
HETATM   23  C3  UNL     1      -0.049  51.729 -24.451  1.00  0.00     0.034 C 
BRANCH  23  24
HETATM   24  C2  UNL     1      -0.097  51.299 -25.915  1.00  0.00    -0.083 C 
HETATM   25  C1  UNL     1      -1.052  50.492 -26.414  1.00  0.00     0.015 C 
BRANCH  24  26
HETATM   26  C26 UNL     1       1.029  51.898 -26.776  1.00  0.00     0.033 C 
HETATM   27  C27 UNL     1       0.818  51.781 -28.295  1.00  0.00     0.017 C 
BRANCH  26  28
HETATM   28  C28 UNL     1       2.423  51.350 -26.394  1.00  0.00     0.172 C 
BRANCH  28  29
HETATM   29  O6  UNL     1       3.383  51.494 -27.435  1.00  0.00    -0.400 OA
HETATM   30  H48 UNL     1       3.339  52.408 -27.762  1.00  0.00     0.209 HD
ENDBRANCH  28  29
ENDBRANCH  26  28
ENDBRANCH  24  26
ENDBRANCH  23  24
ENDBRANCH  22  23
ENDBRANCH  20  22
ENDBRANCH   1  20
BRANCH   2  31
HETATM   31  O1  UNL     1      -3.200  49.372 -22.964  1.00  0.00    -0.393 OA
HETATM   32  H13 UNL     1      -3.326  49.891 -23.778  1.00  0.00     0.210 HD
ENDBRANCH   2  31
BRANCH   3  33
HETATM   33  O2  UNL     1      -3.216  47.943 -20.896  1.00  0.00    -0.392 OA
HETATM   34  H15 UNL     1      -3.097  47.941 -21.874  1.00  0.00     0.210 HD
ENDBRANCH   3  33
BRANCH  19  35
HETATM   35  O5  UNL     1      -1.509  47.943 -18.928  1.00  0.00    -0.389 OA
HETATM   36  H41 UNL     1      -2.067  47.612 -19.669  1.00  0.00     0.210 HD
ENDBRANCH  19  35
BRANCH  17  37
HETATM   37  O4  UNL     1      -3.754  47.669 -15.384  1.00  0.00    -0.395 OA
HETATM   38  H38 UNL     1      -4.516  47.230 -15.800  1.00  0.00     0.210 HD
ENDBRANCH  17  37
BRANCH  14  39
HETATM   39  O3  UNL     1      -1.615  48.642 -12.015  1.00  0.00    -0.396 OA
HETATM   40  H33 UNL     1      -1.907  47.738 -11.806  1.00  0.00     0.210 HD
ENDBRANCH  14  39
TORSDOF 12
ENDMDL
MODEL 7
REMARK minimizedAffinity -8.99136448
REMARK  12 active torsions:
REMARK  status: ('A' for Active; 'I' for Inactive)
REMARK    1  A    between atoms: C2_2  and  C3_3 
REMARK    2  A    between atoms: C2_2  and  C26_31 
REMARK    3  A    between atoms: C3_3  and  C4_4 
REMARK    4  A    between atoms: C4_4  and  C5_5 
REMARK    5  A    between atoms: C5_5  and  C7_7 
REMARK    6  A    between atoms: C8_8  and  O1_9 
REMARK    7  A    between atoms: C9_10  and  O2_11 
REMARK    8  A    between atoms: C20_22  and  O3_23 
REMARK    9  A    between atoms: C23_26  and  O4_27 
REMARK   10  A    between atoms: C25_29  and  O5_30 
REMARK   11  A    between atoms: C26_31  and  C28_33 
REMARK   12  A    between atoms: C28_33  and  O6_34 
ROOT
HETATM    1  C7  UNL     1      -2.229  51.660 -22.941  1.00  0.00     0.029 C 
HETATM    2  C8  UNL     1      -3.389  52.454 -23.624  1.00  0.00     0.152 C 
HETATM    3  C9  UNL     1      -4.690  51.656 -23.358  1.00  0.00     0.155 C 
HETATM    4  C10 UNL     1      -4.256  50.463 -22.503  1.00  0.00     0.060 C 
HETATM    5  C11 UNL     1      -2.778  50.190 -22.901  1.00  0.00    -0.029 C 
HETATM    6  C12 UNL     1      -2.603  49.489 -24.269  1.00  0.00     0.016 C 
HETATM    7  C13 UNL     1      -2.158  49.300 -21.795  1.00  0.00     0.011 C 
HETATM    8  C14 UNL     1      -3.183  48.507 -20.961  1.00  0.00     0.009 C 
HETATM    9  C15 UNL     1      -4.408  48.016 -21.768  1.00  0.00     0.029 C 
HETATM   10  C16 UNL     1      -5.332  47.010 -20.957  1.00  0.00    -0.031 C 
HETATM   11  C17 UNL     1      -4.663  45.606 -21.101  1.00  0.00     0.016 C 
HETATM   12  C18 UNL     1      -5.428  47.338 -19.439  1.00  0.00     0.012 C 
HETATM   13  C19 UNL     1      -6.335  46.383 -18.659  1.00  0.00     0.032 C 
HETATM   14  C20 UNL     1      -7.727  46.257 -19.264  1.00  0.00     0.118 C 
HETATM   15  C21 UNL     1      -7.697  45.993 -20.771  1.00  0.00     0.039 C 
HETATM   16  C22 UNL     1      -6.776  46.951 -21.558  1.00  0.00     0.025 C 
HETATM   17  C23 UNL     1      -7.436  48.337 -21.792  1.00  0.00     0.126 C 
HETATM   18  C24 UNL     1      -6.474  49.520 -21.786  1.00  0.00     0.071 C 
HETATM   19  C25 UNL     1      -5.150  49.199 -22.467  1.00  0.00     0.071 C 
ENDROOT
BRANCH   1  20
HETATM   20  C5  UNL     1      -0.819  51.936 -23.550  1.00  0.00    -0.011 C 
HETATM   21  C6  UNL     1       0.286  51.990 -22.488  1.00  0.00     0.010 C 
BRANCH  20  22
HETATM   22  C4  UNL     1      -0.834  53.273 -24.345  1.00  0.00     0.009 C 
BRANCH  22  23
HETATM   23  C3  UNL     1       0.413  53.479 -25.224  1.00  0.00     0.034 C 
BRANCH  23  24
HETATM   24  C2  UNL     1       0.293  53.118 -26.702  1.00  0.00    -0.083 C 
HETATM   25  C1  UNL     1      -0.244  53.944 -27.620  1.00  0.00     0.015 C 
BRANCH  24  26
HETATM   26  C26 UNL     1       0.871  51.735 -27.054  1.00  0.00     0.033 C 
HETATM   27  C27 UNL     1      -0.055  50.546 -26.746  1.00  0.00     0.017 C 
BRANCH  26  28
HETATM   28  C28 UNL     1       2.262  51.497 -26.425  1.00  0.00     0.172 C 
BRANCH  28  29
HETATM   29  O6  UNL     1       3.317  51.519 -27.380  1.00  0.00    -0.400 OA
HETATM   30  H48 UNL     1       3.208  52.312 -27.931  1.00  0.00     0.209 HD
ENDBRANCH  28  29
ENDBRANCH  26  28
ENDBRANCH  24  26
ENDBRANCH  23  24
ENDBRANCH  22  23
ENDBRANCH  20  22
ENDBRANCH   1  20
BRANCH   2  31
HETATM   31  O1  UNL     1      -3.237  52.591 -25.039  1.00  0.00    -0.393 OA
HETATM   32  H13 UNL     1      -2.516  53.223 -25.208  1.00  0.00     0.210 HD
ENDBRANCH   2  31
BRANCH   3  33
HETATM   33  O2  UNL     1      -5.308  51.244 -24.577  1.00  0.00    -0.392 OA
HETATM   34  H15 UNL     1      -4.774  51.681 -25.280  1.00  0.00     0.210 HD
ENDBRANCH   3  33
BRANCH  19  35
HETATM   35  O5  UNL     1      -5.472  48.764 -23.795  1.00  0.00    -0.389 OA
HETATM   36  H41 UNL     1      -5.613  49.575 -24.335  1.00  0.00     0.210 HD
ENDBRANCH  19  35
BRANCH  17  37
HETATM   37  O4  UNL     1      -8.468  48.624 -20.849  1.00  0.00    -0.395 OA
HETATM   38  H38 UNL     1      -8.944  49.408 -21.174  1.00  0.00     0.210 HD
ENDBRANCH  17  37
BRANCH  14  39
HETATM   39  O3  UNL     1      -8.403  45.179 -18.613  1.00  0.00    -0.396 OA
HETATM   40  H33 UNL     1      -9.306  45.160 -18.975  1.00  0.00     0.210 HD
ENDBRANCH  14  39
TORSDOF 12
ENDMDL
MODEL 8
REMARK minimizedAffinity -8.98805618
REMARK  12 active torsions:
REMARK  status: ('A' for Active; 'I' for Inactive)
REMARK    1  A    between atoms: C2_2  and  C3_3 
REMARK    2  A    between atoms: C2_2  and  C26_31 
REMARK    3  A    between atoms: C3_3  and  C4_4 
REMARK    4  A    between atoms: C4_4  and  C5_5 
REMARK    5  A    between atoms: C5_5  and  C7_7 
REMARK    6  A    between atoms: C8_8  and  O1_9 
REMARK    7  A    between atoms: C9_10  and  O2_11 
REMARK    8  A    between atoms: C20_22  and  O3_23 
REMARK    9  A    between atoms: C23_26  and  O4_27 
REMARK   10  A    between atoms: C25_29  and  O5_30 
REMARK   11  A    between atoms: C26_31  and  C28_33 
REMARK   12  A    between atoms: C28_33  and  O6_34 
ROOT
HETATM    1  C7  UNL     1      -3.199  49.407 -25.732  1.00  0.00     0.029 C 
HETATM    2  C8  UNL     1      -2.261  50.338 -26.567  1.00  0.00     0.152 C 
HETATM    3  C9  UNL     1      -1.439  51.168 -25.549  1.00  0.00     0.155 C 
HETATM    4  C10 UNL     1      -1.888  50.668 -24.174  1.00  0.00     0.060 C 
HETATM    5  C11 UNL     1      -3.350  50.180 -24.373  1.00  0.00    -0.029 C 
HETATM    6  C12 UNL     1      -4.394  51.316 -24.488  1.00  0.00     0.016 C 
HETATM    7  C13 UNL     1      -3.709  49.285 -23.161  1.00  0.00     0.011 C 
HETATM    8  C14 UNL     1      -2.847  49.531 -21.907  1.00  0.00     0.009 C 
HETATM    9  C15 UNL     1      -2.443  51.010 -21.699  1.00  0.00     0.029 C 
HETATM   10  C16 UNL     1      -1.758  51.282 -20.291  1.00  0.00    -0.031 C 
HETATM   11  C17 UNL     1      -2.931  51.450 -19.273  1.00  0.00     0.016 C 
HETATM   12  C18 UNL     1      -0.863  50.110 -19.796  1.00  0.00     0.012 C 
HETATM   13  C19 UNL     1      -0.186  50.378 -18.450  1.00  0.00     0.032 C 
HETATM   14  C20 UNL     1       0.592  51.686 -18.426  1.00  0.00     0.118 C 
HETATM   15  C21 UNL     1      -0.220  52.869 -18.959  1.00  0.00     0.039 C 
HETATM   16  C22 UNL     1      -0.910  52.596 -20.314  1.00  0.00     0.025 C 
HETATM   17  C23 UNL     1       0.077  52.709 -21.507  1.00  0.00     0.126 C 
HETATM   18  C24 UNL     1      -0.195  51.753 -22.663  1.00  0.00     0.071 C 
HETATM   19  C25 UNL     1      -1.683  51.579 -22.939  1.00  0.00     0.071 C 
ENDROOT
BRANCH   1  20
HETATM   20  C5  UNL     1      -4.476  48.937 -26.493  1.00  0.00    -0.011 C 
HETATM   21  C6  UNL     1      -5.411  48.092 -25.619  1.00  0.00     0.010 C 
BRANCH  20  22
HETATM   22  C4  UNL     1      -4.075  48.119 -27.755  1.00  0.00     0.009 C 
BRANCH  22  23
HETATM   23  C3  UNL     1      -4.921  48.451 -28.997  1.00  0.00     0.034 C 
BRANCH  23  24
HETATM   24  C2  UNL     1      -5.928  47.399 -29.457  1.00  0.00    -0.083 C 
HETATM   25  C1  UNL     1      -6.690  46.688 -28.604  1.00  0.00     0.015 C 
BRANCH  24  26
HETATM   26  C26 UNL     1      -6.015  47.248 -30.986  1.00  0.00     0.033 C 
HETATM   27  C27 UNL     1      -7.303  46.583 -31.501  1.00  0.00     0.017 C 
BRANCH  26  28
HETATM   28  C28 UNL     1      -4.780  46.536 -31.583  1.00  0.00     0.172 C 
BRANCH  28  29
HETATM   29  O6  UNL     1      -3.945  47.407 -32.337  1.00  0.00    -0.400 OA
HETATM   30  H48 UNL     1      -3.786  48.206 -31.807  1.00  0.00     0.209 HD
ENDBRANCH  28  29
ENDBRANCH  26  28
ENDBRANCH  24  26
ENDBRANCH  23  24
ENDBRANCH  22  23
ENDBRANCH  20  22
ENDBRANCH   1  20
BRANCH   2  31
HETATM   31  O1  UNL     1      -2.963  51.251 -27.415  1.00  0.00    -0.393 OA
HETATM   32  H13 UNL     1      -3.351  50.745 -28.151  1.00  0.00     0.210 HD
ENDBRANCH   2  31
BRANCH   3  33
HETATM   33  O2  UNL     1      -1.669  52.568 -25.710  1.00  0.00    -0.392 OA
HETATM   34  H15 UNL     1      -2.229  52.630 -26.518  1.00  0.00     0.210 HD
ENDBRANCH   3  33
BRANCH  19  35
HETATM   35  O5  UNL     1      -2.206  52.892 -23.181  1.00  0.00    -0.389 OA
HETATM   36  H41 UNL     1      -2.004  53.111 -24.120  1.00  0.00     0.210 HD
ENDBRANCH  19  35
BRANCH  17  37
HETATM   37  O4  UNL     1       1.438  52.526 -21.118  1.00  0.00    -0.395 OA
HETATM   38  H38 UNL     1       1.991  52.793 -21.873  1.00  0.00     0.210 HD
ENDBRANCH  17  37
BRANCH  14  39
HETATM   39  O3  UNL     1       0.978  51.955 -17.076  1.00  0.00    -0.396 OA
HETATM   40  H33 UNL     1       1.522  52.761 -17.098  1.00  0.00     0.210 HD
ENDBRANCH  14  39
TORSDOF 12
ENDMDL
MODEL 9
REMARK minimizedAffinity -8.97073078
REMARK  12 active torsions:
REMARK  status: ('A' for Active; 'I' for Inactive)
REMARK    1  A    between atoms: C2_2  and  C3_3 
REMARK    2  A    between atoms: C2_2  and  C26_31 
REMARK    3  A    between atoms: C3_3  and  C4_4 
REMARK    4  A    between atoms: C4_4  and  C5_5 
REMARK    5  A    between atoms: C5_5  and  C7_7 
REMARK    6  A    between atoms: C8_8  and  O1_9 
REMARK    7  A    between atoms: C9_10  and  O2_11 
REMARK    8  A    between atoms: C20_22  and  O3_23 
REMARK    9  A    between atoms: C23_26  and  O4_27 
REMARK   10  A    between atoms: C25_29  and  O5_30 
REMARK   11  A    between atoms: C26_31  and  C28_33 
REMARK   12  A    between atoms: C28_33  and  O6_34 
ROOT
HETATM    1  C7  UNL     1      -3.545  50.450 -23.919  1.00  0.00     0.029 C 
HETATM    2  C8  UNL     1      -4.660  51.458 -23.488  1.00  0.00     0.152 C 
HETATM    3  C9  UNL     1      -5.302  50.885 -22.199  1.00  0.00     0.155 C 
HETATM    4  C10 UNL     1      -4.520  49.603 -21.902  1.00  0.00     0.060 C 
HETATM    5  C11 UNL     1      -4.026  49.096 -23.286  1.00  0.00    -0.029 C 
HETATM    6  C12 UNL     1      -5.120  48.429 -24.153  1.00  0.00     0.016 C 
HETATM    7  C13 UNL     1      -2.893  48.071 -23.025  1.00  0.00     0.011 C 
HETATM    8  C14 UNL     1      -2.918  47.433 -21.622  1.00  0.00     0.009 C 
HETATM    9  C15 UNL     1      -4.341  47.191 -21.063  1.00  0.00     0.029 C 
HETATM   10  C16 UNL     1      -4.353  46.328 -19.730  1.00  0.00    -0.031 C 
HETATM   11  C17 UNL     1      -4.270  44.837 -20.186  1.00  0.00     0.016 C 
HETATM   12  C18 UNL     1      -3.142  46.608 -18.795  1.00  0.00     0.012 C 
HETATM   13  C19 UNL     1      -3.163  45.793 -17.499  1.00  0.00     0.032 C 
HETATM   14  C20 UNL     1      -4.470  45.932 -16.730  1.00  0.00     0.118 C 
HETATM   15  C21 UNL     1      -5.702  45.725 -17.614  1.00  0.00     0.039 C 
HETATM   16  C22 UNL     1      -5.678  46.541 -18.925  1.00  0.00     0.025 C 
HETATM   17  C23 UNL     1      -6.064  48.029 -18.697  1.00  0.00     0.126 C 
HETATM   18  C24 UNL     1      -5.348  49.027 -19.598  1.00  0.00     0.071 C 
HETATM   19  C25 UNL     1      -5.175  48.511 -21.021  1.00  0.00     0.071 C 
ENDROOT
BRANCH   1  20
HETATM   20  C5  UNL     1      -3.186  50.503 -25.436  1.00  0.00    -0.011 C 
HETATM   21  C6  UNL     1      -2.629  49.175 -25.961  1.00  0.00     0.010 C 
BRANCH  20  22
HETATM   22  C4  UNL     1      -2.151  51.635 -25.700  1.00  0.00     0.009 C 
BRANCH  22  23
HETATM   23  C3  UNL     1      -0.689  51.159 -25.629  1.00  0.00     0.034 C 
BRANCH  23  24
HETATM   24  C2  UNL     1       0.397  52.230 -25.683  1.00  0.00    -0.083 C 
HETATM   25  C1  UNL     1       0.656  53.067 -24.660  1.00  0.00     0.015 C 
BRANCH  24  26
HETATM   26  C26 UNL     1       1.191  52.246 -27.001  1.00  0.00     0.033 C 
HETATM   27  C27 UNL     1       0.430  51.710 -28.225  1.00  0.00     0.017 C 
BRANCH  26  28
HETATM   28  C28 UNL     1       2.558  51.535 -26.878  1.00  0.00     0.172 C 
BRANCH  28  29
HETATM   29  O6  UNL     1       3.608  52.228 -27.543  1.00  0.00    -0.400 OA
HETATM   30  H48 UNL     1       3.568  53.162 -27.280  1.00  0.00     0.209 HD
ENDBRANCH  28  29
ENDBRANCH  26  28
ENDBRANCH  24  26
ENDBRANCH  23  24
ENDBRANCH  22  23
ENDBRANCH  20  22
ENDBRANCH   1  20
BRANCH   2  31
HETATM   31  O1  UNL     1      -5.695  51.622 -24.460  1.00  0.00    -0.393 OA
HETATM   32  H13 UNL     1      -5.331  52.127 -25.210  1.00  0.00     0.210 HD
ENDBRANCH   2  31
BRANCH   3  33
HETATM   33  O2  UNL     1      -6.696  50.633 -22.377  1.00  0.00    -0.392 OA
HETATM   34  H15 UNL     1      -6.896  51.000 -23.270  1.00  0.00     0.210 HD
ENDBRANCH   3  33
BRANCH  19  35
HETATM   35  O5  UNL     1      -6.488  48.190 -21.497  1.00  0.00    -0.389 OA
HETATM   36  H41 UNL     1      -6.898  49.034 -21.798  1.00  0.00     0.210 HD
ENDBRANCH  19  35
BRANCH  17  37
HETATM   37  O4  UNL     1      -5.861  48.452 -17.348  1.00  0.00    -0.395 OA
HETATM   38  H38 UNL     1      -6.294  49.318 -17.251  1.00  0.00     0.210 HD
ENDBRANCH  17  37
BRANCH  14  39
HETATM   39  O3  UNL     1      -4.479  44.962 -15.681  1.00  0.00    -0.396 OA
HETATM   40  H33 UNL     1      -5.294  45.112 -15.171  1.00  0.00     0.210 HD
ENDBRANCH  14  39
TORSDOF 12
ENDMDL
