MODEL 1
REMARK minimizedAffinity -10.6960182
REMARK  6 active torsions:
REMARK  status: ('A' for Active; 'I' for Inactive)
REMARK    1  A    between atoms: C3_3  and  O1_4 
REMARK    2  A    between atoms: N1_14  and  O2_16 
REMARK    3  A    between atoms: O2_16  and  C13_17 
REMARK    4  A    between atoms: C13_17  and  C14_18 
REMARK       I    between atoms: C14_18  and  N2_20 
REMARK    5  A    between atoms: N2_20  and  C15_21 
REMARK    6  A    between atoms: C15_21  and  C17_23 
ROOT
HETATM    1  C1  UNL     1      -8.952   5.846  11.970  1.00  0.00     0.015 C 
HETATM    2  C2  UNL     1      -8.408   5.994  13.031  1.00  0.00    -0.078 C 
HETATM    3  C3  UNL     1      -7.769   6.178  14.353  1.00  0.00     0.128 C 
HETATM    4  C4  UNL     1      -7.849   7.666  14.782  1.00  0.00     0.052 C 
HETATM    5  C5  UNL     1      -6.472   8.291  14.476  1.00  0.00     0.010 C 
HETATM    6  C6  UNL     1      -5.699   7.197  13.740  1.00  0.00     0.002 C 
HETATM    7  C7  UNL     1      -4.167   7.269  13.729  1.00  0.00    -0.004 C 
HETATM    8  C8  UNL     1      -3.673   8.580  13.105  1.00  0.00     0.010 C 
HETATM    9  C9  UNL     1      -2.151   8.644  13.097  1.00  0.00     0.035 C 
HETATM   10  C10 UNL     1      -1.527   7.447  12.420  1.00  0.00    -0.069 C 
HETATM   11  C11 UNL     1      -0.557   7.637  11.506  1.00  0.00     0.030 C 
HETATM   12  C12 UNL     1       0.201   6.508  10.912  1.00  0.00     0.032 C 
HETATM   13  N1  UNL     1       1.139   6.795  10.053  1.00  0.00    -0.271 N 
ATOM     14  H1  UNL     1       1.348   7.738   9.726  1.00  0.00     0.194 HD
HETATM   15  C23 UNL     1      -0.115   5.110  11.397  1.00  0.00     0.060 C 
HETATM   16  C24 UNL     1      -1.574   4.996  11.816  1.00  0.00     0.020 C 
HETATM   17  C25 UNL     1      -2.020   6.063  12.858  1.00  0.00    -0.016 C 
HETATM   18  C26 UNL     1      -1.377   5.734  14.223  1.00  0.00     0.020 C 
HETATM   19  C27 UNL     1      -3.597   6.057  12.930  1.00  0.00     0.002 C 
HETATM   20  C28 UNL     1      -4.198   4.704  13.404  1.00  0.00     0.007 C 
HETATM   21  C29 UNL     1      -5.733   4.716  13.512  1.00  0.00     0.014 C 
HETATM   22  C30 UNL     1      -6.237   5.892  14.367  1.00  0.00     0.003 C 
HETATM   23  C31 UNL     1      -5.770   5.667  15.837  1.00  0.00     0.020 C 
ENDROOT
BRANCH   3  24
HETATM   24  O1  UNL     1      -8.461   5.362  15.290  1.00  0.00    -0.377 OA
HETATM   25  H2  UNL     1      -9.410   5.525  15.156  1.00  0.00     0.211 HD
ENDBRANCH   3  24
BRANCH  13  26
HETATM   26  O2  UNL     1       1.825   5.645   9.635  1.00  0.00    -0.271 OA
BRANCH  26  27
HETATM   27  C13 UNL     1       2.852   6.033   8.734  1.00  0.00     0.303 C 
BRANCH  27  28
HETATM   28  C14 UNL     1       3.766   7.043   9.415  1.00  0.00     0.244 C 
HETATM   29  O3  UNL     1       3.722   8.247   9.173  1.00  0.00    -0.271 OA
HETATM   30  N2  UNL     1       4.649   6.498  10.324  1.00  0.00    -0.351 N 
HETATM   31  H16 UNL     1       4.561   5.525  10.586  1.00  0.00     0.163 HD
BRANCH  30  32
HETATM   32  C15 UNL     1       5.581   7.321  11.078  1.00  0.00     0.113 C 
HETATM   33  C16 UNL     1       6.982   6.698  11.089  1.00  0.00     0.037 C 
BRANCH  32  34
HETATM   34  C17 UNL     1       5.018   7.571  12.468  1.00  0.00    -0.036 A 
HETATM   35  C18 UNL     1       5.828   7.592  13.614  1.00  0.00     0.009 A 
HETATM   36  C19 UNL     1       5.269   7.804  14.878  1.00  0.00     0.001 A 
HETATM   37  C20 UNL     1       3.896   7.987  15.014  1.00  0.00     0.000 A 
HETATM   38  C21 UNL     1       3.075   7.947  13.888  1.00  0.00     0.001 A 
HETATM   39  C22 UNL     1       3.631   7.735  12.625  1.00  0.00     0.009 A 
ENDBRANCH  32  34
ENDBRANCH  30  32
ENDBRANCH  27  28
ENDBRANCH  26  27
ENDBRANCH  13  26
TORSDOF 6
ENDMDL
MODEL 2
REMARK minimizedAffinity -10.3792238
REMARK  6 active torsions:
REMARK  status: ('A' for Active; 'I' for Inactive)
REMARK    1  A    between atoms: C3_3  and  O1_4 
REMARK    2  A    between atoms: N1_14  and  O2_16 
REMARK    3  A    between atoms: O2_16  and  C13_17 
REMARK    4  A    between atoms: C13_17  and  C14_18 
REMARK       I    between atoms: C14_18  and  N2_20 
REMARK    5  A    between atoms: N2_20  and  C15_21 
REMARK    6  A    between atoms: C15_21  and  C17_23 
ROOT
HETATM    1  C1  UNL     1       0.118   8.470   8.691  1.00  0.00     0.015 C 
HETATM    2  C2  UNL     1       0.480   8.000   9.737  1.00  0.00    -0.078 C 
HETATM    3  C3  UNL     1       0.958   7.427  11.015  1.00  0.00     0.128 C 
HETATM    4  C4  UNL     1       1.416   5.960  10.802  1.00  0.00     0.052 C 
HETATM    5  C5  UNL     1       0.263   5.059  11.291  1.00  0.00     0.010 C 
HETATM    6  C6  UNL     1      -0.877   6.023  11.618  1.00  0.00     0.002 C 
HETATM    7  C7  UNL     1      -1.972   5.555  12.584  1.00  0.00    -0.004 C 
HETATM    8  C8  UNL     1      -2.670   4.290  12.067  1.00  0.00     0.010 C 
HETATM    9  C9  UNL     1      -3.758   3.831  13.030  1.00  0.00     0.035 C 
HETATM   10  C10 UNL     1      -4.757   4.922  13.333  1.00  0.00    -0.069 C 
HETATM   11  C11 UNL     1      -6.074   4.646  13.269  1.00  0.00     0.030 C 
HETATM   12  C12 UNL     1      -7.107   5.623  13.696  1.00  0.00     0.032 C 
HETATM   13  N1  UNL     1      -8.355   5.254  13.619  1.00  0.00    -0.271 N 
ATOM     14  H1  UNL     1      -8.667   4.362  13.237  1.00  0.00     0.194 HD
HETATM   15  C23 UNL     1      -6.639   6.948  14.259  1.00  0.00     0.060 C 
HETATM   16  C24 UNL     1      -5.313   7.366  13.638  1.00  0.00     0.020 C 
HETATM   17  C25 UNL     1      -4.196   6.288  13.744  1.00  0.00    -0.016 C 
HETATM   18  C26 UNL     1      -3.725   6.192  15.212  1.00  0.00     0.020 C 
HETATM   19  C27 UNL     1      -3.020   6.695  12.772  1.00  0.00     0.002 C 
HETATM   20  C28 UNL     1      -2.354   8.053  13.128  1.00  0.00     0.007 C 
HETATM   21  C29 UNL     1      -1.182   8.426  12.202  1.00  0.00     0.014 C 
HETATM   22  C30 UNL     1      -0.146   7.293  12.107  1.00  0.00     0.003 C 
HETATM   23  C31 UNL     1       0.531   7.126  13.502  1.00  0.00     0.020 C 
ENDROOT
BRANCH   3  24
HETATM   24  O1  UNL     1       2.048   8.218  11.468  1.00  0.00    -0.377 OA
HETATM   25  H2  UNL     1       2.644   8.337  10.708  1.00  0.00     0.211 HD
ENDBRANCH   3  24
BRANCH  13  26
HETATM   26  O2  UNL     1      -9.215   6.240  14.129  1.00  0.00    -0.271 OA
BRANCH  26  27
HETATM   27  C13 UNL     1     -10.082   6.665  13.088  1.00  0.00     0.303 C 
BRANCH  27  28
HETATM   28  C14 UNL     1     -11.342   7.268  13.696  1.00  0.00     0.244 C 
HETATM   29  O3  UNL     1     -11.431   7.559  14.887  1.00  0.00    -0.271 OA
HETATM   30  N2  UNL     1     -12.376   7.460  12.803  1.00  0.00    -0.351 N 
HETATM   31  H16 UNL     1     -12.214   7.329  11.813  1.00  0.00     0.163 HD
BRANCH  30  32
HETATM   32  C15 UNL     1     -13.644   8.042  13.211  1.00  0.00     0.113 C 
HETATM   33  C16 UNL     1     -13.465   8.962  14.425  1.00  0.00     0.037 C 
BRANCH  32  34
HETATM   34  C17 UNL     1     -14.657   6.931  13.437  1.00  0.00    -0.036 A 
HETATM   35  C18 UNL     1     -15.837   6.825  12.685  1.00  0.00     0.009 A 
HETATM   36  C19 UNL     1     -16.755   5.801  12.937  1.00  0.00     0.001 A 
HETATM   37  C20 UNL     1     -16.510   4.877  13.949  1.00  0.00     0.000 A 
HETATM   38  C21 UNL     1     -15.353   4.980  14.719  1.00  0.00     0.001 A 
HETATM   39  C22 UNL     1     -14.436   6.003  14.468  1.00  0.00     0.009 A 
ENDBRANCH  32  34
ENDBRANCH  30  32
ENDBRANCH  27  28
ENDBRANCH  26  27
ENDBRANCH  13  26
TORSDOF 6
ENDMDL
MODEL 3
REMARK minimizedAffinity -10.2825356
REMARK  6 active torsions:
REMARK  status: ('A' for Active; 'I' for Inactive)
REMARK    1  A    between atoms: C3_3  and  O1_4 
REMARK    2  A    between atoms: N1_14  and  O2_16 
REMARK    3  A    between atoms: O2_16  and  C13_17 
REMARK    4  A    between atoms: C13_17  and  C14_18 
REMARK       I    between atoms: C14_18  and  N2_20 
REMARK    5  A    between atoms: N2_20  and  C15_21 
REMARK    6  A    between atoms: C15_21  and  C17_23 
ROOT
HETATM    1  C1  UNL     1       1.684   6.826   6.776  1.00  0.00     0.015 C 
HETATM    2  C2  UNL     1       2.207   7.143   7.811  1.00  0.00    -0.078 C 
HETATM    3  C3  UNL     1       2.880   7.540   9.068  1.00  0.00     0.128 C 
HETATM    4  C4  UNL     1       3.769   6.379   9.585  1.00  0.00     0.052 C 
HETATM    5  C5  UNL     1       2.974   5.674  10.704  1.00  0.00     0.010 C 
HETATM    6  C6  UNL     1       1.599   6.342  10.688  1.00  0.00     0.002 C 
HETATM    7  C7  UNL     1       0.737   6.262  11.953  1.00  0.00    -0.004 C 
HETATM    8  C8  UNL     1       0.457   4.807  12.349  1.00  0.00     0.010 C 
HETATM    9  C9  UNL     1      -0.401   4.735  13.606  1.00  0.00     0.035 C 
HETATM   10  C10 UNL     1      -1.683   5.522  13.474  1.00  0.00    -0.069 C 
HETATM   11  C11 UNL     1      -2.847   4.952  13.838  1.00  0.00     0.030 C 
HETATM   12  C12 UNL     1      -4.122   5.712  13.875  1.00  0.00     0.032 C 
HETATM   13  N1  UNL     1      -5.192   5.078  14.264  1.00  0.00    -0.271 N 
ATOM     14  H1  UNL     1      -5.219   4.084  14.492  1.00  0.00     0.194 HD
HETATM   15  C23 UNL     1      -4.077   7.186  13.532  1.00  0.00     0.060 C 
HETATM   16  C24 UNL     1      -2.970   7.478  12.529  1.00  0.00     0.020 C 
HETATM   17  C25 UNL     1      -1.568   6.964  12.965  1.00  0.00    -0.016 C 
HETATM   18  C26 UNL     1      -1.046   7.842  14.124  1.00  0.00     0.020 C 
HETATM   19  C27 UNL     1      -0.611   7.011  11.710  1.00  0.00     0.002 C 
HETATM   20  C28 UNL     1      -0.394   8.440  11.140  1.00  0.00     0.007 C 
HETATM   21  C29 UNL     1       0.572   8.486   9.942  1.00  0.00     0.014 C 
HETATM   22  C30 UNL     1       1.909   7.793  10.259  1.00  0.00     0.003 C 
HETATM   23  C31 UNL     1       2.645   8.623  11.354  1.00  0.00     0.020 C 
ENDROOT
BRANCH   3  24
HETATM   24  O1  UNL     1       3.679   8.683   8.793  1.00  0.00    -0.377 OA
HETATM   25  H2  UNL     1       4.184   8.485   7.986  1.00  0.00     0.211 HD
ENDBRANCH   3  24
BRANCH  13  26
HETATM   26  O2  UNL     1      -6.303   5.934  14.330  1.00  0.00    -0.271 OA
BRANCH  26  27
HETATM   27  C13 UNL     1      -7.479   5.142  14.412  1.00  0.00     0.303 C 
BRANCH  27  28
HETATM   28  C14 UNL     1      -7.504   4.154  13.254  1.00  0.00     0.244 C 
HETATM   29  O3  UNL     1      -8.549   3.774  12.728  1.00  0.00    -0.271 OA
HETATM   30  N2  UNL     1      -6.262   3.715  12.844  1.00  0.00    -0.351 N 
HETATM   31  H16 UNL     1      -5.429   4.152  13.217  1.00  0.00     0.163 HD
BRANCH  30  32
HETATM   32  C15 UNL     1      -6.102   2.784  11.740  1.00  0.00     0.113 C 
HETATM   33  C16 UNL     1      -6.740   1.428  12.065  1.00  0.00     0.037 C 
BRANCH  32  34
HETATM   34  C17 UNL     1      -4.630   2.688  11.374  1.00  0.00    -0.036 A 
HETATM   35  C18 UNL     1      -3.813   1.633  11.811  1.00  0.00     0.009 A 
HETATM   36  C19 UNL     1      -2.458   1.592  11.471  1.00  0.00     0.001 A 
HETATM   37  C20 UNL     1      -1.899   2.607  10.700  1.00  0.00     0.000 A 
HETATM   38  C21 UNL     1      -2.691   3.673  10.276  1.00  0.00     0.001 A 
HETATM   39  C22 UNL     1      -4.045   3.716  10.615  1.00  0.00     0.009 A 
ENDBRANCH  32  34
ENDBRANCH  30  32
ENDBRANCH  27  28
ENDBRANCH  26  27
ENDBRANCH  13  26
TORSDOF 6
ENDMDL
MODEL 4
REMARK minimizedAffinity -10.2199812
REMARK  6 active torsions:
REMARK  status: ('A' for Active; 'I' for Inactive)
REMARK    1  A    between atoms: C3_3  and  O1_4 
REMARK    2  A    between atoms: N1_14  and  O2_16 
REMARK    3  A    between atoms: O2_16  and  C13_17 
REMARK    4  A    between atoms: C13_17  and  C14_18 
REMARK       I    between atoms: C14_18  and  N2_20 
REMARK    5  A    between atoms: N2_20  and  C15_21 
REMARK    6  A    between atoms: C15_21  and  C17_23 
ROOT
HETATM    1  C1  UNL     1       2.298   7.671   7.218  1.00  0.00     0.015 C 
HETATM    2  C2  UNL     1       2.752   7.359   8.286  1.00  0.00    -0.078 C 
HETATM    3  C3  UNL     1       3.342   6.970   9.586  1.00  0.00     0.128 C 
HETATM    4  C4  UNL     1       3.526   5.432   9.649  1.00  0.00     0.052 C 
HETATM    5  C5  UNL     1       2.346   4.876  10.473  1.00  0.00     0.010 C 
HETATM    6  C6  UNL     1       1.439   6.081  10.721  1.00  0.00     0.002 C 
HETATM    7  C7  UNL     1       0.461   6.026  11.901  1.00  0.00    -0.004 C 
HETATM    8  C8  UNL     1      -0.500   4.837  11.776  1.00  0.00     0.010 C 
HETATM    9  C9  UNL     1      -1.470   4.788  12.950  1.00  0.00     0.035 C 
HETATM   10  C10 UNL     1      -2.224   6.085  13.129  1.00  0.00    -0.069 C 
HETATM   11  C11 UNL     1      -3.559   6.053  13.300  1.00  0.00     0.030 C 
HETATM   12  C12 UNL     1      -4.343   7.270  13.628  1.00  0.00     0.032 C 
HETATM   13  N1  UNL     1      -5.628   7.133  13.798  1.00  0.00    -0.271 N 
ATOM     14  H1  UNL     1      -6.133   6.257  13.669  1.00  0.00     0.194 HD
HETATM   15  C23 UNL     1      -3.588   8.569  13.815  1.00  0.00     0.060 C 
HETATM   16  C24 UNL     1      -2.336   8.601  12.949  1.00  0.00     0.020 C 
HETATM   17  C25 UNL     1      -1.397   7.376  13.147  1.00  0.00    -0.016 C 
HETATM   18  C26 UNL     1      -0.708   7.486  14.525  1.00  0.00     0.020 C 
HETATM   19  C27 UNL     1      -0.352   7.356  11.964  1.00  0.00     0.002 C 
HETATM   20  C28 UNL     1       0.567   8.609  11.918  1.00  0.00     0.007 C 
HETATM   21  C29 UNL     1       1.612   8.566  10.788  1.00  0.00     0.014 C 
HETATM   22  C30 UNL     1       2.429   7.263  10.815  1.00  0.00     0.003 C 
HETATM   23  C31 UNL     1       3.294   7.252  12.112  1.00  0.00     0.020 C 
ENDROOT
BRANCH   3  24
HETATM   24  O1  UNL     1       4.602   7.618   9.705  1.00  0.00    -0.377 OA
HETATM   25  H2  UNL     1       5.074   7.471   8.868  1.00  0.00     0.211 HD
ENDBRANCH   3  24
BRANCH  13  26
HETATM   26  O2  UNL     1      -6.228   8.342  14.182  1.00  0.00    -0.271 OA
BRANCH  26  27
HETATM   27  C13 UNL     1      -7.552   8.071  14.618  1.00  0.00     0.303 C 
BRANCH  27  28
HETATM   28  C14 UNL     1      -7.654   6.613  15.046  1.00  0.00     0.244 C 
HETATM   29  O3  UNL     1      -7.626   6.263  16.225  1.00  0.00    -0.271 OA
HETATM   30  N2  UNL     1      -7.776   5.715  14.006  1.00  0.00    -0.351 N 
HETATM   31  H16 UNL     1      -7.925   6.056  13.065  1.00  0.00     0.163 HD
BRANCH  30  32
HETATM   32  C15 UNL     1      -7.903   4.285  14.236  1.00  0.00     0.113 C 
HETATM   33  C16 UNL     1      -7.480   3.917  15.664  1.00  0.00     0.037 C 
BRANCH  32  34
HETATM   34  C17 UNL     1      -7.131   3.534  13.163  1.00  0.00    -0.036 A 
HETATM   35  C18 UNL     1      -6.120   4.140  12.401  1.00  0.00     0.009 A 
HETATM   36  C19 UNL     1      -5.448   3.422  11.408  1.00  0.00     0.001 A 
HETATM   37  C20 UNL     1      -5.783   2.094  11.157  1.00  0.00     0.000 A 
HETATM   38  C21 UNL     1      -6.799   1.484  11.890  1.00  0.00     0.001 A 
HETATM   39  C22 UNL     1      -7.472   2.200  12.882  1.00  0.00     0.009 A 
ENDBRANCH  32  34
ENDBRANCH  30  32
ENDBRANCH  27  28
ENDBRANCH  26  27
ENDBRANCH  13  26
TORSDOF 6
ENDMDL
MODEL 5
REMARK minimizedAffinity -10.0835667
REMARK  6 active torsions:
REMARK  status: ('A' for Active; 'I' for Inactive)
REMARK    1  A    between atoms: C3_3  and  O1_4 
REMARK    2  A    between atoms: N1_14  and  O2_16 
REMARK    3  A    between atoms: O2_16  and  C13_17 
REMARK    4  A    between atoms: C13_17  and  C14_18 
REMARK       I    between atoms: C14_18  and  N2_20 
REMARK    5  A    between atoms: N2_20  and  C15_21 
REMARK    6  A    between atoms: C15_21  and  C17_23 
ROOT
HETATM    1  C1  UNL     1       0.779   8.483   8.660  1.00  0.00     0.015 C 
HETATM    2  C2  UNL     1       1.145   7.945   9.670  1.00  0.00    -0.078 C 
HETATM    3  C3  UNL     1       1.628   7.289  10.906  1.00  0.00     0.128 C 
HETATM    4  C4  UNL     1       2.244   5.906  10.570  1.00  0.00     0.052 C 
HETATM    5  C5  UNL     1       1.173   4.848  10.906  1.00  0.00     0.010 C 
HETATM    6  C6  UNL     1      -0.073   5.655  11.270  1.00  0.00     0.002 C 
HETATM    7  C7  UNL     1      -1.152   4.981  12.126  1.00  0.00    -0.004 C 
HETATM    8  C8  UNL     1      -1.693   3.714  11.449  1.00  0.00     0.010 C 
HETATM    9  C9  UNL     1      -2.766   3.050  12.304  1.00  0.00     0.035 C 
HETATM   10  C10 UNL     1      -3.885   3.998  12.665  1.00  0.00    -0.069 C 
HETATM   11  C11 UNL     1      -5.161   3.602  12.507  1.00  0.00     0.030 C 
HETATM   12  C12 UNL     1      -6.307   4.421  12.976  1.00  0.00     0.032 C 
HETATM   13  N1  UNL     1      -7.506   3.941  12.799  1.00  0.00    -0.271 N 
ATOM     14  H1  UNL     1      -7.708   3.067  12.313  1.00  0.00     0.194 HD
HETATM   15  C23 UNL     1      -6.002   5.719  13.694  1.00  0.00     0.060 C 
HETATM   16  C24 UNL     1      -4.703   6.329  13.187  1.00  0.00     0.020 C 
HETATM   17  C25 UNL     1      -3.485   5.363  13.240  1.00  0.00    -0.016 C 
HETATM   18  C26 UNL     1      -3.066   5.159  14.713  1.00  0.00     0.020 C 
HETATM   19  C27 UNL     1      -2.320   5.985  12.375  1.00  0.00     0.002 C 
HETATM   20  C28 UNL     1      -1.813   7.357  12.900  1.00  0.00     0.007 C 
HETATM   21  C29 UNL     1      -0.650   7.941  12.078  1.00  0.00     0.014 C 
HETATM   22  C30 UNL     1       0.501   6.932  11.921  1.00  0.00     0.003 C 
HETATM   23  C31 UNL     1       1.134   6.686  13.325  1.00  0.00     0.020 C 
ENDROOT
BRANCH   3  24
HETATM   24  O1  UNL     1       2.611   8.133  11.492  1.00  0.00    -0.377 OA
HETATM   25  H2  UNL     1       3.222   8.389  10.780  1.00  0.00     0.211 HD
ENDBRANCH   3  24
BRANCH  13  26
HETATM   26  O2  UNL     1      -8.483   4.776  13.361  1.00  0.00    -0.271 OA
BRANCH  26  27
HETATM   27  C13 UNL     1      -8.858   5.748  12.396  1.00  0.00     0.303 C 
BRANCH  27  28
HETATM   28  C14 UNL     1     -10.027   6.564  12.929  1.00  0.00     0.244 C 
HETATM   29  O3  UNL     1     -10.808   7.166  12.193  1.00  0.00    -0.271 OA
HETATM   30  N2  UNL     1     -10.141   6.579  14.304  1.00  0.00    -0.351 N 
HETATM   31  H16 UNL     1      -9.558   5.966  14.860  1.00  0.00     0.163 HD
BRANCH  30  32
HETATM   32  C15 UNL     1     -11.210   7.294  14.980  1.00  0.00     0.113 C 
HETATM   33  C16 UNL     1     -12.579   6.918  14.398  1.00  0.00     0.037 C 
BRANCH  32  34
HETATM   34  C17 UNL     1     -10.922   8.786  14.935  1.00  0.00    -0.036 A 
HETATM   35  C18 UNL     1     -11.839   9.714  14.417  1.00  0.00     0.009 A 
HETATM   36  C19 UNL     1     -11.528  11.076  14.373  1.00  0.00     0.001 A 
HETATM   37  C20 UNL     1     -10.295  11.527  14.838  1.00  0.00     0.000 A 
HETATM   38  C21 UNL     1      -9.366  10.616  15.337  1.00  0.00     0.001 A 
HETATM   39  C22 UNL     1      -9.675   9.255  15.380  1.00  0.00     0.009 A 
ENDBRANCH  32  34
ENDBRANCH  30  32
ENDBRANCH  27  28
ENDBRANCH  26  27
ENDBRANCH  13  26
TORSDOF 6
ENDMDL
MODEL 6
REMARK minimizedAffinity -9.94024181
REMARK  6 active torsions:
REMARK  status: ('A' for Active; 'I' for Inactive)
REMARK    1  A    between atoms: C3_3  and  O1_4 
REMARK    2  A    between atoms: N1_14  and  O2_16 
REMARK    3  A    between atoms: O2_16  and  C13_17 
REMARK    4  A    between atoms: C13_17  and  C14_18 
REMARK       I    between atoms: C14_18  and  N2_20 
REMARK    5  A    between atoms: N2_20  and  C15_21 
REMARK    6  A    between atoms: C15_21  and  C17_23 
ROOT
HETATM    1  C1  UNL     1       7.131   7.332  14.154  1.00  0.00     0.015 C 
HETATM    2  C2  UNL     1       6.727   7.941  13.199  1.00  0.00    -0.078 C 
HETATM    3  C3  UNL     1       6.259   8.707  12.023  1.00  0.00     0.128 C 
HETATM    4  C4  UNL     1       5.874  10.149  12.444  1.00  0.00     0.052 C 
HETATM    5  C5  UNL     1       4.337  10.179  12.572  1.00  0.00     0.010 C 
HETATM    6  C6  UNL     1       3.899   8.727  12.380  1.00  0.00     0.002 C 
HETATM    7  C7  UNL     1       2.454   8.455  11.945  1.00  0.00    -0.004 C 
HETATM    8  C8  UNL     1       1.448   9.034  12.949  1.00  0.00     0.010 C 
HETATM    9  C9  UNL     1       0.015   8.758  12.512  1.00  0.00     0.035 C 
HETATM   10  C10 UNL     1      -0.241   7.290  12.266  1.00  0.00    -0.069 C 
HETATM   11  C11 UNL     1      -1.336   6.714  12.796  1.00  0.00     0.030 C 
HETATM   12  C12 UNL     1      -1.728   5.318  12.477  1.00  0.00     0.032 C 
HETATM   13  N1  UNL     1      -2.819   4.858  13.021  1.00  0.00    -0.271 N 
ATOM     14  H1  UNL     1      -3.389   5.375  13.690  1.00  0.00     0.194 HD
HETATM   15  C23 UNL     1      -0.877   4.554  11.485  1.00  0.00     0.060 C 
HETATM   16  C24 UNL     1       0.573   5.011  11.546  1.00  0.00     0.020 C 
HETATM   17  C25 UNL     1       0.762   6.546  11.376  1.00  0.00    -0.016 C 
HETATM   18  C26 UNL     1       0.477   6.930   9.907  1.00  0.00     0.020 C 
HETATM   19  C27 UNL     1       2.235   6.916  11.808  1.00  0.00     0.002 C 
HETATM   20  C28 UNL     1       3.332   6.241  10.938  1.00  0.00     0.007 C 
HETATM   21  C29 UNL     1       4.765   6.637  11.336  1.00  0.00     0.014 C 
HETATM   22  C30 UNL     1       4.942   8.164  11.390  1.00  0.00     0.003 C 
HETATM   23  C31 UNL     1       4.798   8.727   9.943  1.00  0.00     0.020 C 
ENDROOT
BRANCH   3  24
HETATM   24  O1  UNL     1       7.319   8.741  11.075  1.00  0.00    -0.377 OA
HETATM   25  H2  UNL     1       8.122   8.994  11.561  1.00  0.00     0.211 HD
ENDBRANCH   3  24
BRANCH  13  26
HETATM   26  O2  UNL     1      -3.112   3.561  12.570  1.00  0.00    -0.271 OA
BRANCH  26  27
HETATM   27  C13 UNL     1      -4.082   3.650  11.537  1.00  0.00     0.303 C 
BRANCH  27  28
HETATM   28  C14 UNL     1      -5.456   3.319  12.106  1.00  0.00     0.244 C 
HETATM   29  O3  UNL     1      -6.113   2.348  11.734  1.00  0.00    -0.271 OA
HETATM   30  N2  UNL     1      -5.907   4.197  13.070  1.00  0.00    -0.351 N 
HETATM   31  H16 UNL     1      -5.281   4.903  13.436  1.00  0.00     0.163 HD
BRANCH  30  32
HETATM   32  C15 UNL     1      -7.189   4.020  13.731  1.00  0.00     0.113 C 
HETATM   33  C16 UNL     1      -8.280   3.632  12.725  1.00  0.00     0.037 C 
BRANCH  32  34
HETATM   34  C17 UNL     1      -7.519   5.271  14.529  1.00  0.00    -0.036 A 
HETATM   35  C18 UNL     1      -8.352   6.284  14.030  1.00  0.00     0.009 A 
HETATM   36  C19 UNL     1      -8.614   7.430  14.786  1.00  0.00     0.001 A 
HETATM   37  C20 UNL     1      -8.040   7.583  16.045  1.00  0.00     0.000 A 
HETATM   38  C21 UNL     1      -7.194   6.596  16.547  1.00  0.00     0.001 A 
HETATM   39  C22 UNL     1      -6.931   5.451  15.793  1.00  0.00     0.009 A 
ENDBRANCH  32  34
ENDBRANCH  30  32
ENDBRANCH  27  28
ENDBRANCH  26  27
ENDBRANCH  13  26
TORSDOF 6
ENDMDL
MODEL 7
REMARK minimizedAffinity -9.93153
REMARK  6 active torsions:
REMARK  status: ('A' for Active; 'I' for Inactive)
REMARK    1  A    between atoms: C3_3  and  O1_4 
REMARK    2  A    between atoms: N1_14  and  O2_16 
REMARK    3  A    between atoms: O2_16  and  C13_17 
REMARK    4  A    between atoms: C13_17  and  C14_18 
REMARK       I    between atoms: C14_18  and  N2_20 
REMARK    5  A    between atoms: N2_20  and  C15_21 
REMARK    6  A    between atoms: C15_21  and  C17_23 
ROOT
HETATM    1  C1  UNL     1      -0.108   8.483   9.107  1.00  0.00     0.015 C 
HETATM    2  C2  UNL     1       0.158   7.942  10.146  1.00  0.00    -0.078 C 
HETATM    3  C3  UNL     1       0.518   7.277  11.419  1.00  0.00     0.128 C 
HETATM    4  C4  UNL     1       0.906   5.799  11.157  1.00  0.00     0.052 C 
HETATM    5  C5  UNL     1      -0.325   4.944  11.523  1.00  0.00     0.010 C 
HETATM    6  C6  UNL     1      -1.428   5.956  11.829  1.00  0.00     0.002 C 
HETATM    7  C7  UNL     1      -2.609   5.506  12.697  1.00  0.00    -0.004 C 
HETATM    8  C8  UNL     1      -3.341   4.312  12.070  1.00  0.00     0.010 C 
HETATM    9  C9  UNL     1      -4.514   3.871  12.936  1.00  0.00     0.035 C 
HETATM   10  C10 UNL     1      -5.469   5.002  13.235  1.00  0.00    -0.069 C 
HETATM   11  C11 UNL     1      -6.791   4.809  13.073  1.00  0.00     0.030 C 
HETATM   12  C12 UNL     1      -7.794   5.822  13.486  1.00  0.00     0.032 C 
HETATM   13  N1  UNL     1      -9.053   5.533  13.311  1.00  0.00    -0.271 N 
ATOM     14  H1  UNL     1      -9.389   4.681  12.863  1.00  0.00     0.194 HD
HETATM   15  C23 UNL     1      -7.291   7.087  14.148  1.00  0.00     0.060 C 
HETATM   16  C24 UNL     1      -5.906   7.456  13.635  1.00  0.00     0.020 C 
HETATM   17  C25 UNL     1      -4.860   6.310  13.753  1.00  0.00    -0.016 C 
HETATM   18  C26 UNL     1      -4.493   6.113  15.240  1.00  0.00     0.020 C 
HETATM   19  C27 UNL     1      -3.602   6.696  12.880  1.00  0.00     0.002 C 
HETATM   20  C28 UNL     1      -2.886   7.992  13.350  1.00  0.00     0.007 C 
HETATM   21  C29 UNL     1      -1.636   8.341  12.522  1.00  0.00     0.014 C 
HETATM   22  C30 UNL     1      -0.661   7.155  12.431  1.00  0.00     0.003 C 
HETATM   23  C31 UNL     1      -0.089   6.878  13.854  1.00  0.00     0.020 C 
ENDROOT
BRANCH   3  24
HETATM   24  O1  UNL     1       1.619   7.979  11.981  1.00  0.00    -0.377 OA
HETATM   25  H2  UNL     1       2.269   8.100  11.268  1.00  0.00     0.211 HD
ENDBRANCH   3  24
BRANCH  13  26
HETATM   26  O2  UNL     1      -9.888   6.540  13.818  1.00  0.00    -0.271 OA
BRANCH  26  27
HETATM   27  C13 UNL     1     -10.483   7.227  12.727  1.00  0.00     0.303 C 
BRANCH  27  28
HETATM   28  C14 UNL     1     -11.835   7.782  13.156  1.00  0.00     0.244 C 
HETATM   29  O3  UNL     1     -12.610   8.324  12.370  1.00  0.00    -0.271 OA
HETATM   30  N2  UNL     1     -12.120   7.630  14.497  1.00  0.00    -0.351 N 
HETATM   31  H16 UNL     1     -11.513   7.065  15.077  1.00  0.00     0.163 HD
BRANCH  30  32
HETATM   32  C15 UNL     1     -13.374   8.087  15.072  1.00  0.00     0.113 C 
HETATM   33  C16 UNL     1     -13.136   8.845  16.384  1.00  0.00     0.037 C 
BRANCH  32  34
HETATM   34  C17 UNL     1     -14.318   6.904  15.219  1.00  0.00    -0.036 A 
HETATM   35  C18 UNL     1     -14.140   5.707  14.508  1.00  0.00     0.009 A 
HETATM   36  C19 UNL     1     -15.043   4.650  14.654  1.00  0.00     0.001 A 
HETATM   37  C20 UNL     1     -16.138   4.778  15.503  1.00  0.00     0.000 A 
HETATM   38  C21 UNL     1     -16.341   5.967  16.201  1.00  0.00     0.001 A 
HETATM   39  C22 UNL     1     -15.441   7.024  16.056  1.00  0.00     0.009 A 
ENDBRANCH  32  34
ENDBRANCH  30  32
ENDBRANCH  27  28
ENDBRANCH  26  27
ENDBRANCH  13  26
TORSDOF 6
ENDMDL
MODEL 8
REMARK minimizedAffinity -9.89607143
REMARK  6 active torsions:
REMARK  status: ('A' for Active; 'I' for Inactive)
REMARK    1  A    between atoms: C3_3  and  O1_4 
REMARK    2  A    between atoms: N1_14  and  O2_16 
REMARK    3  A    between atoms: O2_16  and  C13_17 
REMARK    4  A    between atoms: C13_17  and  C14_18 
REMARK       I    between atoms: C14_18  and  N2_20 
REMARK    5  A    between atoms: N2_20  and  C15_21 
REMARK    6  A    between atoms: C15_21  and  C17_23 
ROOT
HETATM    1  C1  UNL     1       0.047   8.483   8.760  1.00  0.00     0.015 C 
HETATM    2  C2  UNL     1       0.390   7.975   9.794  1.00  0.00    -0.078 C 
HETATM    3  C3  UNL     1       0.844   7.352  11.058  1.00  0.00     0.128 C 
HETATM    4  C4  UNL     1       1.244   5.874  10.810  1.00  0.00     0.052 C 
HETATM    5  C5  UNL     1       0.057   5.008  11.278  1.00  0.00     0.010 C 
HETATM    6  C6  UNL     1      -1.044   6.008  11.628  1.00  0.00     0.002 C 
HETATM    7  C7  UNL     1      -2.158   5.560  12.583  1.00  0.00    -0.004 C 
HETATM    8  C8  UNL     1      -2.905   4.336  12.037  1.00  0.00     0.010 C 
HETATM    9  C9  UNL     1      -4.010   3.898  12.989  1.00  0.00     0.035 C 
HETATM   10  C10 UNL     1      -4.966   5.019  13.319  1.00  0.00    -0.069 C 
HETATM   11  C11 UNL     1      -6.292   4.798  13.250  1.00  0.00     0.030 C 
HETATM   12  C12 UNL     1      -7.286   5.804  13.700  1.00  0.00     0.032 C 
HETATM   13  N1  UNL     1      -8.547   5.487  13.615  1.00  0.00    -0.271 N 
ATOM     14  H1  UNL     1      -8.894   4.617  13.212  1.00  0.00     0.194 HD
HETATM   15  C23 UNL     1      -6.766   7.096  14.295  1.00  0.00     0.060 C 
HETATM   16  C24 UNL     1      -5.425   7.475  13.683  1.00  0.00     0.020 C 
HETATM   17  C25 UNL     1      -4.351   6.352  13.762  1.00  0.00    -0.016 C 
HETATM   18  C26 UNL     1      -3.884   6.203  15.227  1.00  0.00     0.020 C 
HETATM   19  C27 UNL     1      -3.160   6.736  12.799  1.00  0.00     0.002 C 
HETATM   20  C28 UNL     1      -2.441   8.058  13.188  1.00  0.00     0.007 C 
HETATM   21  C29 UNL     1      -1.254   8.407  12.270  1.00  0.00     0.014 C 
HETATM   22  C30 UNL     1      -0.264   7.236  12.147  1.00  0.00     0.003 C 
HETATM   23  C31 UNL     1       0.405   7.009  13.537  1.00  0.00     0.020 C 
ENDROOT
BRANCH   3  24
HETATM   24  O1  UNL     1       1.965   8.089  11.529  1.00  0.00    -0.377 OA
HETATM   25  H2  UNL     1       2.565   8.202  10.772  1.00  0.00     0.211 HD
ENDBRANCH   3  24
BRANCH  13  26
HETATM   26  O2  UNL     1      -9.368   6.493  14.149  1.00  0.00    -0.271 OA
BRANCH  26  27
HETATM   27  C13 UNL     1     -10.385   6.795  13.205  1.00  0.00     0.303 C 
BRANCH  27  28
HETATM   28  C14 UNL     1     -11.063   8.101  13.595  1.00  0.00     0.244 C 
HETATM   29  O3  UNL     1     -12.068   8.524  13.026  1.00  0.00    -0.271 OA
HETATM   30  N2  UNL     1     -10.459   8.776  14.636  1.00  0.00    -0.351 N 
HETATM   31  H16 UNL     1      -9.715   8.328  15.157  1.00  0.00     0.163 HD
BRANCH  30  32
HETATM   32  C15 UNL     1     -10.985  10.030  15.148  1.00  0.00     0.113 C 
HETATM   33  C16 UNL     1      -9.901  11.114  15.175  1.00  0.00     0.037 C 
BRANCH  32  34
HETATM   34  C17 UNL     1     -11.633   9.786  16.502  1.00  0.00    -0.036 A 
HETATM   35  C18 UNL     1     -13.022   9.661  16.660  1.00  0.00     0.009 A 
HETATM   36  C19 UNL     1     -13.581   9.459  17.925  1.00  0.00     0.001 A 
HETATM   37  C20 UNL     1     -12.761   9.390  19.048  1.00  0.00     0.000 A 
HETATM   38  C21 UNL     1     -11.382   9.533  18.912  1.00  0.00     0.001 A 
HETATM   39  C22 UNL     1     -10.822   9.735  17.649  1.00  0.00     0.009 A 
ENDBRANCH  32  34
ENDBRANCH  30  32
ENDBRANCH  27  28
ENDBRANCH  26  27
ENDBRANCH  13  26
TORSDOF 6
ENDMDL
MODEL 9
REMARK minimizedAffinity -9.77269173
REMARK  6 active torsions:
REMARK  status: ('A' for Active; 'I' for Inactive)
REMARK    1  A    between atoms: C3_3  and  O1_4 
REMARK    2  A    between atoms: N1_14  and  O2_16 
REMARK    3  A    between atoms: O2_16  and  C13_17 
REMARK    4  A    between atoms: C13_17  and  C14_18 
REMARK       I    between atoms: C14_18  and  N2_20 
REMARK    5  A    between atoms: N2_20  and  C15_21 
REMARK    6  A    between atoms: C15_21  and  C17_23 
ROOT
HETATM    1  C1  UNL     1       1.669   7.339   6.810  1.00  0.00     0.015 C 
HETATM    2  C2  UNL     1       2.201   7.240   7.883  1.00  0.00    -0.078 C 
HETATM    3  C3  UNL     1       2.887   7.118   9.189  1.00  0.00     0.128 C 
HETATM    4  C4  UNL     1       3.355   5.657   9.411  1.00  0.00     0.052 C 
HETATM    5  C5  UNL     1       2.321   4.996  10.345  1.00  0.00     0.010 C 
HETATM    6  C6  UNL     1       1.213   6.037  10.503  1.00  0.00     0.002 C 
HETATM    7  C7  UNL     1       0.294   5.942  11.727  1.00  0.00    -0.004 C 
HETATM    8  C8  UNL     1      -0.432   4.591  11.777  1.00  0.00     0.010 C 
HETATM    9  C9  UNL     1      -1.345   4.504  12.994  1.00  0.00     0.035 C 
HETATM   10  C10 UNL     1      -2.322   5.653  13.066  1.00  0.00    -0.069 C 
HETATM   11  C11 UNL     1      -3.622   5.400  13.303  1.00  0.00     0.030 C 
HETATM   12  C12 UNL     1      -4.610   6.484  13.533  1.00  0.00     0.032 C 
HETATM   13  N1  UNL     1      -5.842   6.136  13.778  1.00  0.00    -0.271 N 
ATOM     14  H1  UNL     1      -6.180   5.174  13.769  1.00  0.00     0.194 HD
HETATM   15  C23 UNL     1      -4.105   7.911  13.541  1.00  0.00     0.060 C 
HETATM   16  C24 UNL     1      -2.905   8.069  12.618  1.00  0.00     0.020 C 
HETATM   17  C25 UNL     1      -1.749   7.067  12.904  1.00  0.00    -0.016 C 
HETATM   18  C26 UNL     1      -1.057   7.459  14.228  1.00  0.00     0.020 C 
HETATM   19  C27 UNL     1      -0.750   7.100  11.682  1.00  0.00     0.002 C 
HETATM   20  C28 UNL     1      -0.082   8.485  11.456  1.00  0.00     0.007 C 
HETATM   21  C29 UNL     1       0.922   8.502  10.290  1.00  0.00     0.014 C 
HETATM   22  C30 UNL     1       1.968   7.382  10.420  1.00  0.00     0.003 C 
HETATM   23  C31 UNL     1       2.855   7.678  11.668  1.00  0.00     0.020 C 
ENDROOT
BRANCH   3  24
HETATM   24  O1  UNL     1       4.007   7.994   9.176  1.00  0.00    -0.377 OA
HETATM   25  H2  UNL     1       4.476   7.839   8.339  1.00  0.00     0.211 HD
ENDBRANCH   3  24
BRANCH  13  26
HETATM   26  O2  UNL     1      -6.646   7.253  14.055  1.00  0.00    -0.271 OA
BRANCH  26  27
HETATM   27  C13 UNL     1      -6.708   7.427  15.463  1.00  0.00     0.303 C 
BRANCH  27  28
HETATM   28  C14 UNL     1      -8.095   7.922  15.850  1.00  0.00     0.244 C 
HETATM   29  O3  UNL     1      -8.712   7.481  16.819  1.00  0.00    -0.271 OA
HETATM   30  N2  UNL     1      -8.608   8.902  15.026  1.00  0.00    -0.351 N 
HETATM   31  H16 UNL     1      -8.015   9.324  14.322  1.00  0.00     0.163 HD
BRANCH  30  32
HETATM   32  C15 UNL     1      -9.912   9.499  15.260  1.00  0.00     0.113 C 
HETATM   33  C16 UNL     1     -10.214   9.592  16.761  1.00  0.00     0.037 C 
BRANCH  32  34
HETATM   34  C17 UNL     1     -10.964   8.731  14.477  1.00  0.00    -0.036 A 
HETATM   35  C18 UNL     1     -11.367   7.434  14.831  1.00  0.00     0.009 A 
HETATM   36  C19 UNL     1     -12.322   6.751  14.072  1.00  0.00     0.001 A 
HETATM   37  C20 UNL     1     -12.878   7.351  12.945  1.00  0.00     0.000 A 
HETATM   38  C21 UNL     1     -12.474   8.630  12.568  1.00  0.00     0.001 A 
HETATM   39  C22 UNL     1     -11.520   9.313  13.325  1.00  0.00     0.009 A 
ENDBRANCH  32  34
ENDBRANCH  30  32
ENDBRANCH  27  28
ENDBRANCH  26  27
ENDBRANCH  13  26
TORSDOF 6
ENDMDL
