MODEL 1
REMARK minimizedAffinity -8.34230709
REMARK CNNscore 0.705924511
REMARK CNNaffinity 7.29691267
REMARK  11 active torsions:
REMARK  status: ('A' for Active; 'I' for Inactive)
REMARK    1  A    between atoms: C4_4  and  C5_5 
REMARK    2  A    between atoms: C5_5  and  C6_6 
REMARK    3  A    between atoms: C7_7  and  O1_8 
REMARK    4  A    between atoms: C12_13  and  C14_15 
REMARK    5  A    between atoms: C14_15  and  C15_16 
REMARK    6  A    between atoms: C15_16  and  C16_17 
REMARK    7  A    between atoms: C16_17  and  C17_18 
REMARK    8  A    between atoms: C17_18  and  O2_21 
REMARK    9  A    between atoms: C23_26  and  C24_27 
REMARK   10  A    between atoms: C26_29  and  O4_30 
REMARK   11  A    between atoms: C28_32  and  O5_33 
ROOT
HETATM    1  C6  UNL     1      -4.741   8.254  14.574  1.00  0.00    -0.006 A 
HETATM    2  C7  UNL     1      -5.873   8.979  15.001  1.00  0.00     0.107 A 
HETATM    3  C8  UNL     1      -7.179   8.487  14.882  1.00  0.00     0.117 A 
HETATM    4  C9  UNL     1      -7.413   7.238  14.321  1.00  0.00     0.035 A 
HETATM    5  C10 UNL     1      -8.753   6.717  14.163  1.00  0.00     0.016 C 
HETATM    6  C11 UNL     1      -9.747   7.453  14.667  1.00  0.00     0.012 C 
HETATM    7  C12 UNL     1      -9.538   8.772  15.388  1.00  0.00     0.082 C 
HETATM    8  C13 UNL     1     -10.419   9.841  14.723  1.00  0.00     0.051 C 
HETATM    9  O3  UNL     1      -8.187   9.308  15.318  1.00  0.00    -0.333 OA
HETATM   10  C20 UNL     1      -6.299   6.515  13.897  1.00  0.00     0.100 A 
HETATM   11  C21 UNL     1      -4.990   6.979  14.003  1.00  0.00     0.011 A 
HETATM   12  C22 UNL     1      -4.178   5.944  13.457  1.00  0.00     0.053 A 
HETATM   13  C23 UNL     1      -5.021   4.925  13.056  1.00  0.00     0.087 A 
HETATM   14  O6  UNL     1      -6.313   5.276  13.327  1.00  0.00    -0.308 OA
ENDROOT
BRANCH  13  15
HETATM   15  C24 UNL     1      -4.819   3.621  12.430  1.00  0.00     0.003 A 
HETATM   16  C25 UNL     1      -5.903   2.791  12.108  1.00  0.00     0.051 A 
HETATM   17  C26 UNL     1      -5.692   1.548  11.513  1.00  0.00     0.069 A 
HETATM   18  C27 UNL     1      -4.408   1.100  11.224  1.00  0.00     0.073 A 
HETATM   19  C28 UNL     1      -3.332   1.920  11.541  1.00  0.00     0.069 A 
HETATM   20  C29 UNL     1      -3.525   3.166  12.137  1.00  0.00     0.051 A 
BRANCH  17  21
HETATM   21  O4  UNL     1      -6.790   0.788  11.232  1.00  0.00    -0.361 OA
HETATM   22  H31 UNL     1      -6.503  -0.044  10.819  1.00  0.00     0.217 HD
ENDBRANCH  17  21
BRANCH  19  23
HETATM   23  O5  UNL     1      -2.046   1.541  11.283  1.00  0.00    -0.361 OA
HETATM   24  H33 UNL     1      -2.051   0.655  10.884  1.00  0.00     0.217 HD
ENDBRANCH  19  23
ENDBRANCH  13  15
BRANCH   1  25
HETATM   25  C5  UNL     1      -3.346   8.812  14.747  1.00  0.00     0.070 C 
BRANCH  25  26
HETATM   26  C4  UNL     1      -2.670   9.069  13.426  1.00  0.00    -0.020 C 
HETATM   27  C2  UNL     1      -1.562   8.486  12.927  1.00  0.00    -0.091 C 
HETATM   28  C1  UNL     1      -0.766   7.407  13.608  1.00  0.00     0.042 C 
HETATM   29  C3  UNL     1      -1.030   8.885  11.575  1.00  0.00     0.042 C 
ENDBRANCH  25  26
ENDBRANCH   1  25
BRANCH   2  30
HETATM   30  O1  UNL     1      -5.698  10.226  15.554  1.00  0.00    -0.357 OA
HETATM   31  H10 UNL     1      -6.595  10.533  15.791  1.00  0.00     0.217 HD
ENDBRANCH   2  30
BRANCH   7  32
HETATM   32  C14 UNL     1      -9.856   8.651  16.901  1.00  0.00     0.042 C 
BRANCH  32  33
HETATM   33  C15 UNL     1     -10.748   9.748  17.492  1.00  0.00     0.006 C 
BRANCH  33  34
HETATM   34  C16 UNL     1     -11.545   9.319  18.737  1.00  0.00     0.037 C 
BRANCH  34  35
HETATM   35  C17 UNL     1     -11.546  10.278  19.946  1.00  0.00     0.051 C 
HETATM   36  C18 UNL     1     -12.992  10.573  20.368  1.00  0.00     0.045 C 
HETATM   37  C19 UNL     1     -10.818  11.591  19.659  1.00  0.00     0.045 C 
BRANCH  35  38
HETATM   38  O2  UNL     1     -10.895   9.660  21.058  1.00  0.00    -0.391 OA
HETATM   39  H28 UNL     1     -11.373   8.838  21.270  1.00  0.00     0.210 HD
ENDBRANCH  35  38
ENDBRANCH  34  35
ENDBRANCH  33  34
ENDBRANCH  32  33
ENDBRANCH   7  32
TORSDOF 11
ENDMDL
MODEL 2
REMARK minimizedAffinity -9.27744579
REMARK CNNscore 0.687010169
REMARK CNNaffinity 7.04705572
REMARK  11 active torsions:
REMARK  status: ('A' for Active; 'I' for Inactive)
REMARK    1  A    between atoms: C4_4  and  C5_5 
REMARK    2  A    between atoms: C5_5  and  C6_6 
REMARK    3  A    between atoms: C7_7  and  O1_8 
REMARK    4  A    between atoms: C12_13  and  C14_15 
REMARK    5  A    between atoms: C14_15  and  C15_16 
REMARK    6  A    between atoms: C15_16  and  C16_17 
REMARK    7  A    between atoms: C16_17  and  C17_18 
REMARK    8  A    between atoms: C17_18  and  O2_21 
REMARK    9  A    between atoms: C23_26  and  C24_27 
REMARK   10  A    between atoms: C26_29  and  O4_30 
REMARK   11  A    between atoms: C28_32  and  O5_33 
ROOT
HETATM    1  C6  UNL     1      -1.049   7.340  12.930  1.00  0.00    -0.006 A 
HETATM    2  C7  UNL     1      -0.939   8.483  13.751  1.00  0.00     0.107 A 
HETATM    3  C8  UNL     1      -1.961   8.899  14.613  1.00  0.00     0.117 A 
HETATM    4  C9  UNL     1      -3.152   8.186  14.691  1.00  0.00     0.035 A 
HETATM    5  C10 UNL     1      -4.232   8.609  15.554  1.00  0.00     0.016 C 
HETATM    6  C11 UNL     1      -3.996   9.661  16.342  1.00  0.00     0.012 C 
HETATM    7  C12 UNL     1      -2.676  10.409  16.377  1.00  0.00     0.082 C 
HETATM    8  C13 UNL     1      -2.950  11.903  16.147  1.00  0.00     0.051 C 
HETATM    9  O3  UNL     1      -1.729  10.040  15.336  1.00  0.00    -0.333 OA
HETATM   10  C20 UNL     1      -3.267   7.056  13.884  1.00  0.00     0.100 A 
HETATM   11  C21 UNL     1      -2.268   6.619  13.018  1.00  0.00     0.011 A 
HETATM   12  C22 UNL     1      -2.794   5.450  12.395  1.00  0.00     0.053 A 
HETATM   13  C23 UNL     1      -4.060   5.243  12.907  1.00  0.00     0.087 A 
HETATM   14  O6  UNL     1      -4.346   6.223  13.815  1.00  0.00    -0.308 OA
ENDROOT
BRANCH  13  15
HETATM   15  C24 UNL     1      -5.101   4.244  12.681  1.00  0.00     0.003 A 
HETATM   16  C25 UNL     1      -6.385   4.391  13.226  1.00  0.00     0.051 A 
HETATM   17  C26 UNL     1      -7.365   3.425  13.003  1.00  0.00     0.069 A 
HETATM   18  C27 UNL     1      -7.100   2.298  12.236  1.00  0.00     0.073 A 
HETATM   19  C28 UNL     1      -5.829   2.149  11.692  1.00  0.00     0.069 A 
HETATM   20  C29 UNL     1      -4.836   3.105  11.907  1.00  0.00     0.051 A 
BRANCH  17  21
HETATM   21  O4  UNL     1      -8.591   3.628  13.568  1.00  0.00    -0.361 OA
HETATM   22  H31 UNL     1      -9.176   2.889  13.331  1.00  0.00     0.217 HD
ENDBRANCH  17  21
BRANCH  19  23
HETATM   23  O5  UNL     1      -5.502   1.066  10.928  1.00  0.00    -0.361 OA
HETATM   24  H33 UNL     1      -6.272   0.475  10.869  1.00  0.00     0.217 HD
ENDBRANCH  19  23
ENDBRANCH  13  15
BRANCH   1  25
HETATM   25  C5  UNL     1       0.090   6.911  12.034  1.00  0.00     0.070 C 
BRANCH  25  26
HETATM   26  C4  UNL     1       0.044   7.593  10.692  1.00  0.00    -0.020 C 
HETATM   27  C2  UNL     1       0.857   7.410   9.633  1.00  0.00    -0.091 C 
HETATM   28  C1  UNL     1       2.001   6.435   9.575  1.00  0.00     0.042 C 
HETATM   29  C3  UNL     1       0.654   8.198   8.365  1.00  0.00     0.042 C 
ENDBRANCH  25  26
ENDBRANCH   1  25
BRANCH   2  30
HETATM   30  O1  UNL     1       0.214   9.230  13.704  1.00  0.00    -0.357 OA
HETATM   31  H10 UNL     1       0.084   9.948  14.353  1.00  0.00     0.217 HD
ENDBRANCH   2  30
BRANCH   7  32
HETATM   32  C14 UNL     1      -1.928  10.180  17.716  1.00  0.00     0.042 C 
BRANCH  32  33
HETATM   33  C15 UNL     1      -0.903  11.251  18.107  1.00  0.00     0.006 C 
BRANCH  33  34
HETATM   34  C16 UNL     1       0.557  10.880  17.790  1.00  0.00     0.037 C 
BRANCH  34  35
HETATM   35  C17 UNL     1       1.571  10.925  18.953  1.00  0.00     0.051 C 
HETATM   36  C18 UNL     1       0.819  10.953  20.290  1.00  0.00     0.045 C 
HETATM   37  C19 UNL     1       2.512  12.128  18.870  1.00  0.00     0.045 C 
BRANCH  35  38
HETATM   38  O2  UNL     1       2.378   9.747  18.941  1.00  0.00    -0.391 OA
HETATM   39  H28 UNL     1       1.789   8.976  19.028  1.00  0.00     0.210 HD
ENDBRANCH  35  38
ENDBRANCH  34  35
ENDBRANCH  33  34
ENDBRANCH  32  33
ENDBRANCH   7  32
TORSDOF 11
ENDMDL
MODEL 3
REMARK minimizedAffinity -10.0768538
REMARK CNNscore 0.679843605
REMARK CNNaffinity 7.30641937
REMARK  11 active torsions:
REMARK  status: ('A' for Active; 'I' for Inactive)
REMARK    1  A    between atoms: C4_4  and  C5_5 
REMARK    2  A    between atoms: C5_5  and  C6_6 
REMARK    3  A    between atoms: C7_7  and  O1_8 
REMARK    4  A    between atoms: C12_13  and  C14_15 
REMARK    5  A    between atoms: C14_15  and  C15_16 
REMARK    6  A    between atoms: C15_16  and  C16_17 
REMARK    7  A    between atoms: C16_17  and  C17_18 
REMARK    8  A    between atoms: C17_18  and  O2_21 
REMARK    9  A    between atoms: C23_26  and  C24_27 
REMARK   10  A    between atoms: C26_29  and  O4_30 
REMARK   11  A    between atoms: C28_32  and  O5_33 
ROOT
HETATM    1  C6  UNL     1      -2.801   8.709  13.948  1.00  0.00    -0.006 A 
HETATM    2  C7  UNL     1      -1.425   8.954  13.754  1.00  0.00     0.107 A 
HETATM    3  C8  UNL     1      -0.560   8.015  13.180  1.00  0.00     0.117 A 
HETATM    4  C9  UNL     1      -1.037   6.774  12.772  1.00  0.00     0.035 A 
HETATM    5  C10 UNL     1      -0.161   5.776  12.200  1.00  0.00     0.016 C 
HETATM    6  C11 UNL     1       1.109   6.138  11.994  1.00  0.00     0.012 C 
HETATM    7  C12 UNL     1       1.656   7.515  12.319  1.00  0.00     0.082 C 
HETATM    8  C13 UNL     1       2.893   7.355  13.217  1.00  0.00     0.051 C 
HETATM    9  O3  UNL     1       0.758   8.376  13.073  1.00  0.00    -0.333 OA
HETATM   10  C20 UNL     1      -2.396   6.526  12.960  1.00  0.00     0.100 A 
HETATM   11  C21 UNL     1      -3.278   7.442  13.528  1.00  0.00     0.011 A 
HETATM   12  C22 UNL     1      -4.546   6.790  13.531  1.00  0.00     0.053 A 
HETATM   13  C23 UNL     1      -4.369   5.538  12.975  1.00  0.00     0.087 A 
HETATM   14  O6  UNL     1      -3.058   5.380  12.626  1.00  0.00    -0.308 OA
ENDROOT
BRANCH  13  15
HETATM   15  C24 UNL     1      -5.254   4.408  12.705  1.00  0.00     0.003 A 
HETATM   16  C25 UNL     1      -4.797   3.270  12.023  1.00  0.00     0.051 A 
HETATM   17  C26 UNL     1      -5.656   2.202  11.770  1.00  0.00     0.069 A 
HETATM   18  C27 UNL     1      -6.982   2.234  12.186  1.00  0.00     0.073 A 
HETATM   19  C28 UNL     1      -7.438   3.360  12.863  1.00  0.00     0.069 A 
HETATM   20  C29 UNL     1      -6.592   4.438  13.123  1.00  0.00     0.051 A 
BRANCH  17  21
HETATM   21  O4  UNL     1      -5.148   1.129  11.097  1.00  0.00    -0.361 OA
HETATM   22  H31 UNL     1      -5.846   0.460  10.993  1.00  0.00     0.217 HD
ENDBRANCH  17  21
BRANCH  19  23
HETATM   23  O5  UNL     1      -8.728   3.455  13.299  1.00  0.00    -0.361 OA
HETATM   24  H33 UNL     1      -9.210   2.651  13.043  1.00  0.00     0.217 HD
ENDBRANCH  19  23
ENDBRANCH  13  15
BRANCH   1  25
HETATM   25  C5  UNL     1      -3.704   9.764  14.547  1.00  0.00     0.070 C 
BRANCH  25  26
HETATM   26  C4  UNL     1      -3.719   9.708  16.052  1.00  0.00    -0.020 C 
HETATM   27  C2  UNL     1      -3.344  10.663  16.927  1.00  0.00    -0.091 C 
HETATM   28  C1  UNL     1      -2.839  12.031  16.557  1.00  0.00     0.042 C 
HETATM   29  C3  UNL     1      -3.427  10.416  18.411  1.00  0.00     0.042 C 
ENDBRANCH  25  26
ENDBRANCH   1  25
BRANCH   2  30
HETATM   30  O1  UNL     1      -0.900  10.162  14.150  1.00  0.00    -0.357 OA
HETATM   31  H10 UNL     1       0.047  10.124  13.910  1.00  0.00     0.217 HD
ENDBRANCH   2  30
BRANCH   7  32
HETATM   32  C14 UNL     1       2.002   8.308  11.031  1.00  0.00     0.042 C 
BRANCH  32  33
HETATM   33  C15 UNL     1       3.164   7.760  10.195  1.00  0.00     0.006 C 
BRANCH  33  34
HETATM   34  C16 UNL     1       2.733   6.975   8.943  1.00  0.00     0.037 C 
BRANCH  34  35
HETATM   35  C17 UNL     1       2.060   7.770   7.803  1.00  0.00     0.051 C 
HETATM   36  C18 UNL     1       0.654   8.204   8.238  1.00  0.00     0.045 C 
HETATM   37  C19 UNL     1       1.970   6.973   6.501  1.00  0.00     0.045 C 
BRANCH  35  38
HETATM   38  O2  UNL     1       2.808   8.955   7.529  1.00  0.00    -0.391 OA
HETATM   39  H28 UNL     1       2.841   9.487   8.345  1.00  0.00     0.210 HD
ENDBRANCH  35  38
ENDBRANCH  34  35
ENDBRANCH  33  34
ENDBRANCH  32  33
ENDBRANCH   7  32
TORSDOF 11
ENDMDL
MODEL 4
REMARK minimizedAffinity -10.0585899
REMARK CNNscore 0.67629391
REMARK CNNaffinity 7.31209612
REMARK  11 active torsions:
REMARK  status: ('A' for Active; 'I' for Inactive)
REMARK    1  A    between atoms: C4_4  and  C5_5 
REMARK    2  A    between atoms: C5_5  and  C6_6 
REMARK    3  A    between atoms: C7_7  and  O1_8 
REMARK    4  A    between atoms: C12_13  and  C14_15 
REMARK    5  A    between atoms: C14_15  and  C15_16 
REMARK    6  A    between atoms: C15_16  and  C16_17 
REMARK    7  A    between atoms: C16_17  and  C17_18 
REMARK    8  A    between atoms: C17_18  and  O2_21 
REMARK    9  A    between atoms: C23_26  and  C24_27 
REMARK   10  A    between atoms: C26_29  and  O4_30 
REMARK   11  A    between atoms: C28_32  and  O5_33 
ROOT
HETATM    1  C6  UNL     1      -2.781   8.735  13.954  1.00  0.00    -0.006 A 
HETATM    2  C7  UNL     1      -1.403   8.974  13.768  1.00  0.00     0.107 A 
HETATM    3  C8  UNL     1      -0.538   8.028  13.204  1.00  0.00     0.117 A 
HETATM    4  C9  UNL     1      -1.017   6.786  12.800  1.00  0.00     0.035 A 
HETATM    5  C10 UNL     1      -0.141   5.783  12.239  1.00  0.00     0.016 C 
HETATM    6  C11 UNL     1       1.131   6.138  12.039  1.00  0.00     0.012 C 
HETATM    7  C12 UNL     1       1.682   7.516  12.359  1.00  0.00     0.082 C 
HETATM    8  C13 UNL     1       2.912   7.355  13.266  1.00  0.00     0.051 C 
HETATM    9  O3  UNL     1       0.782   8.383  13.103  1.00  0.00    -0.333 OA
HETATM   10  C20 UNL     1      -2.378   6.545  12.980  1.00  0.00     0.100 A 
HETATM   11  C21 UNL     1      -3.260   7.467  13.538  1.00  0.00     0.011 A 
HETATM   12  C22 UNL     1      -4.530   6.820  13.537  1.00  0.00     0.053 A 
HETATM   13  C23 UNL     1      -4.355   5.564  12.989  1.00  0.00     0.087 A 
HETATM   14  O6  UNL     1      -3.042   5.399  12.649  1.00  0.00    -0.308 OA
ENDROOT
BRANCH  13  15
HETATM   15  C24 UNL     1      -5.242   4.436  12.719  1.00  0.00     0.003 A 
HETATM   16  C25 UNL     1      -6.578   4.440  13.144  1.00  0.00     0.051 A 
HETATM   17  C26 UNL     1      -7.410   3.353  12.881  1.00  0.00     0.069 A 
HETATM   18  C27 UNL     1      -6.941   2.241  12.191  1.00  0.00     0.073 A 
HETATM   19  C28 UNL     1      -5.617   2.234  11.767  1.00  0.00     0.069 A 
HETATM   20  C29 UNL     1      -4.771   3.313  12.023  1.00  0.00     0.051 A 
BRANCH  17  21
HETATM   21  O4  UNL     1      -8.698   3.420  13.328  1.00  0.00    -0.361 OA
HETATM   22  H31 UNL     1      -9.165   2.606  13.075  1.00  0.00     0.217 HD
ENDBRANCH  17  21
BRANCH  19  23
HETATM   23  O5  UNL     1      -5.093   1.174  11.084  1.00  0.00    -0.361 OA
HETATM   24  H33 UNL     1      -5.777   0.491  10.985  1.00  0.00     0.217 HD
ENDBRANCH  19  23
ENDBRANCH  13  15
BRANCH   1  25
HETATM   25  C5  UNL     1      -3.684   9.796  14.541  1.00  0.00     0.070 C 
BRANCH  25  26
HETATM   26  C4  UNL     1      -3.717   9.742  16.046  1.00  0.00    -0.020 C 
HETATM   27  C2  UNL     1      -3.323  10.686  16.925  1.00  0.00    -0.091 C 
HETATM   28  C1  UNL     1      -2.773  12.037  16.560  1.00  0.00     0.042 C 
HETATM   29  C3  UNL     1      -3.430  10.443  18.408  1.00  0.00     0.042 C 
ENDBRANCH  25  26
ENDBRANCH   1  25
BRANCH   2  30
HETATM   30  O1  UNL     1      -0.876  10.181  14.160  1.00  0.00    -0.357 OA
HETATM   31  H10 UNL     1       0.072  10.139  13.926  1.00  0.00     0.217 HD
ENDBRANCH   2  30
BRANCH   7  32
HETATM   32  C14 UNL     1       2.039   8.299  11.070  1.00  0.00     0.042 C 
BRANCH  32  33
HETATM   33  C15 UNL     1       3.161   7.706  10.210  1.00  0.00     0.006 C 
BRANCH  33  34
HETATM   34  C16 UNL     1       2.672   6.941   8.967  1.00  0.00     0.037 C 
BRANCH  34  35
HETATM   35  C17 UNL     1       2.047   7.767   7.823  1.00  0.00     0.051 C 
HETATM   36  C18 UNL     1       0.650   8.248   8.239  1.00  0.00     0.045 C 
HETATM   37  C19 UNL     1       1.949   6.984   6.514  1.00  0.00     0.045 C 
BRANCH  35  38
HETATM   38  O2  UNL     1       2.840   8.928   7.571  1.00  0.00    -0.391 OA
HETATM   39  H28 UNL     1       2.879   9.452   8.391  1.00  0.00     0.210 HD
ENDBRANCH  35  38
ENDBRANCH  34  35
ENDBRANCH  33  34
ENDBRANCH  32  33
ENDBRANCH   7  32
TORSDOF 11
ENDMDL
MODEL 5
REMARK minimizedAffinity -8.11023521
REMARK CNNscore 0.603627145
REMARK CNNaffinity 7.28733683
REMARK  11 active torsions:
REMARK  status: ('A' for Active; 'I' for Inactive)
REMARK    1  A    between atoms: C4_4  and  C5_5 
REMARK    2  A    between atoms: C5_5  and  C6_6 
REMARK    3  A    between atoms: C7_7  and  O1_8 
REMARK    4  A    between atoms: C12_13  and  C14_15 
REMARK    5  A    between atoms: C14_15  and  C15_16 
REMARK    6  A    between atoms: C15_16  and  C16_17 
REMARK    7  A    between atoms: C16_17  and  C17_18 
REMARK    8  A    between atoms: C17_18  and  O2_21 
REMARK    9  A    between atoms: C23_26  and  C24_27 
REMARK   10  A    between atoms: C26_29  and  O4_30 
REMARK   11  A    between atoms: C28_32  and  O5_33 
ROOT
HETATM    1  C6  UNL     1      -7.210   8.176  15.163  1.00  0.00    -0.006 A 
HETATM    2  C7  UNL     1      -8.497   8.752  15.104  1.00  0.00     0.107 A 
HETATM    3  C8  UNL     1      -9.535   8.212  14.335  1.00  0.00     0.117 A 
HETATM    4  C9  UNL     1      -9.329   7.064  13.578  1.00  0.00     0.035 A 
HETATM    5  C10 UNL     1     -10.376   6.501  12.755  1.00  0.00     0.016 C 
HETATM    6  C11 UNL     1     -11.577   7.081  12.829  1.00  0.00     0.012 C 
HETATM    7  C12 UNL     1     -11.885   8.269  13.722  1.00  0.00     0.082 C 
HETATM    8  C13 UNL     1     -12.505   9.383  12.863  1.00  0.00     0.051 C 
HETATM    9  O3  UNL     1     -10.729   8.886  14.352  1.00  0.00    -0.333 OA
HETATM   10  C20 UNL     1      -8.060   6.490  13.633  1.00  0.00     0.100 A 
HETATM   11  C21 UNL     1      -7.010   7.005  14.389  1.00  0.00     0.011 A 
HETATM   12  C22 UNL     1      -5.913   6.126  14.157  1.00  0.00     0.053 A 
HETATM   13  C23 UNL     1      -6.347   5.143  13.289  1.00  0.00     0.087 A 
HETATM   14  O6  UNL     1      -7.656   5.366  12.972  1.00  0.00    -0.308 OA
ENDROOT
BRANCH  13  15
HETATM   15  C24 UNL     1      -5.719   3.978  12.671  1.00  0.00     0.003 A 
HETATM   16  C25 UNL     1      -4.326   3.883  12.539  1.00  0.00     0.051 A 
HETATM   17  C26 UNL     1      -3.744   2.765  11.944  1.00  0.00     0.069 A 
HETATM   18  C27 UNL     1      -4.524   1.717  11.469  1.00  0.00     0.073 A 
HETATM   19  C28 UNL     1      -5.906   1.807  11.600  1.00  0.00     0.069 A 
HETATM   20  C29 UNL     1      -6.504   2.919  12.191  1.00  0.00     0.051 A 
BRANCH  17  21
HETATM   21  O4  UNL     1      -2.383   2.740  11.842  1.00  0.00    -0.361 OA
HETATM   22  H31 UNL     1      -2.112   1.910  11.416  1.00  0.00     0.217 HD
ENDBRANCH  17  21
BRANCH  19  23
HETATM   23  O5  UNL     1      -6.729   0.812  11.156  1.00  0.00    -0.361 OA
HETATM   24  H33 UNL     1      -6.191   0.109  10.755  1.00  0.00     0.217 HD
ENDBRANCH  19  23
ENDBRANCH  13  15
BRANCH   1  25
HETATM   25  C5  UNL     1      -6.127   8.777  16.029  1.00  0.00     0.070 C 
BRANCH  25  26
HETATM   26  C4  UNL     1      -4.950   9.252  15.218  1.00  0.00    -0.020 C 
HETATM   27  C2  UNL     1      -3.834   9.874  15.649  1.00  0.00    -0.091 C 
HETATM   28  C1  UNL     1      -3.525  10.210  17.081  1.00  0.00     0.042 C 
HETATM   29  C3  UNL     1      -2.759  10.281  14.674  1.00  0.00     0.042 C 
ENDBRANCH  25  26
ENDBRANCH   1  25
BRANCH   2  30
HETATM   30  O1  UNL     1      -8.751   9.895  15.825  1.00  0.00    -0.357 OA
HETATM   31  H10 UNL     1      -9.691  10.104  15.656  1.00  0.00     0.217 HD
ENDBRANCH   2  30
BRANCH   7  32
HETATM   32  C14 UNL     1     -12.829   7.875  14.888  1.00  0.00     0.042 C 
BRANCH  32  33
HETATM   33  C15 UNL     1     -14.317   7.755  14.540  1.00  0.00     0.006 C 
BRANCH  33  34
HETATM   34  C16 UNL     1     -14.613   6.879  13.309  1.00  0.00     0.037 C 
BRANCH  34  35
HETATM   35  C17 UNL     1     -15.910   7.171  12.524  1.00  0.00     0.051 C 
HETATM   36  C18 UNL     1     -16.386   8.598  12.828  1.00  0.00     0.045 C 
HETATM   37  C19 UNL     1     -17.029   6.179  12.841  1.00  0.00     0.045 C 
BRANCH  35  38
HETATM   38  O2  UNL     1     -15.655   7.097  11.120  1.00  0.00    -0.391 OA
HETATM   39  H28 UNL     1     -14.967   7.751  10.902  1.00  0.00     0.210 HD
ENDBRANCH  35  38
ENDBRANCH  34  35
ENDBRANCH  33  34
ENDBRANCH  32  33
ENDBRANCH   7  32
TORSDOF 11
ENDMDL
MODEL 6
REMARK minimizedAffinity -8.6290226
REMARK CNNscore 0.593851507
REMARK CNNaffinity 6.9283967
REMARK  11 active torsions:
REMARK  status: ('A' for Active; 'I' for Inactive)
REMARK    1  A    between atoms: C4_4  and  C5_5 
REMARK    2  A    between atoms: C5_5  and  C6_6 
REMARK    3  A    between atoms: C7_7  and  O1_8 
REMARK    4  A    between atoms: C12_13  and  C14_15 
REMARK    5  A    between atoms: C14_15  and  C15_16 
REMARK    6  A    between atoms: C15_16  and  C16_17 
REMARK    7  A    between atoms: C16_17  and  C17_18 
REMARK    8  A    between atoms: C17_18  and  O2_21 
REMARK    9  A    between atoms: C23_26  and  C24_27 
REMARK   10  A    between atoms: C26_29  and  O4_30 
REMARK   11  A    between atoms: C28_32  and  O5_33 
ROOT
HETATM    1  C6  UNL     1      -0.673   7.227  12.327  1.00  0.00    -0.006 A 
HETATM    2  C7  UNL     1      -0.515   8.481  12.953  1.00  0.00     0.107 A 
HETATM    3  C8  UNL     1      -1.521   9.076  13.725  1.00  0.00     0.117 A 
HETATM    4  C9  UNL     1      -2.743   8.438  13.904  1.00  0.00     0.035 A 
HETATM    5  C10 UNL     1      -3.807   9.042  14.674  1.00  0.00     0.016 C 
HETATM    6  C11 UNL     1      -3.527  10.197  15.284  1.00  0.00     0.012 C 
HETATM    7  C12 UNL     1      -2.174  10.882  15.213  1.00  0.00     0.082 C 
HETATM    8  C13 UNL     1      -2.380  12.330  14.741  1.00  0.00     0.051 C 
HETATM    9  O3  UNL     1      -1.241  10.308  14.257  1.00  0.00    -0.333 OA
HETATM   10  C20 UNL     1      -2.905   7.198  13.288  1.00  0.00     0.100 A 
HETATM   11  C21 UNL     1      -1.923   6.584  12.516  1.00  0.00     0.011 A 
HETATM   12  C22 UNL     1      -2.498   5.353  12.084  1.00  0.00     0.053 A 
HETATM   13  C23 UNL     1      -3.775   5.288  12.608  1.00  0.00     0.087 A 
HETATM   14  O6  UNL     1      -4.020   6.413  13.343  1.00  0.00    -0.308 OA
ENDROOT
BRANCH  13  15
HETATM   15  C24 UNL     1      -4.859   4.312  12.534  1.00  0.00     0.003 A 
HETATM   16  C25 UNL     1      -4.739   3.144  11.766  1.00  0.00     0.051 A 
HETATM   17  C26 UNL     1      -5.785   2.225  11.705  1.00  0.00     0.069 A 
HETATM   18  C27 UNL     1      -6.969   2.438  12.401  1.00  0.00     0.073 A 
HETATM   19  C28 UNL     1      -7.091   3.594  13.164  1.00  0.00     0.069 A 
HETATM   20  C29 UNL     1      -6.055   4.524  13.235  1.00  0.00     0.051 A 
BRANCH  17  21
HETATM   21  O4  UNL     1      -5.604   1.113  10.934  1.00  0.00    -0.361 OA
HETATM   22  H31 UNL     1      -6.401   0.559  10.983  1.00  0.00     0.217 HD
ENDBRANCH  17  21
BRANCH  19  23
HETATM   23  O5  UNL     1      -8.227   3.863  13.872  1.00  0.00    -0.361 OA
HETATM   24  H33 UNL     1      -8.869   3.148  13.726  1.00  0.00     0.217 HD
ENDBRANCH  19  23
ENDBRANCH  13  15
BRANCH   1  25
HETATM   25  C5  UNL     1       0.450   6.609  11.525  1.00  0.00     0.070 C 
BRANCH  25  26
HETATM   26  C4  UNL     1       0.515   7.158  10.124  1.00  0.00    -0.020 C 
HETATM   27  C2  UNL     1       1.546   7.114   9.257  1.00  0.00    -0.091 C 
HETATM   28  C1  UNL     1       2.876   6.464   9.520  1.00  0.00     0.042 C 
HETATM   29  C3  UNL     1       1.422   7.731   7.888  1.00  0.00     0.042 C 
ENDBRANCH  25  26
ENDBRANCH   1  25
BRANCH   2  30
HETATM   30  O1  UNL     1       0.671   9.159  12.800  1.00  0.00    -0.357 OA
HETATM   31  H10 UNL     1       0.570   9.979  13.323  1.00  0.00     0.217 HD
ENDBRANCH   2  30
BRANCH   7  32
HETATM   32  C14 UNL     1      -1.443  10.840  16.580  1.00  0.00     0.042 C 
BRANCH  32  33
HETATM   33  C15 UNL     1      -0.142  11.645  16.673  1.00  0.00     0.006 C 
BRANCH  33  34
HETATM   34  C16 UNL     1      -0.247  12.929  17.515  1.00  0.00     0.037 C 
BRANCH  34  35
HETATM   35  C17 UNL     1      -0.604  12.772  19.009  1.00  0.00     0.051 C 
HETATM   36  C18 UNL     1      -0.284  14.075  19.754  1.00  0.00     0.045 C 
HETATM   37  C19 UNL     1       0.133  11.609  19.673  1.00  0.00     0.045 C 
BRANCH  35  38
HETATM   38  O2  UNL     1      -2.004  12.531  19.152  1.00  0.00    -0.391 OA
HETATM   39  H28 UNL     1      -2.483  13.285  18.762  1.00  0.00     0.210 HD
ENDBRANCH  35  38
ENDBRANCH  34  35
ENDBRANCH  33  34
ENDBRANCH  32  33
ENDBRANCH   7  32
TORSDOF 11
ENDMDL
MODEL 7
REMARK minimizedAffinity -8.10503769
REMARK CNNscore 0.529627442
REMARK CNNaffinity 7.01151276
REMARK  11 active torsions:
REMARK  status: ('A' for Active; 'I' for Inactive)
REMARK    1  A    between atoms: C4_4  and  C5_5 
REMARK    2  A    between atoms: C5_5  and  C6_6 
REMARK    3  A    between atoms: C7_7  and  O1_8 
REMARK    4  A    between atoms: C12_13  and  C14_15 
REMARK    5  A    between atoms: C14_15  and  C15_16 
REMARK    6  A    between atoms: C15_16  and  C16_17 
REMARK    7  A    between atoms: C16_17  and  C17_18 
REMARK    8  A    between atoms: C17_18  and  O2_21 
REMARK    9  A    between atoms: C23_26  and  C24_27 
REMARK   10  A    between atoms: C26_29  and  O4_30 
REMARK   11  A    between atoms: C28_32  and  O5_33 
ROOT
HETATM    1  C6  UNL     1      -4.825   8.300  14.657  1.00  0.00    -0.006 A 
HETATM    2  C7  UNL     1      -5.976   9.014  15.052  1.00  0.00     0.107 A 
HETATM    3  C8  UNL     1      -7.273   8.510  14.894  1.00  0.00     0.117 A 
HETATM    4  C9  UNL     1      -7.479   7.258  14.324  1.00  0.00     0.035 A 
HETATM    5  C10 UNL     1      -8.808   6.726  14.126  1.00  0.00     0.016 C 
HETATM    6  C11 UNL     1      -9.824   7.451  14.602  1.00  0.00     0.012 C 
HETATM    7  C12 UNL     1      -9.648   8.772  15.330  1.00  0.00     0.082 C 
HETATM    8  C13 UNL     1     -10.520   9.833  14.640  1.00  0.00     0.051 C 
HETATM    9  O3  UNL     1      -8.301   9.320  15.300  1.00  0.00    -0.333 OA
HETATM   10  C20 UNL     1      -6.345   6.547  13.932  1.00  0.00     0.100 A 
HETATM   11  C21 UNL     1      -5.045   7.024  14.078  1.00  0.00     0.011 A 
HETATM   12  C22 UNL     1      -4.207   5.997  13.554  1.00  0.00     0.053 A 
HETATM   13  C23 UNL     1      -5.028   4.970  13.128  1.00  0.00     0.087 A 
HETATM   14  O6  UNL     1      -6.331   5.308  13.361  1.00  0.00    -0.308 OA
ENDROOT
BRANCH  13  15
HETATM   15  C24 UNL     1      -4.796   3.669  12.507  1.00  0.00     0.003 A 
HETATM   16  C25 UNL     1      -3.498   3.197  12.265  1.00  0.00     0.051 A 
HETATM   17  C26 UNL     1      -3.295   1.954  11.668  1.00  0.00     0.069 A 
HETATM   18  C27 UNL     1      -4.368   1.151  11.300  1.00  0.00     0.073 A 
HETATM   19  C28 UNL     1      -5.656   1.615  11.538  1.00  0.00     0.069 A 
HETATM   20  C29 UNL     1      -5.877   2.857  12.133  1.00  0.00     0.051 A 
BRANCH  17  21
HETATM   21  O4  UNL     1      -2.005   1.558  11.456  1.00  0.00    -0.361 OA
HETATM   22  H31 UNL     1      -2.007   0.679  11.042  1.00  0.00     0.217 HD
ENDBRANCH  17  21
BRANCH  19  23
HETATM   23  O5  UNL     1      -6.754   0.876  11.202  1.00  0.00    -0.361 OA
HETATM   24  H33 UNL     1      -6.463   0.047  10.787  1.00  0.00     0.217 HD
ENDBRANCH  19  23
ENDBRANCH  13  15
BRANCH   1  25
HETATM   25  C5  UNL     1      -3.441   8.870  14.872  1.00  0.00     0.070 C 
BRANCH  25  26
HETATM   26  C4  UNL     1      -3.104   9.004  16.333  1.00  0.00    -0.020 C 
HETATM   27  C2  UNL     1      -2.742  10.113  17.010  1.00  0.00    -0.091 C 
HETATM   28  C1  UNL     1      -2.622  11.490  16.418  1.00  0.00     0.042 C 
HETATM   29  C3  UNL     1      -2.436  10.045  18.484  1.00  0.00     0.042 C 
ENDBRANCH  25  26
ENDBRANCH   1  25
BRANCH   2  30
HETATM   30  O1  UNL     1      -5.829  10.261  15.611  1.00  0.00    -0.357 OA
HETATM   31  H10 UNL     1      -6.735  10.559  15.822  1.00  0.00     0.217 HD
ENDBRANCH   2  30
BRANCH   7  32
HETATM   32  C14 UNL     1     -10.009   8.645  16.833  1.00  0.00     0.042 C 
BRANCH  32  33
HETATM   33  C15 UNL     1     -10.719   9.851  17.459  1.00  0.00     0.006 C 
BRANCH  33  34
HETATM   34  C16 UNL     1     -12.178   9.588  17.870  1.00  0.00     0.037 C 
BRANCH  34  35
HETATM   35  C17 UNL     1     -12.491   9.516  19.380  1.00  0.00     0.051 C 
HETATM   36  C18 UNL     1     -13.795  10.270  19.672  1.00  0.00     0.045 C 
HETATM   37  C19 UNL     1     -11.365  10.086  20.243  1.00  0.00     0.045 C 
BRANCH  35  38
HETATM   38  O2  UNL     1     -12.687   8.157  19.772  1.00  0.00    -0.391 OA
HETATM   39  H28 UNL     1     -13.426   7.795  19.251  1.00  0.00     0.210 HD
ENDBRANCH  35  38
ENDBRANCH  34  35
ENDBRANCH  33  34
ENDBRANCH  32  33
ENDBRANCH   7  32
TORSDOF 11
ENDMDL
MODEL 8
REMARK minimizedAffinity -8.77377224
REMARK CNNscore 0.526893079
REMARK CNNaffinity 6.8139596
REMARK  11 active torsions:
REMARK  status: ('A' for Active; 'I' for Inactive)
REMARK    1  A    between atoms: C4_4  and  C5_5 
REMARK    2  A    between atoms: C5_5  and  C6_6 
REMARK    3  A    between atoms: C7_7  and  O1_8 
REMARK    4  A    between atoms: C12_13  and  C14_15 
REMARK    5  A    between atoms: C14_15  and  C15_16 
REMARK    6  A    between atoms: C15_16  and  C16_17 
REMARK    7  A    between atoms: C16_17  and  C17_18 
REMARK    8  A    between atoms: C17_18  and  O2_21 
REMARK    9  A    between atoms: C23_26  and  C24_27 
REMARK   10  A    between atoms: C26_29  and  O4_30 
REMARK   11  A    between atoms: C28_32  and  O5_33 
ROOT
HETATM    1  C6  UNL     1      -0.537   6.391  12.777  1.00  0.00    -0.006 A 
HETATM    2  C7  UNL     1      -0.329   7.677  13.319  1.00  0.00     0.107 A 
HETATM    3  C8  UNL     1      -1.362   8.442  13.875  1.00  0.00     0.117 A 
HETATM    4  C9  UNL     1      -2.662   7.951  13.913  1.00  0.00     0.035 A 
HETATM    5  C10 UNL     1      -3.751   8.730  14.458  1.00  0.00     0.016 C 
HETATM    6  C11 UNL     1      -3.432   9.904  15.010  1.00  0.00     0.012 C 
HETATM    7  C12 UNL     1      -2.014  10.439  15.096  1.00  0.00     0.082 C 
HETATM    8  C13 UNL     1      -1.982  11.848  14.484  1.00  0.00     0.051 C 
HETATM    9  O3  UNL     1      -1.023   9.685  14.344  1.00  0.00    -0.333 OA
HETATM   10  C20 UNL     1      -2.874   6.680  13.380  1.00  0.00     0.100 A 
HETATM   11  C21 UNL     1      -1.866   5.898  12.821  1.00  0.00     0.011 A 
HETATM   12  C22 UNL     1      -2.510   4.697  12.405  1.00  0.00     0.053 A 
HETATM   13  C23 UNL     1      -3.848   4.811  12.728  1.00  0.00     0.087 A 
HETATM   14  O6  UNL     1      -4.067   6.021  13.324  1.00  0.00    -0.308 OA
ENDROOT
BRANCH  13  15
HETATM   15  C24 UNL     1      -5.014   3.947  12.565  1.00  0.00     0.003 A 
HETATM   16  C25 UNL     1      -6.223   4.222  13.220  1.00  0.00     0.051 A 
HETATM   17  C26 UNL     1      -7.326   3.384  13.056  1.00  0.00     0.069 A 
HETATM   18  C27 UNL     1      -7.257   2.260  12.241  1.00  0.00     0.073 A 
HETATM   19  C28 UNL     1      -6.061   1.985  11.589  1.00  0.00     0.069 A 
HETATM   20  C29 UNL     1      -4.948   2.812  11.743  1.00  0.00     0.051 A 
BRANCH  17  21
HETATM   21  O4  UNL     1      -8.469   3.706  13.727  1.00  0.00    -0.361 OA
HETATM   22  H31 UNL     1      -9.154   3.048  13.522  1.00  0.00     0.217 HD
ENDBRANCH  17  21
BRANCH  19  23
HETATM   23  O5  UNL     1      -5.927   0.899  10.773  1.00  0.00    -0.361 OA
HETATM   24  H33 UNL     1      -6.763   0.404  10.764  1.00  0.00     0.217 HD
ENDBRANCH  19  23
ENDBRANCH  13  15
BRANCH   1  25
HETATM   25  C5  UNL     1       0.612   5.589  12.211  1.00  0.00     0.070 C 
BRANCH  25  26
HETATM   26  C4  UNL     1       0.890   5.934  10.772  1.00  0.00    -0.020 C 
HETATM   27  C2  UNL     1       2.072   6.238  10.198  1.00  0.00    -0.091 C 
HETATM   28  C1  UNL     1       3.398   6.269  10.907  1.00  0.00     0.042 C 
HETATM   29  C3  UNL     1       2.149   6.565   8.729  1.00  0.00     0.042 C 
ENDBRANCH  25  26
ENDBRANCH   1  25
BRANCH   2  30
HETATM   30  O1  UNL     1       0.936   8.214  13.297  1.00  0.00    -0.357 OA
HETATM   31  H10 UNL     1       0.855   9.086  13.731  1.00  0.00     0.217 HD
ENDBRANCH   2  30
BRANCH   7  32
HETATM   32  C14 UNL     1      -1.499  10.455  16.558  1.00  0.00     0.042 C 
BRANCH  32  33
HETATM   33  C15 UNL     1      -2.574  10.463  17.651  1.00  0.00     0.006 C 
BRANCH  33  34
HETATM   34  C16 UNL     1      -2.518  11.682  18.588  1.00  0.00     0.037 C 
BRANCH  34  35
HETATM   35  C17 UNL     1      -3.609  12.762  18.417  1.00  0.00     0.051 C 
HETATM   36  C18 UNL     1      -4.573  12.713  19.609  1.00  0.00     0.045 C 
HETATM   37  C19 UNL     1      -4.395  12.606  17.115  1.00  0.00     0.045 C 
BRANCH  35  38
HETATM   38  O2  UNL     1      -3.011  14.059  18.404  1.00  0.00    -0.391 OA
HETATM   39  H28 UNL     1      -2.535  14.182  19.246  1.00  0.00     0.210 HD
ENDBRANCH  35  38
ENDBRANCH  34  35
ENDBRANCH  33  34
ENDBRANCH  32  33
ENDBRANCH   7  32
TORSDOF 11
ENDMDL
MODEL 9
REMARK minimizedAffinity -7.68920708
REMARK CNNscore 0.481696725
REMARK CNNaffinity 7.43061972
REMARK  11 active torsions:
REMARK  status: ('A' for Active; 'I' for Inactive)
REMARK    1  A    between atoms: C4_4  and  C5_5 
REMARK    2  A    between atoms: C5_5  and  C6_6 
REMARK    3  A    between atoms: C7_7  and  O1_8 
REMARK    4  A    between atoms: C12_13  and  C14_15 
REMARK    5  A    between atoms: C14_15  and  C15_16 
REMARK    6  A    between atoms: C15_16  and  C16_17 
REMARK    7  A    between atoms: C16_17  and  C17_18 
REMARK    8  A    between atoms: C17_18  and  O2_21 
REMARK    9  A    between atoms: C23_26  and  C24_27 
REMARK   10  A    between atoms: C26_29  and  O4_30 
REMARK   11  A    between atoms: C28_32  and  O5_33 
ROOT
HETATM    1  C6  UNL     1      -6.096   8.019  15.108  1.00  0.00    -0.006 A 
HETATM    2  C7  UNL     1      -7.462   8.361  15.022  1.00  0.00     0.107 A 
HETATM    3  C8  UNL     1      -8.359   7.692  14.179  1.00  0.00     0.117 A 
HETATM    4  C9  UNL     1      -7.925   6.645  13.375  1.00  0.00     0.035 A 
HETATM    5  C10 UNL     1      -8.824   5.956  12.477  1.00  0.00     0.016 C 
HETATM    6  C11 UNL     1     -10.111   6.310  12.527  1.00  0.00     0.012 C 
HETATM    7  C12 UNL     1     -10.659   7.370  13.465  1.00  0.00     0.082 C 
HETATM    8  C13 UNL     1     -11.437   8.405  12.637  1.00  0.00     0.051 C 
HETATM    9  O3  UNL     1      -9.654   8.143  14.177  1.00  0.00    -0.333 OA
HETATM   10  C20 UNL     1      -6.576   6.302  13.457  1.00  0.00     0.100 A 
HETATM   11  C21 UNL     1      -5.663   6.949  14.285  1.00  0.00     0.011 A 
HETATM   12  C22 UNL     1      -4.418   6.292  14.058  1.00  0.00     0.053 A 
HETATM   13  C23 UNL     1      -4.638   5.301  13.121  1.00  0.00     0.087 A 
HETATM   14  O6  UNL     1      -5.955   5.308  12.758  1.00  0.00    -0.308 OA
ENDROOT
BRANCH  13  15
HETATM   15  C24 UNL     1      -3.791   4.303  12.474  1.00  0.00     0.003 A 
HETATM   16  C25 UNL     1      -4.236   2.988  12.272  1.00  0.00     0.051 A 
HETATM   17  C26 UNL     1      -3.412   2.048  11.655  1.00  0.00     0.069 A 
HETATM   18  C27 UNL     1      -2.136   2.386  11.222  1.00  0.00     0.073 A 
HETATM   19  C28 UNL     1      -1.692   3.689  11.419  1.00  0.00     0.069 A 
HETATM   20  C29 UNL     1      -2.502   4.642  12.036  1.00  0.00     0.051 A 
BRANCH  17  21
HETATM   21  O4  UNL     1      -3.905   0.785  11.496  1.00  0.00    -0.361 OA
HETATM   22  H31 UNL     1      -3.236   0.237  11.052  1.00  0.00     0.217 HD
ENDBRANCH  17  21
BRANCH  19  23
HETATM   23  O5  UNL     1      -0.450   4.087  11.017  1.00  0.00    -0.361 OA
HETATM   24  H33 UNL     1       0.013   3.330  10.619  1.00  0.00     0.217 HD
ENDBRANCH  19  23
ENDBRANCH  13  15
BRANCH   1  25
HETATM   25  C5  UNL     1      -5.168   8.750  16.053  1.00  0.00     0.070 C 
BRANCH  25  26
HETATM   26  C4  UNL     1      -4.114   9.534  15.318  1.00  0.00    -0.020 C 
HETATM   27  C2  UNL     1      -3.559  10.714  15.661  1.00  0.00    -0.091 C 
HETATM   28  C1  UNL     1      -3.881  11.497  16.904  1.00  0.00     0.042 C 
HETATM   29  C3  UNL     1      -2.512  11.352  14.784  1.00  0.00     0.042 C 
ENDBRANCH  25  26
ENDBRANCH   1  25
BRANCH   2  30
HETATM   30  O1  UNL     1      -7.941   9.397  15.788  1.00  0.00    -0.357 OA
HETATM   31  H10 UNL     1      -8.896   9.446  15.588  1.00  0.00     0.217 HD
ENDBRANCH   2  30
BRANCH   7  32
HETATM   32  C14 UNL     1     -11.557   6.748  14.565  1.00  0.00     0.042 C 
BRANCH  32  33
HETATM   33  C15 UNL     1     -13.052   7.073  14.477  1.00  0.00     0.006 C 
BRANCH  33  34
HETATM   34  C16 UNL     1     -13.739   6.565  13.197  1.00  0.00     0.037 C 
BRANCH  34  35
HETATM   35  C17 UNL     1     -15.147   7.113  12.880  1.00  0.00     0.051 C 
HETATM   36  C18 UNL     1     -15.183   8.624  13.145  1.00  0.00     0.045 C 
HETATM   37  C19 UNL     1     -16.245   6.425  13.692  1.00  0.00     0.045 C 
BRANCH  35  38
HETATM   38  O2  UNL     1     -15.447   6.915  11.498  1.00  0.00    -0.391 OA
HETATM   39  H28 UNL     1     -14.771   7.379  10.972  1.00  0.00     0.210 HD
ENDBRANCH  35  38
ENDBRANCH  34  35
ENDBRANCH  33  34
ENDBRANCH  32  33
ENDBRANCH   7  32
TORSDOF 11
ENDMDL
