MODEL 1
REMARK minimizedAffinity -10.3946867
REMARK  4 active torsions:
REMARK  status: ('A' for Active; 'I' for Inactive)
REMARK    1  A    between atoms: C4_4  and  O1_5 
REMARK    2  A    between atoms: C4_4  and  C5_6 
REMARK    3  A    between atoms: C5_6  and  C6_7 
REMARK    4  A    between atoms: C6_7  and  C8_9 
ROOT
HETATM    1  C8  UNL     1      -4.036   7.028  14.853  1.00  0.00    -0.001 C 
HETATM    2  C9  UNL     1      -3.553   5.719  15.531  1.00  0.00     0.007 C 
HETATM    3  C10 UNL     1      -2.135   5.437  14.972  1.00  0.00     0.015 C 
HETATM    4  C11 UNL     1      -1.745   6.715  14.187  1.00  0.00    -0.013 C 
HETATM    5  C12 UNL     1      -1.161   7.720  15.234  1.00  0.00     0.021 C 
HETATM    6  C13 UNL     1      -0.684   6.614  13.090  1.00  0.00    -0.070 C 
HETATM    7  C14 UNL     1       0.396   5.828  13.228  1.00  0.00    -0.022 C 
HETATM    8  C15 UNL     1       1.528   5.774  12.258  1.00  0.00     0.034 C 
HETATM    9  C16 UNL     1       1.269   6.451  10.887  1.00  0.00     0.013 C 
HETATM   10  C17 UNL     1       2.588   6.590  10.039  1.00  0.00     0.018 C 
HETATM   11  C18 UNL     1       2.291   6.226   8.562  1.00  0.00     0.023 C 
HETATM   12  C19 UNL     1       3.744   5.661  10.482  1.00  0.00     0.023 C 
HETATM   13  C20 UNL     1       3.131   8.025  10.098  1.00  0.00     0.135 C 
HETATM   14  O2  UNL     1       3.876   8.467   9.217  1.00  0.00    -0.297 OA
HETATM   15  C21 UNL     1       2.826   8.875  11.313  1.00  0.00     0.080 C 
HETATM   16  C22 UNL     1       1.380   8.813  11.809  1.00  0.00     0.017 C 
HETATM   17  C23 UNL     1       0.474   7.803  11.068  1.00  0.00    -0.031 C 
HETATM   18  C24 UNL     1       0.073   8.412   9.694  1.00  0.00     0.016 C 
HETATM   19  C25 UNL     1      -0.870   7.505  11.857  1.00  0.00     0.024 C 
HETATM   20  C26 UNL     1      -1.728   8.761  12.176  1.00  0.00     0.010 C 
HETATM   21  C27 UNL     1      -3.056   8.495  12.929  1.00  0.00     0.011 C 
HETATM   22  C28 UNL     1      -3.144   7.103  13.576  1.00  0.00    -0.029 C 
HETATM   23  C29 UNL     1      -3.616   6.054  12.513  1.00  0.00     0.016 C 
ENDROOT
BRANCH   1  24
HETATM   24  C6  UNL     1      -5.576   7.275  14.827  1.00  0.00    -0.008 C 
HETATM   25  C7  UNL     1      -5.835   8.770  15.095  1.00  0.00     0.010 C 
BRANCH  24  26
HETATM   26  C5  UNL     1      -6.432   6.373  15.743  1.00  0.00     0.078 C 
BRANCH  26  27
HETATM   27  C4  UNL     1      -7.344   5.332  15.056  1.00  0.00     0.191 A 
HETATM   28  C3  UNL     1      -8.303   5.982  14.131  1.00  0.00     0.054 A 
HETATM   29  C2  UNL     1      -8.132   5.554  12.882  1.00  0.00     0.015 A 
HETATM   30  C1  UNL     1      -8.833   5.921  11.635  1.00  0.00     0.054 C 
HETATM   31  C30 UNL     1      -7.046   4.572  12.935  1.00  0.00     0.291 A 
HETATM   32  O3  UNL     1      -6.600   4.462  14.214  1.00  0.00    -0.276 OA
HETATM   33  O4  UNL     1      -6.599   3.960  11.980  1.00  0.00    -0.260 OA
BRANCH  27  34
HETATM   34  O1  UNL     1      -8.107   4.597  15.989  1.00  0.00    -0.362 OA
HETATM   35  H5  UNL     1      -7.472   4.070  16.501  1.00  0.00     0.213 HD
ENDBRANCH  27  34
ENDBRANCH  26  27
ENDBRANCH  24  26
ENDBRANCH   1  24
TORSDOF 4
ENDMDL
MODEL 2
REMARK minimizedAffinity -9.86974907
REMARK  4 active torsions:
REMARK  status: ('A' for Active; 'I' for Inactive)
REMARK    1  A    between atoms: C4_4  and  O1_5 
REMARK    2  A    between atoms: C4_4  and  C5_6 
REMARK    3  A    between atoms: C5_6  and  C6_7 
REMARK    4  A    between atoms: C6_7  and  C8_9 
ROOT
HETATM    1  C8  UNL     1       1.348   7.405  12.805  1.00  0.00    -0.001 C 
HETATM    2  C9  UNL     1       1.114   8.907  12.497  1.00  0.00     0.007 C 
HETATM    3  C10 UNL     1      -0.376   9.190  12.816  1.00  0.00     0.015 C 
HETATM    4  C11 UNL     1      -0.889   7.914  13.531  1.00  0.00    -0.013 C 
HETATM    5  C12 UNL     1      -0.509   8.067  15.042  1.00  0.00     0.021 C 
HETATM    6  C13 UNL     1      -2.388   7.613  13.522  1.00  0.00    -0.070 C 
HETATM    7  C14 UNL     1      -3.301   8.589  13.643  1.00  0.00    -0.022 C 
HETATM    8  C15 UNL     1      -4.770   8.360  13.764  1.00  0.00     0.034 C 
HETATM    9  C16 UNL     1      -5.254   6.924  13.432  1.00  0.00     0.013 C 
HETATM   10  C17 UNL     1      -6.755   6.696  13.847  1.00  0.00     0.018 C 
HETATM   11  C18 UNL     1      -7.485   5.908  12.729  1.00  0.00     0.023 C 
HETATM   12  C19 UNL     1      -7.573   7.992  14.056  1.00  0.00     0.023 C 
HETATM   13  C20 UNL     1      -6.848   5.900  15.156  1.00  0.00     0.135 C 
HETATM   14  O2  UNL     1      -7.863   5.259  15.448  1.00  0.00    -0.297 OA
HETATM   15  C21 UNL     1      -5.711   5.991  16.152  1.00  0.00     0.080 C 
HETATM   16  C22 UNL     1      -4.307   5.900  15.552  1.00  0.00     0.017 C 
HETATM   17  C23 UNL     1      -4.255   5.845  14.007  1.00  0.00    -0.031 C 
HETATM   18  C24 UNL     1      -4.644   4.411  13.548  1.00  0.00     0.016 C 
HETATM   19  C25 UNL     1      -2.802   6.139  13.441  1.00  0.00     0.024 C 
HETATM   20  C26 UNL     1      -1.691   5.197  13.983  1.00  0.00     0.010 C 
HETATM   21  C27 UNL     1      -0.266   5.450  13.430  1.00  0.00     0.011 C 
HETATM   22  C28 UNL     1      -0.093   6.812  12.736  1.00  0.00    -0.029 C 
HETATM   23  C29 UNL     1      -0.578   6.714  11.251  1.00  0.00     0.016 C 
ENDROOT
BRANCH   1  24
HETATM   24  C6  UNL     1       2.575   6.732  12.115  1.00  0.00    -0.008 C 
HETATM   25  C7  UNL     1       3.680   7.792  11.944  1.00  0.00     0.010 C 
BRANCH  24  26
HETATM   26  C5  UNL     1       2.294   5.982  10.795  1.00  0.00     0.078 C 
BRANCH  26  27
HETATM   27  C4  UNL     1       3.206   6.308   9.591  1.00  0.00     0.191 A 
HETATM   28  C3  UNL     1       2.588   5.877   8.314  1.00  0.00     0.054 A 
HETATM   29  C2  UNL     1       2.400   6.913   7.498  1.00  0.00     0.015 A 
HETATM   30  C1  UNL     1       1.812   6.977   6.144  1.00  0.00     0.054 C 
HETATM   31  C30 UNL     1       2.912   8.087   8.208  1.00  0.00     0.291 A 
HETATM   32  O3  UNL     1       3.375   7.709   9.429  1.00  0.00    -0.276 OA
HETATM   33  O4  UNL     1       2.911   9.229   7.780  1.00  0.00    -0.260 OA
BRANCH  27  34
HETATM   34  O1  UNL     1       4.457   5.658   9.681  1.00  0.00    -0.362 OA
HETATM   35  H5  UNL     1       4.908   6.049  10.446  1.00  0.00     0.213 HD
ENDBRANCH  27  34
ENDBRANCH  26  27
ENDBRANCH  24  26
ENDBRANCH   1  24
TORSDOF 4
ENDMDL
MODEL 3
REMARK minimizedAffinity -9.69966888
REMARK  4 active torsions:
REMARK  status: ('A' for Active; 'I' for Inactive)
REMARK    1  A    between atoms: C4_4  and  O1_5 
REMARK    2  A    between atoms: C4_4  and  C5_6 
REMARK    3  A    between atoms: C5_6  and  C6_7 
REMARK    4  A    between atoms: C6_7  and  C8_9 
ROOT
HETATM    1  C8  UNL     1      -5.124   5.273  14.160  1.00  0.00    -0.001 C 
HETATM    2  C9  UNL     1      -4.699   6.018  15.452  1.00  0.00     0.007 C 
HETATM    3  C10 UNL     1      -5.962   6.754  15.966  1.00  0.00     0.015 C 
HETATM    4  C11 UNL     1      -7.129   6.213  15.102  1.00  0.00    -0.013 C 
HETATM    5  C12 UNL     1      -7.600   4.880  15.774  1.00  0.00     0.021 C 
HETATM    6  C13 UNL     1      -8.395   7.057  14.955  1.00  0.00    -0.070 C 
HETATM    7  C14 UNL     1      -8.892   7.763  15.983  1.00  0.00    -0.022 C 
HETATM    8  C15 UNL     1     -10.183   8.509  15.948  1.00  0.00     0.034 C 
HETATM    9  C16 UNL     1     -10.809   8.701  14.542  1.00  0.00     0.013 C 
HETATM   10  C17 UNL     1     -12.283   9.245  14.621  1.00  0.00     0.018 C 
HETATM   11  C18 UNL     1     -12.488  10.338  13.541  1.00  0.00     0.023 C 
HETATM   12  C19 UNL     1     -12.659   9.904  15.969  1.00  0.00     0.023 C 
HETATM   13  C20 UNL     1     -13.299   8.118  14.384  1.00  0.00     0.135 C 
HETATM   14  O2  UNL     1     -14.446   8.357  13.993  1.00  0.00    -0.297 OA
HETATM   15  C21 UNL     1     -12.913   6.697  14.739  1.00  0.00     0.080 C 
HETATM   16  C22 UNL     1     -11.509   6.273  14.304  1.00  0.00     0.017 C 
HETATM   17  C23 UNL     1     -10.650   7.392  13.672  1.00  0.00    -0.031 C 
HETATM   18  C24 UNL     1     -11.133   7.622  12.211  1.00  0.00     0.016 C 
HETATM   19  C25 UNL     1      -9.113   7.007  13.601  1.00  0.00     0.024 C 
HETATM   20  C26 UNL     1      -8.807   5.690  12.834  1.00  0.00     0.010 C 
HETATM   21  C27 UNL     1      -7.311   5.302  12.734  1.00  0.00     0.011 C 
HETATM   22  C28 UNL     1      -6.398   6.056  13.715  1.00  0.00    -0.029 C 
HETATM   23  C29 UNL     1      -6.007   7.448  13.113  1.00  0.00     0.016 C 
ENDROOT
BRANCH   1  24
HETATM   24  C6  UNL     1      -3.983   4.881  13.171  1.00  0.00    -0.008 C 
HETATM   25  C7  UNL     1      -3.353   6.173  12.617  1.00  0.00     0.010 C 
BRANCH  24  26
HETATM   26  C5  UNL     1      -4.360   3.899  12.040  1.00  0.00     0.078 C 
BRANCH  26  27
HETATM   27  C4  UNL     1      -3.279   3.597  10.978  1.00  0.00     0.191 A 
HETATM   28  C3  UNL     1      -2.121   4.512  11.113  1.00  0.00     0.054 A 
HETATM   29  C2  UNL     1      -1.001   3.837  11.364  1.00  0.00     0.015 A 
HETATM   30  C1  UNL     1       0.380   4.312  11.586  1.00  0.00     0.054 C 
HETATM   31  C30 UNL     1      -1.378   2.421  11.387  1.00  0.00     0.291 A 
HETATM   32  O3  UNL     1      -2.713   2.307  11.162  1.00  0.00    -0.276 OA
HETATM   33  O4  UNL     1      -0.617   1.490  11.591  1.00  0.00    -0.260 OA
BRANCH  27  34
HETATM   34  O1  UNL     1      -3.770   3.748   9.663  1.00  0.00    -0.362 OA
HETATM   35  H5  UNL     1      -4.436   3.051   9.543  1.00  0.00     0.213 HD
ENDBRANCH  27  34
ENDBRANCH  26  27
ENDBRANCH  24  26
ENDBRANCH   1  24
TORSDOF 4
ENDMDL
MODEL 4
REMARK minimizedAffinity -9.65753269
REMARK  4 active torsions:
REMARK  status: ('A' for Active; 'I' for Inactive)
REMARK    1  A    between atoms: C4_4  and  O1_5 
REMARK    2  A    between atoms: C4_4  and  C5_6 
REMARK    3  A    between atoms: C5_6  and  C6_7 
REMARK    4  A    between atoms: C6_7  and  C8_9 
ROOT
HETATM    1  C8  UNL     1      -4.028   6.657  14.125  1.00  0.00    -0.001 C 
HETATM    2  C9  UNL     1      -3.871   7.852  15.102  1.00  0.00     0.007 C 
HETATM    3  C10 UNL     1      -2.509   8.512  14.768  1.00  0.00     0.015 C 
HETATM    4  C11 UNL     1      -2.043   7.838  13.453  1.00  0.00    -0.013 C 
HETATM    5  C12 UNL     1      -2.737   8.614  12.284  1.00  0.00     0.021 C 
HETATM    6  C13 UNL     1      -0.553   7.841  13.108  1.00  0.00    -0.070 C 
HETATM    7  C14 UNL     1       0.225   8.904  13.365  1.00  0.00    -0.022 C 
HETATM    8  C15 UNL     1       1.652   9.025  12.948  1.00  0.00     0.034 C 
HETATM    9  C16 UNL     1       2.321   7.715  12.457  1.00  0.00     0.013 C 
HETATM   10  C17 UNL     1       3.718   7.980  11.785  1.00  0.00     0.018 C 
HETATM   11  C18 UNL     1       4.729   6.904  12.255  1.00  0.00     0.023 C 
HETATM   12  C19 UNL     1       4.357   9.345  12.136  1.00  0.00     0.023 C 
HETATM   13  C20 UNL     1       3.612   7.926  10.254  1.00  0.00     0.135 C 
HETATM   14  O2  UNL     1       4.599   7.691   9.548  1.00  0.00    -0.297 OA
HETATM   15  C21 UNL     1       2.291   8.271   9.599  1.00  0.00     0.080 C 
HETATM   16  C22 UNL     1       1.054   7.659  10.258  1.00  0.00     0.017 C 
HETATM   17  C23 UNL     1       1.325   6.875  11.563  1.00  0.00    -0.031 C 
HETATM   18  C24 UNL     1       1.926   5.489  11.193  1.00  0.00     0.016 C 
HETATM   19  C25 UNL     1      -0.001   6.603  12.391  1.00  0.00     0.024 C 
HETATM   20  C26 UNL     1      -1.111   5.846  11.610  1.00  0.00     0.010 C 
HETATM   21  C27 UNL     1      -2.409   5.551  12.402  1.00  0.00     0.011 C 
HETATM   22  C28 UNL     1      -2.557   6.369  13.696  1.00  0.00    -0.029 C 
HETATM   23  C29 UNL     1      -1.770   5.672  14.856  1.00  0.00     0.016 C 
ENDROOT
BRANCH   1  24
HETATM   24  C6  UNL     1      -5.022   5.532  14.550  1.00  0.00    -0.008 C 
HETATM   25  C7  UNL     1      -5.530   4.824  13.279  1.00  0.00     0.010 C 
BRANCH  24  26
HETATM   26  C5  UNL     1      -6.187   5.957  15.471  1.00  0.00     0.078 C 
BRANCH  26  27
HETATM   27  C4  UNL     1      -7.594   5.420  15.122  1.00  0.00     0.191 A 
HETATM   28  C3  UNL     1      -8.203   6.188  14.010  1.00  0.00     0.054 A 
HETATM   29  C2  UNL     1      -8.461   5.400  12.967  1.00  0.00     0.015 A 
HETATM   30  C1  UNL     1      -9.045   5.712  11.647  1.00  0.00     0.054 C 
HETATM   31  C30 UNL     1      -8.041   4.053  13.363  1.00  0.00     0.291 A 
HETATM   32  O3  UNL     1      -7.536   4.091  14.624  1.00  0.00    -0.276 OA
HETATM   33  O4  UNL     1      -8.119   3.055  12.666  1.00  0.00    -0.260 OA
BRANCH  27  34
HETATM   34  O1  UNL     1      -8.482   5.509  16.217  1.00  0.00    -0.362 OA
HETATM   35  H5  UNL     1      -8.143   4.895  16.889  1.00  0.00     0.213 HD
ENDBRANCH  27  34
ENDBRANCH  26  27
ENDBRANCH  24  26
ENDBRANCH   1  24
TORSDOF 4
ENDMDL
MODEL 5
REMARK minimizedAffinity -9.58472919
REMARK  4 active torsions:
REMARK  status: ('A' for Active; 'I' for Inactive)
REMARK    1  A    between atoms: C4_4  and  O1_5 
REMARK    2  A    between atoms: C4_4  and  C5_6 
REMARK    3  A    between atoms: C5_6  and  C6_7 
REMARK    4  A    between atoms: C6_7  and  C8_9 
ROOT
HETATM    1  C8  UNL     1      -2.084   6.348  12.652  1.00  0.00    -0.001 C 
HETATM    2  C9  UNL     1      -2.171   7.182  13.957  1.00  0.00     0.007 C 
HETATM    3  C10 UNL     1      -0.799   7.883  14.118  1.00  0.00     0.015 C 
HETATM    4  C11 UNL     1      -0.054   7.634  12.782  1.00  0.00    -0.013 C 
HETATM    5  C12 UNL     1      -0.535   8.745  11.790  1.00  0.00     0.021 C 
HETATM    6  C13 UNL     1       1.473   7.709  12.761  1.00  0.00    -0.070 C 
HETATM    7  C14 UNL     1       2.141   8.625  13.480  1.00  0.00    -0.022 C 
HETATM    8  C15 UNL     1       3.616   8.837  13.414  1.00  0.00     0.034 C 
HETATM    9  C16 UNL     1       4.421   7.725  12.692  1.00  0.00     0.013 C 
HETATM   10  C17 UNL     1       5.912   8.153  12.427  1.00  0.00     0.018 C 
HETATM   11  C18 UNL     1       6.853   6.962  12.740  1.00  0.00     0.023 C 
HETATM   12  C19 UNL     1       6.412   9.330  13.298  1.00  0.00     0.023 C 
HETATM   13  C20 UNL     1       6.112   8.572  10.964  1.00  0.00     0.135 C 
HETATM   14  O2  UNL     1       7.227   8.542  10.433  1.00  0.00    -0.297 OA
HETATM   15  C21 UNL     1       4.934   9.130  10.194  1.00  0.00     0.080 C 
HETATM   16  C22 UNL     1       3.617   8.372  10.374  1.00  0.00     0.017 C 
HETATM   17  C23 UNL     1       3.656   7.221  11.405  1.00  0.00    -0.031 C 
HETATM   18  C24 UNL     1       4.375   6.002  10.760  1.00  0.00     0.016 C 
HETATM   19  C25 UNL     1       2.205   6.738  11.828  1.00  0.00     0.024 C 
HETATM   20  C26 UNL     1       1.303   6.281  10.648  1.00  0.00     0.010 C 
HETATM   21  C27 UNL     1      -0.112   5.786  11.035  1.00  0.00     0.011 C 
HETATM   22  C28 UNL     1      -0.546   6.173  12.459  1.00  0.00    -0.029 C 
HETATM   23  C29 UNL     1       0.024   5.137  13.486  1.00  0.00     0.016 C 
ENDROOT
BRANCH   1  24
HETATM   24  C6  UNL     1      -3.095   5.169  12.507  1.00  0.00    -0.008 C 
HETATM   25  C7  UNL     1      -4.160   5.301  13.612  1.00  0.00     0.010 C 
BRANCH  24  26
HETATM   26  C5  UNL     1      -2.493   3.748  12.462  1.00  0.00     0.078 C 
BRANCH  26  27
HETATM   27  C4  UNL     1      -2.965   2.817  11.322  1.00  0.00     0.191 A 
HETATM   28  C3  UNL     1      -3.934   1.809  11.816  1.00  0.00     0.054 A 
HETATM   29  C2  UNL     1      -5.107   1.927  11.197  1.00  0.00     0.015 A 
HETATM   30  C1  UNL     1      -6.362   1.166  11.361  1.00  0.00     0.054 C 
HETATM   31  C30 UNL     1      -4.952   3.026  10.240  1.00  0.00     0.291 A 
HETATM   32  O3  UNL     1      -3.694   3.531  10.334  1.00  0.00    -0.276 OA
HETATM   33  O4  UNL     1      -5.819   3.435   9.486  1.00  0.00    -0.260 OA
BRANCH  27  34
HETATM   34  O1  UNL     1      -1.893   2.105  10.740  1.00  0.00    -0.362 OA
HETATM   35  H5  UNL     1      -1.336   2.769  10.302  1.00  0.00     0.213 HD
ENDBRANCH  27  34
ENDBRANCH  26  27
ENDBRANCH  24  26
ENDBRANCH   1  24
TORSDOF 4
ENDMDL
MODEL 6
REMARK minimizedAffinity -9.52190208
REMARK  4 active torsions:
REMARK  status: ('A' for Active; 'I' for Inactive)
REMARK    1  A    between atoms: C4_4  and  O1_5 
REMARK    2  A    between atoms: C4_4  and  C5_6 
REMARK    3  A    between atoms: C5_6  and  C6_7 
REMARK    4  A    between atoms: C6_7  and  C8_9 
ROOT
HETATM    1  C8  UNL     1      -2.044   6.097  12.541  1.00  0.00    -0.001 C 
HETATM    2  C9  UNL     1      -2.236   7.065  13.738  1.00  0.00     0.007 C 
HETATM    3  C10 UNL     1      -0.917   7.868  13.865  1.00  0.00     0.015 C 
HETATM    4  C11 UNL     1      -0.105   7.519  12.592  1.00  0.00    -0.013 C 
HETATM    5  C12 UNL     1      -0.612   8.479  11.464  1.00  0.00     0.021 C 
HETATM    6  C13 UNL     1       1.415   7.692  12.613  1.00  0.00    -0.070 C 
HETATM    7  C14 UNL     1       1.995   8.725  13.245  1.00  0.00    -0.022 C 
HETATM    8  C15 UNL     1       3.456   9.024  13.205  1.00  0.00     0.034 C 
HETATM    9  C16 UNL     1       4.356   7.893  12.643  1.00  0.00     0.013 C 
HETATM   10  C17 UNL     1       5.828   8.385  12.380  1.00  0.00     0.018 C 
HETATM   11  C18 UNL     1       6.827   7.302  12.859  1.00  0.00     0.023 C 
HETATM   12  C19 UNL     1       6.219   9.684  13.127  1.00  0.00     0.023 C 
HETATM   13  C20 UNL     1       6.061   8.650  10.886  1.00  0.00     0.135 C 
HETATM   14  O2  UNL     1       7.197   8.634  10.400  1.00  0.00    -0.297 OA
HETATM   15  C21 UNL     1       4.884   9.040  10.018  1.00  0.00     0.080 C 
HETATM   16  C22 UNL     1       3.609   8.223  10.239  1.00  0.00     0.017 C 
HETATM   17  C23 UNL     1       3.677   7.200  11.397  1.00  0.00    -0.031 C 
HETATM   18  C24 UNL     1       4.495   5.965  10.920  1.00  0.00     0.016 C 
HETATM   19  C25 UNL     1       2.243   6.673  11.823  1.00  0.00     0.024 C 
HETATM   20  C26 UNL     1       1.419   6.028  10.673  1.00  0.00     0.010 C 
HETATM   21  C27 UNL     1       0.022   5.488  11.067  1.00  0.00     0.011 C 
HETATM   22  C28 UNL     1      -0.492   6.002  12.422  1.00  0.00    -0.029 C 
HETATM   23  C29 UNL     1       0.098   5.128  13.579  1.00  0.00     0.016 C 
ENDROOT
BRANCH   1  24
HETATM   24  C6  UNL     1      -2.975   4.845  12.498  1.00  0.00    -0.008 C 
HETATM   25  C7  UNL     1      -2.359   3.813  11.535  1.00  0.00     0.010 C 
BRANCH  24  26
HETATM   26  C5  UNL     1      -4.464   5.107  12.179  1.00  0.00     0.078 C 
BRANCH  26  27
HETATM   27  C4  UNL     1      -5.469   4.969  13.345  1.00  0.00     0.191 A 
HETATM   28  C3  UNL     1      -6.561   5.966  13.235  1.00  0.00     0.054 A 
HETATM   29  C2  UNL     1      -7.747   5.370  13.128  1.00  0.00     0.015 A 
HETATM   30  C1  UNL     1      -9.101   5.942  12.983  1.00  0.00     0.054 C 
HETATM   31  C30 UNL     1      -7.483   3.930  13.181  1.00  0.00     0.291 A 
HETATM   32  O3  UNL     1      -6.146   3.721  13.305  1.00  0.00    -0.276 OA
HETATM   33  O4  UNL     1      -8.328   3.053  13.111  1.00  0.00    -0.260 OA
BRANCH  27  34
HETATM   34  O1  UNL     1      -4.855   5.169  14.601  1.00  0.00    -0.362 OA
HETATM   35  H5  UNL     1      -4.237   4.429  14.719  1.00  0.00     0.213 HD
ENDBRANCH  27  34
ENDBRANCH  26  27
ENDBRANCH  24  26
ENDBRANCH   1  24
TORSDOF 4
ENDMDL
MODEL 7
REMARK minimizedAffinity -9.49255943
REMARK  4 active torsions:
REMARK  status: ('A' for Active; 'I' for Inactive)
REMARK    1  A    between atoms: C4_4  and  O1_5 
REMARK    2  A    between atoms: C4_4  and  C5_6 
REMARK    3  A    between atoms: C5_6  and  C6_7 
REMARK    4  A    between atoms: C6_7  and  C8_9 
ROOT
HETATM    1  C8  UNL     1      -5.179   5.584  13.297  1.00  0.00    -0.001 C 
HETATM    2  C9  UNL     1      -6.084   5.607  14.557  1.00  0.00     0.007 C 
HETATM    3  C10 UNL     1      -5.537   6.736  15.466  1.00  0.00     0.015 C 
HETATM    4  C11 UNL     1      -4.499   7.491  14.598  1.00  0.00    -0.013 C 
HETATM    5  C12 UNL     1      -5.302   8.529  13.746  1.00  0.00     0.021 C 
HETATM    6  C13 UNL     1      -3.403   8.302  15.292  1.00  0.00    -0.070 C 
HETATM    7  C14 UNL     1      -3.652   9.009  16.406  1.00  0.00    -0.022 C 
HETATM    8  C15 UNL     1      -2.669   9.916  17.065  1.00  0.00     0.034 C 
HETATM    9  C16 UNL     1      -1.202   9.780  16.582  1.00  0.00     0.013 C 
HETATM   10  C17 UNL     1      -0.292  10.946  17.119  1.00  0.00     0.018 C 
HETATM   11  C18 UNL     1       1.071  10.367  17.578  1.00  0.00     0.023 C 
HETATM   12  C19 UNL     1      -0.865  11.704  18.341  1.00  0.00     0.023 C 
HETATM   13  C20 UNL     1      -0.043  11.997  16.028  1.00  0.00     0.135 C 
HETATM   14  O2  UNL     1       0.938  12.749  16.071  1.00  0.00    -0.297 OA
HETATM   15  C21 UNL     1      -1.076  12.180  14.937  1.00  0.00     0.080 C 
HETATM   16  C22 UNL     1      -1.631  10.886  14.338  1.00  0.00     0.017 C 
HETATM   17  C23 UNL     1      -1.141   9.586  15.015  1.00  0.00    -0.031 C 
HETATM   18  C24 UNL     1       0.310   9.293  14.537  1.00  0.00     0.016 C 
HETATM   19  C25 UNL     1      -2.026   8.329  14.621  1.00  0.00     0.024 C 
HETATM   20  C26 UNL     1      -2.123   8.056  13.094  1.00  0.00     0.010 C 
HETATM   21  C27 UNL     1      -2.964   6.823  12.683  1.00  0.00     0.011 C 
HETATM   22  C28 UNL     1      -3.878   6.285  13.797  1.00  0.00    -0.029 C 
HETATM   23  C29 UNL     1      -3.064   5.332  14.736  1.00  0.00     0.016 C 
ENDROOT
BRANCH   1  24
HETATM   24  C6  UNL     1      -5.165   4.262  12.470  1.00  0.00    -0.008 C 
HETATM   25  C7  UNL     1      -6.441   3.466  12.802  1.00  0.00     0.010 C 
BRANCH  24  26
HETATM   26  C5  UNL     1      -3.898   3.387  12.594  1.00  0.00     0.078 C 
BRANCH  26  27
HETATM   27  C4  UNL     1      -3.001   3.264  11.342  1.00  0.00     0.191 A 
HETATM   28  C3  UNL     1      -1.907   4.265  11.362  1.00  0.00     0.054 A 
HETATM   29  C2  UNL     1      -0.714   3.673  11.357  1.00  0.00     0.015 A 
HETATM   30  C1  UNL     1       0.646   4.249  11.385  1.00  0.00     0.054 C 
HETATM   31  C30 UNL     1      -0.976   2.232  11.315  1.00  0.00     0.291 A 
HETATM   32  O3  UNL     1      -2.318   2.019  11.310  1.00  0.00    -0.276 OA
HETATM   33  O4  UNL     1      -0.125   1.359  11.302  1.00  0.00    -0.260 OA
BRANCH  27  34
HETATM   34  O1  UNL     1      -3.725   3.472  10.148  1.00  0.00    -0.362 OA
HETATM   35  H5  UNL     1      -4.349   2.730  10.079  1.00  0.00     0.213 HD
ENDBRANCH  27  34
ENDBRANCH  26  27
ENDBRANCH  24  26
ENDBRANCH   1  24
TORSDOF 4
ENDMDL
MODEL 8
REMARK minimizedAffinity -9.40175629
REMARK  4 active torsions:
REMARK  status: ('A' for Active; 'I' for Inactive)
REMARK    1  A    between atoms: C4_4  and  O1_5 
REMARK    2  A    between atoms: C4_4  and  C5_6 
REMARK    3  A    between atoms: C5_6  and  C6_7 
REMARK    4  A    between atoms: C6_7  and  C8_9 
ROOT
HETATM    1  C8  UNL     1      -5.208   5.542  14.348  1.00  0.00    -0.001 C 
HETATM    2  C9  UNL     1      -4.849   6.310  15.647  1.00  0.00     0.007 C 
HETATM    3  C10 UNL     1      -6.150   7.012  16.111  1.00  0.00     0.015 C 
HETATM    4  C11 UNL     1      -7.270   6.429  15.213  1.00  0.00    -0.013 C 
HETATM    5  C12 UNL     1      -7.724   5.088  15.881  1.00  0.00     0.021 C 
HETATM    6  C13 UNL     1      -8.556   7.234  15.015  1.00  0.00    -0.070 C 
HETATM    7  C14 UNL     1      -9.108   7.933  16.020  1.00  0.00    -0.022 C 
HETATM    8  C15 UNL     1     -10.419   8.639  15.934  1.00  0.00     0.034 C 
HETATM    9  C16 UNL     1     -11.002   8.800  14.506  1.00  0.00     0.013 C 
HETATM   10  C17 UNL     1     -12.494   9.300  14.530  1.00  0.00     0.018 C 
HETATM   11  C18 UNL     1     -12.694  10.377  13.434  1.00  0.00     0.023 C 
HETATM   12  C19 UNL     1     -12.935   9.959  15.859  1.00  0.00     0.023 C 
HETATM   13  C20 UNL     1     -13.466   8.141  14.270  1.00  0.00     0.135 C 
HETATM   14  O2  UNL     1     -14.606   8.342  13.838  1.00  0.00    -0.297 OA
HETATM   15  C21 UNL     1     -13.051   6.736  14.651  1.00  0.00     0.080 C 
HETATM   16  C22 UNL     1     -11.621   6.350  14.268  1.00  0.00     0.017 C 
HETATM   17  C23 UNL     1     -10.775   7.490  13.654  1.00  0.00    -0.031 C 
HETATM   18  C24 UNL     1     -11.214   7.692  12.176  1.00  0.00     0.016 C 
HETATM   19  C25 UNL     1      -9.225   7.151  13.639  1.00  0.00     0.024 C 
HETATM   20  C26 UNL     1      -8.854   5.837  12.895  1.00  0.00     0.010 C 
HETATM   21  C27 UNL     1      -7.345   5.494  12.849  1.00  0.00     0.011 C 
HETATM   22  C28 UNL     1      -6.488   6.283  13.854  1.00  0.00    -0.029 C 
HETATM   23  C29 UNL     1      -6.119   7.680  13.252  1.00  0.00     0.016 C 
ENDROOT
BRANCH   1  24
HETATM   24  C6  UNL     1      -4.022   5.177  13.402  1.00  0.00    -0.008 C 
HETATM   25  C7  UNL     1      -4.500   4.093  12.417  1.00  0.00     0.010 C 
BRANCH  24  26
HETATM   26  C5  UNL     1      -2.694   4.782  14.085  1.00  0.00     0.078 C 
BRANCH  26  27
HETATM   27  C4  UNL     1      -1.528   5.791  13.995  1.00  0.00     0.191 A 
HETATM   28  C3  UNL     1      -0.662   5.511  12.825  1.00  0.00     0.054 A 
HETATM   29  C2  UNL     1      -0.636   6.546  11.987  1.00  0.00     0.015 A 
HETATM   30  C1  UNL     1       0.065   6.725  10.699  1.00  0.00     0.054 C 
HETATM   31  C30 UNL     1      -1.486   7.577  12.590  1.00  0.00     0.291 A 
HETATM   32  O3  UNL     1      -1.997   7.111  13.761  1.00  0.00    -0.276 OA
HETATM   33  O4  UNL     1      -1.712   8.676  12.112  1.00  0.00    -0.260 OA
BRANCH  27  34
HETATM   34  O1  UNL     1      -0.699   5.747  15.138  1.00  0.00    -0.362 OA
HETATM   35  H5  UNL     1      -1.244   6.064  15.877  1.00  0.00     0.213 HD
ENDBRANCH  27  34
ENDBRANCH  26  27
ENDBRANCH  24  26
ENDBRANCH   1  24
TORSDOF 4
ENDMDL
MODEL 9
REMARK minimizedAffinity -9.24431229
REMARK  4 active torsions:
REMARK  status: ('A' for Active; 'I' for Inactive)
REMARK    1  A    between atoms: C4_4  and  O1_5 
REMARK    2  A    between atoms: C4_4  and  C5_6 
REMARK    3  A    between atoms: C5_6  and  C6_7 
REMARK    4  A    between atoms: C6_7  and  C8_9 
ROOT
HETATM    1  C8  UNL     1      -1.056   6.098  12.142  1.00  0.00    -0.001 C 
HETATM    2  C9  UNL     1      -2.312   5.375  12.695  1.00  0.00     0.007 C 
HETATM    3  C10 UNL     1      -2.909   6.307  13.780  1.00  0.00     0.015 C 
HETATM    4  C11 UNL     1      -2.131   7.640  13.644  1.00  0.00    -0.013 C 
HETATM    5  C12 UNL     1      -2.841   8.457  12.513  1.00  0.00     0.021 C 
HETATM    6  C13 UNL     1      -2.069   8.586  14.845  1.00  0.00    -0.070 C 
HETATM    7  C14 UNL     1      -3.126   8.766  15.652  1.00  0.00    -0.022 C 
HETATM    8  C15 UNL     1      -3.178   9.759  16.764  1.00  0.00     0.034 C 
HETATM    9  C16 UNL     1      -1.818  10.387  17.166  1.00  0.00     0.013 C 
HETATM   10  C17 UNL     1      -1.996  11.609  18.141  1.00  0.00     0.018 C 
HETATM   11  C18 UNL     1      -0.929  11.534  19.262  1.00  0.00     0.023 C 
HETATM   12  C19 UNL     1      -3.365  11.667  18.862  1.00  0.00     0.023 C 
HETATM   13  C20 UNL     1      -1.837  12.939  17.392  1.00  0.00     0.135 C 
HETATM   14  O2  UNL     1      -1.525  13.978  17.984  1.00  0.00    -0.297 OA
HETATM   15  C21 UNL     1      -2.170  12.993  15.916  1.00  0.00     0.080 C 
HETATM   16  C22 UNL     1      -1.641  11.825  15.082  1.00  0.00     0.017 C 
HETATM   17  C23 UNL     1      -0.945  10.705  15.889  1.00  0.00    -0.031 C 
HETATM   18  C24 UNL     1       0.480  11.189  16.282  1.00  0.00     0.016 C 
HETATM   19  C25 UNL     1      -0.769   9.373  15.044  1.00  0.00     0.024 C 
HETATM   20  C26 UNL     1       0.011   9.546  13.711  1.00  0.00     0.010 C 
HETATM   21  C27 UNL     1       0.214   8.257  12.877  1.00  0.00     0.011 C 
HETATM   22  C28 UNL     1      -0.698   7.090  13.291  1.00  0.00    -0.029 C 
HETATM   23  C29 UNL     1      -0.064   6.326  14.502  1.00  0.00     0.016 C 
ENDROOT
BRANCH   1  24
HETATM   24  C6  UNL     1       0.008   5.206  11.431  1.00  0.00    -0.008 C 
HETATM   25  C7  UNL     1      -0.341   3.728  11.694  1.00  0.00     0.010 C 
BRANCH  24  26
HETATM   26  C5  UNL     1       1.487   5.510  11.755  1.00  0.00     0.078 C 
BRANCH  26  27
HETATM   27  C4  UNL     1       2.490   5.465  10.581  1.00  0.00     0.191 A 
HETATM   28  C3  UNL     1       1.978   6.211   9.406  1.00  0.00     0.054 A 
HETATM   29  C2  UNL     1       2.790   7.216   9.083  1.00  0.00     0.015 A 
HETATM   30  C1  UNL     1       2.691   8.227   8.011  1.00  0.00     0.054 C 
HETATM   31  C30 UNL     1       3.901   7.162  10.037  1.00  0.00     0.291 A 
HETATM   32  O3  UNL     1       3.701   6.133  10.903  1.00  0.00    -0.276 OA
HETATM   33  O4  UNL     1       4.850   7.928  10.062  1.00  0.00    -0.260 OA
BRANCH  27  34
HETATM   34  O1  UNL     1       2.744   4.145  10.149  1.00  0.00    -0.362 OA
HETATM   35  H5  UNL     1       3.203   3.706  10.883  1.00  0.00     0.213 HD
ENDBRANCH  27  34
ENDBRANCH  26  27
ENDBRANCH  24  26
ENDBRANCH   1  24
TORSDOF 4
ENDMDL
