MODEL 1
REMARK minimizedAffinity -9.04293442
REMARK  6 active torsions:
REMARK  status: ('A' for Active; 'I' for Inactive)
REMARK    1  A    between atoms: C2_2  and  C3_3 
REMARK    2  A    between atoms: C5_5  and  C6_6 
REMARK    3  A    between atoms: C6_6  and  C7_7 
REMARK    4  A    between atoms: C8_8  and  C9_9 
REMARK       I    between atoms: C9_9  and  N1_11 
REMARK    5  A    between atoms: N1_11  and  C10_12 
REMARK    6  A    between atoms: C10_12  and  C12_14 
ROOT
HETATM    1  C7  UNL     1      -4.109   6.444  13.157  1.00  0.00     0.036 C 
HETATM    2  C8  UNL     1      -4.653   7.756  13.703  1.00  0.00     0.011 C 
HETATM    3  C18 UNL     1      -3.975   8.898  13.501  1.00  0.00    -0.013 C 
HETATM    4  C19 UNL     1      -2.653   8.838  12.812  1.00  0.00     0.034 C 
HETATM    5  C20 UNL     1      -1.787   7.698  13.400  1.00  0.00     0.005 C 
HETATM    6  C21 UNL     1      -0.366   7.624  12.731  1.00  0.00    -0.043 C 
HETATM    7  C22 UNL     1       0.494   8.832  13.187  1.00  0.00     0.015 C 
HETATM    8  C23 UNL     1      -0.407   7.668  11.188  1.00  0.00     0.015 C 
HETATM    9  C24 UNL     1       0.351   6.351  13.210  1.00  0.00     0.009 C 
HETATM   10  C25 UNL     1      -0.378   5.063  12.868  1.00  0.00     0.002 C 
HETATM   11  C26 UNL     1      -1.892   5.192  12.723  1.00  0.00     0.010 C 
HETATM   12  C27 UNL     1      -2.568   6.302  13.562  1.00  0.00    -0.031 C 
HETATM   13  C28 UNL     1      -2.476   5.882  15.058  1.00  0.00     0.016 C 
ENDROOT
BRANCH   2  14
HETATM   14  C9  UNL     1      -5.933   7.854  14.445  1.00  0.00     0.248 C 
HETATM   15  O1  UNL     1      -6.264   8.873  15.033  1.00  0.00    -0.268 OA
HETATM   16  N1  UNL     1      -6.661   6.693  14.383  1.00  0.00    -0.349 N 
HETATM   17  H11 UNL     1      -6.206   5.875  14.001  1.00  0.00     0.163 HD
BRANCH  16  18
HETATM   18  C10 UNL     1      -7.828   6.483  15.219  1.00  0.00     0.114 C 
HETATM   19  C11 UNL     1      -7.569   7.022  16.629  1.00  0.00     0.037 C 
BRANCH  18  20
HETATM   20  C12 UNL     1      -9.045   7.110  14.562  1.00  0.00    -0.036 A 
HETATM   21  C13 UNL     1      -9.578   8.299  15.088  1.00  0.00     0.009 A 
HETATM   22  C14 UNL     1     -10.704   8.892  14.516  1.00  0.00     0.001 A 
HETATM   23  C15 UNL     1     -11.321   8.302  13.416  1.00  0.00     0.000 A 
HETATM   24  C16 UNL     1     -10.821   7.110  12.895  1.00  0.00     0.001 A 
HETATM   25  C17 UNL     1      -9.694   6.516  13.467  1.00  0.00     0.009 A 
ENDBRANCH  18  20
ENDBRANCH  16  18
ENDBRANCH   2  14
BRANCH   1  26
HETATM   26  C6  UNL     1      -5.045   5.238  13.481  1.00  0.00     0.038 C 
BRANCH  26  27
HETATM   27  C5  UNL     1      -4.985   4.085  12.512  1.00  0.00    -0.019 C 
HETATM   28  C3  UNL     1      -5.917   3.140  12.265  1.00  0.00    -0.067 C 
HETATM   29  C4  UNL     1      -7.249   3.062  12.966  1.00  0.00     0.048 C 
BRANCH  28  30
HETATM   30  C2  UNL     1      -5.623   2.124  11.256  1.00  0.00    -0.004 C 
HETATM   31  C1  UNL     1      -6.295   0.984  11.049  1.00  0.00     0.012 C 
ENDBRANCH  28  30
ENDBRANCH  26  27
ENDBRANCH   1  26
TORSDOF 6
ENDMDL
MODEL 2
REMARK minimizedAffinity -9.04051971
REMARK  6 active torsions:
REMARK  status: ('A' for Active; 'I' for Inactive)
REMARK    1  A    between atoms: C2_2  and  C3_3 
REMARK    2  A    between atoms: C5_5  and  C6_6 
REMARK    3  A    between atoms: C6_6  and  C7_7 
REMARK    4  A    between atoms: C8_8  and  C9_9 
REMARK       I    between atoms: C9_9  and  N1_11 
REMARK    5  A    between atoms: N1_11  and  C10_12 
REMARK    6  A    between atoms: C10_12  and  C12_14 
ROOT
HETATM    1  C7  UNL     1      -2.154   5.811  12.550  1.00  0.00     0.036 C 
HETATM    2  C8  UNL     1      -2.702   7.011  13.309  1.00  0.00     0.011 C 
HETATM    3  C18 UNL     1      -2.257   8.245  13.021  1.00  0.00    -0.013 C 
HETATM    4  C19 UNL     1      -1.167   8.400  12.015  1.00  0.00     0.034 C 
HETATM    5  C20 UNL     1      -0.035   7.379  12.279  1.00  0.00     0.005 C 
HETATM    6  C21 UNL     1       1.156   7.534  11.264  1.00  0.00    -0.043 C 
HETATM    7  C22 UNL     1       1.940   8.838  11.570  1.00  0.00     0.015 C 
HETATM    8  C23 UNL     1       0.705   7.624   9.790  1.00  0.00     0.015 C 
HETATM    9  C24 UNL     1       2.135   6.363  11.452  1.00  0.00     0.009 C 
HETATM   10  C25 UNL     1       1.517   4.995  11.217  1.00  0.00     0.002 C 
HETATM   11  C26 UNL     1       0.015   4.908  11.476  1.00  0.00     0.010 C 
HETATM   12  C27 UNL     1      -0.555   5.879  12.536  1.00  0.00    -0.031 C 
HETATM   13  C28 UNL     1      -0.019   5.426  13.925  1.00  0.00     0.016 C 
ENDROOT
BRANCH   2  14
HETATM   14  C9  UNL     1      -3.743   6.896  14.359  1.00  0.00     0.248 C 
HETATM   15  O1  UNL     1      -3.479   6.531  15.495  1.00  0.00    -0.268 OA
HETATM   16  N1  UNL     1      -4.988   7.241  13.898  1.00  0.00    -0.349 N 
HETATM   17  H11 UNL     1      -5.099   7.371  12.901  1.00  0.00     0.163 HD
BRANCH  16  18
HETATM   18  C10 UNL     1      -6.184   6.987  14.679  1.00  0.00     0.114 C 
HETATM   19  C11 UNL     1      -6.996   8.276  14.832  1.00  0.00     0.037 C 
BRANCH  18  20
HETATM   20  C12 UNL     1      -6.980   5.861  14.041  1.00  0.00    -0.036 A 
HETATM   21  C13 UNL     1      -6.827   4.549  14.520  1.00  0.00     0.009 A 
HETATM   22  C14 UNL     1      -7.533   3.491  13.946  1.00  0.00     0.001 A 
HETATM   23  C15 UNL     1      -8.395   3.725  12.878  1.00  0.00     0.000 A 
HETATM   24  C16 UNL     1      -8.541   5.017  12.373  1.00  0.00     0.001 A 
HETATM   25  C17 UNL     1      -7.836   6.076  12.947  1.00  0.00     0.009 A 
ENDBRANCH  18  20
ENDBRANCH  16  18
ENDBRANCH   2  14
BRANCH   1  26
HETATM   26  C6  UNL     1      -2.805   4.471  13.016  1.00  0.00     0.038 C 
BRANCH  26  27
HETATM   27  C5  UNL     1      -3.996   4.008  12.216  1.00  0.00    -0.019 C 
HETATM   28  C3  UNL     1      -4.221   2.799  11.660  1.00  0.00    -0.067 C 
HETATM   29  C4  UNL     1      -3.261   1.640  11.737  1.00  0.00     0.048 C 
BRANCH  28  30
HETATM   30  C2  UNL     1      -5.473   2.593  10.936  1.00  0.00    -0.004 C 
HETATM   31  C1  UNL     1      -6.231   1.488  10.946  1.00  0.00     0.012 C 
ENDBRANCH  28  30
ENDBRANCH  26  27
ENDBRANCH   1  26
TORSDOF 6
ENDMDL
MODEL 3
REMARK minimizedAffinity -8.76794624
REMARK  6 active torsions:
REMARK  status: ('A' for Active; 'I' for Inactive)
REMARK    1  A    between atoms: C2_2  and  C3_3 
REMARK    2  A    between atoms: C5_5  and  C6_6 
REMARK    3  A    between atoms: C6_6  and  C7_7 
REMARK    4  A    between atoms: C8_8  and  C9_9 
REMARK       I    between atoms: C9_9  and  N1_11 
REMARK    5  A    between atoms: N1_11  and  C10_12 
REMARK    6  A    between atoms: C10_12  and  C12_14 
ROOT
HETATM    1  C7  UNL     1      -0.045   6.191  11.445  1.00  0.00     0.036 C 
HETATM    2  C8  UNL     1      -0.725   7.539  11.639  1.00  0.00     0.011 C 
HETATM    3  C18 UNL     1      -0.549   8.514  10.732  1.00  0.00    -0.013 C 
HETATM    4  C19 UNL     1       0.383   8.276   9.591  1.00  0.00     0.034 C 
HETATM    5  C20 UNL     1       1.706   7.650  10.093  1.00  0.00     0.005 C 
HETATM    6  C21 UNL     1       2.736   7.420   8.927  1.00  0.00    -0.043 C 
HETATM    7  C22 UNL     1       3.291   8.784   8.440  1.00  0.00     0.015 C 
HETATM    8  C23 UNL     1       2.125   6.724   7.692  1.00  0.00     0.015 C 
HETATM    9  C24 UNL     1       3.929   6.610   9.461  1.00  0.00     0.009 C 
HETATM   10  C25 UNL     1       3.554   5.243  10.010  1.00  0.00     0.002 C 
HETATM   11  C26 UNL     1       2.130   5.127  10.546  1.00  0.00     0.010 C 
HETATM   12  C27 UNL     1       1.502   6.423  11.112  1.00  0.00    -0.031 C 
HETATM   13  C28 UNL     1       2.255   6.772  12.428  1.00  0.00     0.016 C 
ENDROOT
BRANCH   2  14
HETATM   14  C9  UNL     1      -1.611   7.839  12.789  1.00  0.00     0.248 C 
HETATM   15  O1  UNL     1      -1.194   8.374  13.805  1.00  0.00    -0.268 OA
HETATM   16  N1  UNL     1      -2.907   7.449  12.563  1.00  0.00    -0.349 N 
HETATM   17  H11 UNL     1      -3.090   6.877  11.750  1.00  0.00     0.163 HD
BRANCH  16  18
HETATM   18  C10 UNL     1      -3.893   7.434  13.628  1.00  0.00     0.114 C 
HETATM   19  C11 UNL     1      -4.629   8.775  13.683  1.00  0.00     0.037 C 
BRANCH  18  20
HETATM   20  C12 UNL     1      -4.830   6.254  13.439  1.00  0.00    -0.036 A 
HETATM   21  C13 UNL     1      -6.198   6.406  13.721  1.00  0.00     0.009 A 
HETATM   22  C14 UNL     1      -7.082   5.337  13.571  1.00  0.00     0.001 A 
HETATM   23  C15 UNL     1      -6.613   4.098  13.145  1.00  0.00     0.000 A 
HETATM   24  C16 UNL     1      -5.255   3.921  12.882  1.00  0.00     0.001 A 
HETATM   25  C17 UNL     1      -4.369   4.990  13.032  1.00  0.00     0.009 A 
ENDBRANCH  18  20
ENDBRANCH  16  18
ENDBRANCH   2  14
BRANCH   1  26
HETATM   26  C6  UNL     1      -0.385   5.189  12.593  1.00  0.00     0.038 C 
BRANCH  26  27
HETATM   27  C5  UNL     1      -0.310   3.728  12.230  1.00  0.00    -0.019 C 
HETATM   28  C3  UNL     1      -1.094   3.028  11.383  1.00  0.00    -0.067 C 
HETATM   29  C4  UNL     1      -2.253   3.616  10.620  1.00  0.00     0.048 C 
BRANCH  28  30
HETATM   30  C2  UNL     1      -0.806   1.608  11.188  1.00  0.00    -0.004 C 
HETATM   31  C1  UNL     1      -0.774   0.952  10.020  1.00  0.00     0.012 C 
ENDBRANCH  28  30
ENDBRANCH  26  27
ENDBRANCH   1  26
TORSDOF 6
ENDMDL
MODEL 4
REMARK minimizedAffinity -8.74975395
REMARK  6 active torsions:
REMARK  status: ('A' for Active; 'I' for Inactive)
REMARK    1  A    between atoms: C2_2  and  C3_3 
REMARK    2  A    between atoms: C5_5  and  C6_6 
REMARK    3  A    between atoms: C6_6  and  C7_7 
REMARK    4  A    between atoms: C8_8  and  C9_9 
REMARK       I    between atoms: C9_9  and  N1_11 
REMARK    5  A    between atoms: N1_11  and  C10_12 
REMARK    6  A    between atoms: C10_12  and  C12_14 
ROOT
HETATM    1  C7  UNL     1      -3.794   6.896  13.026  1.00  0.00     0.036 C 
HETATM    2  C8  UNL     1      -2.880   5.706  12.773  1.00  0.00     0.011 C 
HETATM    3  C18 UNL     1      -3.406   4.518  12.432  1.00  0.00    -0.013 C 
HETATM    4  C19 UNL     1      -4.890   4.374  12.390  1.00  0.00     0.034 C 
HETATM    5  C20 UNL     1      -5.532   4.996  13.654  1.00  0.00     0.005 C 
HETATM    6  C21 UNL     1      -7.095   4.830  13.672  1.00  0.00    -0.043 C 
HETATM    7  C22 UNL     1      -7.463   3.345  13.928  1.00  0.00     0.015 C 
HETATM    8  C23 UNL     1      -7.774   5.232  12.344  1.00  0.00     0.015 C 
HETATM    9  C24 UNL     1      -7.676   5.648  14.837  1.00  0.00     0.009 C 
HETATM   10  C25 UNL     1      -7.380   7.136  14.758  1.00  0.00     0.002 C 
HETATM   11  C26 UNL     1      -6.107   7.506  14.001  1.00  0.00     0.010 C 
HETATM   12  C27 UNL     1      -4.970   6.457  14.019  1.00  0.00    -0.031 C 
HETATM   13  C28 UNL     1      -4.409   6.398  15.470  1.00  0.00     0.016 C 
ENDROOT
BRANCH   2  14
HETATM   14  C9  UNL     1      -1.402   5.788  12.862  1.00  0.00     0.248 C 
HETATM   15  O1  UNL     1      -0.805   5.603  13.912  1.00  0.00    -0.268 OA
HETATM   16  N1  UNL     1      -0.823   6.088  11.655  1.00  0.00    -0.349 N 
HETATM   17  H11 UNL     1      -1.434   6.373  10.901  1.00  0.00     0.163 HD
BRANCH  16  18
HETATM   18  C10 UNL     1       0.580   6.443  11.552  1.00  0.00     0.114 C 
HETATM   19  C11 UNL     1       1.453   5.274  12.015  1.00  0.00     0.037 C 
BRANCH  18  20
HETATM   20  C12 UNL     1       0.891   6.885  10.133  1.00  0.00    -0.036 A 
HETATM   21  C13 UNL     1       1.949   6.278   9.436  1.00  0.00     0.009 A 
HETATM   22  C14 UNL     1       2.268   6.672   8.136  1.00  0.00     0.001 A 
HETATM   23  C15 UNL     1       1.543   7.686   7.516  1.00  0.00     0.000 A 
HETATM   24  C16 UNL     1       0.505   8.316   8.200  1.00  0.00     0.001 A 
HETATM   25  C17 UNL     1       0.184   7.922   9.500  1.00  0.00     0.009 A 
ENDBRANCH  18  20
ENDBRANCH  16  18
ENDBRANCH   2  14
BRANCH   1  26
HETATM   26  C6  UNL     1      -2.994   8.185  13.395  1.00  0.00     0.038 C 
BRANCH  26  27
HETATM   27  C5  UNL     1      -3.788   9.279  14.062  1.00  0.00    -0.019 C 
HETATM   28  C3  UNL     1      -3.475  10.000  15.159  1.00  0.00    -0.067 C 
HETATM   29  C4  UNL     1      -2.211   9.818  15.960  1.00  0.00     0.048 C 
BRANCH  28  30
HETATM   30  C2  UNL     1      -4.416  11.026  15.605  1.00  0.00    -0.004 C 
HETATM   31  C1  UNL     1      -4.366  11.713  16.754  1.00  0.00     0.012 C 
ENDBRANCH  28  30
ENDBRANCH  26  27
ENDBRANCH   1  26
TORSDOF 6
ENDMDL
MODEL 5
REMARK minimizedAffinity -8.60653687
REMARK  6 active torsions:
REMARK  status: ('A' for Active; 'I' for Inactive)
REMARK    1  A    between atoms: C2_2  and  C3_3 
REMARK    2  A    between atoms: C5_5  and  C6_6 
REMARK    3  A    between atoms: C6_6  and  C7_7 
REMARK    4  A    between atoms: C8_8  and  C9_9 
REMARK       I    between atoms: C9_9  and  N1_11 
REMARK    5  A    between atoms: N1_11  and  C10_12 
REMARK    6  A    between atoms: C10_12  and  C12_14 
ROOT
HETATM    1  C7  UNL     1      -0.294   7.122  12.082  1.00  0.00     0.036 C 
HETATM    2  C8  UNL     1      -1.596   6.401  12.402  1.00  0.00     0.011 C 
HETATM    3  C18 UNL     1      -2.465   6.941  13.272  1.00  0.00    -0.013 C 
HETATM    4  C19 UNL     1      -2.091   8.206  13.970  1.00  0.00     0.034 C 
HETATM    5  C20 UNL     1      -0.644   8.119  14.512  1.00  0.00     0.005 C 
HETATM    6  C21 UNL     1      -0.222   9.417  15.293  1.00  0.00    -0.043 C 
HETATM    7  C22 UNL     1      -0.977   9.485  16.646  1.00  0.00     0.015 C 
HETATM    8  C23 UNL     1      -0.547  10.724  14.538  1.00  0.00     0.015 C 
HETATM    9  C24 UNL     1       1.279   9.345  15.615  1.00  0.00     0.009 C 
HETATM   10  C25 UNL     1       2.172   9.244  14.390  1.00  0.00     0.002 C 
HETATM   11  C26 UNL     1       1.525   8.599  13.167  1.00  0.00     0.010 C 
HETATM   12  C27 UNL     1       0.419   7.555  13.447  1.00  0.00    -0.031 C 
HETATM   13  C28 UNL     1       1.102   6.307  14.077  1.00  0.00     0.016 C 
ENDROOT
BRANCH   2  14
HETATM   14  C9  UNL     1      -1.980   5.112  11.777  1.00  0.00     0.248 C 
HETATM   15  O1  UNL     1      -1.283   4.567  10.934  1.00  0.00    -0.268 OA
HETATM   16  N1  UNL     1      -3.176   4.638  12.254  1.00  0.00    -0.349 N 
HETATM   17  H11 UNL     1      -3.730   5.259  12.830  1.00  0.00     0.163 HD
BRANCH  16  18
HETATM   18  C10 UNL     1      -3.856   3.521  11.626  1.00  0.00     0.114 C 
HETATM   19  C11 UNL     1      -3.036   2.240  11.801  1.00  0.00     0.037 C 
BRANCH  18  20
HETATM   20  C12 UNL     1      -5.263   3.402  12.184  1.00  0.00    -0.036 A 
HETATM   21  C13 UNL     1      -5.748   4.392  13.055  1.00  0.00     0.009 A 
HETATM   22  C14 UNL     1      -7.031   4.304  13.595  1.00  0.00     0.001 A 
HETATM   23  C15 UNL     1      -7.847   3.220  13.283  1.00  0.00     0.000 A 
HETATM   24  C16 UNL     1      -7.375   2.215  12.439  1.00  0.00     0.001 A 
HETATM   25  C17 UNL     1      -6.091   2.303  11.897  1.00  0.00     0.009 A 
ENDBRANCH  18  20
ENDBRANCH  16  18
ENDBRANCH   2  14
BRANCH   1  26
HETATM   26  C6  UNL     1       0.571   6.344  11.041  1.00  0.00     0.038 C 
BRANCH  26  27
HETATM   27  C5  UNL     1       0.835   7.061   9.743  1.00  0.00    -0.019 C 
HETATM   28  C3  UNL     1       1.840   6.870   8.862  1.00  0.00    -0.067 C 
HETATM   29  C4  UNL     1       2.942   5.858   9.041  1.00  0.00     0.048 C 
BRANCH  28  30
HETATM   30  C2  UNL     1       1.868   7.694   7.655  1.00  0.00    -0.004 C 
HETATM   31  C1  UNL     1       1.827   7.259   6.389  1.00  0.00     0.012 C 
ENDBRANCH  28  30
ENDBRANCH  26  27
ENDBRANCH   1  26
TORSDOF 6
ENDMDL
MODEL 6
REMARK minimizedAffinity -8.19976234
REMARK  6 active torsions:
REMARK  status: ('A' for Active; 'I' for Inactive)
REMARK    1  A    between atoms: C2_2  and  C3_3 
REMARK    2  A    between atoms: C5_5  and  C6_6 
REMARK    3  A    between atoms: C6_6  and  C7_7 
REMARK    4  A    between atoms: C8_8  and  C9_9 
REMARK       I    between atoms: C9_9  and  N1_11 
REMARK    5  A    between atoms: N1_11  and  C10_12 
REMARK    6  A    between atoms: C10_12  and  C12_14 
ROOT
HETATM    1  C7  UNL     1      -2.512   6.463  12.287  1.00  0.00     0.036 C 
HETATM    2  C8  UNL     1      -2.881   7.897  12.640  1.00  0.00     0.011 C 
HETATM    3  C18 UNL     1      -2.148   8.915  12.160  1.00  0.00    -0.013 C 
HETATM    4  C19 UNL     1      -0.931   8.608  11.353  1.00  0.00     0.034 C 
HETATM    5  C20 UNL     1      -0.088   7.507  12.041  1.00  0.00     0.005 C 
HETATM    6  C21 UNL     1       1.228   7.180  11.244  1.00  0.00    -0.043 C 
HETATM    7  C22 UNL     1       2.228   8.359  11.375  1.00  0.00     0.015 C 
HETATM    8  C23 UNL     1       0.997   6.961   9.733  1.00  0.00     0.015 C 
HETATM    9  C24 UNL     1       1.900   5.945  11.867  1.00  0.00     0.009 C 
HETATM   10  C25 UNL     1       1.037   4.694  11.848  1.00  0.00     0.002 C 
HETATM   11  C26 UNL     1      -0.469   4.944  11.849  1.00  0.00     0.010 C 
HETATM   12  C27 UNL     1      -0.947   6.243  12.540  1.00  0.00    -0.031 C 
HETATM   13  C28 UNL     1      -0.701   6.080  14.068  1.00  0.00     0.016 C 
ENDROOT
BRANCH   2  14
HETATM   14  C9  UNL     1      -4.046   8.246  13.488  1.00  0.00     0.248 C 
HETATM   15  O1  UNL     1      -5.101   8.637  13.010  1.00  0.00    -0.268 OA
HETATM   16  N1  UNL     1      -3.787   8.078  14.824  1.00  0.00    -0.349 N 
HETATM   17  H11 UNL     1      -2.829   7.902  15.098  1.00  0.00     0.163 HD
BRANCH  16  18
HETATM   18  C10 UNL     1      -4.695   8.572  15.842  1.00  0.00     0.114 C 
HETATM   19  C11 UNL     1      -4.852  10.090  15.714  1.00  0.00     0.037 C 
BRANCH  18  20
HETATM   20  C12 UNL     1      -6.018   7.832  15.749  1.00  0.00    -0.036 A 
HETATM   21  C13 UNL     1      -6.051   6.445  15.973  1.00  0.00     0.009 A 
HETATM   22  C14 UNL     1      -7.249   5.735  15.881  1.00  0.00     0.001 A 
HETATM   23  C15 UNL     1      -8.429   6.396  15.552  1.00  0.00     0.000 A 
HETATM   24  C16 UNL     1      -8.412   7.767  15.303  1.00  0.00     0.001 A 
HETATM   25  C17 UNL     1      -7.214   8.479  15.396  1.00  0.00     0.009 A 
ENDBRANCH  18  20
ENDBRANCH  16  18
ENDBRANCH   2  14
BRANCH   1  26
HETATM   26  C6  UNL     1      -3.489   5.428  12.927  1.00  0.00     0.038 C 
BRANCH  26  27
HETATM   27  C5  UNL     1      -3.957   4.321  12.017  1.00  0.00    -0.019 C 
HETATM   28  C3  UNL     1      -5.168   3.726  11.966  1.00  0.00    -0.067 C 
HETATM   29  C4  UNL     1      -6.322   4.075  12.870  1.00  0.00     0.048 C 
BRANCH  28  30
HETATM   30  C2  UNL     1      -5.380   2.674  10.973  1.00  0.00    -0.004 C 
HETATM   31  C1  UNL     1      -5.780   1.418  11.210  1.00  0.00     0.012 C 
ENDBRANCH  28  30
ENDBRANCH  26  27
ENDBRANCH   1  26
TORSDOF 6
ENDMDL
MODEL 7
REMARK minimizedAffinity -8.18240929
REMARK  6 active torsions:
REMARK  status: ('A' for Active; 'I' for Inactive)
REMARK    1  A    between atoms: C2_2  and  C3_3 
REMARK    2  A    between atoms: C5_5  and  C6_6 
REMARK    3  A    between atoms: C6_6  and  C7_7 
REMARK    4  A    between atoms: C8_8  and  C9_9 
REMARK       I    between atoms: C9_9  and  N1_11 
REMARK    5  A    between atoms: N1_11  and  C10_12 
REMARK    6  A    between atoms: C10_12  and  C12_14 
ROOT
HETATM    1  C7  UNL     1      -0.103   6.097  13.802  1.00  0.00     0.036 C 
HETATM    2  C8  UNL     1      -1.404   5.599  13.188  1.00  0.00     0.011 C 
HETATM    3  C18 UNL     1      -1.422   5.173  11.914  1.00  0.00    -0.013 C 
HETATM    4  C19 UNL     1      -0.176   5.277  11.102  1.00  0.00     0.034 C 
HETATM    5  C20 UNL     1       0.473   6.671  11.280  1.00  0.00     0.005 C 
HETATM    6  C21 UNL     1       1.771   6.840  10.408  1.00  0.00    -0.043 C 
HETATM    7  C22 UNL     1       1.386   6.949   8.909  1.00  0.00     0.015 C 
HETATM    8  C23 UNL     1       2.754   5.656  10.528  1.00  0.00     0.015 C 
HETATM    9  C24 UNL     1       2.469   8.155  10.793  1.00  0.00     0.009 C 
HETATM   10  C25 UNL     1       2.890   8.229  12.251  1.00  0.00     0.002 C 
HETATM   11  C26 UNL     1       2.055   7.387  13.212  1.00  0.00     0.010 C 
HETATM   12  C27 UNL     1       0.580   7.151  12.811  1.00  0.00    -0.031 C 
HETATM   13  C28 UNL     1      -0.164   8.512  12.932  1.00  0.00     0.016 C 
ENDROOT
BRANCH   2  14
HETATM   14  C9  UNL     1      -2.680   5.534  13.940  1.00  0.00     0.248 C 
HETATM   15  O1  UNL     1      -2.710   5.398  15.154  1.00  0.00    -0.268 OA
HETATM   16  N1  UNL     1      -3.774   5.641  13.119  1.00  0.00    -0.349 N 
HETATM   17  H11 UNL     1      -3.618   5.589  12.121  1.00  0.00     0.163 HD
BRANCH  16  18
HETATM   18  C10 UNL     1      -5.116   5.375  13.603  1.00  0.00     0.114 C 
HETATM   19  C11 UNL     1      -6.016   6.587  13.348  1.00  0.00     0.037 C 
BRANCH  18  20
HETATM   20  C12 UNL     1      -5.645   4.103  12.964  1.00  0.00    -0.036 A 
HETATM   21  C13 UNL     1      -4.882   3.456  11.978  1.00  0.00     0.009 A 
HETATM   22  C14 UNL     1      -5.347   2.293  11.362  1.00  0.00     0.001 A 
HETATM   23  C15 UNL     1      -6.586   1.764  11.715  1.00  0.00     0.000 A 
HETATM   24  C16 UNL     1      -7.368   2.405  12.675  1.00  0.00     0.001 A 
HETATM   25  C17 UNL     1      -6.903   3.568  13.291  1.00  0.00     0.009 A 
ENDBRANCH  18  20
ENDBRANCH  16  18
ENDBRANCH   2  14
BRANCH   1  26
HETATM   26  C6  UNL     1      -0.283   6.532  15.291  1.00  0.00     0.038 C 
BRANCH  26  27
HETATM   27  C5  UNL     1      -0.022   7.987  15.583  1.00  0.00    -0.019 C 
HETATM   28  C3  UNL     1      -0.822   8.880  16.203  1.00  0.00    -0.067 C 
HETATM   29  C4  UNL     1      -2.198   8.563  16.728  1.00  0.00     0.048 C 
BRANCH  28  30
HETATM   30  C2  UNL     1      -0.328  10.244  16.380  1.00  0.00    -0.004 C 
HETATM   31  C1  UNL     1      -0.295  10.941  17.524  1.00  0.00     0.012 C 
ENDBRANCH  28  30
ENDBRANCH  26  27
ENDBRANCH   1  26
TORSDOF 6
ENDMDL
MODEL 8
REMARK minimizedAffinity -8.07408524
REMARK  6 active torsions:
REMARK  status: ('A' for Active; 'I' for Inactive)
REMARK    1  A    between atoms: C2_2  and  C3_3 
REMARK    2  A    between atoms: C5_5  and  C6_6 
REMARK    3  A    between atoms: C6_6  and  C7_7 
REMARK    4  A    between atoms: C8_8  and  C9_9 
REMARK       I    between atoms: C9_9  and  N1_11 
REMARK    5  A    between atoms: N1_11  and  C10_12 
REMARK    6  A    between atoms: C10_12  and  C12_14 
ROOT
HETATM    1  C7  UNL     1      -1.080   6.027  12.508  1.00  0.00     0.036 C 
HETATM    2  C8  UNL     1       0.436   5.967  12.625  1.00  0.00     0.011 C 
HETATM    3  C18 UNL     1       1.039   6.411  13.740  1.00  0.00    -0.013 C 
HETATM    4  C19 UNL     1       0.207   7.034  14.809  1.00  0.00     0.034 C 
HETATM    5  C20 UNL     1      -0.792   8.047  14.199  1.00  0.00     0.005 C 
HETATM    6  C21 UNL     1      -1.664   8.759  15.297  1.00  0.00    -0.043 C 
HETATM    7  C22 UNL     1      -0.785   9.752  16.103  1.00  0.00     0.015 C 
HETATM    8  C23 UNL     1      -2.284   7.784  16.321  1.00  0.00     0.015 C 
HETATM    9  C24 UNL     1      -2.764   9.584  14.609  1.00  0.00     0.009 C 
HETATM   10  C25 UNL     1      -3.707   8.762  13.746  1.00  0.00     0.002 C 
HETATM   11  C26 UNL     1      -3.110   7.481  13.171  1.00  0.00     0.010 C 
HETATM   12  C27 UNL     1      -1.584   7.490  12.916  1.00  0.00    -0.031 C 
HETATM   13  C28 UNL     1      -1.312   8.465  11.734  1.00  0.00     0.016 C 
ENDROOT
BRANCH   2  14
HETATM   14  C9  UNL     1       1.307   5.411  11.562  1.00  0.00     0.248 C 
HETATM   15  O1  UNL     1       1.357   4.213  11.325  1.00  0.00    -0.268 OA
HETATM   16  N1  UNL     1       2.020   6.386  10.910  1.00  0.00    -0.349 N 
HETATM   17  H11 UNL     1       2.010   7.317  11.305  1.00  0.00     0.163 HD
BRANCH  16  18
HETATM   18  C10 UNL     1       3.098   6.056   9.997  1.00  0.00     0.114 C 
HETATM   19  C11 UNL     1       2.626   6.208   8.549  1.00  0.00     0.037 C 
BRANCH  18  20
HETATM   20  C12 UNL     1       4.313   6.911  10.314  1.00  0.00    -0.036 A 
HETATM   21  C13 UNL     1       4.297   8.280   9.996  1.00  0.00     0.009 A 
HETATM   22  C14 UNL     1       5.403   9.088  10.262  1.00  0.00     0.001 A 
HETATM   23  C15 UNL     1       6.545   8.541  10.839  1.00  0.00     0.000 A 
HETATM   24  C16 UNL     1       6.588   7.181  11.140  1.00  0.00     0.001 A 
HETATM   25  C17 UNL     1       5.482   6.371  10.875  1.00  0.00     0.009 A 
ENDBRANCH  18  20
ENDBRANCH  16  18
ENDBRANCH   2  14
BRANCH   1  26
HETATM   26  C6  UNL     1      -1.590   5.451  11.149  1.00  0.00     0.038 C 
BRANCH  26  27
HETATM   27  C5  UNL     1      -2.112   4.038  11.192  1.00  0.00    -0.019 C 
HETATM   28  C3  UNL     1      -3.181   3.553  11.858  1.00  0.00    -0.067 C 
HETATM   29  C4  UNL     1      -4.082   4.385  12.733  1.00  0.00     0.048 C 
BRANCH  28  30
HETATM   30  C2  UNL     1      -3.491   2.131  11.726  1.00  0.00    -0.004 C 
HETATM   31  C1  UNL     1      -4.683   1.596  11.428  1.00  0.00     0.012 C 
ENDBRANCH  28  30
ENDBRANCH  26  27
ENDBRANCH   1  26
TORSDOF 6
ENDMDL
MODEL 9
REMARK minimizedAffinity -8.05932426
REMARK  6 active torsions:
REMARK  status: ('A' for Active; 'I' for Inactive)
REMARK    1  A    between atoms: C2_2  and  C3_3 
REMARK    2  A    between atoms: C5_5  and  C6_6 
REMARK    3  A    between atoms: C6_6  and  C7_7 
REMARK    4  A    between atoms: C8_8  and  C9_9 
REMARK       I    between atoms: C9_9  and  N1_11 
REMARK    5  A    between atoms: N1_11  and  C10_12 
REMARK    6  A    between atoms: C10_12  and  C12_14 
ROOT
HETATM    1  C7  UNL     1       1.519   6.573  13.234  1.00  0.00     0.036 C 
HETATM    2  C8  UNL     1       0.255   5.805  12.879  1.00  0.00     0.011 C 
HETATM    3  C18 UNL     1       0.226   5.034  11.779  1.00  0.00    -0.013 C 
HETATM    4  C19 UNL     1       1.418   5.016  10.882  1.00  0.00     0.034 C 
HETATM    5  C20 UNL     1       1.919   6.456  10.617  1.00  0.00     0.005 C 
HETATM    6  C21 UNL     1       3.152   6.488   9.641  1.00  0.00    -0.043 C 
HETATM    7  C22 UNL     1       2.693   6.130   8.203  1.00  0.00     0.015 C 
HETATM    8  C23 UNL     1       4.261   5.481  10.015  1.00  0.00     0.015 C 
HETATM    9  C24 UNL     1       3.721   7.915   9.593  1.00  0.00     0.009 C 
HETATM   10  C25 UNL     1       4.196   8.439  10.938  1.00  0.00     0.002 C 
HETATM   11  C26 UNL     1       3.498   7.833  12.153  1.00  0.00     0.010 C 
HETATM   12  C27 UNL     1       2.041   7.359  11.942  1.00  0.00    -0.031 C 
HETATM   13  C28 UNL     1       1.161   8.625  11.732  1.00  0.00     0.016 C 
ENDROOT
BRANCH   2  14
HETATM   14  C9  UNL     1      -0.973   5.841  13.709  1.00  0.00     0.248 C 
HETATM   15  O1  UNL     1      -1.025   5.315  14.811  1.00  0.00    -0.268 OA
HETATM   16  N1  UNL     1      -1.998   6.516  13.095  1.00  0.00    -0.349 N 
HETATM   17  H11 UNL     1      -1.878   6.766  12.123  1.00  0.00     0.163 HD
BRANCH  16  18
HETATM   18  C10 UNL     1      -3.351   6.481  13.617  1.00  0.00     0.114 C 
HETATM   19  C11 UNL     1      -4.017   7.849  13.445  1.00  0.00     0.037 C 
BRANCH  18  20
HETATM   20  C12 UNL     1      -4.126   5.360  12.946  1.00  0.00    -0.036 A 
HETATM   21  C13 UNL     1      -5.461   5.125  13.316  1.00  0.00     0.009 A 
HETATM   22  C14 UNL     1      -6.195   4.094  12.728  1.00  0.00     0.001 A 
HETATM   23  C15 UNL     1      -5.605   3.275  11.770  1.00  0.00     0.000 A 
HETATM   24  C16 UNL     1      -4.274   3.478  11.407  1.00  0.00     0.001 A 
HETATM   25  C17 UNL     1      -3.539   4.509  11.994  1.00  0.00     0.009 A 
ENDBRANCH  18  20
ENDBRANCH  16  18
ENDBRANCH   2  14
BRANCH   1  26
HETATM   26  C6  UNL     1       1.359   7.396  14.551  1.00  0.00     0.038 C 
BRANCH  26  27
HETATM   27  C5  UNL     1       0.697   8.742  14.406  1.00  0.00    -0.019 C 
HETATM   28  C3  UNL     1      -0.331   9.258  15.113  1.00  0.00    -0.067 C 
HETATM   29  C4  UNL     1      -1.043   8.531  16.225  1.00  0.00     0.048 C 
BRANCH  28  30
HETATM   30  C2  UNL     1      -0.788  10.607  14.785  1.00  0.00    -0.004 C 
HETATM   31  C1  UNL     1      -2.001  10.954  14.337  1.00  0.00     0.012 C 
ENDBRANCH  28  30
ENDBRANCH  26  27
ENDBRANCH   1  26
TORSDOF 6
ENDMDL
