MODEL 1
REMARK minimizedAffinity -9.88018608
REMARK  4 active torsions:
REMARK  status: ('A' for Active; 'I' for Inactive)
REMARK    1  A    between atoms: C4_4  and  C5_5 
REMARK    2  A    between atoms: C5_5  and  C6_7 
REMARK    3  A    between atoms: C6_7  and  C7_8 
REMARK    4  A    between atoms: C7_8  and  C9_10 
ROOT
HETATM    1  C9  UNL     1       1.083   7.852  12.325  1.00  0.00    -0.002 C 
HETATM    2  C10 UNL     1       0.540   8.641  11.093  1.00  0.00     0.006 C 
HETATM    3  C11 UNL     1      -1.001   8.583  11.151  1.00  0.00     0.011 C 
HETATM    4  C12 UNL     1      -1.322   8.095  12.575  1.00  0.00    -0.032 C 
HETATM    5  C13 UNL     1      -1.215   9.364  13.490  1.00  0.00     0.016 C 
HETATM    6  C14 UNL     1      -2.725   7.407  12.729  1.00  0.00     0.004 C 
HETATM    7  C15 UNL     1      -3.873   8.413  12.969  1.00  0.00     0.007 C 
HETATM    8  C16 UNL     1      -5.275   7.797  13.044  1.00  0.00     0.007 C 
HETATM    9  C17 UNL     1      -5.310   6.287  13.339  1.00  0.00     0.010 C 
HETATM   10  C18 UNL     1      -6.690   5.763  13.838  1.00  0.00     0.018 C 
HETATM   11  C19 UNL     1      -7.846   6.336  12.994  1.00  0.00     0.023 C 
HETATM   12  C20 UNL     1      -6.757   4.225  13.734  1.00  0.00     0.023 C 
HETATM   13  C21 UNL     1      -6.913   6.146  15.305  1.00  0.00     0.135 C 
HETATM   14  O2  UNL     1      -8.040   6.166  15.807  1.00  0.00    -0.297 OA
HETATM   15  C22 UNL     1      -5.710   6.529  16.134  1.00  0.00     0.080 C 
HETATM   16  C23 UNL     1      -4.499   5.709  15.732  1.00  0.00     0.018 C 
HETATM   17  C24 UNL     1      -4.148   5.891  14.268  1.00  0.00    -0.026 A 
HETATM   18  C25 UNL     1      -3.165   4.935  13.645  1.00  0.00     0.021 A 
HETATM   19  C26 UNL     1      -2.729   6.369  13.878  1.00  0.00    -0.027 A 
HETATM   20  C27 UNL     1      -1.604   6.515  14.895  1.00  0.00     0.011 C 
HETATM   21  C28 UNL     1      -0.194   6.601  14.269  1.00  0.00     0.011 C 
HETATM   22  C29 UNL     1      -0.167   7.040  12.792  1.00  0.00    -0.032 C 
HETATM   23  C30 UNL     1      -0.307   5.781  11.893  1.00  0.00     0.016 C 
ENDROOT
BRANCH   1  24
HETATM   24  C7  UNL     1       2.503   7.251  12.094  1.00  0.00    -0.007 C 
HETATM   25  C8  UNL     1       3.664   8.214  11.830  1.00  0.00     0.011 C 
BRANCH  24  26
HETATM   26  C6  UNL     1       2.522   5.996  11.190  1.00  0.00     0.087 C 
BRANCH  26  27
HETATM   27  C5  UNL     1       3.307   6.048   9.889  1.00  0.00     0.149 C 
HETATM   28  O1  UNL     1       4.533   5.973   9.844  1.00  0.00    -0.293 OA
BRANCH  27  29
HETATM   29  C4  UNL     1       2.587   6.202   8.588  1.00  0.00     0.052 C 
HETATM   30  C2  UNL     1       2.481   7.266   7.771  1.00  0.00    -0.084 C 
HETATM   31  C1  UNL     1       1.731   7.133   6.468  1.00  0.00     0.043 C 
HETATM   32  C3  UNL     1       3.005   8.649   8.033  1.00  0.00     0.043 C 
ENDBRANCH  27  29
ENDBRANCH  26  27
ENDBRANCH  24  26
ENDBRANCH   1  24
TORSDOF 4
ENDMDL
MODEL 2
REMARK minimizedAffinity -9.6844244
REMARK  4 active torsions:
REMARK  status: ('A' for Active; 'I' for Inactive)
REMARK    1  A    between atoms: C4_4  and  C5_5 
REMARK    2  A    between atoms: C5_5  and  C6_7 
REMARK    3  A    between atoms: C6_7  and  C7_8 
REMARK    4  A    between atoms: C7_8  and  C9_10 
ROOT
HETATM    1  C9  UNL     1      -1.689   6.123  12.901  1.00  0.00    -0.002 C 
HETATM    2  C10 UNL     1      -1.387   6.136  14.432  1.00  0.00     0.006 C 
HETATM    3  C11 UNL     1       0.092   6.539  14.608  1.00  0.00     0.011 C 
HETATM    4  C12 UNL     1       0.511   7.100  13.236  1.00  0.00    -0.032 C 
HETATM    5  C13 UNL     1      -0.012   8.577  13.207  1.00  0.00     0.016 C 
HETATM    6  C14 UNL     1       2.055   7.043  12.952  1.00  0.00     0.004 C 
HETATM    7  C15 UNL     1       2.823   8.256  13.523  1.00  0.00     0.007 C 
HETATM    8  C16 UNL     1       4.345   8.208  13.344  1.00  0.00     0.007 C 
HETATM    9  C17 UNL     1       4.843   7.246  12.250  1.00  0.00     0.010 C 
HETATM   10  C18 UNL     1       6.304   7.513  11.779  1.00  0.00     0.018 C 
HETATM   11  C19 UNL     1       7.244   7.756  12.976  1.00  0.00     0.023 C 
HETATM   12  C20 UNL     1       6.852   6.302  10.996  1.00  0.00     0.023 C 
HETATM   13  C21 UNL     1       6.356   8.734  10.855  1.00  0.00     0.135 C 
HETATM   14  O2  UNL     1       7.407   9.348  10.648  1.00  0.00    -0.297 OA
HETATM   15  C22 UNL     1       5.072   9.195  10.206  1.00  0.00     0.080 C 
HETATM   16  C23 UNL     1       4.190   8.010   9.862  1.00  0.00     0.018 C 
HETATM   17  C24 UNL     1       3.839   7.187  11.085  1.00  0.00    -0.026 A 
HETATM   18  C25 UNL     1       3.222   5.828  10.878  1.00  0.00     0.021 A 
HETATM   19  C26 UNL     1       2.353   6.939  11.436  1.00  0.00    -0.027 A 
HETATM   20  C27 UNL     1       1.212   7.351  10.516  1.00  0.00     0.011 C 
HETATM   21  C28 UNL     1      -0.137   6.669  10.834  1.00  0.00     0.011 C 
HETATM   22  C29 UNL     1      -0.261   6.118  12.269  1.00  0.00    -0.032 C 
HETATM   23  C30 UNL     1       0.291   4.667  12.296  1.00  0.00     0.016 C 
ENDROOT
BRANCH   1  24
HETATM   24  C7  UNL     1      -2.842   5.151  12.509  1.00  0.00    -0.007 C 
HETATM   25  C8  UNL     1      -2.765   4.442  11.154  1.00  0.00     0.011 C 
BRANCH  24  26
HETATM   26  C6  UNL     1      -4.257   5.671  12.856  1.00  0.00     0.087 C 
BRANCH  26  27
HETATM   27  C5  UNL     1      -5.384   4.663  13.014  1.00  0.00     0.149 C 
HETATM   28  O1  UNL     1      -6.332   4.832  13.778  1.00  0.00    -0.293 OA
BRANCH  27  29
HETATM   29  C4  UNL     1      -5.367   3.394  12.225  1.00  0.00     0.052 C 
HETATM   30  C2  UNL     1      -6.320   2.457  12.059  1.00  0.00    -0.084 C 
HETATM   31  C1  UNL     1      -6.060   1.283  11.147  1.00  0.00     0.043 C 
HETATM   32  C3  UNL     1      -7.658   2.413  12.740  1.00  0.00     0.043 C 
ENDBRANCH  27  29
ENDBRANCH  26  27
ENDBRANCH  24  26
ENDBRANCH   1  24
TORSDOF 4
ENDMDL
MODEL 3
REMARK minimizedAffinity -9.52017689
REMARK  4 active torsions:
REMARK  status: ('A' for Active; 'I' for Inactive)
REMARK    1  A    between atoms: C4_4  and  C5_5 
REMARK    2  A    between atoms: C5_5  and  C6_7 
REMARK    3  A    between atoms: C6_7  and  C7_8 
REMARK    4  A    between atoms: C7_8  and  C9_10 
ROOT
HETATM    1  C9  UNL     1      -1.751   5.552  12.538  1.00  0.00    -0.002 C 
HETATM    2  C10 UNL     1      -1.509   5.555  14.079  1.00  0.00     0.006 C 
HETATM    3  C11 UNL     1      -0.064   6.042  14.319  1.00  0.00     0.011 C 
HETATM    4  C12 UNL     1       0.372   6.651  12.974  1.00  0.00    -0.032 C 
HETATM    5  C13 UNL     1      -0.239   8.096  12.947  1.00  0.00     0.016 C 
HETATM    6  C14 UNL     1       1.926   6.693  12.749  1.00  0.00     0.004 C 
HETATM    7  C15 UNL     1       2.597   7.938  13.369  1.00  0.00     0.007 C 
HETATM    8  C16 UNL     1       4.125   7.985  13.248  1.00  0.00     0.007 C 
HETATM    9  C17 UNL     1       4.721   7.074  12.159  1.00  0.00     0.010 C 
HETATM   10  C18 UNL     1       6.180   7.437  11.749  1.00  0.00     0.018 C 
HETATM   11  C19 UNL     1       7.058   7.714  12.986  1.00  0.00     0.023 C 
HETATM   12  C20 UNL     1       6.829   6.275  10.970  1.00  0.00     0.023 C 
HETATM   13  C21 UNL     1       6.193   8.675  10.848  1.00  0.00     0.135 C 
HETATM   14  O2  UNL     1       7.211   9.355  10.692  1.00  0.00    -0.297 OA
HETATM   15  C22 UNL     1       4.909   9.070  10.157  1.00  0.00     0.080 C 
HETATM   16  C23 UNL     1       4.114   7.841   9.760  1.00  0.00     0.018 C 
HETATM   17  C24 UNL     1       3.767   6.976  10.955  1.00  0.00    -0.026 A 
HETATM   18  C25 UNL     1       3.242   5.587  10.703  1.00  0.00     0.021 A 
HETATM   19  C26 UNL     1       2.286   6.634  11.245  1.00  0.00    -0.027 A 
HETATM   20  C27 UNL     1       1.159   6.994  10.287  1.00  0.00     0.011 C 
HETATM   21  C28 UNL     1      -0.158   6.227  10.542  1.00  0.00     0.011 C 
HETATM   22  C29 UNL     1      -0.302   5.643  11.962  1.00  0.00    -0.032 C 
HETATM   23  C30 UNL     1       0.334   4.227  11.988  1.00  0.00     0.016 C 
ENDROOT
BRANCH   1  24
HETATM   24  C7  UNL     1      -2.828   4.519  12.086  1.00  0.00    -0.007 C 
HETATM   25  C8  UNL     1      -2.848   4.087  10.617  1.00  0.00     0.011 C 
BRANCH  24  26
HETATM   26  C6  UNL     1      -4.236   4.770  12.677  1.00  0.00     0.087 C 
BRANCH  26  27
HETATM   27  C5  UNL     1      -5.341   3.772  12.370  1.00  0.00     0.149 C 
HETATM   28  O1  UNL     1      -5.120   2.619  12.005  1.00  0.00    -0.293 OA
BRANCH  27  29
HETATM   29  C4  UNL     1      -6.773   4.179  12.503  1.00  0.00     0.052 C 
HETATM   30  C2  UNL     1      -7.317   5.321  12.966  1.00  0.00    -0.084 C 
HETATM   31  C1  UNL     1      -8.815   5.498  12.935  1.00  0.00     0.043 C 
HETATM   32  C3  UNL     1      -6.579   6.475  13.581  1.00  0.00     0.043 C 
ENDBRANCH  27  29
ENDBRANCH  26  27
ENDBRANCH  24  26
ENDBRANCH   1  24
TORSDOF 4
ENDMDL
MODEL 4
REMARK minimizedAffinity -9.4062767
REMARK  4 active torsions:
REMARK  status: ('A' for Active; 'I' for Inactive)
REMARK    1  A    between atoms: C4_4  and  C5_5 
REMARK    2  A    between atoms: C5_5  and  C6_7 
REMARK    3  A    between atoms: C6_7  and  C7_8 
REMARK    4  A    between atoms: C7_8  and  C9_10 
ROOT
HETATM    1  C9  UNL     1      -3.806   7.028  14.522  1.00  0.00    -0.002 C 
HETATM    2  C10 UNL     1      -4.244   5.701  13.828  1.00  0.00     0.006 C 
HETATM    3  C11 UNL     1      -3.094   5.267  12.895  1.00  0.00     0.011 C 
HETATM    4  C12 UNL     1      -1.890   6.122  13.332  1.00  0.00    -0.032 C 
HETATM    5  C13 UNL     1      -1.299   5.405  14.595  1.00  0.00     0.016 C 
HETATM    6  C14 UNL     1      -0.791   6.315  12.227  1.00  0.00     0.004 C 
HETATM    7  C15 UNL     1       0.231   5.158  12.178  1.00  0.00     0.007 C 
HETATM    8  C16 UNL     1       1.278   5.258  11.062  1.00  0.00     0.007 C 
HETATM    9  C17 UNL     1       1.464   6.666  10.467  1.00  0.00     0.010 C 
HETATM   10  C18 UNL     1       2.790   6.855   9.670  1.00  0.00     0.018 C 
HETATM   11  C19 UNL     1       3.056   5.659   8.734  1.00  0.00     0.023 C 
HETATM   12  C20 UNL     1       2.723   8.124   8.797  1.00  0.00     0.023 C 
HETATM   13  C21 UNL     1       3.976   7.004  10.629  1.00  0.00     0.135 C 
HETATM   14  O2  UNL     1       5.138   6.807  10.260  1.00  0.00    -0.297 OA
HETATM   15  C22 UNL     1       3.693   7.382  12.064  1.00  0.00     0.080 C 
HETATM   16  C23 UNL     1       2.518   8.337  12.144  1.00  0.00     0.018 C 
HETATM   17  C24 UNL     1       1.258   7.741  11.549  1.00  0.00    -0.026 A 
HETATM   18  C25 UNL     1       0.090   8.656  11.286  1.00  0.00     0.021 A 
HETATM   19  C26 UNL     1      -0.023   7.646  12.413  1.00  0.00    -0.027 A 
HETATM   20  C27 UNL     1      -0.127   8.275  13.796  1.00  0.00     0.011 C 
HETATM   21  C28 UNL     1      -1.574   8.426  14.314  1.00  0.00     0.011 C 
HETATM   22  C29 UNL     1      -2.604   7.497  13.641  1.00  0.00    -0.032 C 
HETATM   23  C30 UNL     1      -3.160   8.201  12.374  1.00  0.00     0.016 C 
ENDROOT
BRANCH   1  24
HETATM   24  C7  UNL     1      -5.007   7.927  14.945  1.00  0.00    -0.007 C 
HETATM   25  C8  UNL     1      -4.709   9.320  15.506  1.00  0.00     0.011 C 
BRANCH  24  26
HETATM   26  C6  UNL     1      -6.123   7.177  15.709  1.00  0.00     0.087 C 
BRANCH  26  27
HETATM   27  C5  UNL     1      -7.377   6.771  14.951  1.00  0.00     0.149 C 
HETATM   28  O1  UNL     1      -8.286   7.556  14.690  1.00  0.00    -0.293 OA
BRANCH  27  29
HETATM   29  C4  UNL     1      -7.547   5.359  14.491  1.00  0.00     0.052 C 
HETATM   30  C2  UNL     1      -7.961   4.871  13.306  1.00  0.00    -0.084 C 
HETATM   31  C1  UNL     1      -7.986   3.379  13.082  1.00  0.00     0.043 C 
HETATM   32  C3  UNL     1      -8.468   5.670  12.140  1.00  0.00     0.043 C 
ENDBRANCH  27  29
ENDBRANCH  26  27
ENDBRANCH  24  26
ENDBRANCH   1  24
TORSDOF 4
ENDMDL
MODEL 5
REMARK minimizedAffinity -9.19166946
REMARK  4 active torsions:
REMARK  status: ('A' for Active; 'I' for Inactive)
REMARK    1  A    between atoms: C4_4  and  C5_5 
REMARK    2  A    between atoms: C5_5  and  C6_7 
REMARK    3  A    between atoms: C6_7  and  C7_8 
REMARK    4  A    between atoms: C7_8  and  C9_10 
ROOT
HETATM    1  C9  UNL     1       1.472   7.098  13.060  1.00  0.00    -0.002 C 
HETATM    2  C10 UNL     1       0.570   8.130  13.805  1.00  0.00     0.006 C 
HETATM    3  C11 UNL     1      -0.876   7.591  13.766  1.00  0.00     0.011 C 
HETATM    4  C12 UNL     1      -0.734   6.119  13.339  1.00  0.00    -0.032 C 
HETATM    5  C13 UNL     1      -0.350   5.336  14.642  1.00  0.00     0.016 C 
HETATM    6  C14 UNL     1      -2.018   5.506  12.672  1.00  0.00     0.004 C 
HETATM    7  C15 UNL     1      -3.036   4.962  13.699  1.00  0.00     0.007 C 
HETATM    8  C16 UNL     1      -4.343   4.428  13.103  1.00  0.00     0.007 C 
HETATM    9  C17 UNL     1      -4.280   4.074  11.605  1.00  0.00     0.010 C 
HETATM   10  C18 UNL     1      -5.434   3.148  11.117  1.00  0.00     0.018 C 
HETATM   11  C19 UNL     1      -6.797   3.612  11.668  1.00  0.00     0.023 C 
HETATM   12  C20 UNL     1      -5.526   3.162   9.577  1.00  0.00     0.023 C 
HETATM   13  C21 UNL     1      -5.188   1.702  11.561  1.00  0.00     0.135 C 
HETATM   14  O2  UNL     1      -6.102   0.874  11.612  1.00  0.00    -0.297 OA
HETATM   15  C22 UNL     1      -3.787   1.306  11.963  1.00  0.00     0.080 C 
HETATM   16  C23 UNL     1      -2.761   2.032  11.115  1.00  0.00     0.018 C 
HETATM   17  C24 UNL     1      -2.885   3.539  11.235  1.00  0.00    -0.026 A 
HETATM   18  C25 UNL     1      -2.144   4.398  10.244  1.00  0.00     0.021 A 
HETATM   19  C26 UNL     1      -1.660   4.371  11.682  1.00  0.00    -0.027 A 
HETATM   20  C27 UNL     1      -0.274   3.764  11.855  1.00  0.00     0.011 C 
HETATM   21  C28 UNL     1       0.869   4.801  11.902  1.00  0.00     0.011 C 
HETATM   22  C29 UNL     1       0.433   6.231  12.281  1.00  0.00    -0.032 C 
HETATM   23  C30 UNL     1       0.022   6.987  10.988  1.00  0.00     0.016 C 
ENDROOT
BRANCH   1  24
HETATM   24  C7  UNL     1       2.750   7.735  12.435  1.00  0.00    -0.007 C 
HETATM   25  C8  UNL     1       3.350   8.971  13.112  1.00  0.00     0.011 C 
BRANCH  24  26
HETATM   26  C6  UNL     1       2.725   7.826  10.891  1.00  0.00     0.087 C 
BRANCH  26  27
HETATM   27  C5  UNL     1       3.395   6.724  10.087  1.00  0.00     0.149 C 
HETATM   28  O1  UNL     1       4.290   6.013  10.541  1.00  0.00    -0.293 OA
BRANCH  27  29
HETATM   29  C4  UNL     1       2.976   6.467   8.676  1.00  0.00     0.052 C 
HETATM   30  C2  UNL     1       2.205   7.198   7.848  1.00  0.00    -0.084 C 
HETATM   31  C1  UNL     1       1.983   6.731   6.430  1.00  0.00     0.043 C 
HETATM   32  C3  UNL     1       1.467   8.458   8.196  1.00  0.00     0.043 C 
ENDBRANCH  27  29
ENDBRANCH  26  27
ENDBRANCH  24  26
ENDBRANCH   1  24
TORSDOF 4
ENDMDL
MODEL 6
REMARK minimizedAffinity -8.93110657
REMARK  4 active torsions:
REMARK  status: ('A' for Active; 'I' for Inactive)
REMARK    1  A    between atoms: C4_4  and  C5_5 
REMARK    2  A    between atoms: C5_5  and  C6_7 
REMARK    3  A    between atoms: C6_7  and  C7_8 
REMARK    4  A    between atoms: C7_8  and  C9_10 
ROOT
HETATM    1  C9  UNL     1      -5.056   5.568  13.562  1.00  0.00    -0.002 C 
HETATM    2  C10 UNL     1      -6.055   5.674  14.757  1.00  0.00     0.006 C 
HETATM    3  C11 UNL     1      -5.552   6.804  15.680  1.00  0.00     0.011 C 
HETATM    4  C12 UNL     1      -4.509   7.562  14.839  1.00  0.00    -0.032 C 
HETATM    5  C13 UNL     1      -5.332   8.523  13.912  1.00  0.00     0.016 C 
HETATM    6  C14 UNL     1      -3.449   8.362  15.678  1.00  0.00     0.004 C 
HETATM    7  C15 UNL     1      -3.934   9.770  16.088  1.00  0.00     0.007 C 
HETATM    8  C16 UNL     1      -2.969  10.560  16.979  1.00  0.00     0.007 C 
HETATM    9  C17 UNL     1      -1.510  10.069  16.955  1.00  0.00     0.010 C 
HETATM   10  C18 UNL     1      -0.476  11.104  17.494  1.00  0.00     0.018 C 
HETATM   11  C19 UNL     1      -0.971  11.763  18.797  1.00  0.00     0.023 C 
HETATM   12  C20 UNL     1       0.870  10.417  17.802  1.00  0.00     0.023 C 
HETATM   13  C21 UNL     1      -0.220  12.199  16.454  1.00  0.00     0.135 C 
HETATM   14  O2  UNL     1       0.261  13.292  16.766  1.00  0.00    -0.297 OA
HETATM   15  C22 UNL     1      -0.592  11.922  15.016  1.00  0.00     0.080 C 
HETATM   16  C23 UNL     1      -0.350  10.465  14.671  1.00  0.00     0.018 C 
HETATM   17  C24 UNL     1      -1.144   9.529  15.561  1.00  0.00    -0.026 A 
HETATM   18  C25 UNL     1      -0.797   8.063  15.545  1.00  0.00     0.021 A 
HETATM   19  C26 UNL     1      -2.107   8.502  14.919  1.00  0.00    -0.027 A 
HETATM   20  C27 UNL     1      -2.180   8.273  13.415  1.00  0.00     0.011 C 
HETATM   21  C28 UNL     1      -2.879   6.957  13.008  1.00  0.00     0.011 C 
HETATM   22  C29 UNL     1      -3.815   6.364  14.079  1.00  0.00    -0.032 C 
HETATM   23  C30 UNL     1      -2.986   5.440  15.013  1.00  0.00     0.016 C 
ENDROOT
BRANCH   1  24
HETATM   24  C7  UNL     1      -5.004   4.145  12.928  1.00  0.00    -0.007 C 
HETATM   25  C8  UNL     1      -3.664   3.641  12.385  1.00  0.00     0.011 C 
BRANCH  24  26
HETATM   26  C6  UNL     1      -6.207   3.813  12.014  1.00  0.00     0.087 C 
BRANCH  26  27
HETATM   27  C5  UNL     1      -7.542   3.480  12.662  1.00  0.00     0.149 C 
HETATM   28  O1  UNL     1      -7.974   2.333  12.755  1.00  0.00    -0.293 OA
BRANCH  27  29
HETATM   29  C4  UNL     1      -8.396   4.574  13.217  1.00  0.00     0.052 C 
HETATM   30  C2  UNL     1      -9.019   5.594  12.597  1.00  0.00    -0.084 C 
HETATM   31  C1  UNL     1      -9.881   6.539  13.399  1.00  0.00     0.043 C 
HETATM   32  C3  UNL     1      -8.919   5.949  11.141  1.00  0.00     0.043 C 
ENDBRANCH  27  29
ENDBRANCH  26  27
ENDBRANCH  24  26
ENDBRANCH   1  24
TORSDOF 4
ENDMDL
MODEL 7
REMARK minimizedAffinity -8.90770721
REMARK  4 active torsions:
REMARK  status: ('A' for Active; 'I' for Inactive)
REMARK    1  A    between atoms: C4_4  and  C5_5 
REMARK    2  A    between atoms: C5_5  and  C6_7 
REMARK    3  A    between atoms: C6_7  and  C7_8 
REMARK    4  A    between atoms: C7_8  and  C9_10 
ROOT
HETATM    1  C9  UNL     1      -6.081   6.983  13.938  1.00  0.00    -0.002 C 
HETATM    2  C10 UNL     1      -6.294   8.368  14.625  1.00  0.00     0.006 C 
HETATM    3  C11 UNL     1      -4.902   9.005  14.820  1.00  0.00     0.011 C 
HETATM    4  C12 UNL     1      -3.961   8.170  13.932  1.00  0.00    -0.032 C 
HETATM    5  C13 UNL     1      -4.147   8.730  12.479  1.00  0.00     0.016 C 
HETATM    6  C14 UNL     1      -2.451   8.210  14.362  1.00  0.00     0.004 C 
HETATM    7  C15 UNL     1      -1.686   9.423  13.787  1.00  0.00     0.007 C 
HETATM    8  C16 UNL     1      -0.229   9.553  14.244  1.00  0.00     0.007 C 
HETATM    9  C17 UNL     1       0.397   8.261  14.803  1.00  0.00     0.010 C 
HETATM   10  C18 UNL     1       1.954   8.274  14.854  1.00  0.00     0.018 C 
HETATM   11  C19 UNL     1       2.486   9.608  15.416  1.00  0.00     0.023 C 
HETATM   12  C20 UNL     1       2.476   7.145  15.766  1.00  0.00     0.023 C 
HETATM   13  C21 UNL     1       2.540   8.059  13.455  1.00  0.00     0.135 C 
HETATM   14  O2  UNL     1       3.700   8.379  13.180  1.00  0.00    -0.297 OA
HETATM   15  C22 UNL     1       1.651   7.458  12.392  1.00  0.00     0.080 C 
HETATM   16  C23 UNL     1       0.713   6.430  12.996  1.00  0.00     0.018 C 
HETATM   17  C24 UNL     1      -0.168   7.029  14.075  1.00  0.00    -0.026 A 
HETATM   18  C25 UNL     1      -0.940   6.091  14.969  1.00  0.00     0.021 A 
HETATM   19  C26 UNL     1      -1.707   6.916  13.952  1.00  0.00    -0.027 A 
HETATM   20  C27 UNL     1      -2.385   6.087  12.870  1.00  0.00     0.011 C 
HETATM   21  C28 UNL     1      -3.870   5.771  13.152  1.00  0.00     0.011 C 
HETATM   22  C29 UNL     1      -4.556   6.724  14.151  1.00  0.00    -0.032 C 
HETATM   23  C30 UNL     1      -4.339   6.181  15.590  1.00  0.00     0.016 C 
ENDROOT
BRANCH   1  24
HETATM   24  C7  UNL     1      -7.214   5.960  14.254  1.00  0.00    -0.007 C 
HETATM   25  C8  UNL     1      -7.114   5.142  15.545  1.00  0.00     0.011 C 
BRANCH  24  26
HETATM   26  C6  UNL     1      -7.683   5.134  13.032  1.00  0.00     0.087 C 
BRANCH  26  27
HETATM   27  C5  UNL     1      -7.256   3.679  12.931  1.00  0.00     0.149 C 
HETATM   28  O1  UNL     1      -8.034   2.740  13.090  1.00  0.00    -0.293 OA
BRANCH  27  29
HETATM   29  C4  UNL     1      -5.832   3.337  12.632  1.00  0.00     0.052 C 
HETATM   30  C2  UNL     1      -5.312   2.403  11.813  1.00  0.00    -0.084 C 
HETATM   31  C1  UNL     1      -3.815   2.306  11.648  1.00  0.00     0.043 C 
HETATM   32  C3  UNL     1      -6.078   1.367  11.041  1.00  0.00     0.043 C 
ENDBRANCH  27  29
ENDBRANCH  26  27
ENDBRANCH  24  26
ENDBRANCH   1  24
TORSDOF 4
ENDMDL
MODEL 8
REMARK minimizedAffinity -8.62978458
REMARK  4 active torsions:
REMARK  status: ('A' for Active; 'I' for Inactive)
REMARK    1  A    between atoms: C4_4  and  C5_5 
REMARK    2  A    between atoms: C5_5  and  C6_7 
REMARK    3  A    between atoms: C6_7  and  C7_8 
REMARK    4  A    between atoms: C7_8  and  C9_10 
ROOT
HETATM    1  C9  UNL     1       0.295   8.148  12.897  1.00  0.00    -0.002 C 
HETATM    2  C10 UNL     1      -0.204   8.878  11.611  1.00  0.00     0.006 C 
HETATM    3  C11 UNL     1      -1.740   8.734  11.565  1.00  0.00     0.011 C 
HETATM    4  C12 UNL     1      -2.131   8.261  12.977  1.00  0.00    -0.032 C 
HETATM    5  C13 UNL     1      -2.157   9.554  13.864  1.00  0.00     0.016 C 
HETATM    6  C14 UNL     1      -3.502   7.498  13.054  1.00  0.00     0.004 C 
HETATM    7  C15 UNL     1      -4.717   8.443  13.188  1.00  0.00     0.007 C 
HETATM    8  C16 UNL     1      -6.085   7.751  13.184  1.00  0.00     0.007 C 
HETATM    9  C17 UNL     1      -6.057   6.248  13.516  1.00  0.00     0.010 C 
HETATM   10  C18 UNL     1      -7.438   5.658  13.934  1.00  0.00     0.018 C 
HETATM   11  C19 UNL     1      -8.562   6.147  12.998  1.00  0.00     0.023 C 
HETATM   12  C20 UNL     1      -7.413   4.118  13.866  1.00  0.00     0.023 C 
HETATM   13  C21 UNL     1      -7.783   6.062  15.371  1.00  0.00     0.135 C 
HETATM   14  O2  UNL     1      -8.941   6.029  15.795  1.00  0.00    -0.297 OA
HETATM   15  C22 UNL     1      -6.662   6.530  16.270  1.00  0.00     0.080 C 
HETATM   16  C23 UNL     1      -5.383   5.771  15.972  1.00  0.00     0.018 C 
HETATM   17  C24 UNL     1      -4.943   5.940  14.532  1.00  0.00    -0.026 A 
HETATM   18  C25 UNL     1      -3.868   5.027  14.001  1.00  0.00     0.021 A 
HETATM   19  C26 UNL     1      -3.528   6.488  14.227  1.00  0.00    -0.027 A 
HETATM   20  C27 UNL     1      -2.486   6.719  15.313  1.00  0.00     0.011 C 
HETATM   21  C28 UNL     1      -1.043   6.871  14.782  1.00  0.00     0.011 C 
HETATM   22  C29 UNL     1      -0.938   7.278  13.299  1.00  0.00    -0.032 C 
HETATM   23  C30 UNL     1      -0.946   5.993  12.426  1.00  0.00     0.016 C 
ENDROOT
BRANCH   1  24
HETATM   24  C7  UNL     1       1.758   7.624  12.778  1.00  0.00    -0.007 C 
HETATM   25  C8  UNL     1       2.646   7.663  14.025  1.00  0.00     0.011 C 
BRANCH  24  26
HETATM   26  C6  UNL     1       2.486   8.060  11.485  1.00  0.00     0.087 C 
BRANCH  26  27
HETATM   27  C5  UNL     1       3.023   6.984  10.555  1.00  0.00     0.149 C 
HETATM   28  O1  UNL     1       2.380   6.537   9.607  1.00  0.00    -0.293 OA
BRANCH  27  29
HETATM   29  C4  UNL     1       4.388   6.417  10.776  1.00  0.00     0.052 C 
HETATM   30  C2  UNL     1       5.584   7.029  10.860  1.00  0.00    -0.084 C 
HETATM   31  C1  UNL     1       6.820   6.214  11.151  1.00  0.00     0.043 C 
HETATM   32  C3  UNL     1       5.856   8.490  10.644  1.00  0.00     0.043 C 
ENDBRANCH  27  29
ENDBRANCH  26  27
ENDBRANCH  24  26
ENDBRANCH   1  24
TORSDOF 4
ENDMDL
MODEL 9
REMARK minimizedAffinity -8.57529354
REMARK  4 active torsions:
REMARK  status: ('A' for Active; 'I' for Inactive)
REMARK    1  A    between atoms: C4_4  and  C5_5 
REMARK    2  A    between atoms: C5_5  and  C6_7 
REMARK    3  A    between atoms: C6_7  and  C7_8 
REMARK    4  A    between atoms: C7_8  and  C9_10 
ROOT
HETATM    1  C9  UNL     1       0.753   6.313  12.579  1.00  0.00    -0.002 C 
HETATM    2  C10 UNL     1       0.946   4.816  12.186  1.00  0.00     0.006 C 
HETATM    3  C11 UNL     1      -0.446   4.149  12.208  1.00  0.00     0.011 C 
HETATM    4  C12 UNL     1      -1.442   5.323  12.248  1.00  0.00    -0.032 C 
HETATM    5  C13 UNL     1      -1.569   5.818  10.765  1.00  0.00     0.016 C 
HETATM    6  C14 UNL     1      -2.850   4.965  12.845  1.00  0.00     0.004 C 
HETATM    7  C15 UNL     1      -3.818   4.365  11.802  1.00  0.00     0.007 C 
HETATM    8  C16 UNL     1      -5.178   3.922  12.352  1.00  0.00     0.007 C 
HETATM    9  C17 UNL     1      -5.567   4.543  13.707  1.00  0.00     0.010 C 
HETATM   10  C18 UNL     1      -7.085   4.444  14.045  1.00  0.00     0.018 C 
HETATM   11  C19 UNL     1      -7.638   3.038  13.736  1.00  0.00     0.023 C 
HETATM   12  C20 UNL     1      -7.327   4.720  15.543  1.00  0.00     0.023 C 
HETATM   13  C21 UNL     1      -7.883   5.475  13.241  1.00  0.00     0.135 C 
HETATM   14  O2  UNL     1      -9.099   5.360  13.062  1.00  0.00    -0.297 OA
HETATM   15  C22 UNL     1      -7.140   6.646  12.642  1.00  0.00     0.080 C 
HETATM   16  C23 UNL     1      -6.015   7.091  13.557  1.00  0.00     0.018 C 
HETATM   17  C24 UNL     1      -5.021   5.977  13.820  1.00  0.00    -0.026 A 
HETATM   18  C25 UNL     1      -4.017   6.163  14.929  1.00  0.00     0.021 A 
HETATM   19  C26 UNL     1      -3.524   6.198  13.494  1.00  0.00    -0.027 A 
HETATM   20  C27 UNL     1      -2.969   7.549  13.066  1.00  0.00     0.011 C 
HETATM   21  C28 UNL     1      -1.433   7.668  13.183  1.00  0.00     0.011 C 
HETATM   22  C29 UNL     1      -0.679   6.323  13.203  1.00  0.00    -0.032 C 
HETATM   23  C30 UNL     1      -0.586   5.823  14.671  1.00  0.00     0.016 C 
ENDROOT
BRANCH   1  24
HETATM   24  C7  UNL     1       2.017   6.945  13.236  1.00  0.00    -0.007 C 
HETATM   25  C8  UNL     1       1.919   7.426  14.686  1.00  0.00     0.011 C 
BRANCH  24  26
HETATM   26  C6  UNL     1       2.795   7.913  12.314  1.00  0.00     0.087 C 
BRANCH  26  27
HETATM   27  C5  UNL     1       3.820   7.335  11.351  1.00  0.00     0.149 C 
HETATM   28  O1  UNL     1       5.032   7.477  11.498  1.00  0.00    -0.293 OA
BRANCH  27  29
HETATM   29  C4  UNL     1       3.368   6.556  10.158  1.00  0.00     0.052 C 
HETATM   30  C2  UNL     1       3.102   6.960   8.901  1.00  0.00    -0.084 C 
HETATM   31  C1  UNL     1       2.712   5.941   7.858  1.00  0.00     0.043 C 
HETATM   32  C3  UNL     1       3.104   8.375   8.399  1.00  0.00     0.043 C 
ENDBRANCH  27  29
ENDBRANCH  26  27
ENDBRANCH  24  26
ENDBRANCH   1  24
TORSDOF 4
ENDMDL
