MODEL 1
REMARK minimizedAffinity -9.48788929
REMARK  11 active torsions:
REMARK  status: ('A' for Active; 'I' for Inactive)
REMARK    1  A    between atoms: C6_6  and  C8_8 
REMARK    2  A    between atoms: C8_8  and  O1_9 
REMARK    3  A    between atoms: O1_9  and  C9_10 
REMARK    4  A    between atoms: C10_12  and  C11_13 
REMARK    5  A    between atoms: C11_13  and  O3_14 
REMARK    6  A    between atoms: C12_15  and  O4_16 
REMARK    7  A    between atoms: C13_17  and  O5_18 
REMARK    8  A    between atoms: C14_19  and  O6_20 
REMARK    9  A    between atoms: C20_26  and  C21_27 
REMARK   10  A    between atoms: C21_27  and  C22_28 
REMARK   11  A    between atoms: C26_34  and  O9_35 
ROOT
HETATM    1  C1  UNL     1       1.769   8.659  13.779  1.00  0.00     0.015 C 
HETATM    2  C2  UNL     1       0.561   8.334  13.286  1.00  0.00    -0.084 C 
HETATM    3  C3  UNL     1      -0.593   9.307  13.347  1.00  0.00     0.034 C 
HETATM    4  C4  UNL     1      -1.884   8.685  13.892  1.00  0.00     0.010 C 
HETATM    5  C5  UNL     1      -2.216   7.363  13.168  1.00  0.00     0.005 C 
HETATM    6  C6  UNL     1      -3.674   6.817  13.395  1.00  0.00    -0.018 C 
HETATM    7  C7  UNL     1      -4.683   7.830  12.780  1.00  0.00     0.018 C 
HETATM    8  C15 UNL     1      -3.878   5.458  12.647  1.00  0.00     0.012 C 
HETATM    9  C16 UNL     1      -2.676   5.001  11.823  1.00  0.00     0.002 C 
HETATM   10  C17 UNL     1      -1.415   4.961  12.673  1.00  0.00     0.010 C 
HETATM   11  C18 UNL     1      -1.045   6.326  13.316  1.00  0.00    -0.032 C 
HETATM   12  C19 UNL     1      -0.706   6.014  14.811  1.00  0.00     0.016 C 
HETATM   13  C20 UNL     1       0.283   6.944  12.700  1.00  0.00     0.025 C 
ENDROOT
BRANCH   6  14
HETATM   14  C8  UNL     1      -4.037   6.626  14.891  1.00  0.00     0.180 C 
BRANCH  14  15
HETATM   15  O1  UNL     1      -5.021   5.596  15.043  1.00  0.00    -0.358 OA
BRANCH  15  16
HETATM   16  C9  UNL     1      -5.837   5.437  13.877  1.00  0.00     0.291 C 
HETATM   17  O2  UNL     1      -5.867   4.077  13.449  1.00  0.00    -0.348 OA
HETATM   18  C10 UNL     1      -6.656   3.913  12.257  1.00  0.00     0.179 C 
HETATM   19  C12 UNL     1      -8.131   4.252  12.530  1.00  0.00     0.180 C 
HETATM   20  C13 UNL     1      -8.238   5.676  13.104  1.00  0.00     0.183 C 
HETATM   21  C14 UNL     1      -7.250   5.937  14.245  1.00  0.00     0.204 C 
BRANCH  18  22
HETATM   22  C11 UNL     1      -6.479   2.483  11.743  1.00  0.00     0.198 C 
BRANCH  22  23
HETATM   23  O3  UNL     1      -5.650   2.479  10.583  1.00  0.00    -0.398 OA
HETATM   24  H17 UNL     1      -5.673   1.575  10.221  1.00  0.00     0.209 HD
ENDBRANCH  22  23
ENDBRANCH  18  22
BRANCH  19  25
HETATM   25  O4  UNL     1      -8.708   3.310  13.445  1.00  0.00    -0.390 OA
HETATM   26  H19 UNL     1      -9.567   3.693  13.703  1.00  0.00     0.210 HD
ENDBRANCH  19  25
BRANCH  20  27
HETATM   27  O5  UNL     1      -9.578   5.897  13.575  1.00  0.00    -0.390 OA
HETATM   28  H21 UNL     1      -9.533   5.721  14.541  1.00  0.00     0.210 HD
ENDBRANCH  20  27
BRANCH  21  29
HETATM   29  O6  UNL     1      -7.756   5.294  15.437  1.00  0.00    -0.388 OA
HETATM   30  H23 UNL     1      -6.961   4.987  15.921  1.00  0.00     0.210 HD
ENDBRANCH  21  29
ENDBRANCH  15  16
ENDBRANCH  14  15
ENDBRANCH   6  14
BRANCH  13  31
HETATM   31  C21 UNL     1       0.491   6.924  11.156  1.00  0.00     0.037 C 
BRANCH  31  32
HETATM   32  C22 UNL     1       1.422   5.919  10.544  1.00  0.00    -0.010 C 
HETATM   33  C23 UNL     1       2.743   6.072  10.359  1.00  0.00     0.044 C 
HETATM   34  C24 UNL     1       3.583   4.980   9.812  1.00  0.00     0.291 C 
HETATM   35  C26 UNL     1       3.651   7.191  10.702  1.00  0.00     0.181 C 
HETATM   36  O7  UNL     1       3.177   3.975   9.256  1.00  0.00    -0.260 OA
HETATM   37  O8  UNL     1       4.889   5.284  10.049  1.00  0.00    -0.315 OA
HETATM   38  C25 UNL     1       4.962   6.452  10.879  1.00  0.00     0.215 C 
BRANCH  35  39
HETATM   39  O9  UNL     1       3.729   8.095   9.608  1.00  0.00    -0.389 OA
HETATM   40  H40 UNL     1       2.824   8.404   9.423  1.00  0.00     0.210 HD
ENDBRANCH  35  39
ENDBRANCH  31  32
ENDBRANCH  13  31
TORSDOF 11
ENDMDL
MODEL 2
REMARK minimizedAffinity -9.46585178
REMARK  11 active torsions:
REMARK  status: ('A' for Active; 'I' for Inactive)
REMARK    1  A    between atoms: C6_6  and  C8_8 
REMARK    2  A    between atoms: C8_8  and  O1_9 
REMARK    3  A    between atoms: O1_9  and  C9_10 
REMARK    4  A    between atoms: C10_12  and  C11_13 
REMARK    5  A    between atoms: C11_13  and  O3_14 
REMARK    6  A    between atoms: C12_15  and  O4_16 
REMARK    7  A    between atoms: C13_17  and  O5_18 
REMARK    8  A    between atoms: C14_19  and  O6_20 
REMARK    9  A    between atoms: C20_26  and  C21_27 
REMARK   10  A    between atoms: C21_27  and  C22_28 
REMARK   11  A    between atoms: C26_34  and  O9_35 
ROOT
HETATM    1  C1  UNL     1       1.899   8.845  13.624  1.00  0.00     0.015 C 
HETATM    2  C2  UNL     1       0.659   8.518  13.216  1.00  0.00    -0.084 C 
HETATM    3  C3  UNL     1      -0.463   9.530  13.249  1.00  0.00     0.034 C 
HETATM    4  C4  UNL     1      -1.743   8.995  13.902  1.00  0.00     0.010 C 
HETATM    5  C5  UNL     1      -2.146   7.630  13.306  1.00  0.00     0.005 C 
HETATM    6  C6  UNL     1      -3.606   7.150  13.644  1.00  0.00    -0.018 C 
HETATM    7  C7  UNL     1      -4.614   8.141  12.995  1.00  0.00     0.018 C 
HETATM    8  C15 UNL     1      -3.883   5.742  13.021  1.00  0.00     0.012 C 
HETATM    9  C16 UNL     1      -2.736   5.182  12.183  1.00  0.00     0.002 C 
HETATM   10  C17 UNL     1      -1.436   5.171  12.975  1.00  0.00     0.010 C 
HETATM   11  C18 UNL     1      -0.998   6.571  13.486  1.00  0.00    -0.032 C 
HETATM   12  C19 UNL     1      -0.596   6.372  14.984  1.00  0.00     0.016 C 
HETATM   13  C20 UNL     1       0.315   7.095  12.760  1.00  0.00     0.025 C 
ENDROOT
BRANCH   6  14
HETATM   14  C8  UNL     1      -3.901   7.093  15.165  1.00  0.00     0.180 C 
BRANCH  14  15
HETATM   15  O1  UNL     1      -5.071   6.308  15.423  1.00  0.00    -0.358 OA
BRANCH  15  16
HETATM   16  C9  UNL     1      -6.237   6.829  14.776  1.00  0.00     0.291 C 
HETATM   17  O2  UNL     1      -7.066   5.781  14.280  1.00  0.00    -0.348 OA
HETATM   18  C10 UNL     1      -8.223   6.295  13.597  1.00  0.00     0.179 C 
HETATM   19  C12 UNL     1      -9.132   7.062  14.571  1.00  0.00     0.180 C 
HETATM   20  C13 UNL     1      -8.329   8.174  15.266  1.00  0.00     0.183 C 
HETATM   21  C14 UNL     1      -6.986   7.685  15.819  1.00  0.00     0.204 C 
BRANCH  18  22
HETATM   22  C11 UNL     1      -8.952   5.133  12.920  1.00  0.00     0.198 C 
BRANCH  22  23
HETATM   23  O3  UNL     1      -8.586   3.900  13.537  1.00  0.00    -0.398 OA
HETATM   24  H17 UNL     1      -8.969   3.187  12.994  1.00  0.00     0.209 HD
ENDBRANCH  22  23
ENDBRANCH  18  22
BRANCH  19  25
HETATM   25  O4  UNL     1      -9.691   6.174  15.550  1.00  0.00    -0.390 OA
HETATM   26  H19 UNL     1     -10.096   6.753  16.223  1.00  0.00     0.210 HD
ENDBRANCH  19  25
BRANCH  20  27
HETATM   27  O5  UNL     1      -9.112   8.726  16.337  1.00  0.00    -0.390 OA
HETATM   28  H21 UNL     1      -8.793   8.262  17.142  1.00  0.00     0.210 HD
ENDBRANCH  20  27
BRANCH  21  29
HETATM   29  O6  UNL     1      -7.241   6.949  17.037  1.00  0.00    -0.388 OA
HETATM   30  H23 UNL     1      -6.570   6.235  17.051  1.00  0.00     0.210 HD
ENDBRANCH  21  29
ENDBRANCH  15  16
ENDBRANCH  14  15
ENDBRANCH   6  14
BRANCH  13  31
HETATM   31  C21 UNL     1       0.448   6.943  11.215  1.00  0.00     0.037 C 
BRANCH  31  32
HETATM   32  C22 UNL     1       1.403   5.935  10.646  1.00  0.00    -0.010 C 
HETATM   33  C23 UNL     1       2.692   6.151  10.338  1.00  0.00     0.044 C 
HETATM   34  C24 UNL     1       3.568   5.059   9.851  1.00  0.00     0.291 C 
HETATM   35  C26 UNL     1       3.537   7.359  10.478  1.00  0.00     0.181 C 
HETATM   36  O7  UNL     1       3.198   3.971   9.446  1.00  0.00    -0.260 OA
HETATM   37  O8  UNL     1       4.862   5.473   9.945  1.00  0.00    -0.315 OA
HETATM   38  C25 UNL     1       4.909   6.733  10.629  1.00  0.00     0.215 C 
BRANCH  35  39
HETATM   39  O9  UNL     1       3.468   8.131   9.286  1.00  0.00    -0.389 OA
HETATM   40  H40 UNL     1       2.532   8.357   9.142  1.00  0.00     0.210 HD
ENDBRANCH  35  39
ENDBRANCH  31  32
ENDBRANCH  13  31
TORSDOF 11
ENDMDL
MODEL 3
REMARK minimizedAffinity -9.45190907
REMARK  11 active torsions:
REMARK  status: ('A' for Active; 'I' for Inactive)
REMARK    1  A    between atoms: C6_6  and  C8_8 
REMARK    2  A    between atoms: C8_8  and  O1_9 
REMARK    3  A    between atoms: O1_9  and  C9_10 
REMARK    4  A    between atoms: C10_12  and  C11_13 
REMARK    5  A    between atoms: C11_13  and  O3_14 
REMARK    6  A    between atoms: C12_15  and  O4_16 
REMARK    7  A    between atoms: C13_17  and  O5_18 
REMARK    8  A    between atoms: C14_19  and  O6_20 
REMARK    9  A    between atoms: C20_26  and  C21_27 
REMARK   10  A    between atoms: C21_27  and  C22_28 
REMARK   11  A    between atoms: C26_34  and  O9_35 
ROOT
HETATM    1  C1  UNL     1      -3.596   3.189  12.890  1.00  0.00     0.015 C 
HETATM    2  C2  UNL     1      -3.079   4.339  12.421  1.00  0.00    -0.084 C 
HETATM    3  C3  UNL     1      -2.526   4.427  11.017  1.00  0.00     0.034 C 
HETATM    4  C4  UNL     1      -1.139   5.077  10.952  1.00  0.00     0.010 C 
HETATM    5  C5  UNL     1      -1.111   6.413  11.723  1.00  0.00     0.005 C 
HETATM    6  C6  UNL     1       0.139   7.328  11.444  1.00  0.00    -0.018 C 
HETATM    7  C7  UNL     1       0.104   7.771   9.953  1.00  0.00     0.018 C 
HETATM    8  C15 UNL     1       0.076   8.630  12.309  1.00  0.00     0.012 C 
HETATM    9  C16 UNL     1      -1.185   8.764  13.162  1.00  0.00     0.002 C 
HETATM   10  C17 UNL     1      -1.389   7.532  14.032  1.00  0.00     0.010 C 
HETATM   11  C18 UNL     1      -1.510   6.207  13.229  1.00  0.00    -0.032 C 
HETATM   12  C19 UNL     1      -0.583   5.180  13.960  1.00  0.00     0.016 C 
HETATM   13  C20 UNL     1      -2.971   5.588  13.304  1.00  0.00     0.025 C 
ENDROOT
BRANCH   6  14
HETATM   14  C8  UNL     1       1.494   6.619  11.703  1.00  0.00     0.180 C 
BRANCH  14  15
HETATM   15  O1  UNL     1       2.448   6.973  10.695  1.00  0.00    -0.358 OA
BRANCH  15  16
HETATM   16  C9  UNL     1       3.590   7.649  11.233  1.00  0.00     0.291 C 
HETATM   17  O2  UNL     1       3.712   7.424  12.635  1.00  0.00    -0.348 OA
HETATM   18  C10 UNL     1       4.836   8.128  13.192  1.00  0.00     0.179 C 
HETATM   19  C12 UNL     1       6.155   7.591  12.611  1.00  0.00     0.180 C 
HETATM   20  C13 UNL     1       6.119   7.678  11.075  1.00  0.00     0.183 C 
HETATM   21  C14 UNL     1       4.825   7.119  10.474  1.00  0.00     0.204 C 
BRANCH  18  22
HETATM   22  C11 UNL     1       4.786   8.008  14.716  1.00  0.00     0.198 C 
BRANCH  22  23
HETATM   23  O3  UNL     1       5.654   6.964  15.153  1.00  0.00    -0.398 OA
HETATM   24  H17 UNL     1       5.490   6.841  16.106  1.00  0.00     0.209 HD
ENDBRANCH  22  23
ENDBRANCH  18  22
BRANCH  19  25
HETATM   25  O4  UNL     1       6.375   6.234  13.021  1.00  0.00    -0.390 OA
HETATM   26  H19 UNL     1       7.118   5.916  12.473  1.00  0.00     0.210 HD
ENDBRANCH  19  25
BRANCH  20  27
HETATM   27  O5  UNL     1       7.243   6.964  10.534  1.00  0.00    -0.390 OA
HETATM   28  H21 UNL     1       6.883   6.080  10.297  1.00  0.00     0.210 HD
ENDBRANCH  20  27
BRANCH  21  29
HETATM   29  O6  UNL     1       4.899   5.676  10.506  1.00  0.00    -0.388 OA
HETATM   30  H23 UNL     1       3.982   5.375  10.670  1.00  0.00     0.210 HD
ENDBRANCH  21  29
ENDBRANCH  15  16
ENDBRANCH  14  15
ENDBRANCH   6  14
BRANCH  13  31
HETATM   31  C21 UNL     1      -4.207   6.519  13.128  1.00  0.00     0.037 C 
BRANCH  31  32
HETATM   32  C22 UNL     1      -5.589   5.936  13.150  1.00  0.00    -0.010 C 
HETATM   33  C23 UNL     1      -6.591   6.304  13.964  1.00  0.00     0.044 C 
HETATM   34  C24 UNL     1      -7.945   5.710  13.847  1.00  0.00     0.291 C 
HETATM   35  C26 UNL     1      -6.663   7.351  15.009  1.00  0.00     0.181 C 
HETATM   36  O7  UNL     1      -8.234   4.703  13.226  1.00  0.00    -0.260 OA
HETATM   37  O8  UNL     1      -8.817   6.490  14.544  1.00  0.00    -0.315 OA
HETATM   38  C25 UNL     1      -8.142   7.676  14.987  1.00  0.00     0.215 C 
BRANCH  35  39
HETATM   39  O9  UNL     1      -6.289   6.798  16.264  1.00  0.00    -0.389 OA
HETATM   40  H40 UNL     1      -5.389   6.442  16.167  1.00  0.00     0.210 HD
ENDBRANCH  35  39
ENDBRANCH  31  32
ENDBRANCH  13  31
TORSDOF 11
ENDMDL
MODEL 4
REMARK minimizedAffinity -9.42659187
REMARK  11 active torsions:
REMARK  status: ('A' for Active; 'I' for Inactive)
REMARK    1  A    between atoms: C6_6  and  C8_8 
REMARK    2  A    between atoms: C8_8  and  O1_9 
REMARK    3  A    between atoms: O1_9  and  C9_10 
REMARK    4  A    between atoms: C10_12  and  C11_13 
REMARK    5  A    between atoms: C11_13  and  O3_14 
REMARK    6  A    between atoms: C12_15  and  O4_16 
REMARK    7  A    between atoms: C13_17  and  O5_18 
REMARK    8  A    between atoms: C14_19  and  O6_20 
REMARK    9  A    between atoms: C20_26  and  C21_27 
REMARK   10  A    between atoms: C21_27  and  C22_28 
REMARK   11  A    between atoms: C26_34  and  O9_35 
ROOT
HETATM    1  C1  UNL     1      -0.029   4.055  11.707  1.00  0.00     0.015 C 
HETATM    2  C2  UNL     1      -0.230   5.137  12.480  1.00  0.00    -0.084 C 
HETATM    3  C3  UNL     1       0.027   5.088  13.968  1.00  0.00     0.034 C 
HETATM    4  C4  UNL     1      -1.126   5.660  14.801  1.00  0.00     0.010 C 
HETATM    5  C5  UNL     1      -1.556   7.049  14.283  1.00  0.00     0.005 C 
HETATM    6  C6  UNL     1      -2.481   7.874  15.252  1.00  0.00    -0.018 C 
HETATM    7  C7  UNL     1      -1.677   8.202  16.544  1.00  0.00     0.018 C 
HETATM    8  C15 UNL     1      -2.881   9.241  14.604  1.00  0.00     0.012 C 
HETATM    9  C16 UNL     1      -2.249   9.504  13.239  1.00  0.00     0.002 C 
HETATM   10  C17 UNL     1      -2.522   8.355  12.279  1.00  0.00     0.010 C 
HETATM   11  C18 UNL     1      -1.997   6.980  12.777  1.00  0.00    -0.032 C 
HETATM   12  C19 UNL     1      -3.165   5.967  12.540  1.00  0.00     0.016 C 
HETATM   13  C20 UNL     1      -0.785   6.443  11.900  1.00  0.00     0.025 C 
ENDROOT
BRANCH   6  14
HETATM   14  C8  UNL     1      -3.770   7.119  15.668  1.00  0.00     0.180 C 
BRANCH  14  15
HETATM   15  O1  UNL     1      -4.916   7.969  15.537  1.00  0.00    -0.358 OA
BRANCH  15  16
HETATM   16  C9  UNL     1      -5.983   7.347  14.812  1.00  0.00     0.291 C 
HETATM   17  O2  UNL     1      -5.695   5.977  14.544  1.00  0.00    -0.348 OA
HETATM   18  C10 UNL     1      -6.745   5.352  13.785  1.00  0.00     0.179 C 
HETATM   19  C12 UNL     1      -8.050   5.308  14.597  1.00  0.00     0.180 C 
HETATM   20  C13 UNL     1      -8.429   6.729  15.048  1.00  0.00     0.183 C 
HETATM   21  C14 UNL     1      -7.255   7.491  15.673  1.00  0.00     0.204 C 
BRANCH  18  22
HETATM   22  C11 UNL     1      -6.282   3.957  13.361  1.00  0.00     0.198 C 
BRANCH  22  23
HETATM   23  O3  UNL     1      -7.403   3.082  13.250  1.00  0.00    -0.398 OA
HETATM   24  H17 UNL     1      -7.050   2.185  13.108  1.00  0.00     0.209 HD
ENDBRANCH  22  23
ENDBRANCH  18  22
BRANCH  19  25
HETATM   25  O4  UNL     1      -7.909   4.452  15.739  1.00  0.00    -0.390 OA
HETATM   26  H19 UNL     1      -8.698   4.620  16.288  1.00  0.00     0.210 HD
ENDBRANCH  19  25
BRANCH  20  27
HETATM   27  O5  UNL     1      -9.507   6.654  15.997  1.00  0.00    -0.390 OA
HETATM   28  H21 UNL     1      -9.067   6.703  16.874  1.00  0.00     0.210 HD
ENDBRANCH  20  27
BRANCH  21  29
HETATM   29  O6  UNL     1      -7.057   6.993  17.015  1.00  0.00    -0.388 OA
HETATM   30  H23 UNL     1      -6.090   7.031  17.164  1.00  0.00     0.210 HD
ENDBRANCH  21  29
ENDBRANCH  15  16
ENDBRANCH  14  15
ENDBRANCH   6  14
BRANCH  13  31
HETATM   31  C21 UNL     1       0.358   7.420  11.496  1.00  0.00     0.037 C 
BRANCH  31  32
HETATM   32  C22 UNL     1       0.959   7.338  10.123  1.00  0.00    -0.010 C 
HETATM   33  C23 UNL     1       2.062   6.654   9.782  1.00  0.00     0.044 C 
HETATM   34  C24 UNL     1       2.524   6.578   8.375  1.00  0.00     0.291 C 
HETATM   35  C26 UNL     1       2.965   5.797  10.584  1.00  0.00     0.181 C 
HETATM   36  O7  UNL     1       2.147   7.286   7.458  1.00  0.00    -0.260 OA
HETATM   37  O8  UNL     1       3.437   5.572   8.277  1.00  0.00    -0.315 OA
HETATM   38  C25 UNL     1       3.488   4.855   9.519  1.00  0.00     0.215 C 
BRANCH  35  39
HETATM   39  O9  UNL     1       4.021   6.585  11.119  1.00  0.00    -0.389 OA
HETATM   40  H40 UNL     1       3.613   7.288  11.655  1.00  0.00     0.210 HD
ENDBRANCH  35  39
ENDBRANCH  31  32
ENDBRANCH  13  31
TORSDOF 11
ENDMDL
MODEL 5
REMARK minimizedAffinity -9.35695648
REMARK  11 active torsions:
REMARK  status: ('A' for Active; 'I' for Inactive)
REMARK    1  A    between atoms: C6_6  and  C8_8 
REMARK    2  A    between atoms: C8_8  and  O1_9 
REMARK    3  A    between atoms: O1_9  and  C9_10 
REMARK    4  A    between atoms: C10_12  and  C11_13 
REMARK    5  A    between atoms: C11_13  and  O3_14 
REMARK    6  A    between atoms: C12_15  and  O4_16 
REMARK    7  A    between atoms: C13_17  and  O5_18 
REMARK    8  A    between atoms: C14_19  and  O6_20 
REMARK    9  A    between atoms: C20_26  and  C21_27 
REMARK   10  A    between atoms: C21_27  and  C22_28 
REMARK   11  A    between atoms: C26_34  and  O9_35 
ROOT
HETATM    1  C1  UNL     1      -7.666   3.173  13.583  1.00  0.00     0.015 C 
HETATM    2  C2  UNL     1      -7.065   4.362  13.404  1.00  0.00    -0.084 C 
HETATM    3  C3  UNL     1      -5.869   4.501  12.490  1.00  0.00     0.034 C 
HETATM    4  C4  UNL     1      -4.702   5.263  13.129  1.00  0.00     0.010 C 
HETATM    5  C5  UNL     1      -5.176   6.594  13.749  1.00  0.00     0.005 C 
HETATM    6  C6  UNL     1      -4.033   7.609  14.122  1.00  0.00    -0.018 C 
HETATM    7  C7  UNL     1      -3.318   8.053  12.814  1.00  0.00     0.018 C 
HETATM    8  C15 UNL     1      -4.631   8.899  14.776  1.00  0.00     0.012 C 
HETATM    9  C16 UNL     1      -6.157   8.926  14.845  1.00  0.00     0.002 C 
HETATM   10  C17 UNL     1      -6.695   7.678  15.530  1.00  0.00     0.010 C 
HETATM   11  C18 UNL     1      -6.286   6.351  14.835  1.00  0.00    -0.032 C 
HETATM   12  C19 UNL     1      -5.804   5.401  15.981  1.00  0.00     0.016 C 
HETATM   13  C20 UNL     1      -7.523   5.613  14.164  1.00  0.00     0.025 C 
ENDROOT
BRANCH   6  14
HETATM   14  C8  UNL     1      -2.965   7.013  15.075  1.00  0.00     0.180 C 
BRANCH  14  15
HETATM   15  O1  UNL     1      -2.382   8.041  15.885  1.00  0.00    -0.358 OA
BRANCH  15  16
HETATM   16  C9  UNL     1      -1.066   8.402  15.454  1.00  0.00     0.291 C 
HETATM   17  O2  UNL     1      -0.287   8.907  16.537  1.00  0.00    -0.348 OA
HETATM   18  C10 UNL     1       1.026   9.305  16.107  1.00  0.00     0.179 C 
HETATM   19  C12 UNL     1       1.826   8.091  15.605  1.00  0.00     0.180 C 
HETATM   20  C13 UNL     1       1.042   7.379  14.489  1.00  0.00     0.183 C 
HETATM   21  C14 UNL     1      -0.426   7.133  14.852  1.00  0.00     0.204 C 
BRANCH  18  22
HETATM   22  C11 UNL     1       1.727  10.019  17.264  1.00  0.00     0.198 C 
BRANCH  22  23
HETATM   23  O3  UNL     1       3.140   9.861  17.153  1.00  0.00    -0.398 OA
HETATM   24  H17 UNL     1       3.530  10.216  17.972  1.00  0.00     0.209 HD
ENDBRANCH  22  23
ENDBRANCH  18  22
BRANCH  19  25
HETATM   25  O4  UNL     1       2.089   7.178  16.680  1.00  0.00    -0.390 OA
HETATM   26  H19 UNL     1       2.429   6.368  16.254  1.00  0.00     0.210 HD
ENDBRANCH  19  25
BRANCH  20  27
HETATM   27  O5  UNL     1       1.676   6.123  14.193  1.00  0.00    -0.390 OA
HETATM   28  H21 UNL     1       1.164   5.460  14.707  1.00  0.00     0.210 HD
ENDBRANCH  20  27
BRANCH  21  29
HETATM   29  O6  UNL     1      -0.484   6.015  15.765  1.00  0.00    -0.388 OA
HETATM   30  H23 UNL     1      -1.224   6.218  16.374  1.00  0.00     0.210 HD
ENDBRANCH  21  29
ENDBRANCH  15  16
ENDBRANCH  14  15
ENDBRANCH   6  14
BRANCH  13  31
HETATM   31  C21 UNL     1      -8.549   6.441  13.335  1.00  0.00     0.037 C 
BRANCH  31  32
HETATM   32  C22 UNL     1     -10.016   6.312  13.623  1.00  0.00    -0.010 C 
HETATM   33  C23 UNL     1     -10.734   7.096  14.443  1.00  0.00     0.044 C 
HETATM   34  C24 UNL     1     -12.198   6.926  14.595  1.00  0.00     0.291 C 
HETATM   35  C26 UNL     1     -10.345   8.276  15.250  1.00  0.00     0.181 C 
HETATM   36  O7  UNL     1     -12.849   5.963  14.231  1.00  0.00    -0.260 OA
HETATM   37  O8  UNL     1     -12.699   8.038  15.203  1.00  0.00    -0.315 OA
HETATM   38  C25 UNL     1     -11.662   9.023  15.317  1.00  0.00     0.215 C 
BRANCH  35  39
HETATM   39  O9  UNL     1      -9.941   7.856  16.546  1.00  0.00    -0.389 OA
HETATM   40  H40 UNL     1      -9.201   7.235  16.431  1.00  0.00     0.210 HD
ENDBRANCH  35  39
ENDBRANCH  31  32
ENDBRANCH  13  31
TORSDOF 11
ENDMDL
MODEL 6
REMARK minimizedAffinity -9.34983444
REMARK  11 active torsions:
REMARK  status: ('A' for Active; 'I' for Inactive)
REMARK    1  A    between atoms: C6_6  and  C8_8 
REMARK    2  A    between atoms: C8_8  and  O1_9 
REMARK    3  A    between atoms: O1_9  and  C9_10 
REMARK    4  A    between atoms: C10_12  and  C11_13 
REMARK    5  A    between atoms: C11_13  and  O3_14 
REMARK    6  A    between atoms: C12_15  and  O4_16 
REMARK    7  A    between atoms: C13_17  and  O5_18 
REMARK    8  A    between atoms: C14_19  and  O6_20 
REMARK    9  A    between atoms: C20_26  and  C21_27 
REMARK   10  A    between atoms: C21_27  and  C22_28 
REMARK   11  A    between atoms: C26_34  and  O9_35 
ROOT
HETATM    1  C1  UNL     1       1.199   7.796   9.084  1.00  0.00     0.015 C 
HETATM    2  C2  UNL     1       0.967   7.460  10.366  1.00  0.00    -0.084 C 
HETATM    3  C3  UNL     1       0.560   6.053  10.740  1.00  0.00     0.034 C 
HETATM    4  C4  UNL     1      -0.656   6.001  11.672  1.00  0.00     0.010 C 
HETATM    5  C5  UNL     1      -0.476   6.944  12.879  1.00  0.00     0.005 C 
HETATM    6  C6  UNL     1      -1.486   6.723  14.065  1.00  0.00    -0.018 C 
HETATM    7  C7  UNL     1      -1.240   5.311  14.669  1.00  0.00     0.018 C 
HETATM    8  C15 UNL     1      -1.232   7.760  15.209  1.00  0.00     0.012 C 
HETATM    9  C16 UNL     1      -0.046   8.692  14.968  1.00  0.00     0.002 C 
HETATM   10  C17 UNL     1      -0.168   9.395  13.624  1.00  0.00     0.010 C 
HETATM   11  C18 UNL     1      -0.252   8.428  12.412  1.00  0.00    -0.032 C 
HETATM   12  C19 UNL     1      -1.425   8.959  11.523  1.00  0.00     0.016 C 
HETATM   13  C20 UNL     1       1.042   8.498  11.492  1.00  0.00     0.025 C 
ENDROOT
BRANCH   6  14
HETATM   14  C8  UNL     1      -2.974   6.808  13.633  1.00  0.00     0.180 C 
BRANCH  14  15
HETATM   15  O1  UNL     1      -3.688   5.640  14.056  1.00  0.00    -0.358 OA
BRANCH  15  16
HETATM   16  C9  UNL     1      -4.974   5.528  13.437  1.00  0.00     0.291 C 
HETATM   17  O2  UNL     1      -5.371   4.164  13.312  1.00  0.00    -0.348 OA
HETATM   18  C10 UNL     1      -6.646   4.039  12.659  1.00  0.00     0.179 C 
HETATM   19  C12 UNL     1      -7.758   4.675  13.511  1.00  0.00     0.180 C 
HETATM   20  C13 UNL     1      -7.404   6.141  13.814  1.00  0.00     0.183 C 
HETATM   21  C14 UNL     1      -5.967   6.319  14.316  1.00  0.00     0.204 C 
BRANCH  18  22
HETATM   22  C11 UNL     1      -6.911   2.559  12.377  1.00  0.00     0.198 C 
BRANCH  22  23
HETATM   23  O3  UNL     1      -8.268   2.238  12.680  1.00  0.00    -0.398 OA
HETATM   24  H17 UNL     1      -8.352   1.270  12.610  1.00  0.00     0.209 HD
ENDBRANCH  22  23
ENDBRANCH  18  22
BRANCH  19  25
HETATM   25  O4  UNL     1      -7.937   3.949  14.736  1.00  0.00    -0.390 OA
HETATM   26  H19 UNL     1      -8.515   4.511  15.286  1.00  0.00     0.210 HD
ENDBRANCH  19  25
BRANCH  20  27
HETATM   27  O5  UNL     1      -8.318   6.655  14.798  1.00  0.00    -0.390 OA
HETATM   28  H21 UNL     1      -7.838   6.567  15.651  1.00  0.00     0.210 HD
ENDBRANCH  20  27
BRANCH  21  29
HETATM   29  O6  UNL     1      -5.916   5.899  15.698  1.00  0.00    -0.388 OA
HETATM   30  H23 UNL     1      -5.031   5.495  15.811  1.00  0.00     0.210 HD
ENDBRANCH  21  29
ENDBRANCH  15  16
ENDBRANCH  14  15
ENDBRANCH   6  14
BRANCH  13  31
HETATM   31  C21 UNL     1       2.451   8.519  12.155  1.00  0.00     0.037 C 
BRANCH  31  32
HETATM   32  C22 UNL     1       3.533   7.619  11.634  1.00  0.00    -0.010 C 
HETATM   33  C23 UNL     1       4.827   7.940  11.486  1.00  0.00     0.044 C 
HETATM   34  C24 UNL     1       5.828   6.945  11.033  1.00  0.00     0.291 C 
HETATM   35  C26 UNL     1       5.562   9.189  11.793  1.00  0.00     0.181 C 
HETATM   36  O7  UNL     1       5.584   5.866  10.523  1.00  0.00    -0.260 OA
HETATM   37  O8  UNL     1       7.071   7.436  11.296  1.00  0.00    -0.315 OA
HETATM   38  C25 UNL     1       6.952   8.646  12.057  1.00  0.00     0.215 C 
BRANCH  35  39
HETATM   39  O9  UNL     1       5.564  10.035  10.651  1.00  0.00    -0.389 OA
HETATM   40  H40 UNL     1       4.634  10.208  10.418  1.00  0.00     0.210 HD
ENDBRANCH  35  39
ENDBRANCH  31  32
ENDBRANCH  13  31
TORSDOF 11
ENDMDL
MODEL 7
REMARK minimizedAffinity -9.29552364
REMARK  11 active torsions:
REMARK  status: ('A' for Active; 'I' for Inactive)
REMARK    1  A    between atoms: C6_6  and  C8_8 
REMARK    2  A    between atoms: C8_8  and  O1_9 
REMARK    3  A    between atoms: O1_9  and  C9_10 
REMARK    4  A    between atoms: C10_12  and  C11_13 
REMARK    5  A    between atoms: C11_13  and  O3_14 
REMARK    6  A    between atoms: C12_15  and  O4_16 
REMARK    7  A    between atoms: C13_17  and  O5_18 
REMARK    8  A    between atoms: C14_19  and  O6_20 
REMARK    9  A    between atoms: C20_26  and  C21_27 
REMARK   10  A    between atoms: C21_27  and  C22_28 
REMARK   11  A    between atoms: C26_34  and  O9_35 
ROOT
HETATM    1  C1  UNL     1       1.534   7.026   9.266  1.00  0.00     0.015 C 
HETATM    2  C2  UNL     1       1.128   6.830  10.533  1.00  0.00    -0.084 C 
HETATM    3  C3  UNL     1       0.422   5.556  10.936  1.00  0.00     0.034 C 
HETATM    4  C4  UNL     1      -0.859   5.802  11.743  1.00  0.00     0.010 C 
HETATM    5  C5  UNL     1      -0.604   6.775  12.913  1.00  0.00     0.005 C 
HETATM    6  C6  UNL     1      -1.738   6.834  14.002  1.00  0.00    -0.018 C 
HETATM    7  C7  UNL     1      -1.829   5.445  14.698  1.00  0.00     0.018 C 
HETATM    8  C15 UNL     1      -1.387   7.880  15.111  1.00  0.00     0.012 C 
HETATM    9  C16 UNL     1      -0.024   8.548  14.943  1.00  0.00     0.002 C 
HETATM   10  C17 UNL     1       0.114   9.167  13.559  1.00  0.00     0.010 C 
HETATM   11  C18 UNL     1      -0.052   8.152  12.395  1.00  0.00    -0.032 C 
HETATM   12  C19 UNL     1      -1.014   8.835  11.368  1.00  0.00     0.016 C 
HETATM   13  C20 UNL     1       1.307   7.909  11.607  1.00  0.00     0.025 C 
ENDROOT
BRANCH   6  14
HETATM   14  C8  UNL     1      -3.136   7.171  13.419  1.00  0.00     0.180 C 
BRANCH  14  15
HETATM   15  O1  UNL     1      -4.019   6.050  13.547  1.00  0.00    -0.358 OA
BRANCH  15  16
HETATM   16  C9  UNL     1      -5.384   6.443  13.729  1.00  0.00     0.291 C 
HETATM   17  O2  UNL     1      -6.275   5.377  13.410  1.00  0.00    -0.348 OA
HETATM   18  C10 UNL     1      -7.650   5.772  13.556  1.00  0.00     0.179 C 
HETATM   19  C12 UNL     1      -7.969   6.099  15.025  1.00  0.00     0.180 C 
HETATM   20  C13 UNL     1      -6.999   7.177  15.539  1.00  0.00     0.183 C 
HETATM   21  C14 UNL     1      -5.535   6.873  15.204  1.00  0.00     0.204 C 
BRANCH  18  22
HETATM   22  C11 UNL     1      -8.543   4.658  13.007  1.00  0.00     0.198 C 
BRANCH  22  23
HETATM   23  O3  UNL     1      -8.202   3.413  13.613  1.00  0.00    -0.398 OA
HETATM   24  H17 UNL     1      -8.702   2.722  13.142  1.00  0.00     0.209 HD
ENDBRANCH  22  23
ENDBRANCH  18  22
BRANCH  19  25
HETATM   25  O4  UNL     1      -7.872   4.922  15.840  1.00  0.00    -0.390 OA
HETATM   26  H19 UNL     1      -7.905   5.243  16.761  1.00  0.00     0.210 HD
ENDBRANCH  19  25
BRANCH  20  27
HETATM   27  O5  UNL     1      -7.145   7.306  16.963  1.00  0.00    -0.390 OA
HETATM   28  H21 UNL     1      -6.421   6.755  17.336  1.00  0.00     0.210 HD
ENDBRANCH  20  27
BRANCH  21  29
HETATM   29  O6  UNL     1      -5.066   5.853  16.114  1.00  0.00    -0.388 OA
HETATM   30  H23 UNL     1      -4.439   5.311  15.592  1.00  0.00     0.210 HD
ENDBRANCH  21  29
ENDBRANCH  15  16
ENDBRANCH  14  15
ENDBRANCH   6  14
BRANCH  13  31
HETATM   31  C21 UNL     1       2.628   7.707  12.406  1.00  0.00     0.037 C 
BRANCH  31  32
HETATM   32  C22 UNL     1       3.778   6.980  11.772  1.00  0.00    -0.010 C 
HETATM   33  C23 UNL     1       5.066   7.354  11.806  1.00  0.00     0.044 C 
HETATM   34  C24 UNL     1       6.134   6.517  11.208  1.00  0.00     0.291 C 
HETATM   35  C26 UNL     1       5.730   8.507  12.458  1.00  0.00     0.181 C 
HETATM   36  O7  UNL     1       5.969   5.588  10.438  1.00  0.00    -0.260 OA
HETATM   37  O8  UNL     1       7.336   6.955  11.676  1.00  0.00    -0.315 OA
HETATM   38  C25 UNL     1       7.117   7.944  12.693  1.00  0.00     0.215 C 
BRANCH  35  39
HETATM   39  O9  UNL     1       5.780   9.602  11.554  1.00  0.00    -0.389 OA
HETATM   40  H40 UNL     1       4.863   9.807  11.298  1.00  0.00     0.210 HD
ENDBRANCH  35  39
ENDBRANCH  31  32
ENDBRANCH  13  31
TORSDOF 11
ENDMDL
MODEL 8
REMARK minimizedAffinity -9.26500988
REMARK  11 active torsions:
REMARK  status: ('A' for Active; 'I' for Inactive)
REMARK    1  A    between atoms: C6_6  and  C8_8 
REMARK    2  A    between atoms: C8_8  and  O1_9 
REMARK    3  A    between atoms: O1_9  and  C9_10 
REMARK    4  A    between atoms: C10_12  and  C11_13 
REMARK    5  A    between atoms: C11_13  and  O3_14 
REMARK    6  A    between atoms: C12_15  and  O4_16 
REMARK    7  A    between atoms: C13_17  and  O5_18 
REMARK    8  A    between atoms: C14_19  and  O6_20 
REMARK    9  A    between atoms: C20_26  and  C21_27 
REMARK   10  A    between atoms: C21_27  and  C22_28 
REMARK   11  A    between atoms: C26_34  and  O9_35 
ROOT
HETATM    1  C1  UNL     1      -0.040   3.999  11.684  1.00  0.00     0.015 C 
HETATM    2  C2  UNL     1      -0.186   5.115  12.420  1.00  0.00    -0.084 C 
HETATM    3  C3  UNL     1       0.141   5.123  13.895  1.00  0.00     0.034 C 
HETATM    4  C4  UNL     1      -0.961   5.749  14.757  1.00  0.00     0.010 C 
HETATM    5  C5  UNL     1      -1.393   7.122  14.203  1.00  0.00     0.005 C 
HETATM    6  C6  UNL     1      -2.257   8.003  15.179  1.00  0.00    -0.018 C 
HETATM    7  C7  UNL     1      -1.387   8.369  16.416  1.00  0.00     0.018 C 
HETATM    8  C15 UNL     1      -2.667   9.349  14.494  1.00  0.00     0.012 C 
HETATM    9  C16 UNL     1      -2.097   9.545  13.090  1.00  0.00     0.002 C 
HETATM   10  C17 UNL     1      -2.435   8.362  12.194  1.00  0.00     0.010 C 
HETATM   11  C18 UNL     1      -1.908   7.000  12.723  1.00  0.00    -0.032 C 
HETATM   12  C19 UNL     1      -3.102   5.999  12.584  1.00  0.00     0.016 C 
HETATM   13  C20 UNL     1      -0.749   6.406  11.813  1.00  0.00     0.025 C 
ENDROOT
BRANCH   6  14
HETATM   14  C8  UNL     1      -3.537   7.289  15.686  1.00  0.00     0.180 C 
BRANCH  14  15
HETATM   15  O1  UNL     1      -4.676   7.686  14.913  1.00  0.00    -0.358 OA
BRANCH  15  16
HETATM   16  C9  UNL     1      -5.910   7.495  15.612  1.00  0.00     0.291 C 
HETATM   17  O2  UNL     1      -6.962   8.254  15.021  1.00  0.00    -0.348 OA
HETATM   18  C10 UNL     1      -8.200   8.098  15.738  1.00  0.00     0.179 C 
HETATM   19  C12 UNL     1      -8.695   6.644  15.656  1.00  0.00     0.180 C 
HETATM   20  C13 UNL     1      -7.602   5.693  16.172  1.00  0.00     0.183 C 
HETATM   21  C14 UNL     1      -6.222   5.984  15.571  1.00  0.00     0.204 C 
BRANCH  18  22
HETATM   22  C11 UNL     1      -9.222   9.088  15.178  1.00  0.00     0.198 C 
BRANCH  22  23
HETATM   23  O3  UNL     1      -8.698  10.414  15.230  1.00  0.00    -0.398 OA
HETATM   24  H17 UNL     1      -9.426  11.015  14.988  1.00  0.00     0.209 HD
ENDBRANCH  22  23
ENDBRANCH  18  22
BRANCH  19  25
HETATM   25  O4  UNL     1      -9.046   6.303  14.307  1.00  0.00    -0.390 OA
HETATM   26  H19 UNL     1      -9.170   5.335  14.309  1.00  0.00     0.210 HD
ENDBRANCH  19  25
BRANCH  20  27
HETATM   27  O5  UNL     1      -7.974   4.337  15.874  1.00  0.00    -0.390 OA
HETATM   28  H21 UNL     1      -7.492   4.125  15.044  1.00  0.00     0.210 HD
ENDBRANCH  20  27
BRANCH  21  29
HETATM   29  O6  UNL     1      -6.199   5.465  14.223  1.00  0.00    -0.388 OA
HETATM   30  H23 UNL     1      -5.640   6.090  13.716  1.00  0.00     0.210 HD
ENDBRANCH  21  29
ENDBRANCH  15  16
ENDBRANCH  14  15
ENDBRANCH   6  14
BRANCH  13  31
HETATM   31  C21 UNL     1       0.390   7.346  11.315  1.00  0.00     0.037 C 
BRANCH  31  32
HETATM   32  C22 UNL     1       0.961   7.160   9.939  1.00  0.00    -0.010 C 
HETATM   33  C23 UNL     1       2.051   6.444   9.625  1.00  0.00     0.044 C 
HETATM   34  C24 UNL     1       2.483   6.264   8.218  1.00  0.00     0.291 C 
HETATM   35  C26 UNL     1       2.965   5.638  10.468  1.00  0.00     0.181 C 
HETATM   36  O7  UNL     1       2.092   6.907   7.261  1.00  0.00    -0.260 OA
HETATM   37  O8  UNL     1       3.386   5.245   8.174  1.00  0.00    -0.315 OA
HETATM   38  C25 UNL     1       3.458   4.618   9.462  1.00  0.00     0.215 C 
BRANCH  35  39
HETATM   39  O9  UNL     1       4.037   6.453  10.923  1.00  0.00    -0.389 OA
HETATM   40  H40 UNL     1       3.647   7.196  11.416  1.00  0.00     0.210 HD
ENDBRANCH  35  39
ENDBRANCH  31  32
ENDBRANCH  13  31
TORSDOF 11
ENDMDL
MODEL 9
REMARK minimizedAffinity -9.26154804
REMARK  11 active torsions:
REMARK  status: ('A' for Active; 'I' for Inactive)
REMARK    1  A    between atoms: C6_6  and  C8_8 
REMARK    2  A    between atoms: C8_8  and  O1_9 
REMARK    3  A    between atoms: O1_9  and  C9_10 
REMARK    4  A    between atoms: C10_12  and  C11_13 
REMARK    5  A    between atoms: C11_13  and  O3_14 
REMARK    6  A    between atoms: C12_15  and  O4_16 
REMARK    7  A    between atoms: C13_17  and  O5_18 
REMARK    8  A    between atoms: C14_19  and  O6_20 
REMARK    9  A    between atoms: C20_26  and  C21_27 
REMARK   10  A    between atoms: C21_27  and  C22_28 
REMARK   11  A    between atoms: C26_34  and  O9_35 
ROOT
HETATM    1  C1  UNL     1      -5.168   8.133  13.279  1.00  0.00     0.015 C 
HETATM    2  C2  UNL     1      -4.017   7.617  13.745  1.00  0.00    -0.084 C 
HETATM    3  C3  UNL     1      -3.396   8.127  15.024  1.00  0.00     0.034 C 
HETATM    4  C4  UNL     1      -1.902   8.443  14.890  1.00  0.00     0.010 C 
HETATM    5  C5  UNL     1      -1.137   7.268  14.247  1.00  0.00     0.005 C 
HETATM    6  C6  UNL     1       0.430   7.333  14.371  1.00  0.00    -0.018 C 
HETATM    7  C7  UNL     1       0.812   7.235  15.876  1.00  0.00     0.018 C 
HETATM    8  C15 UNL     1       1.094   6.114  13.650  1.00  0.00     0.012 C 
HETATM    9  C16 UNL     1       0.104   5.111  13.059  1.00  0.00     0.002 C 
HETATM   10  C17 UNL     1      -0.889   5.804  12.137  1.00  0.00     0.010 C 
HETATM   11  C18 UNL     1      -1.718   6.921  12.828  1.00  0.00    -0.032 C 
HETATM   12  C19 UNL     1      -1.682   8.143  11.852  1.00  0.00     0.016 C 
HETATM   13  C20 UNL     1      -3.253   6.536  12.970  1.00  0.00     0.025 C 
ENDROOT
BRANCH   6  14
HETATM   14  C8  UNL     1       1.040   8.642  13.805  1.00  0.00     0.180 C 
BRANCH  14  15
HETATM   15  O1  UNL     1       1.664   8.401  12.538  1.00  0.00    -0.358 OA
BRANCH  15  16
HETATM   16  C9  UNL     1       3.058   8.728  12.540  1.00  0.00     0.291 C 
HETATM   17  O2  UNL     1       3.681   8.326  13.758  1.00  0.00    -0.348 OA
HETATM   18  C10 UNL     1       5.075   8.683  13.785  1.00  0.00     0.179 C 
HETATM   19  C12 UNL     1       5.851   7.921  12.698  1.00  0.00     0.180 C 
HETATM   20  C13 UNL     1       5.213   8.184  11.323  1.00  0.00     0.183 C 
HETATM   21  C14 UNL     1       3.690   8.012  11.328  1.00  0.00     0.204 C 
BRANCH  18  22
HETATM   22  C11 UNL     1       5.626   8.410  15.186  1.00  0.00     0.198 C 
BRANCH  22  23
HETATM   23  O3  UNL     1       5.275   7.091  15.601  1.00  0.00    -0.398 OA
HETATM   24  H17 UNL     1       5.532   7.012  16.538  1.00  0.00     0.209 HD
ENDBRANCH  22  23
ENDBRANCH  18  22
BRANCH  19  25
HETATM   25  O4  UNL     1       5.862   6.513  12.973  1.00  0.00    -0.390 OA
HETATM   26  H19 UNL     1       6.205   6.093  12.162  1.00  0.00     0.210 HD
ENDBRANCH  19  25
BRANCH  20  27
HETATM   27  O5  UNL     1       5.789   7.291  10.355  1.00  0.00    -0.390 OA
HETATM   28  H21 UNL     1       5.149   6.548  10.292  1.00  0.00     0.210 HD
ENDBRANCH  20  27
BRANCH  21  29
HETATM   29  O6  UNL     1       3.395   6.598  11.324  1.00  0.00    -0.388 OA
HETATM   30  H23 UNL     1       2.582   6.503  11.862  1.00  0.00     0.210 HD
ENDBRANCH  21  29
ENDBRANCH  15  16
ENDBRANCH  14  15
ENDBRANCH   6  14
BRANCH  13  31
HETATM   31  C21 UNL     1      -3.641   5.106  13.452  1.00  0.00     0.037 C 
BRANCH  31  32
HETATM   32  C22 UNL     1      -5.031   4.593  13.217  1.00  0.00    -0.010 C 
HETATM   33  C23 UNL     1      -5.378   3.596  12.388  1.00  0.00     0.044 C 
HETATM   34  C24 UNL     1      -6.777   3.118  12.291  1.00  0.00     0.291 C 
HETATM   35  C26 UNL     1      -4.556   2.721  11.520  1.00  0.00     0.181 C 
HETATM   36  O7  UNL     1      -7.762   3.694  12.717  1.00  0.00    -0.260 OA
HETATM   37  O8  UNL     1      -6.776   1.914  11.654  1.00  0.00    -0.315 OA
HETATM   38  C25 UNL     1      -5.423   1.479  11.465  1.00  0.00     0.215 C 
BRANCH  35  39
HETATM   39  O9  UNL     1      -4.436   3.306  10.230  1.00  0.00    -0.389 OA
HETATM   40  H40 UNL     1      -4.032   4.184  10.348  1.00  0.00     0.210 HD
ENDBRANCH  35  39
ENDBRANCH  31  32
ENDBRANCH  13  31
TORSDOF 11
ENDMDL
