MODEL 1
REMARK minimizedAffinity -8.28327656
REMARK  5 active torsions:
REMARK  status: ('A' for Active; 'I' for Inactive)
REMARK    1  A    between atoms: C2_2  and  C3_3 
REMARK    2  A    between atoms: C3_3  and  N1_4 
REMARK    3  A    between atoms: C4_5  and  S1_6 
REMARK    4  A    between atoms: S1_6  and  C5_7 
REMARK    5  A    between atoms: C21_31  and  C22_32 
ROOT
HETATM    1  C5  UNL     1      16.195  37.582  15.850  1.00  0.00     0.093 A 
HETATM    2  C6  UNL     1      16.002  38.776  16.478  1.00  0.00    -0.016 A 
HETATM    3  C7  UNL     1      15.542  38.875  17.927  1.00  0.00     0.042 C 
HETATM    4  C8  UNL     1      14.993  40.226  18.363  1.00  0.00     0.005 C 
HETATM    5  C9  UNL     1      15.949  41.324  17.948  1.00  0.00     0.005 C 
HETATM    6  C10 UNL     1      16.045  41.366  16.430  1.00  0.00     0.041 C 
HETATM    7  C11 UNL     1      16.318  40.030  15.753  1.00  0.00    -0.025 A 
HETATM    8  C12 UNL     1      16.817  39.991  14.490  1.00  0.00     0.096 A 
HETATM    9  C13 UNL     1      17.109  41.187  13.760  1.00  0.00     0.104 C 
HETATM   10  N2  UNL     1      17.316  42.191  13.213  1.00  0.00    -0.191 NA
HETATM   11  C14 UNL     1      17.015  38.740  13.837  1.00  0.00     0.135 A 
HETATM   12  N3  UNL     1      17.481  38.506  12.630  1.00  0.00    -0.339 N 
ATOM     13  H3  UNL     1      17.812  39.193  11.953  1.00  0.00     0.167 HD
HETATM   14  C15 UNL     1      17.429  37.156  12.471  1.00  0.00     0.061 A 
HETATM   15  C16 UNL     1      17.804  36.403  11.346  1.00  0.00     0.032 A 
HETATM   16  C17 UNL     1      17.641  35.017  11.368  1.00  0.00     0.002 A 
HETATM   17  C18 UNL     1      17.105  34.393  12.489  1.00  0.00     0.002 A 
HETATM   18  C19 UNL     1      16.727  35.130  13.619  1.00  0.00     0.032 A 
HETATM   19  C20 UNL     1      16.909  36.526  13.603  1.00  0.00     0.068 A 
HETATM   20  N4  UNL     1      16.675  37.566  14.514  1.00  0.00    -0.287 N 
ENDROOT
BRANCH   1  21
HETATM   21  S1  UNL     1      15.915  36.073  16.694  1.00  0.00    -0.033 SA
BRANCH  21  22
HETATM   22  C4  UNL     1      14.181  36.063  16.604  1.00  0.00     0.169 A 
HETATM   23  N1  UNL     1      13.361  35.888  17.687  1.00  0.00    -0.307 N 
HETATM   24  C21 UNL     1      12.073  35.949  17.189  1.00  0.00     0.135 A 
HETATM   25  N6  UNL     1      12.138  36.106  15.880  1.00  0.00    -0.283 N 
HETATM   26  N5  UNL     1      13.458  36.195  15.517  1.00  0.00    -0.278 N 
ATOM     27  H6  UNL     1      11.341  36.154  15.245  1.00  0.00     0.188 HD
ATOM     28  H5  UNL     1      13.814  36.337  14.571  1.00  0.00     0.189 HD
BRANCH  23  29
HETATM   29  C3  UNL     1      13.746  35.562  19.049  1.00  0.00     0.159 C 
BRANCH  29  30
HETATM   30  C2  UNL     1      14.424  34.225  19.153  1.00  0.00    -0.017 C 
HETATM   31  C1  UNL     1      15.488  33.975  19.928  1.00  0.00     0.008 C 
ENDBRANCH  29  30
ENDBRANCH  23  29
BRANCH  24  32
HETATM   32  C22 UNL     1      10.845  35.807  17.961  1.00  0.00     0.009 A 
HETATM   33  C23 UNL     1       9.620  36.171  17.387  1.00  0.00     0.015 A 
HETATM   34  C24 UNL     1       8.433  36.035  18.111  1.00  0.00     0.001 A 
HETATM   35  C25 UNL     1       8.463  35.544  19.415  1.00  0.00     0.000 A 
HETATM   36  C26 UNL     1       9.680  35.200  20.002  1.00  0.00     0.001 A 
HETATM   37  C27 UNL     1      10.867  35.335  19.279  1.00  0.00     0.015 A 
ENDBRANCH  24  32
ENDBRANCH  21  22
ENDBRANCH   1  21
TORSDOF 5
ENDMDL
MODEL 2
REMARK minimizedAffinity -7.59254503
REMARK  5 active torsions:
REMARK  status: ('A' for Active; 'I' for Inactive)
REMARK    1  A    between atoms: C2_2  and  C3_3 
REMARK    2  A    between atoms: C3_3  and  N1_4 
REMARK    3  A    between atoms: C4_5  and  S1_6 
REMARK    4  A    between atoms: S1_6  and  C5_7 
REMARK    5  A    between atoms: C21_31  and  C22_32 
ROOT
HETATM    1  C5  UNL     1      13.322  35.736  18.956  1.00  0.00     0.093 A 
HETATM    2  C6  UNL     1      14.378  35.671  19.816  1.00  0.00    -0.016 A 
HETATM    3  C7  UNL     1      15.816  35.521  19.338  1.00  0.00     0.042 C 
HETATM    4  C8  UNL     1      16.825  35.068  20.384  1.00  0.00     0.005 C 
HETATM    5  C9  UNL     1      16.679  35.910  21.633  1.00  0.00     0.005 C 
HETATM    6  C10 UNL     1      15.301  35.689  22.237  1.00  0.00     0.041 C 
HETATM    7  C11 UNL     1      14.132  35.822  21.270  1.00  0.00    -0.025 A 
HETATM    8  C12 UNL     1      12.877  36.048  21.738  1.00  0.00     0.096 A 
HETATM    9  C13 UNL     1      12.609  36.176  23.139  1.00  0.00     0.104 C 
HETATM   10  N2  UNL     1      12.451  36.259  24.287  1.00  0.00    -0.191 NA
HETATM   11  C14 UNL     1      11.776  36.114  20.836  1.00  0.00     0.135 A 
HETATM   12  N3  UNL     1      10.505  36.319  21.100  1.00  0.00    -0.339 N 
ATOM     13  H3  UNL     1      10.086  36.499  22.013  1.00  0.00     0.167 HD
HETATM   14  C15 UNL     1       9.864  36.243  19.903  1.00  0.00     0.061 A 
HETATM   15  C16 UNL     1       8.489  36.381  19.649  1.00  0.00     0.032 A 
HETATM   16  C17 UNL     1       8.019  36.234  18.344  1.00  0.00     0.002 A 
HETATM   17  C18 UNL     1       8.902  35.946  17.310  1.00  0.00     0.002 A 
HETATM   18  C19 UNL     1      10.276  35.807  17.547  1.00  0.00     0.032 A 
HETATM   19  C20 UNL     1      10.752  35.974  18.861  1.00  0.00     0.068 A 
HETATM   20  N4  UNL     1      12.013  35.928  19.471  1.00  0.00    -0.287 N 
ENDROOT
BRANCH   1  21
HETATM   21  S1  UNL     1      13.574  35.646  17.225  1.00  0.00    -0.033 SA
BRANCH  21  22
HETATM   22  C4  UNL     1      14.338  37.190  17.011  1.00  0.00     0.169 A 
HETATM   23  N1  UNL     1      15.341  37.427  16.109  1.00  0.00    -0.307 N 
HETATM   24  C21 UNL     1      15.661  38.764  16.254  1.00  0.00     0.135 A 
HETATM   25  N6  UNL     1      14.915  39.269  17.219  1.00  0.00    -0.283 N 
HETATM   26  N5  UNL     1      14.075  38.287  17.680  1.00  0.00    -0.278 N 
ATOM     27  H6  UNL     1      14.956  40.228  17.563  1.00  0.00     0.188 HD
ATOM     28  H5  UNL     1      13.372  38.392  18.412  1.00  0.00     0.189 HD
BRANCH  23  29
HETATM   29  C3  UNL     1      16.033  36.459  15.275  1.00  0.00     0.159 C 
BRANCH  29  30
HETATM   30  C2  UNL     1      17.215  35.841  15.968  1.00  0.00    -0.017 C 
HETATM   31  C1  UNL     1      17.528  34.539  15.912  1.00  0.00     0.008 C 
ENDBRANCH  29  30
ENDBRANCH  23  29
BRANCH  24  32
HETATM   32  C22 UNL     1      16.685  39.489  15.513  1.00  0.00     0.009 A 
HETATM   33  C23 UNL     1      17.977  39.602  16.044  1.00  0.00     0.015 A 
HETATM   34  C24 UNL     1      18.971  40.288  15.344  1.00  0.00     0.001 A 
HETATM   35  C25 UNL     1      18.680  40.874  14.113  1.00  0.00     0.000 A 
HETATM   36  C26 UNL     1      17.392  40.784  13.586  1.00  0.00     0.001 A 
HETATM   37  C27 UNL     1      16.397  40.099  14.286  1.00  0.00     0.015 A 
ENDBRANCH  24  32
ENDBRANCH  21  22
ENDBRANCH   1  21
TORSDOF 5
ENDMDL
MODEL 3
REMARK minimizedAffinity -7.3735733
REMARK  5 active torsions:
REMARK  status: ('A' for Active; 'I' for Inactive)
REMARK    1  A    between atoms: C2_2  and  C3_3 
REMARK    2  A    between atoms: C3_3  and  N1_4 
REMARK    3  A    between atoms: C4_5  and  S1_6 
REMARK    4  A    between atoms: S1_6  and  C5_7 
REMARK    5  A    between atoms: C21_31  and  C22_32 
ROOT
HETATM    1  C5  UNL     1       1.085  66.821  -4.236  1.00  0.00     0.093 A 
HETATM    2  C6  UNL     1       0.496  65.771  -3.597  1.00  0.00    -0.016 A 
HETATM    3  C7  UNL     1       0.284  64.419  -4.267  1.00  0.00     0.042 C 
HETATM    4  C8  UNL     1      -0.719  63.491  -3.596  1.00  0.00     0.005 C 
HETATM    5  C9  UNL     1      -0.420  63.400  -2.115  1.00  0.00     0.005 C 
HETATM    6  C10 UNL     1      -0.602  64.769  -1.476  1.00  0.00     0.041 C 
HETATM    7  C11 UNL     1       0.110  65.919  -2.173  1.00  0.00    -0.025 A 
HETATM    8  C12 UNL     1       0.362  67.075  -1.506  1.00  0.00     0.096 A 
HETATM    9  C13 UNL     1      -0.021  67.253  -0.138  1.00  0.00     0.104 C 
HETATM   10  N2  UNL     1      -0.365  67.342   0.968  1.00  0.00    -0.191 NA
HETATM   11  C14 UNL     1       0.976  68.171  -2.179  1.00  0.00     0.135 A 
HETATM   12  N3  UNL     1       1.292  69.356  -1.704  1.00  0.00    -0.339 N 
ATOM     13  H3  UNL     1       1.174  69.689  -0.747  1.00  0.00     0.167 HD
HETATM   14  C15 UNL     1       1.808  70.047  -2.756  1.00  0.00     0.061 A 
HETATM   15  C16 UNL     1       2.284  71.369  -2.772  1.00  0.00     0.032 A 
HETATM   16  C17 UNL     1       2.748  71.912  -3.970  1.00  0.00     0.002 A 
HETATM   17  C18 UNL     1       2.729  71.155  -5.136  1.00  0.00     0.002 A 
HETATM   18  C19 UNL     1       2.259  69.835  -5.136  1.00  0.00     0.032 A 
HETATM   19  C20 UNL     1       1.809  69.281  -3.923  1.00  0.00     0.068 A 
HETATM   20  N4  UNL     1       1.298  68.036  -3.532  1.00  0.00    -0.287 N 
ENDROOT
BRANCH   1  21
HETATM   21  S1  UNL     1       1.633  66.666  -5.892  1.00  0.00    -0.033 SA
BRANCH  21  22
HETATM   22  C4  UNL     1       3.130  65.844  -5.575  1.00  0.00     0.169 A 
HETATM   23  N1  UNL     1       4.191  65.830  -6.440  1.00  0.00    -0.307 N 
HETATM   24  C21 UNL     1       5.169  65.080  -5.816  1.00  0.00     0.135 A 
HETATM   25  N6  UNL     1       4.688  64.642  -4.667  1.00  0.00    -0.283 N 
HETATM   26  N5  UNL     1       3.418  65.135  -4.509  1.00  0.00    -0.278 N 
ATOM     27  H6  UNL     1       5.178  64.038  -4.007  1.00  0.00     0.188 HD
ATOM     28  H5  UNL     1       2.806  64.979  -3.707  1.00  0.00     0.189 HD
BRANCH  23  29
HETATM   29  C3  UNL     1       4.243  66.362  -7.792  1.00  0.00     0.159 C 
BRANCH  29  30
HETATM   30  C2  UNL     1       3.792  65.365  -8.822  1.00  0.00    -0.017 C 
HETATM   31  C1  UNL     1       4.132  65.409 -10.117  1.00  0.00     0.008 C 
ENDBRANCH  29  30
ENDBRANCH  23  29
BRANCH  24  32
HETATM   32  C22 UNL     1       6.489  64.769  -6.350  1.00  0.00     0.009 A 
HETATM   33  C23 UNL     1       7.188  63.655  -5.867  1.00  0.00     0.015 A 
HETATM   34  C24 UNL     1       8.450  63.341  -6.373  1.00  0.00     0.001 A 
HETATM   35  C25 UNL     1       9.028  64.141  -7.357  1.00  0.00     0.000 A 
HETATM   36  C26 UNL     1       8.348  65.264  -7.828  1.00  0.00     0.001 A 
HETATM   37  C27 UNL     1       7.086  65.580  -7.323  1.00  0.00     0.015 A 
ENDBRANCH  24  32
ENDBRANCH  21  22
ENDBRANCH   1  21
TORSDOF 5
ENDMDL
MODEL 4
REMARK minimizedAffinity -7.36029005
REMARK  5 active torsions:
REMARK  status: ('A' for Active; 'I' for Inactive)
REMARK    1  A    between atoms: C2_2  and  C3_3 
REMARK    2  A    between atoms: C3_3  and  N1_4 
REMARK    3  A    between atoms: C4_5  and  S1_6 
REMARK    4  A    between atoms: S1_6  and  C5_7 
REMARK    5  A    between atoms: C21_31  and  C22_32 
ROOT
HETATM    1  C5  UNL     1      12.594  61.275   4.983  1.00  0.00     0.093 A 
HETATM    2  C6  UNL     1      13.093  60.299   4.172  1.00  0.00    -0.016 A 
HETATM    3  C7  UNL     1      12.854  58.817   4.430  1.00  0.00     0.042 C 
HETATM    4  C8  UNL     1      13.778  57.854   3.699  1.00  0.00     0.005 C 
HETATM    5  C9  UNL     1      13.838  58.217   2.232  1.00  0.00     0.005 C 
HETATM    6  C10 UNL     1      14.448  59.603   2.077  1.00  0.00     0.041 C 
HETATM    7  C11 UNL     1      13.837  60.689   2.951  1.00  0.00    -0.025 A 
HETATM    8  C12 UNL     1      13.999  61.999   2.630  1.00  0.00     0.096 A 
HETATM    9  C13 UNL     1      14.733  62.404   1.469  1.00  0.00     0.104 C 
HETATM   10  N2  UNL     1      15.348  62.671   0.520  1.00  0.00    -0.191 NA
HETATM   11  C14 UNL     1      13.477  63.016   3.481  1.00  0.00     0.135 A 
HETATM   12  N3  UNL     1      13.537  64.321   3.338  1.00  0.00    -0.339 N 
ATOM     13  H3  UNL     1      13.951  64.838   2.562  1.00  0.00     0.167 HD
HETATM   14  C15 UNL     1      12.931  64.840   4.441  1.00  0.00     0.061 A 
HETATM   15  C16 UNL     1      12.747  66.193   4.769  1.00  0.00     0.032 A 
HETATM   16  C17 UNL     1      12.126  66.523   5.974  1.00  0.00     0.002 A 
HETATM   17  C18 UNL     1      11.703  65.523   6.841  1.00  0.00     0.002 A 
HETATM   18  C19 UNL     1      11.878  64.169   6.527  1.00  0.00     0.032 A 
HETATM   19  C20 UNL     1      12.488  63.836   5.303  1.00  0.00     0.068 A 
HETATM   20  N4  UNL     1      12.813  62.637   4.651  1.00  0.00    -0.287 N 
ENDROOT
BRANCH   1  21
HETATM   21  S1  UNL     1      11.637  60.862   6.391  1.00  0.00    -0.033 SA
BRANCH  21  22
HETATM   22  C4  UNL     1      12.921  60.250   7.386  1.00  0.00     0.169 A 
HETATM   23  N1  UNL     1      12.740  59.333   8.387  1.00  0.00    -0.307 N 
HETATM   24  C21 UNL     1      13.996  59.116   8.921  1.00  0.00     0.135 A 
HETATM   25  N6  UNL     1      14.857  59.897   8.295  1.00  0.00    -0.283 N 
HETATM   26  N5  UNL     1      14.186  60.594   7.322  1.00  0.00    -0.278 N 
ATOM     27  H6  UNL     1      15.853  59.970   8.500  1.00  0.00     0.188 HD
ATOM     28  H5  UNL     1      14.596  61.260   6.667  1.00  0.00     0.189 HD
BRANCH  23  29
HETATM   29  C3  UNL     1      11.485  58.803   8.890  1.00  0.00     0.159 C 
BRANCH  29  30
HETATM   30  C2  UNL     1      10.434  59.865   9.055  1.00  0.00    -0.017 C 
HETATM   31  C1  UNL     1      10.379  60.721  10.085  1.00  0.00     0.008 C 
ENDBRANCH  29  30
ENDBRANCH  23  29
BRANCH  24  32
HETATM   32  C22 UNL     1      14.318  58.223  10.027  1.00  0.00     0.009 A 
HETATM   33  C23 UNL     1      13.389  57.256  10.430  1.00  0.00     0.015 A 
HETATM   34  C24 UNL     1      13.685  56.388  11.483  1.00  0.00     0.001 A 
HETATM   35  C25 UNL     1      14.907  56.486  12.146  1.00  0.00     0.000 A 
HETATM   36  C26 UNL     1      15.830  57.459  11.765  1.00  0.00     0.001 A 
HETATM   37  C27 UNL     1      15.535  58.328  10.713  1.00  0.00     0.015 A 
ENDBRANCH  24  32
ENDBRANCH  21  22
ENDBRANCH   1  21
TORSDOF 5
ENDMDL
MODEL 5
REMARK minimizedAffinity -7.3184185
REMARK  5 active torsions:
REMARK  status: ('A' for Active; 'I' for Inactive)
REMARK    1  A    between atoms: C2_2  and  C3_3 
REMARK    2  A    between atoms: C3_3  and  N1_4 
REMARK    3  A    between atoms: C4_5  and  S1_6 
REMARK    4  A    between atoms: S1_6  and  C5_7 
REMARK    5  A    between atoms: C21_31  and  C22_32 
ROOT
HETATM    1  C5  UNL     1       1.788  67.211  -5.106  1.00  0.00     0.093 A 
HETATM    2  C6  UNL     1       2.226  68.488  -5.298  1.00  0.00    -0.016 A 
HETATM    3  C7  UNL     1       2.826  68.959  -6.615  1.00  0.00     0.042 C 
HETATM    4  C8  UNL     1       3.621  70.257  -6.561  1.00  0.00     0.005 C 
HETATM    5  C9  UNL     1       2.818  71.318  -5.840  1.00  0.00     0.005 C 
HETATM    6  C10 UNL     1       2.591  70.890  -4.398  1.00  0.00     0.041 C 
HETATM    7  C11 UNL     1       2.048  69.480  -4.210  1.00  0.00    -0.025 A 
HETATM    8  C12 UNL     1       1.436  69.130  -3.049  1.00  0.00     0.096 A 
HETATM    9  C13 UNL     1       1.272  70.062  -1.974  1.00  0.00     0.104 C 
HETATM   10  N2  UNL     1       1.179  70.858  -1.134  1.00  0.00    -0.191 NA
HETATM   11  C14 UNL     1       0.982  67.794  -2.853  1.00  0.00     0.135 A 
HETATM   12  N3  UNL     1       0.376  67.274  -1.808  1.00  0.00    -0.339 N 
ATOM     13  H3  UNL     1       0.098  67.757  -0.953  1.00  0.00     0.167 HD
HETATM   14  C15 UNL     1       0.198  65.958  -2.103  1.00  0.00     0.061 A 
HETATM   15  C16 UNL     1      -0.395  64.966  -1.303  1.00  0.00     0.032 A 
HETATM   16  C17 UNL     1      -0.453  63.655  -1.777  1.00  0.00     0.002 A 
HETATM   17  C18 UNL     1       0.077  63.335  -3.021  1.00  0.00     0.002 A 
HETATM   18  C19 UNL     1       0.669  64.314  -3.830  1.00  0.00     0.032 A 
HETATM   19  C20 UNL     1       0.711  65.640  -3.360  1.00  0.00     0.068 A 
HETATM   20  N4  UNL     1       1.190  66.856  -3.868  1.00  0.00    -0.287 N 
ENDROOT
BRANCH   1  21
HETATM   21  S1  UNL     1       1.900  66.027  -6.392  1.00  0.00    -0.033 SA
BRANCH  21  22
HETATM   22  C4  UNL     1       3.508  65.463  -6.062  1.00  0.00     0.169 A 
HETATM   23  N1  UNL     1       4.546  65.550  -6.953  1.00  0.00    -0.307 N 
HETATM   24  C21 UNL     1       5.635  64.999  -6.306  1.00  0.00     0.135 A 
HETATM   25  N6  UNL     1       5.245  64.573  -5.119  1.00  0.00    -0.283 N 
HETATM   26  N5  UNL     1       3.918  64.880  -4.961  1.00  0.00    -0.278 N 
ATOM     27  H6  UNL     1       5.832  64.096  -4.435  1.00  0.00     0.188 HD
ATOM     28  H5  UNL     1       3.350  64.688  -4.134  1.00  0.00     0.189 HD
BRANCH  23  29
HETATM   29  C3  UNL     1       4.494  65.990  -8.336  1.00  0.00     0.159 C 
BRANCH  29  30
HETATM   30  C2  UNL     1       4.157  64.874  -9.285  1.00  0.00    -0.017 C 
HETATM   31  C1  UNL     1       5.062  64.180  -9.987  1.00  0.00     0.008 C 
ENDBRANCH  29  30
ENDBRANCH  23  29
BRANCH  24  32
HETATM   32  C22 UNL     1       6.978  64.854  -6.854  1.00  0.00     0.009 A 
HETATM   33  C23 UNL     1       7.768  63.761  -6.475  1.00  0.00     0.015 A 
HETATM   34  C24 UNL     1       9.054  63.605  -6.995  1.00  0.00     0.001 A 
HETATM   35  C25 UNL     1       9.564  64.544  -7.890  1.00  0.00     0.000 A 
HETATM   36  C26 UNL     1       8.793  65.646  -8.257  1.00  0.00     0.001 A 
HETATM   37  C27 UNL     1       7.507  65.804  -7.737  1.00  0.00     0.015 A 
ENDBRANCH  24  32
ENDBRANCH  21  22
ENDBRANCH   1  21
TORSDOF 5
ENDMDL
MODEL 6
REMARK minimizedAffinity -7.31354952
REMARK  5 active torsions:
REMARK  status: ('A' for Active; 'I' for Inactive)
REMARK    1  A    between atoms: C2_2  and  C3_3 
REMARK    2  A    between atoms: C3_3  and  N1_4 
REMARK    3  A    between atoms: C4_5  and  S1_6 
REMARK    4  A    between atoms: S1_6  and  C5_7 
REMARK    5  A    between atoms: C21_31  and  C22_32 
ROOT
HETATM    1  C5  UNL     1       5.227  65.166  -6.002  1.00  0.00     0.093 A 
HETATM    2  C6  UNL     1       4.321  65.256  -4.988  1.00  0.00    -0.016 A 
HETATM    3  C7  UNL     1       4.726  65.222  -3.521  1.00  0.00     0.042 C 
HETATM    4  C8  UNL     1       3.612  64.932  -2.525  1.00  0.00     0.005 C 
HETATM    5  C9  UNL     1       2.425  65.825  -2.812  1.00  0.00     0.005 C 
HETATM    6  C10 UNL     1       1.868  65.503  -4.191  1.00  0.00     0.041 C 
HETATM    7  C11 UNL     1       2.890  65.464  -5.318  1.00  0.00    -0.025 A 
HETATM    8  C12 UNL     1       2.491  65.591  -6.610  1.00  0.00     0.096 A 
HETATM    9  C13 UNL     1       1.114  65.771  -6.958  1.00  0.00     0.104 C 
HETATM   10  N2  UNL     1      -0.019  65.903  -7.179  1.00  0.00    -0.191 NA
HETATM   11  C14 UNL     1       3.442  65.495  -7.667  1.00  0.00     0.135 A 
HETATM   12  N3  UNL     1       3.246  65.589  -8.964  1.00  0.00    -0.339 N 
ATOM     13  H3  UNL     1       2.365  65.777  -9.442  1.00  0.00     0.167 HD
HETATM   14  C15 UNL     1       4.462  65.381  -9.536  1.00  0.00     0.061 A 
HETATM   15  C16 UNL     1       4.783  65.367 -10.904  1.00  0.00     0.032 A 
HETATM   16  C17 UNL     1       6.096  65.100 -11.293  1.00  0.00     0.002 A 
HETATM   17  C18 UNL     1       7.071  64.843 -10.337  1.00  0.00     0.002 A 
HETATM   18  C19 UNL     1       6.767  64.854  -8.969  1.00  0.00     0.032 A 
HETATM   19  C20 UNL     1       5.447  65.142  -8.576  1.00  0.00     0.068 A 
HETATM   20  N4  UNL     1       4.782  65.257  -7.347  1.00  0.00    -0.287 N 
ENDROOT
BRANCH   1  21
HETATM   21  S1  UNL     1       6.937  65.004  -5.659  1.00  0.00    -0.033 SA
BRANCH  21  22
HETATM   22  C4  UNL     1       6.994  63.273  -5.526  1.00  0.00     0.169 A 
HETATM   23  N1  UNL     1       7.902  62.486  -6.184  1.00  0.00    -0.307 N 
HETATM   24  C21 UNL     1       7.609  61.190  -5.807  1.00  0.00     0.135 A 
HETATM   25  N6  UNL     1       6.558  61.214  -5.008  1.00  0.00    -0.283 N 
HETATM   26  N5  UNL     1       6.185  62.521  -4.819  1.00  0.00    -0.278 N 
ATOM     27  H6  UNL     1       6.101  60.399  -4.599  1.00  0.00     0.188 HD
ATOM     28  H5  UNL     1       5.416  62.848  -4.233  1.00  0.00     0.189 HD
BRANCH  23  29
HETATM   29  C3  UNL     1       8.876  62.897  -7.180  1.00  0.00     0.159 C 
BRANCH  29  30
HETATM   30  C2  UNL     1      10.276  62.938  -6.635  1.00  0.00    -0.017 C 
HETATM   31  C1  UNL     1      10.587  62.811  -5.338  1.00  0.00     0.008 C 
ENDBRANCH  29  30
ENDBRANCH  23  29
BRANCH  24  32
HETATM   32  C22 UNL     1       8.298  59.987  -6.255  1.00  0.00     0.009 A 
HETATM   33  C23 UNL     1       8.766  59.063  -5.311  1.00  0.00     0.015 A 
HETATM   34  C24 UNL     1       9.423  57.903  -5.724  1.00  0.00     0.001 A 
HETATM   35  C25 UNL     1       9.627  57.661  -7.082  1.00  0.00     0.000 A 
HETATM   36  C26 UNL     1       9.184  58.585  -8.027  1.00  0.00     0.001 A 
HETATM   37  C27 UNL     1       8.527  59.746  -7.616  1.00  0.00     0.015 A 
ENDBRANCH  24  32
ENDBRANCH  21  22
ENDBRANCH   1  21
TORSDOF 5
ENDMDL
MODEL 7
REMARK minimizedAffinity -7.1949501
REMARK  5 active torsions:
REMARK  status: ('A' for Active; 'I' for Inactive)
REMARK    1  A    between atoms: C2_2  and  C3_3 
REMARK    2  A    between atoms: C3_3  and  N1_4 
REMARK    3  A    between atoms: C4_5  and  S1_6 
REMARK    4  A    between atoms: S1_6  and  C5_7 
REMARK    5  A    between atoms: C21_31  and  C22_32 
ROOT
HETATM    1  C5  UNL     1      18.657  44.910   4.444  1.00  0.00     0.093 A 
HETATM    2  C6  UNL     1      17.693  45.484   3.669  1.00  0.00    -0.016 A 
HETATM    3  C7  UNL     1      17.772  45.506   2.148  1.00  0.00     0.042 C 
HETATM    4  C8  UNL     1      16.861  46.503   1.446  1.00  0.00     0.005 C 
HETATM    5  C9  UNL     1      15.452  46.375   1.985  1.00  0.00     0.005 C 
HETATM    6  C10 UNL     1      15.438  46.742   3.461  1.00  0.00     0.041 C 
HETATM    7  C11 UNL     1      16.486  46.046   4.320  1.00  0.00    -0.025 A 
HETATM    8  C12 UNL     1      16.328  45.969   5.667  1.00  0.00     0.096 A 
HETATM    9  C13 UNL     1      15.183  46.525   6.322  1.00  0.00     0.104 C 
HETATM   10  N2  UNL     1      14.238  47.004   6.799  1.00  0.00    -0.191 NA
HETATM   11  C14 UNL     1      17.339  45.371   6.473  1.00  0.00     0.135 A 
HETATM   12  N3  UNL     1      17.363  45.210   7.778  1.00  0.00    -0.339 N 
ATOM     13  H3  UNL     1      16.635  45.466   8.445  1.00  0.00     0.167 HD
HETATM   14  C15 UNL     1      18.562  44.629   8.054  1.00  0.00     0.061 A 
HETATM   15  C16 UNL     1      19.076  44.262   9.309  1.00  0.00     0.032 A 
HETATM   16  C17 UNL     1      20.353  43.705   9.386  1.00  0.00     0.002 A 
HETATM   17  C18 UNL     1      21.109  43.525   8.234  1.00  0.00     0.002 A 
HETATM   18  C19 UNL     1      20.609  43.884   6.975  1.00  0.00     0.032 A 
HETATM   19  C20 UNL     1      19.314  44.429   6.896  1.00  0.00     0.068 A 
HETATM   20  N4  UNL     1      18.491  44.880   5.854  1.00  0.00    -0.287 N 
ENDROOT
BRANCH   1  21
HETATM   21  S1  UNL     1      20.060  44.158   3.715  1.00  0.00    -0.033 SA
BRANCH  21  22
HETATM   22  C4  UNL     1      19.385  42.579   3.462  1.00  0.00     0.169 A 
HETATM   23  N1  UNL     1      20.125  41.477   3.123  1.00  0.00    -0.307 N 
HETATM   24  C21 UNL     1      19.219  40.439   3.023  1.00  0.00     0.135 A 
HETATM   25  N6  UNL     1      18.010  40.917   3.249  1.00  0.00    -0.283 N 
HETATM   26  N5  UNL     1      18.117  42.253   3.541  1.00  0.00    -0.278 N 
ATOM     27  H6  UNL     1      17.142  40.383   3.212  1.00  0.00     0.188 HD
ATOM     28  H5  UNL     1      17.348  42.881   3.777  1.00  0.00     0.189 HD
BRANCH  23  29
HETATM   29  C3  UNL     1      21.539  41.425   2.791  1.00  0.00     0.159 C 
BRANCH  29  30
HETATM   30  C2  UNL     1      22.394  41.051   3.969  1.00  0.00    -0.017 C 
HETATM   31  C1  UNL     1      21.936  40.900   5.219  1.00  0.00     0.008 C 
ENDBRANCH  29  30
ENDBRANCH  23  29
BRANCH  24  32
HETATM   32  C22 UNL     1      19.528  39.059   2.672  1.00  0.00     0.009 A 
HETATM   33  C23 UNL     1      19.412  38.639   1.340  1.00  0.00     0.015 A 
HETATM   34  C24 UNL     1      19.710  37.322   0.987  1.00  0.00     0.001 A 
HETATM   35  C25 UNL     1      20.116  36.412   1.961  1.00  0.00     0.000 A 
HETATM   36  C26 UNL     1      20.214  36.815   3.292  1.00  0.00     0.001 A 
HETATM   37  C27 UNL     1      19.916  38.132   3.647  1.00  0.00     0.015 A 
ENDBRANCH  24  32
ENDBRANCH  21  22
ENDBRANCH   1  21
TORSDOF 5
ENDMDL
MODEL 8
REMARK minimizedAffinity -7.15280342
REMARK  5 active torsions:
REMARK  status: ('A' for Active; 'I' for Inactive)
REMARK    1  A    between atoms: C2_2  and  C3_3 
REMARK    2  A    between atoms: C3_3  and  N1_4 
REMARK    3  A    between atoms: C4_5  and  S1_6 
REMARK    4  A    between atoms: S1_6  and  C5_7 
REMARK    5  A    between atoms: C21_31  and  C22_32 
ROOT
HETATM    1  C5  UNL     1      19.315  48.923   5.845  1.00  0.00     0.093 A 
HETATM    2  C6  UNL     1      18.746  47.961   5.064  1.00  0.00    -0.016 A 
HETATM    3  C7  UNL     1      18.483  48.163   3.577  1.00  0.00     0.042 C 
HETATM    4  C8  UNL     1      17.504  47.192   2.934  1.00  0.00     0.005 C 
HETATM    5  C9  UNL     1      17.875  45.772   3.303  1.00  0.00     0.005 C 
HETATM    6  C10 UNL     1      17.742  45.587   4.807  1.00  0.00     0.041 C 
HETATM    7  C11 UNL     1      18.433  46.641   5.661  1.00  0.00    -0.025 A 
HETATM    8  C12 UNL     1      18.732  46.383   6.961  1.00  0.00     0.096 A 
HETATM    9  C13 UNL     1      18.420  45.124   7.568  1.00  0.00     0.104 C 
HETATM   10  N2  UNL     1      18.132  44.088   8.009  1.00  0.00    -0.191 NA
HETATM   11  C14 UNL     1      19.325  47.391   7.774  1.00  0.00     0.135 A 
HETATM   12  N3  UNL     1      19.679  47.327   9.039  1.00  0.00    -0.339 N 
ATOM     13  H3  UNL     1      19.613  46.519   9.657  1.00  0.00     0.167 HD
HETATM   14  C15 UNL     1      20.152  48.564   9.351  1.00  0.00     0.061 A 
HETATM   15  C16 UNL     1      20.643  49.014  10.588  1.00  0.00     0.032 A 
HETATM   16  C17 UNL     1      21.053  50.342  10.715  1.00  0.00     0.002 A 
HETATM   17  C18 UNL     1      20.967  51.209   9.632  1.00  0.00     0.002 A 
HETATM   18  C19 UNL     1      20.481  50.774   8.392  1.00  0.00     0.032 A 
HETATM   19  C20 UNL     1      20.085  49.430   8.259  1.00  0.00     0.068 A 
HETATM   20  N4  UNL     1      19.578  48.646   7.213  1.00  0.00    -0.287 N 
ENDROOT
BRANCH   1  21
HETATM   21  S1  UNL     1      19.779  50.468   5.164  1.00  0.00    -0.033 SA
BRANCH  21  22
HETATM   22  C4  UNL     1      18.238  51.259   5.286  1.00  0.00     0.169 A 
HETATM   23  N1  UNL     1      18.002  52.540   4.864  1.00  0.00    -0.307 N 
HETATM   24  C21 UNL     1      16.669  52.780   5.136  1.00  0.00     0.135 A 
HETATM   25  N6  UNL     1      16.165  51.712   5.726  1.00  0.00    -0.283 N 
HETATM   26  N5  UNL     1      17.144  50.754   5.804  1.00  0.00    -0.278 N 
ATOM     27  H6  UNL     1      15.208  51.614   6.066  1.00  0.00     0.188 HD
ATOM     28  H5  UNL     1      17.039  49.817   6.194  1.00  0.00     0.189 HD
BRANCH  23  29
HETATM   29  C3  UNL     1      18.969  53.505   4.369  1.00  0.00     0.159 C 
BRANCH  29  30
HETATM   30  C2  UNL     1      19.637  54.273   5.475  1.00  0.00    -0.017 C 
HETATM   31  C1  UNL     1      19.531  53.971   6.776  1.00  0.00     0.008 C 
ENDBRANCH  29  30
ENDBRANCH  23  29
BRANCH  24  32
HETATM   32  C22 UNL     1      15.945  54.017   4.874  1.00  0.00     0.009 A 
HETATM   33  C23 UNL     1      14.547  54.034   4.953  1.00  0.00     0.015 A 
HETATM   34  C24 UNL     1      13.840  55.213   4.711  1.00  0.00     0.001 A 
HETATM   35  C25 UNL     1      14.523  56.381   4.378  1.00  0.00     0.000 A 
HETATM   36  C26 UNL     1      15.914  56.370   4.277  1.00  0.00     0.001 A 
HETATM   37  C27 UNL     1      16.622  55.191   4.519  1.00  0.00     0.015 A 
ENDBRANCH  24  32
ENDBRANCH  21  22
ENDBRANCH   1  21
TORSDOF 5
ENDMDL
MODEL 9
REMARK minimizedAffinity -7.15238619
REMARK  5 active torsions:
REMARK  status: ('A' for Active; 'I' for Inactive)
REMARK    1  A    between atoms: C2_2  and  C3_3 
REMARK    2  A    between atoms: C3_3  and  N1_4 
REMARK    3  A    between atoms: C4_5  and  S1_6 
REMARK    4  A    between atoms: S1_6  and  C5_7 
REMARK    5  A    between atoms: C21_31  and  C22_32 
ROOT
HETATM    1  C5  UNL     1      14.199  59.813   2.433  1.00  0.00     0.093 A 
HETATM    2  C6  UNL     1      14.232  58.495   2.780  1.00  0.00    -0.016 A 
HETATM    3  C7  UNL     1      14.835  58.008   4.091  1.00  0.00     0.042 C 
HETATM    4  C8  UNL     1      15.160  56.523   4.165  1.00  0.00     0.005 C 
HETATM    5  C9  UNL     1      13.968  55.714   3.702  1.00  0.00     0.005 C 
HETATM    6  C10 UNL     1      13.684  56.021   2.239  1.00  0.00     0.041 C 
HETATM    7  C11 UNL     1      13.595  57.499   1.885  1.00  0.00    -0.025 A 
HETATM    8  C12 UNL     1      12.966  57.895   0.748  1.00  0.00     0.096 A 
HETATM    9  C13 UNL     1      12.363  56.952  -0.145  1.00  0.00     0.104 C 
HETATM   10  N2  UNL     1      11.902  56.140  -0.836  1.00  0.00    -0.191 NA
HETATM   11  C14 UNL     1      12.935  59.274   0.389  1.00  0.00     0.135 A 
HETATM   12  N3  UNL     1      12.382  59.840  -0.662  1.00  0.00    -0.339 N 
ATOM     13  H3  UNL     1      11.846  59.381  -1.398  1.00  0.00     0.167 HD
HETATM   14  C15 UNL     1      12.674  61.164  -0.562  1.00  0.00     0.061 A 
HETATM   15  C16 UNL     1      12.319  62.196  -1.446  1.00  0.00     0.032 A 
HETATM   16  C17 UNL     1      12.748  63.498  -1.182  1.00  0.00     0.002 A 
HETATM   17  C18 UNL     1      13.525  63.765  -0.061  1.00  0.00     0.002 A 
HETATM   18  C19 UNL     1      13.886  62.747   0.831  1.00  0.00     0.032 A 
HETATM   19  C20 UNL     1      13.437  61.437   0.574  1.00  0.00     0.068 A 
HETATM   20  N4  UNL     1      13.574  60.200   1.218  1.00  0.00    -0.287 N 
ENDROOT
BRANCH   1  21
HETATM   21  S1  UNL     1      14.864  61.033   3.499  1.00  0.00    -0.033 SA
BRANCH  21  22
HETATM   22  C4  UNL     1      13.442  61.323   4.452  1.00  0.00     0.169 A 
HETATM   23  N1  UNL     1      13.354  61.055   5.793  1.00  0.00    -0.307 N 
HETATM   24  C21 UNL     1      12.076  61.428   6.162  1.00  0.00     0.135 A 
HETATM   25  N6  UNL     1      11.437  61.848   5.086  1.00  0.00    -0.283 N 
HETATM   26  N5  UNL     1      12.299  61.798   4.020  1.00  0.00    -0.278 N 
ATOM     27  H6  UNL     1      10.466  62.159   5.053  1.00  0.00     0.188 HD
ATOM     28  H5  UNL     1      12.088  62.080   3.062  1.00  0.00     0.189 HD
BRANCH  23  29
HETATM   29  C3  UNL     1      14.335  60.388   6.632  1.00  0.00     0.159 C 
BRANCH  29  30
HETATM   30  C2  UNL     1      13.874  59.036   7.096  1.00  0.00    -0.017 C 
HETATM   31  C1  UNL     1      14.029  58.570   8.343  1.00  0.00     0.008 C 
ENDBRANCH  29  30
ENDBRANCH  23  29
BRANCH  24  32
HETATM   32  C22 UNL     1      11.501  61.325   7.497  1.00  0.00     0.009 A 
HETATM   33  C23 UNL     1      10.682  60.234   7.817  1.00  0.00     0.015 A 
HETATM   34  C24 UNL     1      10.129  60.117   9.094  1.00  0.00     0.001 A 
HETATM   35  C25 UNL     1      10.381  61.093  10.056  1.00  0.00     0.000 A 
HETATM   36  C26 UNL     1      11.177  62.193   9.740  1.00  0.00     0.001 A 
HETATM   37  C27 UNL     1      11.731  62.311   8.464  1.00  0.00     0.015 A 
ENDBRANCH  24  32
ENDBRANCH  21  22
ENDBRANCH   1  21
TORSDOF 5
ENDMDL
