MODEL 1
REMARK minimizedAffinity -7.86564302
REMARK CNNscore 0.502071083
REMARK CNNaffinity 7.10643244
REMARK  11 active torsions:
REMARK  status: ('A' for Active; 'I' for Inactive)
REMARK    1  A    between atoms: C3_4  and  O2_5 
REMARK    2  A    between atoms: O2_5  and  C4_6 
REMARK    3  A    between atoms: C7_9  and  C8_10 
REMARK    4  A    between atoms: N1_11  and  C9_13 
REMARK    5  A    between atoms: C9_13  and  C10_14 
REMARK    6  A    between atoms: C10_14  and  C11_15 
REMARK    7  A    between atoms: C22_26  and  C23_27 
REMARK    8  A    between atoms: C29_35  and  O5_36 
REMARK    9  A    between atoms: C33_40  and  O6_41 
REMARK   10  A    between atoms: C36_44  and  O7_45 
REMARK   11  A    between atoms: C37_46  and  O8_47 
ROOT
HETATM    1  C4  UNL     1      -4.751  14.210  16.926  1.00  0.00     0.127 C 
HETATM    2  C5  UNL     1      -4.914  12.698  16.751  1.00  0.00     0.033 C 
HETATM    3  C6  UNL     1      -3.732  11.946  17.345  1.00  0.00     0.021 C 
HETATM    4  C7  UNL     1      -2.357  12.290  16.670  1.00  0.00     0.026 C 
HETATM    5  C17 UNL     1      -1.256  12.300  17.802  1.00  0.00     0.009 C 
HETATM    6  C18 UNL     1      -1.048  10.919  18.457  1.00  0.00     0.007 C 
HETATM    7  C19 UNL     1      -0.044  10.971  19.610  1.00  0.00     0.013 C 
HETATM    8  C20 UNL     1       1.350  11.498  19.181  1.00  0.00    -0.005 C 
HETATM    9  C21 UNL     1       2.074  10.448  18.316  1.00  0.00     0.019 C 
HETATM   10  C22 UNL     1       2.244  11.924  20.396  1.00  0.00     0.028 C 
HETATM   11  C27 UNL     1       1.647  13.279  20.823  1.00  0.00     0.013 C 
HETATM   12  C28 UNL     1       0.956  13.868  19.589  1.00  0.00     0.040 C 
HETATM   13  C29 UNL     1       1.189  12.863  18.443  1.00  0.00     0.070 C 
HETATM   14  C30 UNL     1       0.099  12.880  17.338  1.00  0.00     0.026 C 
HETATM   15  C31 UNL     1      -0.098  14.295  16.770  1.00  0.00     0.011 C 
HETATM   16  C32 UNL     1      -1.057  14.288  15.594  1.00  0.00     0.039 C 
HETATM   17  C33 UNL     1      -2.435  13.669  15.905  1.00  0.00     0.073 C 
HETATM   18  C34 UNL     1      -3.303  14.683  16.691  1.00  0.00     0.071 C 
ENDROOT
BRANCH   1  19
HETATM   19  O2  UNL     1      -5.652  14.835  16.010  1.00  0.00    -0.356 OA
BRANCH  19  20
HETATM   20  C3  UNL     1      -6.992  14.356  16.075  1.00  0.00     0.263 C 
HETATM   21  O1  UNL     1      -7.763  15.030  17.065  1.00  0.00    -0.354 OA
HETATM   22  C2  UNL     1      -9.082  14.496  17.239  1.00  0.00     0.151 C 
HETATM   23  C1  UNL     1      -9.076  13.526  18.418  1.00  0.00     0.042 C 
HETATM   24  C37 UNL     1      -9.660  13.842  15.970  1.00  0.00     0.175 C 
HETATM   25  C36 UNL     1      -9.135  14.581  14.740  1.00  0.00     0.154 C 
HETATM   26  C35 UNL     1      -7.613  14.567  14.693  1.00  0.00     0.095 C 
BRANCH  24  27
HETATM   27  O8  UNL     1     -11.094  13.880  15.959  1.00  0.00    -0.390 OA
HETATM   28  H55 UNL     1     -11.408  13.318  16.688  1.00  0.00     0.210 HD
ENDBRANCH  24  27
BRANCH  25  29
HETATM   29  O7  UNL     1      -9.661  13.972  13.556  1.00  0.00    -0.393 OA
HETATM   30  H53 UNL     1     -10.628  13.931  13.701  1.00  0.00     0.210 HD
ENDBRANCH  25  29
ENDBRANCH  19  20
ENDBRANCH   1  19
BRANCH  17  31
HETATM   31  O6  UNL     1      -3.083  13.506  14.631  1.00  0.00    -0.389 OA
HETATM   32  H47 UNL     1      -2.510  12.916  14.099  1.00  0.00     0.210 HD
ENDBRANCH  17  31
BRANCH   4  33
HETATM   33  C8  UNL     1      -2.054  11.142  15.688  1.00  0.00     0.068 C 
HETATM   34  N1  UNL     1      -2.839  10.125  15.566  1.00  0.00    -0.401 N 
ATOM     35  H1  UNL     1      -3.705  10.037  16.097  1.00  0.00     0.158 HD
BRANCH  34  36
HETATM   36  C9  UNL     1      -2.399   9.100  14.606  1.00  0.00     0.123 C 
BRANCH  36  37
HETATM   37  C10 UNL     1      -2.604   7.716  15.233  1.00  0.00     0.053 C 
BRANCH  37  38
HETATM   38  C11 UNL     1      -3.540   6.832  14.440  1.00  0.00    -0.082 C 
HETATM   39  C12 UNL     1      -3.073   5.916  13.569  1.00  0.00    -0.024 C 
HETATM   40  C13 UNL     1      -3.950   5.011  12.752  1.00  0.00     0.027 C 
HETATM   41  C14 UNL     1      -5.410   5.012  13.209  1.00  0.00     0.004 C 
HETATM   42  C15 UNL     1      -5.884   6.423  13.538  1.00  0.00     0.005 C 
HETATM   43  C16 UNL     1      -5.021   7.052  14.636  1.00  0.00     0.034 C 
ENDBRANCH  37  38
ENDBRANCH  36  37
ENDBRANCH  34  36
ENDBRANCH   4  33
BRANCH  13  44
HETATM   44  O5  UNL     1       2.444  13.238  17.850  1.00  0.00    -0.389 OA
HETATM   45  H41 UNL     1       2.536  12.775  16.999  1.00  0.00     0.210 HD
ENDBRANCH  13  44
BRANCH  10  46
HETATM   46  C23 UNL     1       2.488  11.006  21.563  1.00  0.00    -0.045 A 
HETATM   47  C24 UNL     1       2.338   9.686  21.680  1.00  0.00     0.087 A 
HETATM   48  C25 UNL     1       2.779   9.312  23.023  1.00  0.00     0.283 A 
HETATM   49  O3  UNL     1       2.760   8.179  23.466  1.00  0.00    -0.260 OA
HETATM   50  O4  UNL     1       3.200  10.422  23.682  1.00  0.00    -0.314 OA
HETATM   51  C26 UNL     1       3.053  11.552  22.826  1.00  0.00     0.213 A 
ENDBRANCH  10  46
TORSDOF 11
ENDMDL
MODEL 2
REMARK minimizedAffinity -10.1135473
REMARK CNNscore 0.454657197
REMARK CNNaffinity 7.60822821
REMARK  11 active torsions:
REMARK  status: ('A' for Active; 'I' for Inactive)
REMARK    1  A    between atoms: C3_4  and  O2_5 
REMARK    2  A    between atoms: O2_5  and  C4_6 
REMARK    3  A    between atoms: C7_9  and  C8_10 
REMARK    4  A    between atoms: N1_11  and  C9_13 
REMARK    5  A    between atoms: C9_13  and  C10_14 
REMARK    6  A    between atoms: C10_14  and  C11_15 
REMARK    7  A    between atoms: C22_26  and  C23_27 
REMARK    8  A    between atoms: C29_35  and  O5_36 
REMARK    9  A    between atoms: C33_40  and  O6_41 
REMARK   10  A    between atoms: C36_44  and  O7_45 
REMARK   11  A    between atoms: C37_46  and  O8_47 
ROOT
HETATM    1  C4  UNL     1      -3.073   6.172  14.814  1.00  0.00     0.127 C 
HETATM    2  C5  UNL     1      -1.711   5.993  14.139  1.00  0.00     0.033 C 
HETATM    3  C6  UNL     1      -0.682   6.955  14.716  1.00  0.00     0.021 C 
HETATM    4  C7  UNL     1      -1.043   8.468  14.513  1.00  0.00     0.026 C 
HETATM    5  C17 UNL     1      -0.587   9.249  15.808  1.00  0.00     0.009 C 
HETATM    6  C18 UNL     1       0.940   9.226  16.024  1.00  0.00     0.007 C 
HETATM    7  C19 UNL     1       1.351   9.909  17.328  1.00  0.00     0.013 C 
HETATM    8  C20 UNL     1       0.890  11.387  17.414  1.00  0.00    -0.005 C 
HETATM    9  C21 UNL     1       1.717  12.259  16.448  1.00  0.00     0.019 C 
HETATM   10  C22 UNL     1       0.952  11.965  18.870  1.00  0.00     0.028 C 
HETATM   11  C27 UNL     1      -0.278  11.339  19.556  1.00  0.00     0.013 C 
HETATM   12  C28 UNL     1      -1.283  11.007  18.449  1.00  0.00     0.040 C 
HETATM   13  C29 UNL     1      -0.640  11.477  17.128  1.00  0.00     0.070 C 
HETATM   14  C30 UNL     1      -1.113  10.701  15.869  1.00  0.00     0.026 C 
HETATM   15  C31 UNL     1      -2.646  10.714  15.747  1.00  0.00     0.011 C 
HETATM   16  C32 UNL     1      -3.100  10.083  14.444  1.00  0.00     0.039 C 
HETATM   17  C33 UNL     1      -2.586   8.645  14.225  1.00  0.00     0.073 C 
HETATM   18  C34 UNL     1      -3.418   7.652  15.073  1.00  0.00     0.071 C 
ENDROOT
BRANCH   1  19
HETATM   19  O2  UNL     1      -4.043   5.559  13.964  1.00  0.00    -0.356 OA
BRANCH  19  20
HETATM   20  C3  UNL     1      -3.504   4.930  12.805  1.00  0.00     0.263 C 
HETATM   21  O1  UNL     1      -2.155   4.510  12.992  1.00  0.00    -0.354 OA
HETATM   22  C2  UNL     1      -1.542   3.979  11.810  1.00  0.00     0.151 C 
HETATM   23  C1  UNL     1      -0.729   5.079  11.132  1.00  0.00     0.042 C 
HETATM   24  C37 UNL     1      -2.538   3.325  10.834  1.00  0.00     0.175 C 
HETATM   25  C36 UNL     1      -3.679   2.691  11.629  1.00  0.00     0.154 C 
HETATM   26  C35 UNL     1      -4.390   3.723  12.495  1.00  0.00     0.095 C 
BRANCH  24  27
HETATM   27  O8  UNL     1      -1.911   2.314  10.033  1.00  0.00    -0.390 OA
HETATM   28  H55 UNL     1      -1.260   2.755   9.460  1.00  0.00     0.210 HD
ENDBRANCH  24  27
BRANCH  25  29
HETATM   29  O7  UNL     1      -4.613   2.090  10.726  1.00  0.00    -0.393 OA
HETATM   30  H53 UNL     1      -4.073   1.518  10.146  1.00  0.00     0.210 HD
ENDBRANCH  25  29
ENDBRANCH  19  20
ENDBRANCH   1  19
BRANCH  17  31
HETATM   31  O6  UNL     1      -2.884   8.332  12.853  1.00  0.00    -0.389 OA
HETATM   32  H47 UNL     1      -2.414   8.995  12.306  1.00  0.00     0.210 HD
ENDBRANCH  17  31
BRANCH   4  33
HETATM   33  C8  UNL     1      -0.208   8.959  13.315  1.00  0.00     0.068 C 
HETATM   34  N1  UNL     1       0.453   8.143  12.565  1.00  0.00    -0.401 N 
ATOM     35  H1  UNL     1       0.443   7.134  12.716  1.00  0.00     0.158 HD
BRANCH  34  36
HETATM   36  C9  UNL     1       1.221   8.767  11.477  1.00  0.00     0.123 C 
BRANCH  36  37
HETATM   37  C10 UNL     1       0.479   8.538  10.155  1.00  0.00     0.053 C 
BRANCH  37  38
HETATM   38  C11 UNL     1       1.273   7.730   9.154  1.00  0.00    -0.082 C 
HETATM   39  C12 UNL     1       2.297   6.944   9.538  1.00  0.00    -0.024 C 
HETATM   40  C13 UNL     1       3.123   6.119   8.593  1.00  0.00     0.027 C 
HETATM   41  C14 UNL     1       2.517   6.017   7.192  1.00  0.00     0.004 C 
HETATM   42  C15 UNL     1       1.963   7.361   6.732  1.00  0.00     0.005 C 
HETATM   43  C16 UNL     1       0.893   7.877   7.699  1.00  0.00     0.034 C 
ENDBRANCH  37  38
ENDBRANCH  36  37
ENDBRANCH  34  36
ENDBRANCH   4  33
BRANCH  13  44
HETATM   44  O5  UNL     1      -1.021  12.855  16.983  1.00  0.00    -0.389 OA
HETATM   45  H41 UNL     1      -0.823  13.138  16.073  1.00  0.00     0.210 HD
ENDBRANCH  13  44
BRANCH  10  46
HETATM   46  C23 UNL     1       2.196  11.868  19.711  1.00  0.00    -0.045 A 
HETATM   47  C24 UNL     1       2.659  10.876  20.472  1.00  0.00     0.087 A 
HETATM   48  C25 UNL     1       3.946  11.305  21.017  1.00  0.00     0.283 A 
HETATM   49  O3  UNL     1       4.634  10.641  21.769  1.00  0.00    -0.260 OA
HETATM   50  O4  UNL     1       4.236  12.548  20.555  1.00  0.00    -0.314 OA
HETATM   51  C26 UNL     1       3.176  12.987  19.710  1.00  0.00     0.213 A 
ENDBRANCH  10  46
TORSDOF 11
ENDMDL
MODEL 3
REMARK minimizedAffinity -10.6719284
REMARK CNNscore 0.395320386
REMARK CNNaffinity 7.16863489
REMARK  11 active torsions:
REMARK  status: ('A' for Active; 'I' for Inactive)
REMARK    1  A    between atoms: C3_4  and  O2_5 
REMARK    2  A    between atoms: O2_5  and  C4_6 
REMARK    3  A    between atoms: C7_9  and  C8_10 
REMARK    4  A    between atoms: N1_11  and  C9_13 
REMARK    5  A    between atoms: C9_13  and  C10_14 
REMARK    6  A    between atoms: C10_14  and  C11_15 
REMARK    7  A    between atoms: C22_26  and  C23_27 
REMARK    8  A    between atoms: C29_35  and  O5_36 
REMARK    9  A    between atoms: C33_40  and  O6_41 
REMARK   10  A    between atoms: C36_44  and  O7_45 
REMARK   11  A    between atoms: C37_46  and  O8_47 
ROOT
HETATM    1  C4  UNL     1      -6.448   6.541  13.712  1.00  0.00     0.127 C 
HETATM    2  C5  UNL     1      -6.232   8.043  13.512  1.00  0.00     0.033 C 
HETATM    3  C6  UNL     1      -4.816   8.336  13.040  1.00  0.00     0.021 C 
HETATM    4  C7  UNL     1      -3.704   7.895  14.056  1.00  0.00     0.026 C 
HETATM    5  C17 UNL     1      -2.481   7.347  13.220  1.00  0.00     0.009 C 
HETATM    6  C18 UNL     1      -1.816   8.426  12.340  1.00  0.00     0.007 C 
HETATM    7  C19 UNL     1      -0.693   7.854  11.474  1.00  0.00     0.013 C 
HETATM    8  C20 UNL     1       0.427   7.171  12.300  1.00  0.00    -0.005 C 
HETATM    9  C21 UNL     1       1.257   8.231  13.051  1.00  0.00     0.019 C 
HETATM   10  C22 UNL     1       1.358   6.255  11.432  1.00  0.00     0.028 C 
HETATM   11  C27 UNL     1       0.499   4.997  11.193  1.00  0.00     0.013 C 
HETATM   12  C28 UNL     1      -0.507   4.921  12.345  1.00  0.00     0.040 C 
HETATM   13  C29 UNL     1      -0.200   6.120  13.266  1.00  0.00     0.070 C 
HETATM   14  C30 UNL     1      -1.417   6.632  14.084  1.00  0.00     0.026 C 
HETATM   15  C31 UNL     1      -2.066   5.496  14.891  1.00  0.00     0.011 C 
HETATM   16  C32 UNL     1      -3.161   6.023  15.800  1.00  0.00     0.039 C 
HETATM   17  C33 UNL     1      -4.261   6.819  15.068  1.00  0.00     0.073 C 
HETATM   18  C34 UNL     1      -5.231   5.846  14.354  1.00  0.00     0.071 C 
ENDROOT
BRANCH   1  19
HETATM   19  O2  UNL     1      -7.613   6.391  14.524  1.00  0.00    -0.356 OA
BRANCH  19  20
HETATM   20  C3  UNL     1      -8.623   7.370  14.299  1.00  0.00     0.263 C 
HETATM   21  O1  UNL     1      -9.932   6.873  14.563  1.00  0.00    -0.354 OA
HETATM   22  C2  UNL     1     -10.981   7.792  14.236  1.00  0.00     0.151 C 
HETATM   23  C1  UNL     1     -11.523   7.458  12.848  1.00  0.00     0.042 C 
HETATM   24  C37 UNL     1     -10.567   9.272  14.341  1.00  0.00     0.175 C 
HETATM   25  C36 UNL     1      -9.539   9.428  15.463  1.00  0.00     0.154 C 
HETATM   26  C35 UNL     1      -8.317   8.553  15.218  1.00  0.00     0.095 C 
BRANCH  24  27
HETATM   27  O8  UNL     1     -11.689  10.120  14.617  1.00  0.00    -0.390 OA
HETATM   28  H55 UNL     1     -12.279  10.087  13.845  1.00  0.00     0.210 HD
ENDBRANCH  24  27
BRANCH  25  29
HETATM   29  O7  UNL     1      -9.142  10.799  15.559  1.00  0.00    -0.393 OA
HETATM   30  H53 UNL     1      -9.979  11.302  15.618  1.00  0.00     0.210 HD
ENDBRANCH  25  29
ENDBRANCH  19  20
ENDBRANCH   1  19
BRANCH  17  31
HETATM   31  O6  UNL     1      -5.035   7.451  16.104  1.00  0.00    -0.389 OA
HETATM   32  H47 UNL     1      -4.418   8.022  16.605  1.00  0.00     0.210 HD
ENDBRANCH  17  31
BRANCH   4  33
HETATM   33  C8  UNL     1      -3.267   9.169  14.804  1.00  0.00     0.068 C 
HETATM   34  N1  UNL     1      -2.952   9.151  16.055  1.00  0.00    -0.401 N 
ATOM     35  H1  UNL     1      -2.960   8.293  16.606  1.00  0.00     0.158 HD
BRANCH  34  36
HETATM   36  C9  UNL     1      -2.581  10.453  16.631  1.00  0.00     0.123 C 
BRANCH  36  37
HETATM   37  C10 UNL     1      -2.353  10.278  18.137  1.00  0.00     0.053 C 
BRANCH  37  38
HETATM   38  C11 UNL     1      -1.429  11.319  18.728  1.00  0.00    -0.082 C 
HETATM   39  C12 UNL     1      -0.330  10.970  19.424  1.00  0.00    -0.024 C 
HETATM   40  C13 UNL     1       0.623  11.956  20.036  1.00  0.00     0.027 C 
HETATM   41  C14 UNL     1       0.403  13.391  19.552  1.00  0.00     0.004 C 
HETATM   42  C15 UNL     1      -1.083  13.726  19.480  1.00  0.00     0.005 C 
HETATM   43  C16 UNL     1      -1.820  12.766  18.540  1.00  0.00     0.034 C 
ENDBRANCH  37  38
ENDBRANCH  36  37
ENDBRANCH  34  36
ENDBRANCH   4  33
BRANCH  13  44
HETATM   44  O5  UNL     1       0.802   5.654  14.185  1.00  0.00    -0.389 OA
HETATM   45  H41 UNL     1       0.878   6.295  14.913  1.00  0.00     0.210 HD
ENDBRANCH  13  44
BRANCH  10  46
HETATM   46  C23 UNL     1       2.015   6.755  10.174  1.00  0.00    -0.045 A 
HETATM   47  C24 UNL     1       1.923   7.930   9.551  1.00  0.00     0.087 A 
HETATM   48  C25 UNL     1       2.826   7.888   8.401  1.00  0.00     0.283 A 
HETATM   49  O3  UNL     1       2.975   8.797   7.606  1.00  0.00    -0.260 OA
HETATM   50  O4  UNL     1       3.454   6.685   8.368  1.00  0.00    -0.314 OA
HETATM   51  C26 UNL     1       3.001   5.896   9.465  1.00  0.00     0.213 A 
ENDBRANCH  10  46
TORSDOF 11
ENDMDL
MODEL 4
REMARK minimizedAffinity -8.73426056
REMARK CNNscore 0.392793179
REMARK CNNaffinity 6.78784609
REMARK  11 active torsions:
REMARK  status: ('A' for Active; 'I' for Inactive)
REMARK    1  A    between atoms: C3_4  and  O2_5 
REMARK    2  A    between atoms: O2_5  and  C4_6 
REMARK    3  A    between atoms: C7_9  and  C8_10 
REMARK    4  A    between atoms: N1_11  and  C9_13 
REMARK    5  A    between atoms: C9_13  and  C10_14 
REMARK    6  A    between atoms: C10_14  and  C11_15 
REMARK    7  A    between atoms: C22_26  and  C23_27 
REMARK    8  A    between atoms: C29_35  and  O5_36 
REMARK    9  A    between atoms: C33_40  and  O6_41 
REMARK   10  A    between atoms: C36_44  and  O7_45 
REMARK   11  A    between atoms: C37_46  and  O8_47 
ROOT
HETATM    1  C4  UNL     1      -2.086  13.855  15.199  1.00  0.00     0.127 C 
HETATM    2  C5  UNL     1      -0.624  13.440  15.378  1.00  0.00     0.033 C 
HETATM    3  C6  UNL     1      -0.437  11.956  15.099  1.00  0.00     0.021 C 
HETATM    4  C7  UNL     1      -1.248  11.021  16.064  1.00  0.00     0.026 C 
HETATM    5  C17 UNL     1      -1.763   9.790  15.219  1.00  0.00     0.009 C 
HETATM    6  C18 UNL     1      -0.621   8.909  14.673  1.00  0.00     0.007 C 
HETATM    7  C19 UNL     1      -1.137   7.776  13.785  1.00  0.00     0.013 C 
HETATM    8  C20 UNL     1      -2.141   6.842  14.510  1.00  0.00    -0.005 C 
HETATM    9  C21 UNL     1      -1.405   5.977  15.552  1.00  0.00     0.019 C 
HETATM   10  C22 UNL     1      -2.962   5.941  13.524  1.00  0.00     0.028 C 
HETATM   11  C27 UNL     1      -3.998   6.914  12.929  1.00  0.00     0.013 C 
HETATM   12  C28 UNL     1      -4.187   8.041  13.950  1.00  0.00     0.040 C 
HETATM   13  C29 UNL     1      -3.281   7.693  15.148  1.00  0.00     0.070 C 
HETATM   14  C30 UNL     1      -2.797   8.920  15.968  1.00  0.00     0.026 C 
HETATM   15  C31 UNL     1      -3.981   9.784  16.431  1.00  0.00     0.011 C 
HETATM   16  C32 UNL     1      -3.521  10.900  17.352  1.00  0.00     0.039 C 
HETATM   17  C33 UNL     1      -2.433  11.810  16.747  1.00  0.00     0.073 C 
HETATM   18  C34 UNL     1      -3.073  12.808  15.751  1.00  0.00     0.071 C 
ENDROOT
BRANCH   1  19
HETATM   19  O2  UNL     1      -2.247  15.111  15.861  1.00  0.00    -0.356 OA
BRANCH  19  20
HETATM   20  C3  UNL     1      -2.490  16.213  14.991  1.00  0.00     0.263 C 
HETATM   21  O1  UNL     1      -1.909  16.029  13.704  1.00  0.00    -0.354 OA
HETATM   22  C2  UNL     1      -2.034  17.166  12.841  1.00  0.00     0.151 C 
HETATM   23  C1  UNL     1      -0.749  17.988  12.908  1.00  0.00     0.042 C 
HETATM   24  C37 UNL     1      -3.276  18.031  13.128  1.00  0.00     0.175 C 
HETATM   25  C36 UNL     1      -4.412  17.133  13.617  1.00  0.00     0.154 C 
HETATM   26  C35 UNL     1      -4.007  16.360  14.865  1.00  0.00     0.095 C 
BRANCH  24  27
HETATM   27  O8  UNL     1      -3.712  18.739  11.959  1.00  0.00    -0.390 OA
HETATM   28  H55 UNL     1      -3.017  19.379  11.727  1.00  0.00     0.210 HD
ENDBRANCH  24  27
BRANCH  25  29
HETATM   29  O7  UNL     1      -5.566  17.932  13.895  1.00  0.00    -0.393 OA
HETATM   30  H53 UNL     1      -5.706  18.466  13.087  1.00  0.00     0.210 HD
ENDBRANCH  25  29
ENDBRANCH  19  20
ENDBRANCH   1  19
BRANCH  17  31
HETATM   31  O6  UNL     1      -1.945  12.609  17.840  1.00  0.00    -0.389 OA
HETATM   32  H47 UNL     1      -1.595  11.985  18.508  1.00  0.00     0.210 HD
ENDBRANCH  17  31
BRANCH   4  33
HETATM   33  C8  UNL     1      -0.250  10.517  17.123  1.00  0.00     0.068 C 
HETATM   34  N1  UNL     1       0.542  11.320  17.751  1.00  0.00    -0.401 N 
ATOM     35  H1  UNL     1       0.535  12.327  17.591  1.00  0.00     0.158 HD
BRANCH  34  36
HETATM   36  C9  UNL     1       1.454  10.683  18.714  1.00  0.00     0.123 C 
BRANCH  36  37
HETATM   37  C10 UNL     1       0.968  10.995  20.134  1.00  0.00     0.053 C 
BRANCH  37  38
HETATM   38  C11 UNL     1       1.997  10.692  21.200  1.00  0.00    -0.082 C 
HETATM   39  C12 UNL     1       2.238   9.431  21.607  1.00  0.00    -0.024 C 
HETATM   40  C13 UNL     1       3.245   9.067  22.660  1.00  0.00     0.027 C 
HETATM   41  C14 UNL     1       4.183  10.219  23.023  1.00  0.00     0.004 C 
HETATM   42  C15 UNL     1       3.423  11.536  23.131  1.00  0.00     0.005 C 
HETATM   43  C16 UNL     1       2.710  11.872  21.817  1.00  0.00     0.034 C 
ENDBRANCH  37  38
ENDBRANCH  36  37
ENDBRANCH  34  36
ENDBRANCH   4  33
BRANCH  13  44
HETATM   44  O5  UNL     1      -4.080   6.859  16.005  1.00  0.00    -0.389 OA
HETATM   45  H41 UNL     1      -3.636   6.785  16.868  1.00  0.00     0.210 HD
ENDBRANCH  13  44
BRANCH  10  46
HETATM   46  C23 UNL     1      -2.291   5.097  12.475  1.00  0.00    -0.045 A 
HETATM   47  C24 UNL     1      -2.654   3.939  11.924  1.00  0.00     0.087 A 
HETATM   48  C25 UNL     1      -1.653   3.600  10.913  1.00  0.00     0.283 A 
HETATM   49  O3  UNL     1      -1.673   2.593  10.230  1.00  0.00    -0.260 OA
HETATM   50  O4  UNL     1      -0.712   4.577  10.869  1.00  0.00    -0.314 OA
HETATM   51  C26 UNL     1      -1.039   5.578  11.831  1.00  0.00     0.213 A 
ENDBRANCH  10  46
TORSDOF 11
ENDMDL
MODEL 5
REMARK minimizedAffinity -10.3936605
REMARK CNNscore 0.363280118
REMARK CNNaffinity 7.32555771
REMARK  11 active torsions:
REMARK  status: ('A' for Active; 'I' for Inactive)
REMARK    1  A    between atoms: C3_4  and  O2_5 
REMARK    2  A    between atoms: O2_5  and  C4_6 
REMARK    3  A    between atoms: C7_9  and  C8_10 
REMARK    4  A    between atoms: N1_11  and  C9_13 
REMARK    5  A    between atoms: C9_13  and  C10_14 
REMARK    6  A    between atoms: C10_14  and  C11_15 
REMARK    7  A    between atoms: C22_26  and  C23_27 
REMARK    8  A    between atoms: C29_35  and  O5_36 
REMARK    9  A    between atoms: C33_40  and  O6_41 
REMARK   10  A    between atoms: C36_44  and  O7_45 
REMARK   11  A    between atoms: C37_46  and  O8_47 
ROOT
HETATM    1  C4  UNL     1      -3.261   6.061  14.809  1.00  0.00     0.127 C 
HETATM    2  C5  UNL     1      -1.894   5.798  14.174  1.00  0.00     0.033 C 
HETATM    3  C6  UNL     1      -0.835   6.730  14.744  1.00  0.00     0.021 C 
HETATM    4  C7  UNL     1      -1.121   8.251  14.482  1.00  0.00     0.026 C 
HETATM    5  C17 UNL     1      -0.659   9.054  15.761  1.00  0.00     0.009 C 
HETATM    6  C18 UNL     1       0.860   8.969  16.015  1.00  0.00     0.007 C 
HETATM    7  C19 UNL     1       1.272   9.677  17.306  1.00  0.00     0.013 C 
HETATM    8  C20 UNL     1       0.878  11.176  17.331  1.00  0.00    -0.005 C 
HETATM    9  C21 UNL     1       1.766  11.977  16.358  1.00  0.00     0.019 C 
HETATM   10  C22 UNL     1       0.933  11.800  18.768  1.00  0.00     0.028 C 
HETATM   11  C27 UNL     1      -0.340  11.255  19.444  1.00  0.00     0.013 C 
HETATM   12  C28 UNL     1      -1.333  10.931  18.324  1.00  0.00     0.040 C 
HETATM   13  C29 UNL     1      -0.640  11.326  17.005  1.00  0.00     0.070 C 
HETATM   14  C30 UNL     1      -1.119  10.529  15.761  1.00  0.00     0.026 C 
HETATM   15  C31 UNL     1      -2.646  10.608  15.602  1.00  0.00     0.011 C 
HETATM   16  C32 UNL     1      -3.099   9.954  14.309  1.00  0.00     0.039 C 
HETATM   17  C33 UNL     1      -2.647   8.488  14.151  1.00  0.00     0.073 C 
HETATM   18  C34 UNL     1      -3.544   7.563  15.011  1.00  0.00     0.071 C 
ENDROOT
BRANCH   1  19
HETATM   19  O2  UNL     1      -4.239   5.464  13.956  1.00  0.00    -0.356 OA
BRANCH  19  20
HETATM   20  C3  UNL     1      -5.584   5.838  14.243  1.00  0.00     0.263 C 
HETATM   21  O1  UNL     1      -6.524   4.848  13.835  1.00  0.00    -0.354 OA
HETATM   22  C2  UNL     1      -7.892   5.240  14.002  1.00  0.00     0.151 C 
HETATM   23  C1  UNL     1      -8.423   5.777  12.674  1.00  0.00     0.042 C 
HETATM   24  C37 UNL     1      -8.116   6.244  15.150  1.00  0.00     0.175 C 
HETATM   25  C36 UNL     1      -7.109   5.965  16.265  1.00  0.00     0.154 C 
HETATM   26  C35 UNL     1      -5.677   6.058  15.754  1.00  0.00     0.095 C 
BRANCH  24  27
HETATM   27  O8  UNL     1      -9.443   6.150  15.686  1.00  0.00    -0.390 OA
HETATM   28  H55 UNL     1     -10.061   6.433  14.990  1.00  0.00     0.210 HD
ENDBRANCH  24  27
BRANCH  25  29
HETATM   29  O7  UNL     1      -7.305   6.900  17.330  1.00  0.00    -0.393 OA
HETATM   30  H53 UNL     1      -8.260   6.850  17.538  1.00  0.00     0.210 HD
ENDBRANCH  25  29
ENDBRANCH  19  20
ENDBRANCH   1  19
BRANCH  17  31
HETATM   31  O6  UNL     1      -2.928   8.141  12.783  1.00  0.00    -0.389 OA
HETATM   32  H47 UNL     1      -2.415   8.763  12.226  1.00  0.00     0.210 HD
ENDBRANCH  17  31
BRANCH   4  33
HETATM   33  C8  UNL     1      -0.237   8.661  13.289  1.00  0.00     0.068 C 
HETATM   34  N1  UNL     1       0.756   7.939  12.896  1.00  0.00    -0.401 N 
ATOM     35  H1  UNL     1       0.997   7.054  13.342  1.00  0.00     0.158 HD
BRANCH  34  36
HETATM   36  C9  UNL     1       1.520   8.478  11.760  1.00  0.00     0.123 C 
BRANCH  36  37
HETATM   37  C10 UNL     1       0.665   8.362  10.492  1.00  0.00     0.053 C 
BRANCH  37  38
HETATM   38  C11 UNL     1       1.360   7.633   9.365  1.00  0.00    -0.082 C 
HETATM   39  C12 UNL     1       2.323   6.722   9.605  1.00  0.00    -0.024 C 
HETATM   40  C13 UNL     1       3.050   5.967   8.529  1.00  0.00     0.027 C 
HETATM   41  C14 UNL     1       2.400   6.102   7.151  1.00  0.00     0.004 C 
HETATM   42  C15 UNL     1       1.951   7.536   6.892  1.00  0.00     0.005 C 
HETATM   43  C16 UNL     1       0.955   8.004   7.958  1.00  0.00     0.034 C 
ENDBRANCH  37  38
ENDBRANCH  36  37
ENDBRANCH  34  36
ENDBRANCH   4  33
BRANCH  13  44
HETATM   44  O5  UNL     1      -0.953  12.714  16.805  1.00  0.00    -0.389 OA
HETATM   45  H41 UNL     1      -0.721  12.957  15.891  1.00  0.00     0.210 HD
ENDBRANCH  13  44
BRANCH  10  46
HETATM   46  C23 UNL     1       2.151  11.675  19.642  1.00  0.00    -0.045 A 
HETATM   47  C24 UNL     1       2.659  10.624  20.285  1.00  0.00     0.087 A 
HETATM   48  C25 UNL     1       3.892  11.062  20.938  1.00  0.00     0.283 A 
HETATM   49  O3  UNL     1       4.602  10.351  21.625  1.00  0.00    -0.260 OA
HETATM   50  O4  UNL     1       4.107  12.373  20.657  1.00  0.00    -0.314 OA
HETATM   51  C26 UNL     1       3.046  12.849  19.832  1.00  0.00     0.213 A 
ENDBRANCH  10  46
TORSDOF 11
ENDMDL
MODEL 6
REMARK minimizedAffinity -9.9620018
REMARK CNNscore 0.342585236
REMARK CNNaffinity 7.07267809
REMARK  11 active torsions:
REMARK  status: ('A' for Active; 'I' for Inactive)
REMARK    1  A    between atoms: C3_4  and  O2_5 
REMARK    2  A    between atoms: O2_5  and  C4_6 
REMARK    3  A    between atoms: C7_9  and  C8_10 
REMARK    4  A    between atoms: N1_11  and  C9_13 
REMARK    5  A    between atoms: C9_13  and  C10_14 
REMARK    6  A    between atoms: C10_14  and  C11_15 
REMARK    7  A    between atoms: C22_26  and  C23_27 
REMARK    8  A    between atoms: C29_35  and  O5_36 
REMARK    9  A    between atoms: C33_40  and  O6_41 
REMARK   10  A    between atoms: C36_44  and  O7_45 
REMARK   11  A    between atoms: C37_46  and  O8_47 
ROOT
HETATM    1  C4  UNL     1      -5.873   6.223  13.609  1.00  0.00     0.127 C 
HETATM    2  C5  UNL     1      -5.799   7.751  13.564  1.00  0.00     0.033 C 
HETATM    3  C6  UNL     1      -4.410   8.222  13.161  1.00  0.00     0.021 C 
HETATM    4  C7  UNL     1      -3.278   7.788  14.157  1.00  0.00     0.026 C 
HETATM    5  C17 UNL     1      -1.994   7.445  13.303  1.00  0.00     0.009 C 
HETATM    6  C18 UNL     1      -1.421   8.664  12.552  1.00  0.00     0.007 C 
HETATM    7  C19 UNL     1      -0.234   8.292  11.663  1.00  0.00     0.013 C 
HETATM    8  C20 UNL     1       0.932   7.637  12.447  1.00  0.00    -0.005 C 
HETATM    9  C21 UNL     1       1.644   8.689  13.320  1.00  0.00     0.019 C 
HETATM   10  C22 UNL     1       1.961   6.905  11.517  1.00  0.00     0.028 C 
HETATM   11  C27 UNL     1       1.232   5.603  11.132  1.00  0.00     0.013 C 
HETATM   12  C28 UNL     1       0.219   5.316  12.245  1.00  0.00     0.040 C 
HETATM   13  C29 UNL     1       0.393   6.439  13.287  1.00  0.00     0.070 C 
HETATM   14  C30 UNL     1      -0.881   6.750  14.120  1.00  0.00     0.026 C 
HETATM   15  C31 UNL     1      -1.430   5.482  14.793  1.00  0.00     0.011 C 
HETATM   16  C32 UNL     1      -2.586   5.808  15.720  1.00  0.00     0.039 C 
HETATM   17  C33 UNL     1      -3.746   6.567  15.043  1.00  0.00     0.073 C 
HETATM   18  C34 UNL     1      -4.605   5.584  14.211  1.00  0.00     0.071 C 
ENDROOT
BRANCH   1  19
HETATM   19  O2  UNL     1      -7.031   5.882  14.372  1.00  0.00    -0.356 OA
BRANCH  19  20
HETATM   20  C3  UNL     1      -8.233   6.513  13.938  1.00  0.00     0.263 C 
HETATM   21  O1  UNL     1      -9.049   5.647  13.154  1.00  0.00    -0.354 OA
HETATM   22  C2  UNL     1     -10.210   6.282  12.603  1.00  0.00     0.151 C 
HETATM   23  C1  UNL     1      -9.910   6.712  11.168  1.00  0.00     0.042 C 
HETATM   24  C37 UNL     1     -10.736   7.458  13.448  1.00  0.00     0.175 C 
HETATM   25  C36 UNL     1     -10.473   7.171  14.926  1.00  0.00     0.154 C 
HETATM   26  C35 UNL     1      -8.989   6.952  15.192  1.00  0.00     0.095 C 
BRANCH  24  27
HETATM   27  O8  UNL     1     -12.142   7.663  13.256  1.00  0.00    -0.390 OA
HETATM   28  H55 UNL     1     -12.275   7.946  12.335  1.00  0.00     0.210 HD
ENDBRANCH  24  27
BRANCH  25  29
HETATM   29  O7  UNL     1     -10.951   8.264  15.717  1.00  0.00    -0.393 OA
HETATM   30  H53 UNL     1     -11.873   8.405  15.424  1.00  0.00     0.210 HD
ENDBRANCH  25  29
ENDBRANCH  19  20
ENDBRANCH   1  19
BRANCH  17  31
HETATM   31  O6  UNL     1      -4.594   7.016  16.115  1.00  0.00    -0.389 OA
HETATM   32  H47 UNL     1      -4.043   7.589  16.687  1.00  0.00     0.210 HD
ENDBRANCH  17  31
BRANCH   4  33
HETATM   33  C8  UNL     1      -2.978   9.015  15.039  1.00  0.00     0.068 C 
HETATM   34  N1  UNL     1      -3.050  10.219  14.579  1.00  0.00    -0.401 N 
ATOM     35  H1  UNL     1      -3.323  10.419  13.617  1.00  0.00     0.158 HD
BRANCH  34  36
HETATM   36  C9  UNL     1      -2.709  11.282  15.537  1.00  0.00     0.123 C 
BRANCH  36  37
HETATM   37  C10 UNL     1      -3.836  12.322  15.540  1.00  0.00     0.053 C 
BRANCH  37  38
HETATM   38  C11 UNL     1      -4.286  12.713  16.930  1.00  0.00    -0.082 C 
HETATM   39  C12 UNL     1      -5.260  13.624  17.123  1.00  0.00    -0.024 C 
HETATM   40  C13 UNL     1      -5.749  14.054  18.476  1.00  0.00     0.027 C 
HETATM   41  C14 UNL     1      -5.254  13.157  19.612  1.00  0.00     0.004 C 
HETATM   42  C15 UNL     1      -3.787  12.789  19.424  1.00  0.00     0.005 C 
HETATM   43  C16 UNL     1      -3.565  12.069  18.090  1.00  0.00     0.034 C 
ENDBRANCH  37  38
ENDBRANCH  36  37
ENDBRANCH  34  36
ENDBRANCH   4  33
BRANCH  13  44
HETATM   44  O5  UNL     1       1.421   5.979  14.181  1.00  0.00    -0.389 OA
HETATM   45  H41 UNL     1       1.422   6.547  14.971  1.00  0.00     0.210 HD
ENDBRANCH  13  44
BRANCH  10  46
HETATM   46  C23 UNL     1       2.587   7.590  10.333  1.00  0.00    -0.045 A 
HETATM   47  C24 UNL     1       2.101   7.853   9.120  1.00  0.00     0.087 A 
HETATM   48  C25 UNL     1       3.128   8.593   8.386  1.00  0.00     0.283 A 
HETATM   49  O3  UNL     1       3.015   8.977   7.237  1.00  0.00    -0.260 OA
HETATM   50  O4  UNL     1       4.210   8.771   9.186  1.00  0.00    -0.314 OA
HETATM   51  C26 UNL     1       3.954   8.166  10.451  1.00  0.00     0.213 A 
ENDBRANCH  10  46
TORSDOF 11
ENDMDL
MODEL 7
REMARK minimizedAffinity -9.59802437
REMARK CNNscore 0.33523348
REMARK CNNaffinity 6.91681147
REMARK  11 active torsions:
REMARK  status: ('A' for Active; 'I' for Inactive)
REMARK    1  A    between atoms: C3_4  and  O2_5 
REMARK    2  A    between atoms: O2_5  and  C4_6 
REMARK    3  A    between atoms: C7_9  and  C8_10 
REMARK    4  A    between atoms: N1_11  and  C9_13 
REMARK    5  A    between atoms: C9_13  and  C10_14 
REMARK    6  A    between atoms: C10_14  and  C11_15 
REMARK    7  A    between atoms: C22_26  and  C23_27 
REMARK    8  A    between atoms: C29_35  and  O5_36 
REMARK    9  A    between atoms: C33_40  and  O6_41 
REMARK   10  A    between atoms: C36_44  and  O7_45 
REMARK   11  A    between atoms: C37_46  and  O8_47 
ROOT
HETATM    1  C4  UNL     1      -2.126   7.522  14.127  1.00  0.00     0.127 C 
HETATM    2  C5  UNL     1      -1.540   7.104  15.478  1.00  0.00     0.033 C 
HETATM    3  C6  UNL     1      -1.933   8.085  16.573  1.00  0.00     0.021 C 
HETATM    4  C7  UNL     1      -1.409   9.545  16.335  1.00  0.00     0.026 C 
HETATM    5  C17 UNL     1      -2.526  10.543  16.838  1.00  0.00     0.009 C 
HETATM    6  C18 UNL     1      -2.783  10.451  18.356  1.00  0.00     0.007 C 
HETATM    7  C19 UNL     1      -3.928  11.359  18.805  1.00  0.00     0.013 C 
HETATM    8  C20 UNL     1      -3.693  12.853  18.462  1.00  0.00    -0.005 C 
HETATM    9  C21 UNL     1      -2.590  13.439  19.365  1.00  0.00     0.019 C 
HETATM   10  C22 UNL     1      -4.998  13.716  18.553  1.00  0.00     0.028 C 
HETATM   11  C27 UNL     1      -5.765  13.342  17.270  1.00  0.00     0.013 C 
HETATM   12  C28 UNL     1      -4.724  12.862  16.255  1.00  0.00     0.040 C 
HETATM   13  C29 UNL     1      -3.353  12.995  16.947  1.00  0.00     0.070 C 
HETATM   14  C30 UNL     1      -2.270  12.011  16.427  1.00  0.00     0.026 C 
HETATM   15  C31 UNL     1      -2.107  12.114  14.902  1.00  0.00     0.011 C 
HETATM   16  C32 UNL     1      -0.951  11.260  14.413  1.00  0.00     0.039 C 
HETATM   17  C33 UNL     1      -1.050   9.773  14.815  1.00  0.00     0.073 C 
HETATM   18  C34 UNL     1      -2.063   9.045  13.897  1.00  0.00     0.071 C 
ENDROOT
BRANCH   1  19
HETATM   19  O2  UNL     1      -1.396   6.820  13.120  1.00  0.00    -0.356 OA
BRANCH  19  20
HETATM   20  C3  UNL     1      -1.872   5.504  12.852  1.00  0.00     0.263 C 
HETATM   21  O1  UNL     1      -3.054   5.505  12.055  1.00  0.00    -0.354 OA
HETATM   22  C2  UNL     1      -3.627   4.206  11.863  1.00  0.00     0.151 C 
HETATM   23  C1  UNL     1      -4.745   3.997  12.882  1.00  0.00     0.042 C 
HETATM   24  C37 UNL     1      -2.599   3.060  11.906  1.00  0.00     0.175 C 
HETATM   25  C36 UNL     1      -1.267   3.557  11.345  1.00  0.00     0.154 C 
HETATM   26  C35 UNL     1      -0.752   4.759  12.125  1.00  0.00     0.095 C 
BRANCH  24  27
HETATM   27  O8  UNL     1      -3.033   1.927  11.142  1.00  0.00    -0.390 OA
HETATM   28  H55 UNL     1      -3.823   1.563  11.578  1.00  0.00     0.210 HD
ENDBRANCH  24  27
BRANCH  25  29
HETATM   29  O7  UNL     1      -0.304   2.500  11.391  1.00  0.00    -0.393 OA
HETATM   30  H53 UNL     1      -0.741   1.740  10.957  1.00  0.00     0.210 HD
ENDBRANCH  25  29
ENDBRANCH  19  20
ENDBRANCH   1  19
BRANCH  17  31
HETATM   31  O6  UNL     1       0.235   9.203  14.507  1.00  0.00    -0.389 OA
HETATM   32  H47 UNL     1       0.894   9.700  15.034  1.00  0.00     0.210 HD
ENDBRANCH  17  31
BRANCH   4  33
HETATM   33  C8  UNL     1      -0.159   9.710  17.219  1.00  0.00     0.068 C 
HETATM   34  N1  UNL     1      -0.011  10.718  18.011  1.00  0.00    -0.401 N 
ATOM     35  H1  UNL     1      -0.719  11.446  18.104  1.00  0.00     0.158 HD
BRANCH  34  36
HETATM   36  C9  UNL     1       1.249  10.746  18.770  1.00  0.00     0.123 C 
BRANCH  36  37
HETATM   37  C10 UNL     1       0.976  11.342  20.156  1.00  0.00     0.053 C 
BRANCH  37  38
HETATM   38  C11 UNL     1       2.059  11.032  21.165  1.00  0.00    -0.082 C 
HETATM   39  C12 UNL     1       2.692  12.011  21.841  1.00  0.00    -0.024 C 
HETATM   40  C13 UNL     1       3.775  11.767  22.852  1.00  0.00     0.027 C 
HETATM   41  C14 UNL     1       3.895  10.299  23.267  1.00  0.00     0.004 C 
HETATM   42  C15 UNL     1       3.768   9.374  22.062  1.00  0.00     0.005 C 
HETATM   43  C16 UNL     1       2.429   9.579  21.347  1.00  0.00     0.034 C 
ENDBRANCH  37  38
ENDBRANCH  36  37
ENDBRANCH  34  36
ENDBRANCH   4  33
BRANCH  13  44
HETATM   44  O5  UNL     1      -2.914  14.338  16.677  1.00  0.00    -0.389 OA
HETATM   45  H41 UNL     1      -1.971  14.408  16.907  1.00  0.00     0.210 HD
ENDBRANCH  13  44
BRANCH  10  46
HETATM   46  C23 UNL     1      -5.874  13.704  19.777  1.00  0.00    -0.045 A 
HETATM   47  C24 UNL     1      -5.562  13.732  21.073  1.00  0.00     0.087 A 
HETATM   48  C25 UNL     1      -6.816  13.760  21.825  1.00  0.00     0.283 A 
HETATM   49  O3  UNL     1      -6.893  13.774  23.039  1.00  0.00    -0.260 OA
HETATM   50  O4  UNL     1      -7.860  13.763  20.957  1.00  0.00    -0.314 OA
HETATM   51  C26 UNL     1      -7.354  13.731  19.625  1.00  0.00     0.213 A 
ENDBRANCH  10  46
TORSDOF 11
ENDMDL
MODEL 8
REMARK minimizedAffinity -7.89063644
REMARK CNNscore 0.293575227
REMARK CNNaffinity 6.12439299
REMARK  11 active torsions:
REMARK  status: ('A' for Active; 'I' for Inactive)
REMARK    1  A    between atoms: C3_4  and  O2_5 
REMARK    2  A    between atoms: O2_5  and  C4_6 
REMARK    3  A    between atoms: C7_9  and  C8_10 
REMARK    4  A    between atoms: N1_11  and  C9_13 
REMARK    5  A    between atoms: C9_13  and  C10_14 
REMARK    6  A    between atoms: C10_14  and  C11_15 
REMARK    7  A    between atoms: C22_26  and  C23_27 
REMARK    8  A    between atoms: C29_35  and  O5_36 
REMARK    9  A    between atoms: C33_40  and  O6_41 
REMARK   10  A    between atoms: C36_44  and  O7_45 
REMARK   11  A    between atoms: C37_46  and  O8_47 
ROOT
HETATM    1  C4  UNL     1     -13.027   9.646  17.941  1.00  0.00     0.127 C 
HETATM    2  C5  UNL     1     -11.957  10.139  18.918  1.00  0.00     0.033 C 
HETATM    3  C6  UNL     1     -11.990   9.344  20.215  1.00  0.00     0.021 C 
HETATM    4  C7  UNL     1     -13.345   9.463  20.998  1.00  0.00     0.026 C 
HETATM    5  C17 UNL     1     -13.651   8.054  21.643  1.00  0.00     0.009 C 
HETATM    6  C18 UNL     1     -12.611   7.633  22.702  1.00  0.00     0.007 C 
HETATM    7  C19 UNL     1     -12.877   6.229  23.247  1.00  0.00     0.013 C 
HETATM    8  C20 UNL     1     -14.280   6.080  23.888  1.00  0.00    -0.005 C 
HETATM    9  C21 UNL     1     -14.339   6.843  25.227  1.00  0.00     0.019 C 
HETATM   10  C22 UNL     1     -14.708   4.585  24.086  1.00  0.00     0.028 C 
HETATM   11  C27 UNL     1     -15.095   4.132  22.664  1.00  0.00     0.013 C 
HETATM   12  C28 UNL     1     -15.495   5.393  21.891  1.00  0.00     0.040 C 
HETATM   13  C29 UNL     1     -15.370   6.566  22.884  1.00  0.00     0.070 C 
HETATM   14  C30 UNL     1     -15.079   7.941  22.223  1.00  0.00     0.026 C 
HETATM   15  C31 UNL     1     -16.119   8.271  21.140  1.00  0.00     0.011 C 
HETATM   16  C32 UNL     1     -15.921   9.675  20.597  1.00  0.00     0.039 C 
HETATM   17  C33 UNL     1     -14.506   9.945  20.043  1.00  0.00     0.073 C 
HETATM   18  C34 UNL     1     -14.360   9.309  18.639  1.00  0.00     0.071 C 
ENDROOT
BRANCH   1  19
HETATM   19  O2  UNL     1     -13.204  10.672  16.963  1.00  0.00    -0.356 OA
BRANCH  19  20
HETATM   20  C3  UNL     1     -12.607  10.396  15.699  1.00  0.00     0.263 C 
HETATM   21  O1  UNL     1     -12.641   9.009  15.372  1.00  0.00    -0.354 OA
HETATM   22  C2  UNL     1     -11.947   8.679  14.163  1.00  0.00     0.151 C 
HETATM   23  C1  UNL     1     -10.541   8.195  14.510  1.00  0.00     0.042 C 
HETATM   24  C37 UNL     1     -11.915   9.823  13.132  1.00  0.00     0.175 C 
HETATM   25  C36 UNL     1     -13.202  10.640  13.246  1.00  0.00     0.154 C 
HETATM   26  C35 UNL     1     -13.379  11.200  14.652  1.00  0.00     0.095 C 
BRANCH  24  27
HETATM   27  O8  UNL     1     -11.795   9.328  11.792  1.00  0.00    -0.390 OA
HETATM   28  H55 UNL     1     -10.924   8.903  11.712  1.00  0.00     0.210 HD
ENDBRANCH  24  27
BRANCH  25  29
HETATM   29  O7  UNL     1     -13.173  11.711  12.298  1.00  0.00    -0.393 OA
HETATM   30  H53 UNL     1     -12.963  11.286  11.442  1.00  0.00     0.210 HD
ENDBRANCH  25  29
ENDBRANCH  19  20
ENDBRANCH   1  19
BRANCH  17  31
HETATM   31  O6  UNL     1     -14.436  11.367  19.837  1.00  0.00    -0.389 OA
HETATM   32  H47 UNL     1     -14.592  11.784  20.710  1.00  0.00     0.210 HD
ENDBRANCH  17  31
BRANCH   4  33
HETATM   33  C8  UNL     1     -13.108  10.487  22.124  1.00  0.00     0.068 C 
HETATM   34  N1  UNL     1     -12.023  11.182  22.198  1.00  0.00    -0.401 N 
ATOM     35  H1  UNL     1     -11.277  11.101  21.508  1.00  0.00     0.158 HD
BRANCH  34  36
HETATM   36  C9  UNL     1     -11.937  12.098  23.345  1.00  0.00     0.123 C 
BRANCH  36  37
HETATM   37  C10 UNL     1     -10.606  11.859  24.068  1.00  0.00     0.053 C 
BRANCH  37  38
HETATM   38  C11 UNL     1      -9.422  12.485  23.366  1.00  0.00    -0.082 C 
HETATM   39  C12 UNL     1      -8.491  13.184  24.044  1.00  0.00    -0.024 C 
HETATM   40  C13 UNL     1      -7.295  13.829  23.404  1.00  0.00     0.027 C 
HETATM   41  C14 UNL     1      -7.065  13.376  21.960  1.00  0.00     0.004 C 
HETATM   42  C15 UNL     1      -8.379  13.297  21.191  1.00  0.00     0.005 C 
HETATM   43  C16 UNL     1      -9.354  12.326  21.865  1.00  0.00     0.034 C 
ENDBRANCH  37  38
ENDBRANCH  36  37
ENDBRANCH  34  36
ENDBRANCH   4  33
BRANCH  13  44
HETATM   44  O5  UNL     1     -16.640   6.642  23.553  1.00  0.00    -0.389 OA
HETATM   45  H41 UNL     1     -16.688   7.488  24.032  1.00  0.00     0.210 HD
ENDBRANCH  13  44
BRANCH  10  46
HETATM   46  C23 UNL     1     -13.823   3.592  24.788  1.00  0.00    -0.045 A 
HETATM   47  C24 UNL     1     -12.864   2.793  24.319  1.00  0.00     0.087 A 
HETATM   48  C25 UNL     1     -12.290   2.079  25.459  1.00  0.00     0.283 A 
HETATM   49  O3  UNL     1     -11.398   1.256  25.381  1.00  0.00    -0.260 OA
HETATM   50  O4  UNL     1     -12.912   2.479  26.597  1.00  0.00    -0.314 OA
HETATM   51  C26 UNL     1     -13.905   3.447  26.267  1.00  0.00     0.213 A 
ENDBRANCH  10  46
TORSDOF 11
ENDMDL
MODEL 9
REMARK minimizedAffinity -8.12542629
REMARK CNNscore 0.293550104
REMARK CNNaffinity 6.30964804
REMARK  11 active torsions:
REMARK  status: ('A' for Active; 'I' for Inactive)
REMARK    1  A    between atoms: C3_4  and  O2_5 
REMARK    2  A    between atoms: O2_5  and  C4_6 
REMARK    3  A    between atoms: C7_9  and  C8_10 
REMARK    4  A    between atoms: N1_11  and  C9_13 
REMARK    5  A    between atoms: C9_13  and  C10_14 
REMARK    6  A    between atoms: C10_14  and  C11_15 
REMARK    7  A    between atoms: C22_26  and  C23_27 
REMARK    8  A    between atoms: C29_35  and  O5_36 
REMARK    9  A    between atoms: C33_40  and  O6_41 
REMARK   10  A    between atoms: C36_44  and  O7_45 
REMARK   11  A    between atoms: C37_46  and  O8_47 
ROOT
HETATM    1  C4  UNL     1      -2.974   9.732  15.439  1.00  0.00     0.127 C 
HETATM    2  C5  UNL     1      -2.524   9.336  16.848  1.00  0.00     0.033 C 
HETATM    3  C6  UNL     1      -3.120  10.266  17.895  1.00  0.00     0.021 C 
HETATM    4  C7  UNL     1      -2.685  11.765  17.734  1.00  0.00     0.026 C 
HETATM    5  C17 UNL     1      -3.928  12.666  18.105  1.00  0.00     0.009 C 
HETATM    6  C18 UNL     1      -4.357  12.529  19.581  1.00  0.00     0.007 C 
HETATM    7  C19 UNL     1      -5.614  13.341  19.896  1.00  0.00     0.013 C 
HETATM    8  C20 UNL     1      -5.455  14.854  19.595  1.00  0.00    -0.005 C 
HETATM    9  C21 UNL     1      -4.517  15.506  20.630  1.00  0.00     0.019 C 
HETATM   10  C22 UNL     1      -6.824  15.614  19.535  1.00  0.00     0.028 C 
HETATM   11  C27 UNL     1      -7.401  15.205  18.166  1.00  0.00     0.013 C 
HETATM   12  C28 UNL     1      -6.212  14.823  17.280  1.00  0.00     0.040 C 
HETATM   13  C29 UNL     1      -4.948  15.047  18.133  1.00  0.00     0.070 C 
HETATM   14  C30 UNL     1      -3.738  14.156  17.741  1.00  0.00     0.026 C 
HETATM   15  C31 UNL     1      -3.402  14.298  16.248  1.00  0.00     0.011 C 
HETATM   16  C32 UNL     1      -2.134  13.542  15.895  1.00  0.00     0.039 C 
HETATM   17  C33 UNL     1      -2.165  12.045  16.270  1.00  0.00     0.073 C 
HETATM   18  C34 UNL     1      -3.001  11.259  15.231  1.00  0.00     0.071 C 
ENDROOT
BRANCH   1  19
HETATM   19  O2  UNL     1      -2.077   9.103  14.522  1.00  0.00    -0.356 OA
BRANCH  19  20
HETATM   20  C3  UNL     1      -2.365   7.734  14.254  1.00  0.00     0.263 C 
HETATM   21  O1  UNL     1      -3.311   7.573  13.202  1.00  0.00    -0.354 OA
HETATM   22  C2  UNL     1      -3.713   6.215  12.983  1.00  0.00     0.151 C 
HETATM   23  C1  UNL     1      -5.026   5.958  13.719  1.00  0.00     0.042 C 
HETATM   24  C37 UNL     1      -2.638   5.179  13.363  1.00  0.00     0.175 C 
HETATM   25  C36 UNL     1      -1.254   5.771  13.097  1.00  0.00     0.154 C 
HETATM   26  C35 UNL     1      -1.044   7.061  13.879  1.00  0.00     0.095 C 
BRANCH  24  27
HETATM   27  O8  UNL     1      -2.779   3.967  12.610  1.00  0.00    -0.390 OA
HETATM   28  H55 UNL     1      -3.619   3.554  12.873  1.00  0.00     0.210 HD
ENDBRANCH  24  27
BRANCH  25  29
HETATM   29  O7  UNL     1      -0.250   4.818  13.457  1.00  0.00    -0.393 OA
HETATM   30  H53 UNL     1      -0.504   3.994  12.994  1.00  0.00     0.210 HD
ENDBRANCH  25  29
ENDBRANCH  19  20
ENDBRANCH   1  19
BRANCH  17  31
HETATM   31  O6  UNL     1      -0.812  11.579  16.115  1.00  0.00    -0.389 OA
HETATM   32  H47 UNL     1      -0.261  12.115  16.722  1.00  0.00     0.210 HD
ENDBRANCH  17  31
BRANCH   4  33
HETATM   33  C8  UNL     1      -1.566  12.008  18.764  1.00  0.00     0.068 C 
HETATM   34  N1  UNL     1      -0.660  11.123  19.007  1.00  0.00    -0.401 N 
ATOM     35  H1  UNL     1      -0.628  10.227  18.521  1.00  0.00     0.158 HD
BRANCH  34  36
HETATM   36  C9  UNL     1       0.325  11.494  20.035  1.00  0.00     0.123 C 
BRANCH  36  37
HETATM   37  C10 UNL     1       1.567  10.610  19.871  1.00  0.00     0.053 C 
BRANCH  37  38
HETATM   38  C11 UNL     1       2.289  10.343  21.172  1.00  0.00    -0.082 C 
HETATM   39  C12 UNL     1       3.239  11.178  21.634  1.00  0.00    -0.024 C 
HETATM   40  C13 UNL     1       3.992  10.966  22.916  1.00  0.00     0.027 C 
HETATM   41  C14 UNL     1       3.383   9.877  23.801  1.00  0.00     0.004 C 
HETATM   42  C15 UNL     1       2.950   8.672  22.974  1.00  0.00     0.005 C 
HETATM   43  C16 UNL     1       1.927   9.073  21.907  1.00  0.00     0.034 C 
ENDBRANCH  37  38
ENDBRANCH  36  37
ENDBRANCH  34  36
ENDBRANCH   4  33
BRANCH  13  44
HETATM   44  O5  UNL     1      -4.585  16.423  17.930  1.00  0.00    -0.389 OA
HETATM   45  H41 UNL     1      -3.684  16.561  18.272  1.00  0.00     0.210 HD
ENDBRANCH  13  44
BRANCH  10  46
HETATM   46  C23 UNL     1      -7.837  15.515  20.643  1.00  0.00    -0.045 A 
HETATM   47  C24 UNL     1      -7.888  16.112  21.834  1.00  0.00     0.087 A 
HETATM   48  C25 UNL     1      -9.129  15.692  22.483  1.00  0.00     0.283 A 
HETATM   49  O3  UNL     1      -9.482  16.042  23.594  1.00  0.00    -0.260 OA
HETATM   50  O4  UNL     1      -9.807  14.856  21.655  1.00  0.00    -0.314 OA
HETATM   51  C26 UNL     1      -9.059  14.687  20.454  1.00  0.00     0.213 A 
ENDBRANCH  10  46
TORSDOF 11
ENDMDL
