MODEL 1
REMARK minimizedAffinity -9.89245796
REMARK  7 active torsions:
REMARK  status: ('A' for Active; 'I' for Inactive)
REMARK    1  A    between atoms: C2_2  and  C3_3 
REMARK    2  A    between atoms: C2_2  and  C4_6 
REMARK    3  A    between atoms: C3_3  and  O2_5 
REMARK    4  A    between atoms: C4_6  and  C6_8 
REMARK    5  A    between atoms: C6_8  and  C7_10 
REMARK    6  A    between atoms: C7_10  and  C8_11 
REMARK    7  A    between atoms: C8_11  and  C10_13 
ROOT
HETATM    1  C10 UNL     1      -0.085  51.493 -22.380  1.00  0.00    -0.001 C 
HETATM    2  C11 UNL     1      -0.070  52.034 -20.920  1.00  0.00     0.007 C 
HETATM    3  C12 UNL     1      -1.329  51.495 -20.215  1.00  0.00     0.015 C 
HETATM    4  C13 UNL     1      -1.862  50.393 -21.145  1.00  0.00    -0.013 C 
HETATM    5  C14 UNL     1      -1.058  49.093 -20.820  1.00  0.00     0.021 C 
HETATM    6  C15 UNL     1      -3.327  49.987 -21.045  1.00  0.00    -0.068 C 
HETATM    7  C16 UNL     1      -3.961  49.471 -22.134  1.00  0.00    -0.068 C 
HETATM    8  C17 UNL     1      -3.260  49.368 -23.488  1.00  0.00     0.036 C 
HETATM    9  C18 UNL     1      -1.834  49.952 -23.610  1.00  0.00     0.015 C 
HETATM   10  C19 UNL     1      -1.566  51.032 -22.554  1.00  0.00    -0.029 C 
HETATM   11  C20 UNL     1      -2.461  52.270 -22.873  1.00  0.00     0.016 C 
HETATM   12  C21 UNL     1      -5.454  49.062 -22.051  1.00  0.00    -0.015 C 
HETATM   13  C22 UNL     1      -6.230  50.369 -22.369  1.00  0.00     0.020 C 
HETATM   14  C23 UNL     1      -5.924  47.995 -23.087  1.00  0.00     0.021 C 
HETATM   15  C24 UNL     1      -5.946  46.579 -22.533  1.00  0.00     0.080 C 
HETATM   16  C25 UNL     1      -6.963  46.507 -21.414  1.00  0.00     0.135 C 
HETATM   17  O4  UNL     1      -7.747  45.557 -21.342  1.00  0.00    -0.297 OA
HETATM   18  C26 UNL     1      -6.968  47.649 -20.382  1.00  0.00     0.018 C 
HETATM   19  C27 UNL     1      -8.280  48.428 -20.535  1.00  0.00     0.023 C 
HETATM   20  C28 UNL     1      -6.956  46.993 -18.983  1.00  0.00     0.023 C 
HETATM   21  C29 UNL     1      -5.677  48.501 -20.593  1.00  0.00     0.013 C 
HETATM   22  C30 UNL     1      -5.420  49.606 -19.561  1.00  0.00     0.011 C 
HETATM   23  C31 UNL     1      -3.985  50.137 -19.686  1.00  0.00     0.036 C 
ENDROOT
BRANCH   1  24
HETATM   24  C8  UNL     1       0.531  52.502 -23.391  1.00  0.00    -0.007 C 
HETATM   25  C9  UNL     1       1.007  53.803 -22.735  1.00  0.00     0.011 C 
BRANCH  24  26
HETATM   26  C7  UNL     1      -0.394  52.823 -24.590  1.00  0.00     0.083 C 
BRANCH  26  27
HETATM   27  C6  UNL     1       0.160  53.763 -25.659  1.00  0.00     0.135 C 
HETATM   28  O3  UNL     1       0.258  54.978 -25.483  1.00  0.00    -0.297 OA
BRANCH  27  29
HETATM   29  C4  UNL     1       0.545  53.123 -26.998  1.00  0.00     0.090 C 
HETATM   30  C5  UNL     1      -0.580  53.342 -28.016  1.00  0.00     0.023 C 
BRANCH  29  31
HETATM   31  C2  UNL     1       0.910  51.672 -26.751  1.00  0.00     0.017 C 
HETATM   32  C1  UNL     1       0.028  50.656 -26.688  1.00  0.00     0.026 C 
BRANCH  31  33
HETATM   33  C3  UNL     1       2.365  51.411 -26.598  1.00  0.00     0.172 C 
HETATM   34  O1  UNL     1       2.850  50.608 -25.819  1.00  0.00    -0.646 OA
BRANCH  33  35
HETATM   35  O2  UNL     1       3.145  52.151 -27.403  1.00  0.00    -0.773 OA
HETATM   36  H3  UNL     1       4.056  51.868 -27.179  1.00  0.00     0.167 HD
ENDBRANCH  33  35
ENDBRANCH  31  33
ENDBRANCH  29  31
ENDBRANCH  27  29
ENDBRANCH  26  27
ENDBRANCH  24  26
ENDBRANCH   1  24
TORSDOF 7
ENDMDL
MODEL 2
REMARK minimizedAffinity -9.7524147
REMARK  7 active torsions:
REMARK  status: ('A' for Active; 'I' for Inactive)
REMARK    1  A    between atoms: C2_2  and  C3_3 
REMARK    2  A    between atoms: C2_2  and  C4_6 
REMARK    3  A    between atoms: C3_3  and  O2_5 
REMARK    4  A    between atoms: C4_6  and  C6_8 
REMARK    5  A    between atoms: C6_8  and  C7_10 
REMARK    6  A    between atoms: C7_10  and  C8_11 
REMARK    7  A    between atoms: C8_11  and  C10_13 
ROOT
HETATM    1  C10 UNL     1      -3.630  50.706 -24.696  1.00  0.00    -0.001 C 
HETATM    2  C11 UNL     1      -5.117  50.410 -24.343  1.00  0.00     0.007 C 
HETATM    3  C12 UNL     1      -5.196  50.189 -22.821  1.00  0.00     0.015 C 
HETATM    4  C13 UNL     1      -3.848  50.694 -22.278  1.00  0.00    -0.013 C 
HETATM    5  C14 UNL     1      -3.972  52.243 -22.116  1.00  0.00     0.021 C 
HETATM    6  C15 UNL     1      -3.362  50.192 -20.924  1.00  0.00    -0.068 C 
HETATM    7  C16 UNL     1      -2.027  50.146 -20.660  1.00  0.00    -0.068 C 
HETATM    8  C17 UNL     1      -0.993  50.508 -21.724  1.00  0.00     0.036 C 
HETATM    9  C18 UNL     1      -1.503  50.841 -23.145  1.00  0.00     0.015 C 
HETATM   10  C19 UNL     1      -2.875  50.215 -23.422  1.00  0.00    -0.029 C 
HETATM   11  C20 UNL     1      -2.709  48.664 -23.483  1.00  0.00     0.016 C 
HETATM   12  C21 UNL     1      -1.517  49.629 -19.291  1.00  0.00    -0.015 C 
HETATM   13  C22 UNL     1      -1.410  48.091 -19.476  1.00  0.00     0.020 C 
HETATM   14  C23 UNL     1      -0.105  50.132 -18.859  1.00  0.00     0.021 C 
HETATM   15  C24 UNL     1      -0.146  51.321 -17.913  1.00  0.00     0.080 C 
HETATM   16  C25 UNL     1      -0.818  50.898 -16.624  1.00  0.00     0.135 C 
HETATM   17  O4  UNL     1      -0.343  51.227 -15.534  1.00  0.00    -0.297 OA
HETATM   18  C26 UNL     1      -2.106  50.061 -16.733  1.00  0.00     0.018 C 
HETATM   19  C27 UNL     1      -1.815  48.661 -16.183  1.00  0.00     0.023 C 
HETATM   20  C28 UNL     1      -3.157  50.731 -15.821  1.00  0.00     0.023 C 
HETATM   21  C29 UNL     1      -2.580  50.091 -18.221  1.00  0.00     0.013 C 
HETATM   22  C30 UNL     1      -3.936  49.435 -18.511  1.00  0.00     0.011 C 
HETATM   23  C31 UNL     1      -4.430  49.817 -19.914  1.00  0.00     0.036 C 
ENDROOT
BRANCH   1  24
HETATM   24  C8  UNL     1      -3.230  50.147 -26.091  1.00  0.00    -0.007 C 
HETATM   25  C9  UNL     1      -3.608  48.674 -26.284  1.00  0.00     0.011 C 
BRANCH  24  26
HETATM   26  C7  UNL     1      -1.736  50.360 -26.441  1.00  0.00     0.083 C 
BRANCH  26  27
HETATM   27  C6  UNL     1      -1.246  51.803 -26.531  1.00  0.00     0.135 C 
HETATM   28  O3  UNL     1      -1.937  52.708 -26.998  1.00  0.00    -0.297 OA
BRANCH  27  29
HETATM   29  C4  UNL     1       0.187  52.068 -26.055  1.00  0.00     0.090 C 
HETATM   30  C5  UNL     1       0.268  53.458 -25.413  1.00  0.00     0.023 C 
BRANCH  29  31
HETATM   31  C2  UNL     1       1.132  51.846 -27.221  1.00  0.00     0.017 C 
HETATM   32  C1  UNL     1       0.783  51.920 -28.519  1.00  0.00     0.026 C 
BRANCH  31  33
HETATM   33  C3  UNL     1       2.537  51.551 -26.840  1.00  0.00     0.172 C 
HETATM   34  O1  UNL     1       2.874  50.733 -26.002  1.00  0.00    -0.646 OA
BRANCH  33  35
HETATM   35  O2  UNL     1       3.452  52.278 -27.502  1.00  0.00    -0.773 OA
HETATM   36  H3  UNL     1       4.310  51.973 -27.139  1.00  0.00     0.167 HD
ENDBRANCH  33  35
ENDBRANCH  31  33
ENDBRANCH  29  31
ENDBRANCH  27  29
ENDBRANCH  26  27
ENDBRANCH  24  26
ENDBRANCH   1  24
TORSDOF 7
ENDMDL
MODEL 3
REMARK minimizedAffinity -9.7443161
REMARK  7 active torsions:
REMARK  status: ('A' for Active; 'I' for Inactive)
REMARK    1  A    between atoms: C2_2  and  C3_3 
REMARK    2  A    between atoms: C2_2  and  C4_6 
REMARK    3  A    between atoms: C3_3  and  O2_5 
REMARK    4  A    between atoms: C4_6  and  C6_8 
REMARK    5  A    between atoms: C6_8  and  C7_10 
REMARK    6  A    between atoms: C7_10  and  C8_11 
REMARK    7  A    between atoms: C8_11  and  C10_13 
ROOT
HETATM    1  C10 UNL     1      -1.173  48.932 -18.353  1.00  0.00    -0.001 C 
HETATM    2  C11 UNL     1      -2.455  48.056 -18.468  1.00  0.00     0.007 C 
HETATM    3  C12 UNL     1      -2.980  48.192 -19.909  1.00  0.00     0.015 C 
HETATM    4  C13 UNL     1      -1.829  48.849 -20.689  1.00  0.00    -0.013 C 
HETATM    5  C14 UNL     1      -0.844  47.707 -21.097  1.00  0.00     0.021 C 
HETATM    6  C15 UNL     1      -2.141  49.585 -21.986  1.00  0.00    -0.068 C 
HETATM    7  C16 UNL     1      -1.332  50.600 -22.399  1.00  0.00    -0.068 C 
HETATM    8  C17 UNL     1      -0.160  51.080 -21.544  1.00  0.00     0.036 C 
HETATM    9  C18 UNL     1       0.029  50.439 -20.150  1.00  0.00     0.015 C 
HETATM   10  C19 UNL     1      -1.280  49.855 -19.607  1.00  0.00    -0.029 C 
HETATM   11  C20 UNL     1      -2.259  51.031 -19.302  1.00  0.00     0.016 C 
HETATM   12  C21 UNL     1      -1.642  51.364 -23.711  1.00  0.00    -0.015 C 
HETATM   13  C22 UNL     1      -2.626  52.486 -23.280  1.00  0.00     0.020 C 
HETATM   14  C23 UNL     1      -0.426  52.067 -24.390  1.00  0.00     0.021 C 
HETATM   15  C24 UNL     1       0.197  51.253 -25.512  1.00  0.00     0.080 C 
HETATM   16  C25 UNL     1      -0.822  51.086 -26.620  1.00  0.00     0.135 C 
HETATM   17  O4  UNL     1      -0.496  51.241 -27.799  1.00  0.00    -0.297 OA
HETATM   18  C26 UNL     1      -2.260  50.712 -26.214  1.00  0.00     0.018 C 
HETATM   19  C27 UNL     1      -3.175  51.895 -26.549  1.00  0.00     0.023 C 
HETATM   20  C28 UNL     1      -2.678  49.512 -27.094  1.00  0.00     0.023 C 
HETATM   21  C29 UNL     1      -2.248  50.302 -24.707  1.00  0.00     0.013 C 
HETATM   22  C30 UNL     1      -3.565  49.750 -24.147  1.00  0.00     0.011 C 
HETATM   23  C31 UNL     1      -3.334  49.089 -22.781  1.00  0.00     0.036 C 
ENDROOT
BRANCH   1  24
HETATM   24  C8  UNL     1      -1.013  49.566 -16.942  1.00  0.00    -0.007 C 
HETATM   25  C9  UNL     1      -1.961  50.745 -16.697  1.00  0.00     0.011 C 
BRANCH  24  26
HETATM   26  C7  UNL     1       0.441  49.978 -16.607  1.00  0.00     0.083 C 
BRANCH  26  27
HETATM   27  C6  UNL     1       0.626  51.060 -15.545  1.00  0.00     0.135 C 
HETATM   28  O3  UNL     1       0.124  50.979 -14.424  1.00  0.00    -0.297 OA
BRANCH  27  29
HETATM   29  C4  UNL     1       1.436  52.294 -15.962  1.00  0.00     0.090 C 
HETATM   30  C5  UNL     1       1.212  52.579 -17.451  1.00  0.00     0.023 C 
BRANCH  29  31
HETATM   31  C2  UNL     1       2.884  52.077 -15.563  1.00  0.00     0.017 C 
HETATM   32  C1  UNL     1       3.946  52.339 -16.348  1.00  0.00     0.026 C 
BRANCH  31  33
HETATM   33  C3  UNL     1       3.082  51.558 -14.185  1.00  0.00     0.172 C 
HETATM   34  O1  UNL     1       3.590  50.485 -13.912  1.00  0.00    -0.646 OA
BRANCH  33  35
HETATM   35  O2  UNL     1       2.641  52.379 -13.218  1.00  0.00    -0.773 OA
HETATM   36  H3  UNL     1       2.837  51.899 -12.387  1.00  0.00     0.167 HD
ENDBRANCH  33  35
ENDBRANCH  31  33
ENDBRANCH  29  31
ENDBRANCH  27  29
ENDBRANCH  26  27
ENDBRANCH  24  26
ENDBRANCH   1  24
TORSDOF 7
ENDMDL
MODEL 4
REMARK minimizedAffinity -9.62755585
REMARK  7 active torsions:
REMARK  status: ('A' for Active; 'I' for Inactive)
REMARK    1  A    between atoms: C2_2  and  C3_3 
REMARK    2  A    between atoms: C2_2  and  C4_6 
REMARK    3  A    between atoms: C3_3  and  O2_5 
REMARK    4  A    between atoms: C4_6  and  C6_8 
REMARK    5  A    between atoms: C6_8  and  C7_10 
REMARK    6  A    between atoms: C7_10  and  C8_11 
REMARK    7  A    between atoms: C8_11  and  C10_13 
ROOT
HETATM    1  C10 UNL     1      -0.630  50.033 -17.941  1.00  0.00    -0.001 C 
HETATM    2  C11 UNL     1      -1.734  48.938 -17.858  1.00  0.00     0.007 C 
HETATM    3  C12 UNL     1      -2.318  48.763 -19.272  1.00  0.00     0.015 C 
HETATM    4  C13 UNL     1      -1.330  49.487 -20.201  1.00  0.00    -0.013 C 
HETATM    5  C14 UNL     1      -0.166  48.489 -20.498  1.00  0.00     0.021 C 
HETATM    6  C15 UNL     1      -1.810  49.955 -21.570  1.00  0.00    -0.068 C 
HETATM    7  C16 UNL     1      -1.213  51.023 -22.167  1.00  0.00    -0.068 C 
HETATM    8  C17 UNL     1      -0.123  51.824 -21.457  1.00  0.00     0.036 C 
HETATM    9  C18 UNL     1       0.222  51.443 -19.999  1.00  0.00     0.015 C 
HETATM   10  C19 UNL     1      -0.942  50.725 -19.305  1.00  0.00    -0.029 C 
HETATM   11  C20 UNL     1      -2.109  51.743 -19.115  1.00  0.00     0.016 C 
HETATM   12  C21 UNL     1      -1.696  51.516 -23.554  1.00  0.00    -0.015 C 
HETATM   13  C22 UNL     1      -2.854  52.498 -23.232  1.00  0.00     0.020 C 
HETATM   14  C23 UNL     1      -0.649  52.312 -24.394  1.00  0.00     0.021 C 
HETATM   15  C24 UNL     1       0.078  51.462 -25.423  1.00  0.00     0.080 C 
HETATM   16  C25 UNL     1      -0.927  50.955 -26.437  1.00  0.00     0.135 C 
HETATM   17  O4  UNL     1      -0.670  50.986 -27.642  1.00  0.00    -0.297 OA
HETATM   18  C26 UNL     1      -2.259  50.398 -25.901  1.00  0.00     0.018 C 
HETATM   19  C27 UNL     1      -3.385  51.337 -26.347  1.00  0.00     0.023 C 
HETATM   20  C28 UNL     1      -2.477  49.026 -26.577  1.00  0.00     0.023 C 
HETATM   21  C29 UNL     1      -2.128  50.227 -24.354  1.00  0.00     0.013 C 
HETATM   22  C30 UNL     1      -3.304  49.541 -23.648  1.00  0.00     0.011 C 
HETATM   23  C31 UNL     1      -2.916  49.143 -22.217  1.00  0.00     0.036 C 
ENDROOT
BRANCH   1  24
HETATM   24  C8  UNL     1      -0.546  50.889 -16.645  1.00  0.00    -0.007 C 
HETATM   25  C9  UNL     1       0.891  51.212 -16.224  1.00  0.00     0.011 C 
BRANCH  24  26
HETATM   26  C7  UNL     1      -1.324  50.284 -15.450  1.00  0.00     0.083 C 
BRANCH  26  27
HETATM   27  C6  UNL     1      -2.374  51.172 -14.787  1.00  0.00     0.135 C 
HETATM   28  O3  UNL     1      -3.453  51.431 -15.320  1.00  0.00    -0.297 OA
BRANCH  27  29
HETATM   29  C4  UNL     1      -1.997  51.778 -13.430  1.00  0.00     0.090 C 
HETATM   30  C5  UNL     1      -0.715  51.119 -12.909  1.00  0.00     0.023 C 
BRANCH  29  31
HETATM   31  C2  UNL     1      -3.194  51.668 -12.504  1.00  0.00     0.017 C 
HETATM   32  C1  UNL     1      -3.642  50.522 -11.958  1.00  0.00     0.026 C 
BRANCH  31  33
HETATM   33  C3  UNL     1      -3.867  52.956 -12.197  1.00  0.00     0.172 C 
HETATM   34  O1  UNL     1      -4.100  53.369 -11.074  1.00  0.00    -0.646 OA
BRANCH  33  35
HETATM   35  O2  UNL     1      -4.224  53.665 -13.281  1.00  0.00    -0.773 OA
HETATM   36  H3  UNL     1      -4.650  54.467 -12.914  1.00  0.00     0.167 HD
ENDBRANCH  33  35
ENDBRANCH  31  33
ENDBRANCH  29  31
ENDBRANCH  27  29
ENDBRANCH  26  27
ENDBRANCH  24  26
ENDBRANCH   1  24
TORSDOF 7
ENDMDL
MODEL 5
REMARK minimizedAffinity -9.61940384
REMARK  7 active torsions:
REMARK  status: ('A' for Active; 'I' for Inactive)
REMARK    1  A    between atoms: C2_2  and  C3_3 
REMARK    2  A    between atoms: C2_2  and  C4_6 
REMARK    3  A    between atoms: C3_3  and  O2_5 
REMARK    4  A    between atoms: C4_6  and  C6_8 
REMARK    5  A    between atoms: C6_8  and  C7_10 
REMARK    6  A    between atoms: C7_10  and  C8_11 
REMARK    7  A    between atoms: C8_11  and  C10_13 
ROOT
HETATM    1  C10 UNL     1      -0.153  51.028 -21.568  1.00  0.00    -0.001 C 
HETATM    2  C11 UNL     1      -0.158  51.472 -20.076  1.00  0.00     0.007 C 
HETATM    3  C12 UNL     1      -1.436  50.905 -19.430  1.00  0.00     0.015 C 
HETATM    4  C13 UNL     1      -1.965  49.872 -20.439  1.00  0.00    -0.013 C 
HETATM    5  C14 UNL     1      -1.182  48.544 -20.187  1.00  0.00     0.021 C 
HETATM    6  C15 UNL     1      -3.437  49.479 -20.392  1.00  0.00    -0.068 C 
HETATM    7  C16 UNL     1      -4.056  49.044 -21.524  1.00  0.00    -0.068 C 
HETATM    8  C17 UNL     1      -3.331  49.021 -22.869  1.00  0.00     0.036 C 
HETATM    9  C18 UNL     1      -1.897  49.593 -22.927  1.00  0.00     0.015 C 
HETATM   10  C19 UNL     1      -1.635  50.598 -21.799  1.00  0.00    -0.029 C 
HETATM   11  C20 UNL     1      -2.509  51.866 -22.052  1.00  0.00     0.016 C 
HETATM   12  C21 UNL     1      -5.554  48.650 -21.494  1.00  0.00    -0.015 C 
HETATM   13  C22 UNL     1      -6.309  49.985 -21.740  1.00  0.00     0.020 C 
HETATM   14  C23 UNL     1      -6.018  47.659 -22.606  1.00  0.00     0.021 C 
HETATM   15  C24 UNL     1      -6.067  46.210 -22.148  1.00  0.00     0.080 C 
HETATM   16  C25 UNL     1      -7.106  46.079 -21.053  1.00  0.00     0.135 C 
HETATM   17  O4  UNL     1      -7.902  45.137 -21.057  1.00  0.00    -0.297 OA
HETATM   18  C26 UNL     1      -7.117  47.151 -19.949  1.00  0.00     0.018 C 
HETATM   19  C27 UNL     1      -8.416  47.955 -20.074  1.00  0.00     0.023 C 
HETATM   20  C28 UNL     1      -7.138  46.404 -18.596  1.00  0.00     0.023 C 
HETATM   21  C29 UNL     1      -5.811  47.998 -20.081  1.00  0.00     0.013 C 
HETATM   22  C30 UNL     1      -5.561  49.030 -18.974  1.00  0.00     0.011 C 
HETATM   23  C31 UNL     1      -4.117  49.550 -19.038  1.00  0.00     0.036 C 
ENDROOT
BRANCH   1  24
HETATM   24  C8  UNL     1       0.494  52.092 -22.499  1.00  0.00    -0.007 C 
HETATM   25  C9  UNL     1       0.984  53.336 -21.749  1.00  0.00     0.011 C 
BRANCH  24  26
HETATM   26  C7  UNL     1      -0.410  52.512 -23.685  1.00  0.00     0.083 C 
BRANCH  26  27
HETATM   27  C6  UNL     1       0.229  52.521 -25.072  1.00  0.00     0.135 C 
HETATM   28  O3  UNL     1       1.379  52.915 -25.268  1.00  0.00    -0.297 OA
BRANCH  27  29
HETATM   29  C4  UNL     1      -0.658  52.060 -26.235  1.00  0.00     0.090 C 
HETATM   30  C5  UNL     1      -0.700  50.528 -26.274  1.00  0.00     0.023 C 
BRANCH  29  31
HETATM   31  C2  UNL     1      -0.164  52.719 -27.508  1.00  0.00     0.017 C 
HETATM   32  C1  UNL     1       0.686  52.155 -28.388  1.00  0.00     0.026 C 
BRANCH  31  33
HETATM   33  C3  UNL     1      -0.711  54.077 -27.762  1.00  0.00     0.172 C 
HETATM   34  O1  UNL     1      -0.191  55.116 -27.394  1.00  0.00    -0.646 OA
BRANCH  33  35
HETATM   35  O2  UNL     1      -1.866  54.087 -28.447  1.00  0.00    -0.773 OA
HETATM   36  H3  UNL     1      -2.090  55.038 -28.525  1.00  0.00     0.167 HD
ENDBRANCH  33  35
ENDBRANCH  31  33
ENDBRANCH  29  31
ENDBRANCH  27  29
ENDBRANCH  26  27
ENDBRANCH  24  26
ENDBRANCH   1  24
TORSDOF 7
ENDMDL
MODEL 6
REMARK minimizedAffinity -9.13231182
REMARK  7 active torsions:
REMARK  status: ('A' for Active; 'I' for Inactive)
REMARK    1  A    between atoms: C2_2  and  C3_3 
REMARK    2  A    between atoms: C2_2  and  C4_6 
REMARK    3  A    between atoms: C3_3  and  O2_5 
REMARK    4  A    between atoms: C4_6  and  C6_8 
REMARK    5  A    between atoms: C6_8  and  C7_10 
REMARK    6  A    between atoms: C7_10  and  C8_11 
REMARK    7  A    between atoms: C8_11  and  C10_13 
ROOT
HETATM    1  C10 UNL     1      -3.003  50.584 -24.800  1.00  0.00    -0.001 C 
HETATM    2  C11 UNL     1      -4.154  51.619 -24.971  1.00  0.00     0.007 C 
HETATM    3  C12 UNL     1      -5.238  51.281 -23.931  1.00  0.00     0.015 C 
HETATM    4  C13 UNL     1      -4.563  50.296 -22.962  1.00  0.00    -0.013 C 
HETATM    5  C14 UNL     1      -3.760  51.150 -21.929  1.00  0.00     0.021 C 
HETATM    6  C15 UNL     1      -5.435  49.373 -22.120  1.00  0.00    -0.068 C 
HETATM    7  C16 UNL     1      -4.942  48.175 -21.700  1.00  0.00    -0.068 C 
HETATM    8  C17 UNL     1      -3.557  47.691 -22.126  1.00  0.00     0.036 C 
HETATM    9  C18 UNL     1      -2.763  48.562 -23.126  1.00  0.00     0.015 C 
HETATM   10  C19 UNL     1      -3.685  49.456 -23.965  1.00  0.00    -0.029 C 
HETATM   11  C20 UNL     1      -4.527  48.546 -24.913  1.00  0.00     0.016 C 
HETATM   12  C21 UNL     1      -5.820  47.222 -20.851  1.00  0.00    -0.015 C 
HETATM   13  C22 UNL     1      -6.612  46.392 -21.898  1.00  0.00     0.020 C 
HETATM   14  C23 UNL     1      -5.048  46.202 -19.958  1.00  0.00     0.021 C 
HETATM   15  C24 UNL     1      -4.892  46.654 -18.515  1.00  0.00     0.080 C 
HETATM   16  C25 UNL     1      -6.266  46.759 -17.884  1.00  0.00     0.135 C 
HETATM   17  O4  UNL     1      -6.469  46.315 -16.752  1.00  0.00    -0.297 OA
HETATM   18  C26 UNL     1      -7.375  47.443 -18.704  1.00  0.00     0.018 C 
HETATM   19  C27 UNL     1      -8.426  46.386 -19.062  1.00  0.00     0.023 C 
HETATM   20  C28 UNL     1      -8.037  48.490 -17.781  1.00  0.00     0.023 C 
HETATM   21  C29 UNL     1      -6.711  48.144 -19.931  1.00  0.00     0.013 C 
HETATM   22  C30 UNL     1      -7.635  49.010 -20.796  1.00  0.00     0.011 C 
HETATM   23  C31 UNL     1      -6.813  49.889 -21.750  1.00  0.00     0.036 C 
ENDROOT
BRANCH   1  24
HETATM   24  C8  UNL     1      -2.316  50.234 -26.151  1.00  0.00    -0.007 C 
HETATM   25  C9  UNL     1      -2.689  48.844 -26.678  1.00  0.00     0.011 C 
BRANCH  24  26
HETATM   26  C7  UNL     1      -0.776  50.394 -26.124  1.00  0.00     0.083 C 
BRANCH  26  27
HETATM   27  C6  UNL     1      -0.204  51.423 -25.152  1.00  0.00     0.135 C 
HETATM   28  O3  UNL     1      -0.407  51.371 -23.939  1.00  0.00    -0.297 OA
BRANCH  27  29
HETATM   29  C4  UNL     1       0.603  52.572 -25.771  1.00  0.00     0.090 C 
HETATM   30  C5  UNL     1       0.374  53.855 -24.965  1.00  0.00     0.023 C 
BRANCH  29  31
HETATM   31  C2  UNL     1       0.250  52.670 -27.243  1.00  0.00     0.017 C 
HETATM   32  C1  UNL     1       0.737  51.865 -28.207  1.00  0.00     0.026 C 
BRANCH  31  33
HETATM   33  C3  UNL     1      -0.726  53.737 -27.582  1.00  0.00     0.172 C 
HETATM   34  O1  UNL     1      -0.453  54.919 -27.698  1.00  0.00    -0.646 OA
BRANCH  33  35
HETATM   35  O2  UNL     1      -1.984  53.299 -27.755  1.00  0.00    -0.773 OA
HETATM   36  H3  UNL     1      -2.494  54.109 -27.964  1.00  0.00     0.167 HD
ENDBRANCH  33  35
ENDBRANCH  31  33
ENDBRANCH  29  31
ENDBRANCH  27  29
ENDBRANCH  26  27
ENDBRANCH  24  26
ENDBRANCH   1  24
TORSDOF 7
ENDMDL
MODEL 7
REMARK minimizedAffinity -9.08386612
REMARK  7 active torsions:
REMARK  status: ('A' for Active; 'I' for Inactive)
REMARK    1  A    between atoms: C2_2  and  C3_3 
REMARK    2  A    between atoms: C2_2  and  C4_6 
REMARK    3  A    between atoms: C3_3  and  O2_5 
REMARK    4  A    between atoms: C4_6  and  C6_8 
REMARK    5  A    between atoms: C6_8  and  C7_10 
REMARK    6  A    between atoms: C7_10  and  C8_11 
REMARK    7  A    between atoms: C8_11  and  C10_13 
ROOT
HETATM    1  C10 UNL     1      -0.347  51.193 -18.828  1.00  0.00    -0.001 C 
HETATM    2  C11 UNL     1      -1.900  51.269 -18.752  1.00  0.00     0.007 C 
HETATM    3  C12 UNL     1      -2.423  51.492 -20.184  1.00  0.00     0.015 C 
HETATM    4  C13 UNL     1      -1.219  51.199 -21.094  1.00  0.00    -0.013 C 
HETATM    5  C14 UNL     1      -1.165  49.651 -21.296  1.00  0.00     0.021 C 
HETATM    6  C15 UNL     1      -1.197  51.783 -22.501  1.00  0.00    -0.068 C 
HETATM    7  C16 UNL     1      -0.006  52.029 -23.113  1.00  0.00    -0.068 C 
HETATM    8  C17 UNL     1       1.321  51.813 -22.386  1.00  0.00     0.036 C 
HETATM    9  C18 UNL     1       1.271  51.392 -20.899  1.00  0.00     0.015 C 
HETATM   10  C19 UNL     1      -0.047  51.805 -20.232  1.00  0.00    -0.029 C 
HETATM   11  C20 UNL     1      -0.088  53.362 -20.138  1.00  0.00     0.016 C 
HETATM   12  C21 UNL     1       0.033  52.631 -24.540  1.00  0.00    -0.015 C 
HETATM   13  C22 UNL     1      -0.029  54.166 -24.312  1.00  0.00     0.020 C 
HETATM   14  C23 UNL     1       1.329  52.349 -25.361  1.00  0.00     0.021 C 
HETATM   15  C24 UNL     1       1.197  51.177 -26.320  1.00  0.00     0.080 C 
HETATM   16  C25 UNL     1       0.145  51.509 -27.358  1.00  0.00     0.135 C 
HETATM   17  O4  UNL     1       0.345  51.267 -28.551  1.00  0.00    -0.297 OA
HETATM   18  C26 UNL     1      -1.167  52.144 -26.863  1.00  0.00     0.018 C 
HETATM   19  C27 UNL     1      -1.237  53.579 -27.400  1.00  0.00     0.023 C 
HETATM   20  C28 UNL     1      -2.324  51.336 -27.492  1.00  0.00     0.023 C 
HETATM   21  C29 UNL     1      -1.207  52.028 -25.307  1.00  0.00     0.013 C 
HETATM   22  C30 UNL     1      -2.509  52.472 -24.629  1.00  0.00     0.011 C 
HETATM   23  C31 UNL     1      -2.542  52.006 -23.166  1.00  0.00     0.036 C 
ENDROOT
BRANCH   1  24
HETATM   24  C8  UNL     1       0.337  51.790 -17.565  1.00  0.00    -0.007 C 
HETATM   25  C9  UNL     1       1.690  52.444 -17.862  1.00  0.00     0.011 C 
BRANCH  24  26
HETATM   26  C7  UNL     1       0.483  50.778 -16.401  1.00  0.00     0.083 C 
BRANCH  26  27
HETATM   27  C6  UNL     1       0.708  51.357 -15.006  1.00  0.00     0.135 C 
HETATM   28  O3  UNL     1       0.384  52.506 -14.707  1.00  0.00    -0.297 OA
BRANCH  27  29
HETATM   29  C4  UNL     1       1.415  50.446 -13.995  1.00  0.00     0.090 C 
HETATM   30  C5  UNL     1       0.889  50.736 -12.585  1.00  0.00     0.023 C 
BRANCH  29  31
HETATM   31  C2  UNL     1       2.913  50.608 -14.165  1.00  0.00     0.017 C 
HETATM   32  C1  UNL     1       3.515  51.685 -14.704  1.00  0.00     0.026 C 
BRANCH  31  33
HETATM   33  C3  UNL     1       3.726  49.471 -13.661  1.00  0.00     0.172 C 
HETATM   34  O1  UNL     1       3.275  48.485 -13.105  1.00  0.00    -0.646 OA
BRANCH  33  35
HETATM   35  O2  UNL     1       5.048  49.608 -13.859  1.00  0.00    -0.773 OA
HETATM   36  H3  UNL     1       5.434  48.794 -13.473  1.00  0.00     0.167 HD
ENDBRANCH  33  35
ENDBRANCH  31  33
ENDBRANCH  29  31
ENDBRANCH  27  29
ENDBRANCH  26  27
ENDBRANCH  24  26
ENDBRANCH   1  24
TORSDOF 7
ENDMDL
MODEL 8
REMARK minimizedAffinity -9.01902103
REMARK  7 active torsions:
REMARK  status: ('A' for Active; 'I' for Inactive)
REMARK    1  A    between atoms: C2_2  and  C3_3 
REMARK    2  A    between atoms: C2_2  and  C4_6 
REMARK    3  A    between atoms: C3_3  and  O2_5 
REMARK    4  A    between atoms: C4_6  and  C6_8 
REMARK    5  A    between atoms: C6_8  and  C7_10 
REMARK    6  A    between atoms: C7_10  and  C8_11 
REMARK    7  A    between atoms: C8_11  and  C10_13 
ROOT
HETATM    1  C10 UNL     1      -1.645  52.295 -22.717  1.00  0.00    -0.001 C 
HETATM    2  C11 UNL     1      -2.434  52.459 -24.050  1.00  0.00     0.007 C 
HETATM    3  C12 UNL     1      -3.679  51.556 -23.964  1.00  0.00     0.015 C 
HETATM    4  C13 UNL     1      -3.778  51.158 -22.482  1.00  0.00    -0.013 C 
HETATM    5  C14 UNL     1      -4.507  52.326 -21.744  1.00  0.00     0.021 C 
HETATM    6  C15 UNL     1      -4.556  49.903 -22.104  1.00  0.00    -0.068 C 
HETATM    7  C16 UNL     1      -4.232  49.224 -20.970  1.00  0.00    -0.068 C 
HETATM    8  C17 UNL     1      -3.043  49.640 -20.105  1.00  0.00     0.036 C 
HETATM    9  C18 UNL     1      -2.159  50.806 -20.604  1.00  0.00     0.015 C 
HETATM   10  C19 UNL     1      -2.253  50.985 -22.124  1.00  0.00    -0.029 C 
HETATM   11  C20 UNL     1      -1.592  49.750 -22.810  1.00  0.00     0.016 C 
HETATM   12  C21 UNL     1      -5.008  47.941 -20.577  1.00  0.00    -0.015 C 
HETATM   13  C22 UNL     1      -4.270  46.799 -21.328  1.00  0.00     0.020 C 
HETATM   14  C23 UNL     1      -4.986  47.572 -19.062  1.00  0.00     0.021 C 
HETATM   15  C24 UNL     1      -6.220  48.037 -18.305  1.00  0.00     0.080 C 
HETATM   16  C25 UNL     1      -7.434  47.321 -18.862  1.00  0.00     0.135 C 
HETATM   17  O4  UNL     1      -8.283  46.848 -18.103  1.00  0.00    -0.297 OA
HETATM   18  C26 UNL     1      -7.562  47.221 -20.393  1.00  0.00     0.018 C 
HETATM   19  C27 UNL     1      -7.422  45.747 -20.790  1.00  0.00     0.023 C 
HETATM   20  C28 UNL     1      -8.989  47.688 -20.757  1.00  0.00     0.023 C 
HETATM   21  C29 UNL     1      -6.500  48.171 -21.032  1.00  0.00     0.013 C 
HETATM   22  C30 UNL     1      -6.566  48.328 -22.557  1.00  0.00     0.011 C 
HETATM   23  C31 UNL     1      -5.707  49.517 -23.014  1.00  0.00     0.036 C 
ENDROOT
BRANCH   1  24
HETATM   24  C8  UNL     1      -0.108  52.406 -22.922  1.00  0.00    -0.007 C 
HETATM   25  C9  UNL     1       0.634  52.909 -21.680  1.00  0.00     0.011 C 
BRANCH  24  26
HETATM   26  C7  UNL     1       0.294  53.252 -24.156  1.00  0.00     0.083 C 
BRANCH  26  27
HETATM   27  C6  UNL     1       0.812  52.493 -25.376  1.00  0.00     0.135 C 
HETATM   28  O3  UNL     1       2.013  52.313 -25.582  1.00  0.00    -0.297 OA
BRANCH  27  29
HETATM   29  C4  UNL     1      -0.244  52.004 -26.374  1.00  0.00     0.090 C 
HETATM   30  C5  UNL     1      -0.224  50.472 -26.437  1.00  0.00     0.023 C 
BRANCH  29  31
HETATM   31  C2  UNL     1      -0.011  52.701 -27.701  1.00  0.00     0.017 C 
HETATM   32  C1  UNL     1       0.708  52.195 -28.722  1.00  0.00     0.026 C 
BRANCH  31  33
HETATM   33  C3  UNL     1      -0.670  54.026 -27.835  1.00  0.00     0.172 C 
HETATM   34  O1  UNL     1      -0.189  55.083 -27.465  1.00  0.00    -0.646 OA
BRANCH  33  35
HETATM   35  O2  UNL     1      -1.883  53.984 -28.409  1.00  0.00    -0.773 OA
HETATM   36  H3  UNL     1      -2.178  54.918 -28.418  1.00  0.00     0.167 HD
ENDBRANCH  33  35
ENDBRANCH  31  33
ENDBRANCH  29  31
ENDBRANCH  27  29
ENDBRANCH  26  27
ENDBRANCH  24  26
ENDBRANCH   1  24
TORSDOF 7
ENDMDL
MODEL 9
REMARK minimizedAffinity -8.83608246
REMARK  7 active torsions:
REMARK  status: ('A' for Active; 'I' for Inactive)
REMARK    1  A    between atoms: C2_2  and  C3_3 
REMARK    2  A    between atoms: C2_2  and  C4_6 
REMARK    3  A    between atoms: C3_3  and  O2_5 
REMARK    4  A    between atoms: C4_6  and  C6_8 
REMARK    5  A    between atoms: C6_8  and  C7_10 
REMARK    6  A    between atoms: C7_10  and  C8_11 
REMARK    7  A    between atoms: C8_11  and  C10_13 
ROOT
HETATM    1  C10 UNL     1      -2.282  50.876 -23.532  1.00  0.00    -0.001 C 
HETATM    2  C11 UNL     1      -2.484  49.951 -24.768  1.00  0.00     0.007 C 
HETATM    3  C12 UNL     1      -3.636  48.983 -24.437  1.00  0.00     0.015 C 
HETATM    4  C13 UNL     1      -4.302  49.576 -23.185  1.00  0.00    -0.013 C 
HETATM    5  C14 UNL     1      -5.295  50.679 -23.673  1.00  0.00     0.021 C 
HETATM    6  C15 UNL     1      -5.133  48.664 -22.288  1.00  0.00    -0.068 C 
HETATM    7  C16 UNL     1      -5.265  48.956 -20.965  1.00  0.00    -0.068 C 
HETATM    8  C17 UNL     1      -4.527  50.135 -20.333  1.00  0.00     0.036 C 
HETATM    9  C18 UNL     1      -3.549  50.937 -21.222  1.00  0.00     0.015 C 
HETATM   10  C19 UNL     1      -3.039  50.106 -22.405  1.00  0.00    -0.029 C 
HETATM   11  C20 UNL     1      -2.128  48.966 -21.854  1.00  0.00     0.016 C 
HETATM   12  C21 UNL     1      -6.098  48.034 -20.040  1.00  0.00    -0.015 C 
HETATM   13  C22 UNL     1      -5.094  46.945 -19.575  1.00  0.00     0.020 C 
HETATM   14  C23 UNL     1      -6.668  48.703 -18.750  1.00  0.00     0.021 C 
HETATM   15  C24 UNL     1      -8.112  49.156 -18.888  1.00  0.00     0.080 C 
HETATM   16  C25 UNL     1      -8.987  47.940 -19.113  1.00  0.00     0.135 C 
HETATM   17  O4  UNL     1     -10.054  47.817 -18.507  1.00  0.00    -0.297 OA
HETATM   18  C26 UNL     1      -8.497  46.888 -20.124  1.00  0.00     0.018 C 
HETATM   19  C27 UNL     1      -8.172  45.601 -19.357  1.00  0.00     0.023 C 
HETATM   20  C28 UNL     1      -9.676  46.597 -21.079  1.00  0.00     0.023 C 
HETATM   21  C29 UNL     1      -7.295  47.496 -20.915  1.00  0.00     0.013 C 
HETATM   22  C30 UNL     1      -6.757  46.654 -22.078  1.00  0.00     0.011 C 
HETATM   23  C31 UNL     1      -5.820  47.491 -22.961  1.00  0.00     0.036 C 
ENDROOT
BRANCH   1  24
HETATM   24  C8  UNL     1      -0.792  51.272 -23.327  1.00  0.00    -0.007 C 
HETATM   25  C9  UNL     1      -0.292  51.030 -21.899  1.00  0.00     0.011 C 
BRANCH  24  26
HETATM   26  C7  UNL     1      -0.470  52.723 -23.761  1.00  0.00     0.083 C 
BRANCH  26  27
HETATM   27  C6  UNL     1       0.301  52.900 -25.067  1.00  0.00     0.135 C 
HETATM   28  O3  UNL     1       0.842  53.961 -25.378  1.00  0.00    -0.297 OA
BRANCH  27  29
HETATM   29  C4  UNL     1       0.327  51.692 -26.013  1.00  0.00     0.090 C 
HETATM   30  C5  UNL     1       1.749  51.124 -26.084  1.00  0.00     0.023 C 
BRANCH  29  31
HETATM   31  C2  UNL     1      -0.262  52.113 -27.346  1.00  0.00     0.017 C 
HETATM   32  C1  UNL     1       0.455  52.378 -28.455  1.00  0.00     0.026 C 
BRANCH  31  33
HETATM   33  C3  UNL     1      -1.745  52.197 -27.376  1.00  0.00     0.172 C 
HETATM   34  O1  UNL     1      -2.405  53.050 -26.808  1.00  0.00    -0.646 OA
BRANCH  33  35
HETATM   35  O2  UNL     1      -2.338  51.230 -28.095  1.00  0.00    -0.773 OA
HETATM   36  H3  UNL     1      -3.295  51.422 -28.012  1.00  0.00     0.167 HD
ENDBRANCH  33  35
ENDBRANCH  31  33
ENDBRANCH  29  31
ENDBRANCH  27  29
ENDBRANCH  26  27
ENDBRANCH  24  26
ENDBRANCH   1  24
TORSDOF 7
ENDMDL
