MODEL 1
REMARK minimizedAffinity -8.25955868
REMARK CNNscore 0.82506609
REMARK CNNaffinity 6.94915819
REMARK  6 active torsions:
REMARK  status: ('A' for Active; 'I' for Inactive)
REMARK    1  A    between atoms: C2_2  and  C30_33 
REMARK    2  A    between atoms: C3_3  and  C4_4 
REMARK    3  A    between atoms: C4_4  and  C5_5 
REMARK    4  A    between atoms: C5_5  and  C6_6 
REMARK    5  A    between atoms: C6_6  and  C8_8 
REMARK    6  A    between atoms: C30_33  and  O5_35 
ROOT
HETATM    1  C8  UNL     1       4.916  55.981  -8.337  1.00  0.00    -0.001 C 
HETATM    2  C9  UNL     1       5.721  55.068  -9.302  1.00  0.00     0.007 C 
HETATM    3  C10 UNL     1       4.693  54.265 -10.120  1.00  0.00     0.015 C 
HETATM    4  C11 UNL     1       3.348  54.989  -9.900  1.00  0.00    -0.004 C 
HETATM    5  C12 UNL     1       3.312  56.191 -10.895  1.00  0.00     0.021 C 
HETATM    6  C13 UNL     1       2.028  54.265 -10.114  1.00  0.00     0.007 C 
HETATM    7  C14 UNL     1       0.887  54.622  -9.472  1.00  0.00     0.007 C 
HETATM    8  C15 UNL     1       0.983  55.732  -8.433  1.00  0.00     0.157 C 
HETATM    9  O1  UNL     1      -0.031  56.182  -7.901  1.00  0.00    -0.293 OA
HETATM   10  C16 UNL     1       2.336  56.311  -8.032  1.00  0.00     0.094 C 
HETATM   11  C17 UNL     1       3.484  55.367  -8.378  1.00  0.00    -0.022 C 
HETATM   12  C18 UNL     1       3.399  54.132  -7.433  1.00  0.00     0.017 C 
HETATM   13  C19 UNL     1      -0.500  53.966  -9.706  1.00  0.00    -0.007 C 
HETATM   14  C20 UNL     1      -0.793  53.102  -8.455  1.00  0.00     0.021 C 
HETATM   15  C21 UNL     1      -1.633  55.032  -9.864  1.00  0.00     0.022 C 
HETATM   16  C22 UNL     1      -2.810  54.638 -10.755  1.00  0.00     0.080 C 
HETATM   17  C23 UNL     1      -2.993  53.143 -10.824  1.00  0.00     0.135 C 
HETATM   18  O2  UNL     1      -4.069  52.621 -10.537  1.00  0.00    -0.297 OA
HETATM   19  C24 UNL     1      -1.799  52.337 -11.347  1.00  0.00     0.018 C 
HETATM   20  C25 UNL     1      -1.839  50.909 -10.766  1.00  0.00     0.023 C 
HETATM   21  C26 UNL     1      -1.984  52.217 -12.875  1.00  0.00     0.023 C 
HETATM   22  C27 UNL     1      -0.479  53.121 -11.032  1.00  0.00     0.021 C 
HETATM   23  C28 UNL     1       0.775  52.254 -11.113  1.00  0.00     0.090 C 
HETATM   24  C29 UNL     1       1.991  53.140 -11.098  1.00  0.00     0.157 C 
HETATM   25  O3  UNL     1       2.932  52.921 -11.855  1.00  0.00    -0.293 OA
ENDROOT
BRANCH   1  26
HETATM   26  C6  UNL     1       5.669  56.320  -7.016  1.00  0.00    -0.014 C 
HETATM   27  C7  UNL     1       5.564  57.763  -6.507  1.00  0.00     0.010 C 
BRANCH  26  28
HETATM   28  C5  UNL     1       7.148  55.871  -7.075  1.00  0.00     0.008 C 
BRANCH  28  29
HETATM   29  C4  UNL     1       7.829  55.683  -5.710  1.00  0.00     0.028 C 
BRANCH  29  30
HETATM   30  C3  UNL     1       8.920  56.690  -5.466  1.00  0.00    -0.013 C 
HETATM   31  C2  UNL     1      10.193  56.462  -5.082  1.00  0.00     0.008 C 
HETATM   32  C1  UNL     1      10.806  55.120  -4.806  1.00  0.00     0.055 C 
BRANCH  31  33
HETATM   33  C30 UNL     1      11.142  57.595  -4.896  1.00  0.00     0.171 C 
HETATM   34  O4  UNL     1      10.823  58.760  -4.736  1.00  0.00    -0.646 OA
BRANCH  33  35
HETATM   35  O5  UNL     1      12.435  57.232  -4.896  1.00  0.00    -0.773 OA
HETATM   36  H42 UNL     1      12.909  58.078  -4.758  1.00  0.00     0.167 HD
ENDBRANCH  33  35
ENDBRANCH  31  33
ENDBRANCH  29  30
ENDBRANCH  28  29
ENDBRANCH  26  28
ENDBRANCH   1  26
TORSDOF 6
ENDMDL
MODEL 2
REMARK minimizedAffinity -7.49794292
REMARK CNNscore 0.808220208
REMARK CNNaffinity 7.04458761
REMARK  6 active torsions:
REMARK  status: ('A' for Active; 'I' for Inactive)
REMARK    1  A    between atoms: C2_2  and  C30_33 
REMARK    2  A    between atoms: C3_3  and  C4_4 
REMARK    3  A    between atoms: C4_4  and  C5_5 
REMARK    4  A    between atoms: C5_5  and  C6_6 
REMARK    5  A    between atoms: C6_6  and  C8_8 
REMARK    6  A    between atoms: C30_33  and  O5_35 
ROOT
HETATM    1  C8  UNL     1       5.317  56.173  -8.337  1.00  0.00    -0.001 C 
HETATM    2  C9  UNL     1       6.102  55.180  -9.236  1.00  0.00     0.007 C 
HETATM    3  C10 UNL     1       5.057  54.328  -9.980  1.00  0.00     0.015 C 
HETATM    4  C11 UNL     1       3.722  55.082  -9.803  1.00  0.00    -0.004 C 
HETATM    5  C12 UNL     1       3.687  56.203 -10.888  1.00  0.00     0.021 C 
HETATM    6  C13 UNL     1       2.393  54.358  -9.948  1.00  0.00     0.007 C 
HETATM    7  C14 UNL     1       1.262  54.775  -9.324  1.00  0.00     0.007 C 
HETATM    8  C15 UNL     1       1.381  55.962  -8.375  1.00  0.00     0.157 C 
HETATM    9  O1  UNL     1       0.377  56.462  -7.869  1.00  0.00    -0.293 OA
HETATM   10  C16 UNL     1       2.743  56.554  -8.032  1.00  0.00     0.094 C 
HETATM   11  C17 UNL     1       3.878  55.573  -8.316  1.00  0.00    -0.022 C 
HETATM   12  C18 UNL     1       3.790  54.416  -7.278  1.00  0.00     0.017 C 
HETATM   13  C19 UNL     1      -0.134  54.120  -9.494  1.00  0.00    -0.007 C 
HETATM   14  C20 UNL     1      -0.422  53.358  -8.177  1.00  0.00     0.021 C 
HETATM   15  C21 UNL     1      -1.258  55.182  -9.722  1.00  0.00     0.022 C 
HETATM   16  C22 UNL     1      -2.448  54.734 -10.568  1.00  0.00     0.080 C 
HETATM   17  C23 UNL     1      -2.647  53.240 -10.520  1.00  0.00     0.135 C 
HETATM   18  O2  UNL     1      -3.725  52.754 -10.183  1.00  0.00    -0.297 OA
HETATM   19  C24 UNL     1      -1.467  52.383 -10.991  1.00  0.00     0.018 C 
HETATM   20  C25 UNL     1      -1.516  51.005 -10.302  1.00  0.00     0.023 C 
HETATM   21  C26 UNL     1      -1.670  52.149 -12.504  1.00  0.00     0.023 C 
HETATM   22  C27 UNL     1      -0.136  53.175 -10.750  1.00  0.00     0.021 C 
HETATM   23  C28 UNL     1       1.108  52.290 -10.776  1.00  0.00     0.090 C 
HETATM   24  C29 UNL     1       2.333  53.161 -10.842  1.00  0.00     0.157 C 
HETATM   25  O3  UNL     1       3.264  52.874 -11.589  1.00  0.00    -0.293 OA
ENDROOT
BRANCH   1  26
HETATM   26  C6  UNL     1       6.087  56.604  -7.053  1.00  0.00    -0.014 C 
HETATM   27  C7  UNL     1       6.849  55.507  -6.299  1.00  0.00     0.010 C 
BRANCH  26  28
HETATM   28  C5  UNL     1       5.176  57.395  -6.084  1.00  0.00     0.008 C 
BRANCH  28  29
HETATM   29  C4  UNL     1       5.770  57.649  -4.689  1.00  0.00     0.028 C 
BRANCH  29  30
HETATM   30  C3  UNL     1       5.718  59.101  -4.297  1.00  0.00    -0.013 C 
HETATM   31  C2  UNL     1       4.656  59.806  -3.856  1.00  0.00     0.008 C 
HETATM   32  C1  UNL     1       3.264  59.281  -3.661  1.00  0.00     0.055 C 
BRANCH  31  33
HETATM   33  C30 UNL     1       4.798  61.247  -3.505  1.00  0.00     0.171 C 
HETATM   34  O4  UNL     1       5.752  61.949  -3.789  1.00  0.00    -0.646 OA
BRANCH  33  35
HETATM   35  O5  UNL     1       3.747  61.754  -2.839  1.00  0.00    -0.773 OA
HETATM   36  H42 UNL     1       3.998  62.691  -2.698  1.00  0.00     0.167 HD
ENDBRANCH  33  35
ENDBRANCH  31  33
ENDBRANCH  29  30
ENDBRANCH  28  29
ENDBRANCH  26  28
ENDBRANCH   1  26
TORSDOF 6
ENDMDL
MODEL 3
REMARK minimizedAffinity -7.55457497
REMARK CNNscore 0.763876438
REMARK CNNaffinity 6.88456488
REMARK  6 active torsions:
REMARK  status: ('A' for Active; 'I' for Inactive)
REMARK    1  A    between atoms: C2_2  and  C30_33 
REMARK    2  A    between atoms: C3_3  and  C4_4 
REMARK    3  A    between atoms: C4_4  and  C5_5 
REMARK    4  A    between atoms: C5_5  and  C6_6 
REMARK    5  A    between atoms: C6_6  and  C8_8 
REMARK    6  A    between atoms: C30_33  and  O5_35 
ROOT
HETATM    1  C8  UNL     1       4.530  56.226  -8.294  1.00  0.00    -0.001 C 
HETATM    2  C9  UNL     1       5.416  55.314  -9.187  1.00  0.00     0.007 C 
HETATM    3  C10 UNL     1       4.460  54.426 -10.006  1.00  0.00     0.015 C 
HETATM    4  C11 UNL     1       3.075  55.090  -9.868  1.00  0.00    -0.004 C 
HETATM    5  C12 UNL     1       3.018  56.245 -10.916  1.00  0.00     0.021 C 
HETATM    6  C13 UNL     1       1.801  54.293 -10.098  1.00  0.00     0.007 C 
HETATM    7  C14 UNL     1       0.619  54.618  -9.515  1.00  0.00     0.007 C 
HETATM    8  C15 UNL     1       0.621  55.776  -8.523  1.00  0.00     0.157 C 
HETATM    9  O1  UNL     1      -0.434  56.196  -8.049  1.00  0.00    -0.293 OA
HETATM   10  C16 UNL     1       1.927  56.438  -8.099  1.00  0.00     0.094 C 
HETATM   11  C17 UNL     1       3.133  55.539  -8.360  1.00  0.00    -0.022 C 
HETATM   12  C18 UNL     1       3.071  54.343  -7.364  1.00  0.00     0.017 C 
HETATM   13  C19 UNL     1      -0.724  53.885  -9.770  1.00  0.00    -0.007 C 
HETATM   14  C20 UNL     1      -1.023  53.061  -8.493  1.00  0.00     0.021 C 
HETATM   15  C21 UNL     1      -1.901  54.884 -10.017  1.00  0.00     0.022 C 
HETATM   16  C22 UNL     1      -3.022  54.394 -10.932  1.00  0.00     0.080 C 
HETATM   17  C23 UNL     1      -3.128  52.889 -10.940  1.00  0.00     0.135 C 
HETATM   18  O2  UNL     1      -4.188  52.327 -10.670  1.00  0.00    -0.297 OA
HETATM   19  C24 UNL     1      -1.877  52.123 -11.383  1.00  0.00     0.018 C 
HETATM   20  C25 UNL     1      -1.871  50.721 -10.741  1.00  0.00     0.023 C 
HETATM   21  C26 UNL     1      -1.997  51.929 -12.910  1.00  0.00     0.023 C 
HETATM   22  C27 UNL     1      -0.611  52.986 -11.055  1.00  0.00     0.021 C 
HETATM   23  C28 UNL     1       0.686  52.179 -11.050  1.00  0.00     0.090 C 
HETATM   24  C29 UNL     1       1.856  53.126 -11.031  1.00  0.00     0.157 C 
HETATM   25  O3  UNL     1       2.836  52.922 -11.742  1.00  0.00    -0.293 OA
ENDROOT
BRANCH   1  26
HETATM   26  C6  UNL     1       5.213  56.658  -6.963  1.00  0.00    -0.014 C 
HETATM   27  C7  UNL     1       5.793  55.541  -6.085  1.00  0.00     0.010 C 
BRANCH  26  28
HETATM   28  C5  UNL     1       4.295  57.582  -6.128  1.00  0.00     0.008 C 
BRANCH  28  29
HETATM   29  C4  UNL     1       3.747  56.962  -4.833  1.00  0.00     0.028 C 
BRANCH  29  30
HETATM   30  C3  UNL     1       2.245  57.011  -4.760  1.00  0.00    -0.013 C 
HETATM   31  C2  UNL     1       1.474  57.849  -4.037  1.00  0.00     0.008 C 
HETATM   32  C1  UNL     1       1.962  58.936  -3.125  1.00  0.00     0.055 C 
BRANCH  31  33
HETATM   33  C30 UNL     1      -0.012  57.753  -4.098  1.00  0.00     0.171 C 
HETATM   34  O4  UNL     1      -0.640  57.073  -4.891  1.00  0.00    -0.646 OA
BRANCH  33  35
HETATM   35  O5  UNL     1      -0.646  58.483  -3.166  1.00  0.00    -0.773 OA
HETATM   36  H42 UNL     1      -1.593  58.301  -3.342  1.00  0.00     0.167 HD
ENDBRANCH  33  35
ENDBRANCH  31  33
ENDBRANCH  29  30
ENDBRANCH  28  29
ENDBRANCH  26  28
ENDBRANCH   1  26
TORSDOF 6
ENDMDL
MODEL 4
REMARK minimizedAffinity -9.10966015
REMARK CNNscore 0.617431045
REMARK CNNaffinity 7.2697835
REMARK  6 active torsions:
REMARK  status: ('A' for Active; 'I' for Inactive)
REMARK    1  A    between atoms: C2_2  and  C30_33 
REMARK    2  A    between atoms: C3_3  and  C4_4 
REMARK    3  A    between atoms: C4_4  and  C5_5 
REMARK    4  A    between atoms: C5_5  and  C6_6 
REMARK    5  A    between atoms: C6_6  and  C8_8 
REMARK    6  A    between atoms: C30_33  and  O5_35 
ROOT
HETATM    1  C8  UNL     1      -0.369  51.651 -17.138  1.00  0.00    -0.001 C 
HETATM    2  C9  UNL     1       1.091  52.151 -17.308  1.00  0.00     0.007 C 
HETATM    3  C10 UNL     1       1.297  52.428 -18.809  1.00  0.00     0.015 C 
HETATM    4  C11 UNL     1      -0.123  52.458 -19.412  1.00  0.00    -0.004 C 
HETATM    5  C12 UNL     1      -0.696  53.886 -19.153  1.00  0.00     0.021 C 
HETATM    6  C13 UNL     1      -0.346  52.212 -20.896  1.00  0.00     0.007 C 
HETATM    7  C14 UNL     1      -1.509  51.717 -21.388  1.00  0.00     0.007 C 
HETATM    8  C15 UNL     1      -2.581  51.312 -20.383  1.00  0.00     0.157 C 
HETATM    9  O1  UNL     1      -3.698  50.966 -20.764  1.00  0.00    -0.293 OA
HETATM   10  C16 UNL     1      -2.293  51.327 -18.886  1.00  0.00     0.094 C 
HETATM   11  C17 UNL     1      -0.795  51.293 -18.594  1.00  0.00    -0.022 C 
HETATM   12  C18 UNL     1      -0.257  49.884 -18.983  1.00  0.00     0.017 C 
HETATM   13  C19 UNL     1      -1.816  51.515 -22.895  1.00  0.00    -0.007 C 
HETATM   14  C20 UNL     1      -1.771  49.988 -23.151  1.00  0.00     0.021 C 
HETATM   15  C21 UNL     1      -3.232  52.052 -23.283  1.00  0.00     0.022 C 
HETATM   16  C22 UNL     1      -3.390  52.569 -24.712  1.00  0.00     0.080 C 
HETATM   17  C23 UNL     1      -2.402  51.932 -25.657  1.00  0.00     0.135 C 
HETATM   18  O2  UNL     1      -2.779  51.354 -26.675  1.00  0.00    -0.297 OA
HETATM   19  C24 UNL     1      -0.920  52.120 -25.317  1.00  0.00     0.018 C 
HETATM   20  C25 UNL     1      -0.100  50.950 -25.895  1.00  0.00     0.023 C 
HETATM   21  C26 UNL     1      -0.462  53.405 -26.042  1.00  0.00     0.023 C 
HETATM   22  C27 UNL     1      -0.773  52.304 -23.768  1.00  0.00     0.021 C 
HETATM   23  C28 UNL     1       0.650  52.078 -23.264  1.00  0.00     0.090 C 
HETATM   24  C29 UNL     1       0.755  52.566 -21.844  1.00  0.00     0.157 C 
HETATM   25  O3  UNL     1       1.733  53.211 -21.476  1.00  0.00    -0.293 OA
ENDROOT
BRANCH   1  26
HETATM   26  C6  UNL     1      -0.570  50.695 -15.924  1.00  0.00    -0.014 C 
HETATM   27  C7  UNL     1      -1.851  49.852 -15.909  1.00  0.00     0.010 C 
BRANCH  26  28
HETATM   28  C5  UNL     1      -0.394  51.440 -14.580  1.00  0.00     0.008 C 
BRANCH  28  29
HETATM   29  C4  UNL     1       1.018  51.986 -14.315  1.00  0.00     0.028 C 
BRANCH  29  30
HETATM   30  C3  UNL     1       1.975  50.916 -13.865  1.00  0.00    -0.013 C 
HETATM   31  C2  UNL     1       3.268  50.756 -14.213  1.00  0.00     0.008 C 
HETATM   32  C1  UNL     1       4.047  51.633 -15.149  1.00  0.00     0.055 C 
BRANCH  31  33
HETATM   33  C30 UNL     1       4.069  49.630 -13.656  1.00  0.00     0.171 C 
HETATM   34  O4  UNL     1       5.166  49.737 -13.138  1.00  0.00    -0.646 OA
BRANCH  33  35
HETATM   35  O5  UNL     1       3.468  48.432 -13.749  1.00  0.00    -0.773 OA
HETATM   36  H42 UNL     1       4.115  47.821 -13.338  1.00  0.00     0.167 HD
ENDBRANCH  33  35
ENDBRANCH  31  33
ENDBRANCH  29  30
ENDBRANCH  28  29
ENDBRANCH  26  28
ENDBRANCH   1  26
TORSDOF 6
ENDMDL
MODEL 5
REMARK minimizedAffinity -9.1172533
REMARK CNNscore 0.54935658
REMARK CNNaffinity 7.12032318
REMARK  6 active torsions:
REMARK  status: ('A' for Active; 'I' for Inactive)
REMARK    1  A    between atoms: C2_2  and  C30_33 
REMARK    2  A    between atoms: C3_3  and  C4_4 
REMARK    3  A    between atoms: C4_4  and  C5_5 
REMARK    4  A    between atoms: C5_5  and  C6_6 
REMARK    5  A    between atoms: C6_6  and  C8_8 
REMARK    6  A    between atoms: C30_33  and  O5_35 
ROOT
HETATM    1  C8  UNL     1      -1.035  49.385 -18.222  1.00  0.00    -0.001 C 
HETATM    2  C9  UNL     1      -2.283  48.468 -18.341  1.00  0.00     0.007 C 
HETATM    3  C10 UNL     1      -2.737  48.518 -19.812  1.00  0.00     0.015 C 
HETATM    4  C11 UNL     1      -1.548  49.133 -20.579  1.00  0.00    -0.004 C 
HETATM    5  C12 UNL     1      -0.538  47.975 -20.854  1.00  0.00     0.021 C 
HETATM    6  C13 UNL     1      -1.753  49.799 -21.931  1.00  0.00     0.007 C 
HETATM    7  C14 UNL     1      -0.931  50.773 -22.397  1.00  0.00     0.007 C 
HETATM    8  C15 UNL     1       0.175  51.262 -21.470  1.00  0.00     0.157 C 
HETATM    9  O1  UNL     1       1.024  52.057 -21.872  1.00  0.00    -0.293 OA
HETATM   10  C16 UNL     1       0.255  50.777 -20.026  1.00  0.00     0.094 C 
HETATM   11  C17 UNL     1      -1.079  50.217 -19.539  1.00  0.00    -0.022 C 
HETATM   12  C18 UNL     1      -2.080  51.401 -19.398  1.00  0.00     0.017 C 
HETATM   13  C19 UNL     1      -1.051  51.435 -23.795  1.00  0.00    -0.007 C 
HETATM   14  C20 UNL     1      -1.599  52.864 -23.558  1.00  0.00     0.021 C 
HETATM   15  C21 UNL     1       0.333  51.536 -24.517  1.00  0.00     0.022 C 
HETATM   16  C22 UNL     1       0.303  51.478 -26.043  1.00  0.00     0.080 C 
HETATM   17  C23 UNL     1      -1.017  51.945 -26.602  1.00  0.00     0.135 C 
HETATM   18  O2  UNL     1      -1.069  52.851 -27.433  1.00  0.00    -0.297 OA
HETATM   19  C24 UNL     1      -2.260  51.177 -26.142  1.00  0.00     0.018 C 
HETATM   20  C25 UNL     1      -3.496  52.094 -26.214  1.00  0.00     0.023 C 
HETATM   21  C26 UNL     1      -2.474  50.035 -27.160  1.00  0.00     0.023 C 
HETATM   22  C27 UNL     1      -1.987  50.576 -24.720  1.00  0.00     0.021 C 
HETATM   23  C28 UNL     1      -3.259  50.162 -23.984  1.00  0.00     0.090 C 
HETATM   24  C29 UNL     1      -2.888  49.332 -22.784  1.00  0.00     0.157 C 
HETATM   25  O3  UNL     1      -3.523  48.319 -22.506  1.00  0.00    -0.293 OA
ENDROOT
BRANCH   1  26
HETATM   26  C6  UNL     1      -0.852  50.019 -16.811  1.00  0.00    -0.014 C 
HETATM   27  C7  UNL     1      -2.051  50.778 -16.230  1.00  0.00     0.010 C 
BRANCH  26  28
HETATM   28  C5  UNL     1       0.426  50.888 -16.742  1.00  0.00     0.008 C 
BRANCH  28  29
HETATM   29  C4  UNL     1       0.671  51.585 -15.394  1.00  0.00     0.028 C 
BRANCH  29  30
HETATM   30  C3  UNL     1       1.688  50.866 -14.550  1.00  0.00    -0.013 C 
HETATM   31  C2  UNL     1       3.028  51.025 -14.545  1.00  0.00     0.008 C 
HETATM   32  C1  UNL     1       3.809  51.976 -15.405  1.00  0.00     0.055 C 
BRANCH  31  33
HETATM   33  C30 UNL     1       3.882  50.222 -13.627  1.00  0.00     0.171 C 
HETATM   34  O4  UNL     1       4.895  49.627 -13.950  1.00  0.00    -0.646 OA
BRANCH  33  35
HETATM   35  O5  UNL     1       3.457  50.209 -12.353  1.00  0.00    -0.773 OA
HETATM   36  H42 UNL     1       4.123  49.655 -11.896  1.00  0.00     0.167 HD
ENDBRANCH  33  35
ENDBRANCH  31  33
ENDBRANCH  29  30
ENDBRANCH  28  29
ENDBRANCH  26  28
ENDBRANCH   1  26
TORSDOF 6
ENDMDL
MODEL 6
REMARK minimizedAffinity -7.51367617
REMARK CNNscore 0.394293666
REMARK CNNaffinity 5.99523115
REMARK  6 active torsions:
REMARK  status: ('A' for Active; 'I' for Inactive)
REMARK    1  A    between atoms: C2_2  and  C30_33 
REMARK    2  A    between atoms: C3_3  and  C4_4 
REMARK    3  A    between atoms: C4_4  and  C5_5 
REMARK    4  A    between atoms: C5_5  and  C6_6 
REMARK    5  A    between atoms: C6_6  and  C8_8 
REMARK    6  A    between atoms: C30_33  and  O5_35 
ROOT
HETATM    1  C8  UNL     1      -7.576  46.710 -29.861  1.00  0.00    -0.001 C 
HETATM    2  C9  UNL     1      -6.960  45.286 -29.933  1.00  0.00     0.007 C 
HETATM    3  C10 UNL     1      -8.085  44.294 -29.579  1.00  0.00     0.015 C 
HETATM    4  C11 UNL     1      -9.390  45.109 -29.689  1.00  0.00    -0.004 C 
HETATM    5  C12 UNL     1      -9.786  45.132 -31.198  1.00  0.00     0.021 C 
HETATM    6  C13 UNL     1     -10.650  44.665 -28.962  1.00  0.00     0.007 C 
HETATM    7  C14 UNL     1     -11.620  45.535 -28.583  1.00  0.00     0.007 C 
HETATM    8  C15 UNL     1     -11.366  47.019 -28.824  1.00  0.00     0.157 C 
HETATM    9  O1  UNL     1     -12.249  47.848 -28.611  1.00  0.00    -0.293 OA
HETATM   10  C16 UNL     1     -10.014  47.507 -29.334  1.00  0.00     0.094 C 
HETATM   11  C17 UNL     1      -8.909  46.482 -29.088  1.00  0.00    -0.022 C 
HETATM   12  C18 UNL     1      -8.641  46.417 -27.555  1.00  0.00     0.017 C 
HETATM   13  C19 UNL     1     -12.955  45.129 -27.906  1.00  0.00    -0.007 C 
HETATM   14  C20 UNL     1     -12.844  45.561 -26.423  1.00  0.00     0.021 C 
HETATM   15  C21 UNL     1     -14.184  45.848 -28.553  1.00  0.00     0.022 C 
HETATM   16  C22 UNL     1     -15.507  45.085 -28.520  1.00  0.00     0.080 C 
HETATM   17  C23 UNL     1     -15.564  44.100 -27.380  1.00  0.00     0.135 C 
HETATM   18  O2  UNL     1     -16.481  44.130 -26.561  1.00  0.00    -0.297 OA
HETATM   19  C24 UNL     1     -14.473  43.024 -27.356  1.00  0.00     0.018 C 
HETATM   20  C25 UNL     1     -14.236  42.554 -25.907  1.00  0.00     0.023 C 
HETATM   21  C26 UNL     1     -15.026  41.818 -28.146  1.00  0.00     0.023 C 
HETATM   22  C27 UNL     1     -13.194  43.584 -28.067  1.00  0.00     0.021 C 
HETATM   23  C28 UNL     1     -11.927  42.794 -27.743  1.00  0.00     0.090 C 
HETATM   24  C29 UNL     1     -10.832  43.206 -28.690  1.00  0.00     0.157 C 
HETATM   25  O3  UNL     1     -10.097  42.364 -29.198  1.00  0.00    -0.293 OA
ENDROOT
BRANCH   1  26
HETATM   26  C6  UNL     1      -6.548  47.822 -29.494  1.00  0.00    -0.014 C 
HETATM   27  C7  UNL     1      -5.328  47.970 -30.411  1.00  0.00     0.010 C 
BRANCH  26  28
HETATM   28  C5  UNL     1      -6.106  47.718 -28.014  1.00  0.00     0.008 C 
BRANCH  28  29
HETATM   29  C4  UNL     1      -4.651  48.131 -27.737  1.00  0.00     0.028 C 
BRANCH  29  30
HETATM   30  C3  UNL     1      -4.397  48.403 -26.279  1.00  0.00    -0.013 C 
HETATM   31  C2  UNL     1      -3.339  49.026 -25.721  1.00  0.00     0.008 C 
HETATM   32  C1  UNL     1      -2.159  49.594 -26.454  1.00  0.00     0.055 C 
BRANCH  31  33
HETATM   33  C30 UNL     1      -3.262  49.213 -24.245  1.00  0.00     0.171 C 
HETATM   34  O4  UNL     1      -2.686  48.468 -23.472  1.00  0.00    -0.646 OA
BRANCH  33  35
HETATM   35  O5  UNL     1      -3.883  50.318 -23.800  1.00  0.00    -0.773 OA
HETATM   36  H42 UNL     1      -3.731  50.289 -22.832  1.00  0.00     0.167 HD
ENDBRANCH  33  35
ENDBRANCH  31  33
ENDBRANCH  29  30
ENDBRANCH  28  29
ENDBRANCH  26  28
ENDBRANCH   1  26
TORSDOF 6
ENDMDL
MODEL 7
REMARK minimizedAffinity -9.02120876
REMARK CNNscore 0.319927275
REMARK CNNaffinity 6.33340597
REMARK  6 active torsions:
REMARK  status: ('A' for Active; 'I' for Inactive)
REMARK    1  A    between atoms: C2_2  and  C30_33 
REMARK    2  A    between atoms: C3_3  and  C4_4 
REMARK    3  A    between atoms: C4_4  and  C5_5 
REMARK    4  A    between atoms: C5_5  and  C6_6 
REMARK    5  A    between atoms: C6_6  and  C8_8 
REMARK    6  A    between atoms: C30_33  and  O5_35 
ROOT
HETATM    1  C8  UNL     1      -4.840  48.689 -21.072  1.00  0.00    -0.001 C 
HETATM    2  C9  UNL     1      -4.002  49.268 -19.900  1.00  0.00     0.007 C 
HETATM    3  C10 UNL     1      -2.965  50.223 -20.521  1.00  0.00     0.015 C 
HETATM    4  C11 UNL     1      -3.460  50.476 -21.960  1.00  0.00    -0.004 C 
HETATM    5  C12 UNL     1      -4.546  51.593 -21.876  1.00  0.00     0.021 C 
HETATM    6  C13 UNL     1      -2.502  50.945 -23.043  1.00  0.00     0.007 C 
HETATM    7  C14 UNL     1      -2.707  50.691 -24.360  1.00  0.00     0.007 C 
HETATM    8  C15 UNL     1      -3.903  49.821 -24.730  1.00  0.00     0.157 C 
HETATM    9  O1  UNL     1      -4.213  49.650 -25.908  1.00  0.00    -0.293 OA
HETATM   10  C16 UNL     1      -4.741  49.146 -23.649  1.00  0.00     0.094 C 
HETATM   11  C17 UNL     1      -3.985  49.038 -22.327  1.00  0.00    -0.022 C 
HETATM   12  C18 UNL     1      -2.840  47.998 -22.507  1.00  0.00     0.017 C 
HETATM   13  C19 UNL     1      -1.803  51.207 -25.511  1.00  0.00    -0.007 C 
HETATM   14  C20 UNL     1      -1.012  49.981 -26.029  1.00  0.00     0.021 C 
HETATM   15  C21 UNL     1      -2.637  51.807 -26.689  1.00  0.00     0.022 C 
HETATM   16  C22 UNL     1      -1.970  52.925 -27.488  1.00  0.00     0.080 C 
HETATM   17  C23 UNL     1      -0.465  52.844 -27.427  1.00  0.00     0.135 C 
HETATM   18  O2  UNL     1       0.209  52.795 -28.454  1.00  0.00    -0.297 OA
HETATM   19  C24 UNL     1       0.162  52.910 -26.031  1.00  0.00     0.018 C 
HETATM   20  C25 UNL     1       1.520  52.179 -26.035  1.00  0.00     0.023 C 
HETATM   21  C26 UNL     1       0.443  54.401 -25.745  1.00  0.00     0.023 C 
HETATM   22  C27 UNL     1      -0.864  52.353 -24.986  1.00  0.00     0.021 C 
HETATM   23  C28 UNL     1      -0.224  51.973 -23.652  1.00  0.00     0.090 C 
HETATM   24  C29 UNL     1      -1.307  51.744 -22.632  1.00  0.00     0.157 C 
HETATM   25  O3  UNL     1      -1.190  52.180 -21.490  1.00  0.00    -0.293 OA
ENDROOT
BRANCH   1  26
HETATM   26  C6  UNL     1      -5.417  47.269 -20.793  1.00  0.00    -0.014 C 
HETATM   27  C7  UNL     1      -4.564  46.074 -21.237  1.00  0.00     0.010 C 
BRANCH  26  28
HETATM   28  C5  UNL     1      -6.864  47.131 -21.323  1.00  0.00     0.008 C 
BRANCH  28  29
HETATM   29  C4  UNL     1      -6.982  46.774 -22.813  1.00  0.00     0.028 C 
BRANCH  29  30
HETATM   30  C3  UNL     1      -8.075  47.543 -23.505  1.00  0.00    -0.013 C 
HETATM   31  C2  UNL     1      -8.170  47.860 -24.812  1.00  0.00     0.008 C 
HETATM   32  C1  UNL     1      -7.178  47.507 -25.883  1.00  0.00     0.055 C 
BRANCH  31  33
HETATM   33  C30 UNL     1      -9.339  48.629 -25.322  1.00  0.00     0.171 C 
HETATM   34  O4  UNL     1     -10.424  48.151 -25.607  1.00  0.00    -0.646 OA
BRANCH  33  35
HETATM   35  O5  UNL     1      -9.120  49.949 -25.436  1.00  0.00    -0.773 OA
HETATM   36  H42 UNL     1      -9.975  50.293 -25.770  1.00  0.00     0.167 HD
ENDBRANCH  33  35
ENDBRANCH  31  33
ENDBRANCH  29  30
ENDBRANCH  28  29
ENDBRANCH  26  28
ENDBRANCH   1  26
TORSDOF 6
ENDMDL
MODEL 8
REMARK minimizedAffinity -8.65756512
REMARK CNNscore 0.302529633
REMARK CNNaffinity 6.48654699
REMARK  6 active torsions:
REMARK  status: ('A' for Active; 'I' for Inactive)
REMARK    1  A    between atoms: C2_2  and  C30_33 
REMARK    2  A    between atoms: C3_3  and  C4_4 
REMARK    3  A    between atoms: C4_4  and  C5_5 
REMARK    4  A    between atoms: C5_5  and  C6_6 
REMARK    5  A    between atoms: C6_6  and  C8_8 
REMARK    6  A    between atoms: C30_33  and  O5_35 
ROOT
HETATM    1  C8  UNL     1      -0.719  50.011 -21.246  1.00  0.00    -0.001 C 
HETATM    2  C9  UNL     1      -0.199  49.277 -19.981  1.00  0.00     0.007 C 
HETATM    3  C10 UNL     1      -1.396  48.516 -19.380  1.00  0.00     0.015 C 
HETATM    4  C11 UNL     1      -2.465  48.505 -20.493  1.00  0.00    -0.004 C 
HETATM    5  C12 UNL     1      -2.106  47.329 -21.455  1.00  0.00     0.021 C 
HETATM    6  C13 UNL     1      -3.935  48.302 -20.160  1.00  0.00     0.007 C 
HETATM    7  C14 UNL     1      -4.934  48.781 -20.943  1.00  0.00     0.007 C 
HETATM    8  C15 UNL     1      -4.539  49.632 -22.144  1.00  0.00     0.157 C 
HETATM    9  O1  UNL     1      -5.385  49.999 -22.957  1.00  0.00    -0.293 OA
HETATM   10  C16 UNL     1      -3.087  50.046 -22.364  1.00  0.00     0.094 C 
HETATM   11  C17 UNL     1      -2.268  49.952 -21.079  1.00  0.00    -0.022 C 
HETATM   12  C18 UNL     1      -2.751  51.074 -20.113  1.00  0.00     0.017 C 
HETATM   13  C19 UNL     1      -6.446  48.542 -20.691  1.00  0.00    -0.007 C 
HETATM   14  C20 UNL     1      -7.025  49.887 -20.188  1.00  0.00     0.021 C 
HETATM   15  C21 UNL     1      -7.199  48.121 -21.995  1.00  0.00     0.022 C 
HETATM   16  C22 UNL     1      -8.412  47.211 -21.810  1.00  0.00     0.080 C 
HETATM   17  C23 UNL     1      -9.036  47.369 -20.446  1.00  0.00     0.135 C 
HETATM   18  O2  UNL     1     -10.227  47.646 -20.321  1.00  0.00    -0.297 OA
HETATM   19  C24 UNL     1      -8.126  47.083 -19.247  1.00  0.00     0.018 C 
HETATM   20  C25 UNL     1      -8.614  47.881 -18.021  1.00  0.00     0.023 C 
HETATM   21  C26 UNL     1      -8.292  45.584 -18.916  1.00  0.00     0.023 C 
HETATM   22  C27 UNL     1      -6.641  47.376 -19.654  1.00  0.00     0.021 C 
HETATM   23  C28 UNL     1      -5.706  47.540 -18.458  1.00  0.00     0.090 C 
HETATM   24  C29 UNL     1      -4.280  47.512 -18.938  1.00  0.00     0.157 C 
HETATM   25  O3  UNL     1      -3.427  46.881 -18.322  1.00  0.00    -0.293 OA
ENDROOT
BRANCH   1  26
HETATM   26  C6  UNL     1       0.060  51.319 -21.580  1.00  0.00    -0.014 C 
HETATM   27  C7  UNL     1       0.168  52.367 -20.464  1.00  0.00     0.010 C 
BRANCH  26  28
HETATM   28  C5  UNL     1      -0.456  51.968 -22.886  1.00  0.00     0.008 C 
BRANCH  28  29
HETATM   29  C4  UNL     1       0.504  52.976 -23.538  1.00  0.00     0.028 C 
BRANCH  29  30
HETATM   30  C3  UNL     1       0.012  53.458 -24.876  1.00  0.00    -0.013 C 
HETATM   31  C2  UNL     1       0.377  53.028 -26.101  1.00  0.00     0.008 C 
HETATM   32  C1  UNL     1       1.380  51.952 -26.399  1.00  0.00     0.055 C 
BRANCH  31  33
HETATM   33  C30 UNL     1      -0.229  53.625 -27.324  1.00  0.00     0.171 C 
HETATM   34  O4  UNL     1      -0.324  54.819 -27.550  1.00  0.00    -0.646 OA
BRANCH  33  35
HETATM   35  O5  UNL     1      -0.668  52.721 -28.215  1.00  0.00    -0.773 OA
HETATM   36  H42 UNL     1      -1.021  53.273 -28.944  1.00  0.00     0.167 HD
ENDBRANCH  33  35
ENDBRANCH  31  33
ENDBRANCH  29  30
ENDBRANCH  28  29
ENDBRANCH  26  28
ENDBRANCH   1  26
TORSDOF 6
ENDMDL
MODEL 9
REMARK minimizedAffinity -7.61393738
REMARK CNNscore 0.294885099
REMARK CNNaffinity 6.34866333
REMARK  6 active torsions:
REMARK  status: ('A' for Active; 'I' for Inactive)
REMARK    1  A    between atoms: C2_2  and  C30_33 
REMARK    2  A    between atoms: C3_3  and  C4_4 
REMARK    3  A    between atoms: C4_4  and  C5_5 
REMARK    4  A    between atoms: C5_5  and  C6_6 
REMARK    5  A    between atoms: C6_6  and  C8_8 
REMARK    6  A    between atoms: C30_33  and  O5_35 
ROOT
HETATM    1  C8  UNL     1      -1.289  49.631 -18.190  1.00  0.00    -0.001 C 
HETATM    2  C9  UNL     1      -2.491  48.662 -18.357  1.00  0.00     0.007 C 
HETATM    3  C10 UNL     1      -2.846  48.644 -19.855  1.00  0.00     0.015 C 
HETATM    4  C11 UNL     1      -1.632  49.278 -20.565  1.00  0.00    -0.004 C 
HETATM    5  C12 UNL     1      -0.564  48.152 -20.729  1.00  0.00     0.021 C 
HETATM    6  C13 UNL     1      -1.770  49.889 -21.951  1.00  0.00     0.007 C 
HETATM    7  C14 UNL     1      -0.956  50.878 -22.398  1.00  0.00     0.007 C 
HETATM    8  C15 UNL     1       0.067  51.442 -21.418  1.00  0.00     0.157 C 
HETATM    9  O1  UNL     1       0.910  52.255 -21.793  1.00  0.00    -0.293 OA
HETATM   10  C16 UNL     1       0.067  51.011 -19.956  1.00  0.00     0.094 C 
HETATM   11  C17 UNL     1      -1.275  50.415 -19.537  1.00  0.00    -0.022 C 
HETATM   12  C18 UNL     1      -2.326  51.563 -19.507  1.00  0.00     0.017 C 
HETATM   13  C19 UNL     1      -1.005  51.486 -23.824  1.00  0.00    -0.007 C 
HETATM   14  C20 UNL     1      -1.621  52.899 -23.677  1.00  0.00     0.021 C 
HETATM   15  C21 UNL     1       0.419  51.616 -24.457  1.00  0.00     0.022 C 
HETATM   16  C22 UNL     1       0.495  51.504 -25.978  1.00  0.00     0.080 C 
HETATM   17  C23 UNL     1      -0.801  51.899 -26.640  1.00  0.00     0.135 C 
HETATM   18  O2  UNL     1      -0.831  52.772 -27.506  1.00  0.00    -0.297 OA
HETATM   19  C24 UNL     1      -2.043  51.098 -26.234  1.00  0.00     0.018 C 
HETATM   20  C25 UNL     1      -3.305  51.963 -26.422  1.00  0.00     0.023 C 
HETATM   21  C26 UNL     1      -2.145  49.914 -27.221  1.00  0.00     0.023 C 
HETATM   22  C27 UNL     1      -1.844  50.558 -24.777  1.00  0.00     0.021 C 
HETATM   23  C28 UNL     1      -3.147  50.120 -24.111  1.00  0.00     0.090 C 
HETATM   24  C29 UNL     1      -2.827  49.348 -22.859  1.00  0.00     0.157 C 
HETATM   25  O3  UNL     1      -3.441  48.320 -22.586  1.00  0.00    -0.293 OA
ENDROOT
BRANCH   1  26
HETATM   26  C6  UNL     1      -1.225  50.321 -16.794  1.00  0.00    -0.014 C 
HETATM   27  C7  UNL     1       0.125  50.290 -16.066  1.00  0.00     0.010 C 
BRANCH  26  28
HETATM   28  C5  UNL     1      -2.355  49.822 -15.863  1.00  0.00     0.008 C 
BRANCH  28  29
HETATM   29  C4  UNL     1      -2.228  50.252 -14.393  1.00  0.00     0.028 C 
BRANCH  29  30
HETATM   30  C3  UNL     1      -2.362  49.095 -13.440  1.00  0.00    -0.013 C 
HETATM   31  C2  UNL     1      -3.025  49.056 -12.266  1.00  0.00     0.008 C 
HETATM   32  C1  UNL     1      -3.787  50.189 -11.643  1.00  0.00     0.055 C 
BRANCH  31  33
HETATM   33  C30 UNL     1      -3.054  47.808 -11.454  1.00  0.00     0.171 C 
HETATM   34  O4  UNL     1      -3.819  47.588 -10.531  1.00  0.00    -0.646 OA
BRANCH  33  35
HETATM   35  O5  UNL     1      -2.154  46.887 -11.833  1.00  0.00    -0.773 OA
HETATM   36  H42 UNL     1      -2.313  46.145 -11.213  1.00  0.00     0.167 HD
ENDBRANCH  33  35
ENDBRANCH  31  33
ENDBRANCH  29  30
ENDBRANCH  28  29
ENDBRANCH  26  28
ENDBRANCH   1  26
TORSDOF 6
ENDMDL
