MODEL 1
REMARK minimizedAffinity -5.7437067
REMARK CNNscore 0.386543602
REMARK CNNaffinity 5.75650072
REMARK  8 active torsions:
REMARK  status: ('A' for Active; 'I' for Inactive)
REMARK    1  A    between atoms: C3_3  and  C5_5 
REMARK       I    between atoms: C5_5  and  N1_7 
REMARK    2  A    between atoms: N1_7  and  C6_8 
REMARK    3  A    between atoms: C7_9  and  O2_10 
REMARK    4  A    between atoms: O2_10  and  C8_11 
REMARK    5  A    between atoms: C22_27  and  C23_28 
REMARK    6  A    between atoms: C23_28  and  N2_30 
REMARK    7  A    between atoms: C29_35  and  O5_36 
REMARK    8  A    between atoms: O5_36  and  C30_37 
ROOT
HETATM    1  C6  UNL     1     -15.025  -2.153  15.237  1.00  0.00     0.144 C 
HETATM    2  C7  UNL     1     -14.314  -2.864  14.059  1.00  0.00     0.162 C 
HETATM    3  C10 UNL     1     -13.663  -4.173  14.555  1.00  0.00     0.026 C 
HETATM    4  C11 UNL     1     -12.831  -4.867  13.467  1.00  0.00     0.008 C 
HETATM    5  C12 UNL     1     -11.998  -6.005  14.055  1.00  0.00     0.006 C 
HETATM    6  C13 UNL     1     -12.853  -7.014  14.831  1.00  0.00    -0.005 C 
HETATM    7  C14 UNL     1     -13.738  -6.300  15.909  1.00  0.00    -0.001 C 
HETATM    8  C15 UNL     1     -14.499  -7.304  16.821  1.00  0.00     0.007 C 
HETATM    9  C16 UNL     1     -13.618  -8.442  17.383  1.00  0.00     0.013 C 
HETATM   10  C17 UNL     1     -12.837  -9.147  16.272  1.00  0.00    -0.004 C 
HETATM   11  C18 UNL     1     -13.809  -9.888  15.318  1.00  0.00     0.019 C 
HETATM   12  C19 UNL     1     -11.990  -8.048  15.552  1.00  0.00     0.004 C 
HETATM   13  C20 UNL     1     -10.913  -8.848  14.801  1.00  0.00     0.041 C 
HETATM   14  C21 UNL     1     -10.603  -9.964  15.774  1.00  0.00     0.160 A 
HETATM   15  O4  UNL     1     -10.494  -9.560  17.140  1.00  0.00    -0.366 OA
HETATM   16  C22 UNL     1     -11.759 -10.131  16.735  1.00  0.00     0.125 A 
HETATM   17  C26 UNL     1     -14.640  -5.168  15.270  1.00  0.00    -0.032 C 
HETATM   18  C27 UNL     1     -15.679  -5.808  14.314  1.00  0.00     0.016 C 
HETATM   19  C28 UNL     1     -15.392  -4.391  16.395  1.00  0.00     0.044 C 
HETATM   20  C29 UNL     1     -16.036  -3.057  15.971  1.00  0.00     0.158 C 
ENDROOT
BRANCH   1  21
HETATM   21  N1  UNL     1     -15.667  -0.917  14.785  1.00  0.00    -0.347 N 
HETATM   22  C5  UNL     1     -15.186   0.314  15.154  1.00  0.00     0.247 C 
HETATM   23  O1  UNL     1     -14.325   0.464  16.013  1.00  0.00    -0.268 OA
HETATM   24  H8  UNL     1     -16.310  -1.002  14.011  1.00  0.00     0.163 HD
BRANCH  22  25
HETATM   25  C3  UNL     1     -15.789   1.471  14.417  1.00  0.00     0.002 C 
HETATM   26  C2  UNL     1     -16.677   1.156  13.453  1.00  0.00    -0.019 C 
HETATM   27  C1  UNL     1     -17.430   2.094  12.568  1.00  0.00     0.036 C 
HETATM   28  C4  UNL     1     -15.429   2.859  14.849  1.00  0.00     0.054 C 
ENDBRANCH  22  25
ENDBRANCH   1  21
BRANCH   2  29
HETATM   29  O2  UNL     1     -15.269  -3.117  13.007  1.00  0.00    -0.314 OA
BRANCH  29  30
HETATM   30  C8  UNL     1     -15.097  -2.462  11.830  1.00  0.00     0.255 C 
HETATM   31  C9  UNL     1     -16.400  -2.403  11.094  1.00  0.00     0.126 C 
HETATM   32  O3  UNL     1     -14.052  -1.987  11.414  1.00  0.00    -0.266 OA
ENDBRANCH  29  30
ENDBRANCH   2  29
BRANCH  20  33
HETATM   33  O5  UNL     1     -17.188  -3.270  15.127  1.00  0.00    -0.314 OA
BRANCH  33  34
HETATM   34  C30 UNL     1     -18.386  -2.855  15.621  1.00  0.00     0.255 C 
HETATM   35  C31 UNL     1     -18.253  -2.510  17.073  1.00  0.00     0.126 C 
HETATM   36  O6  UNL     1     -19.419  -2.738  14.980  1.00  0.00    -0.266 OA
ENDBRANCH  33  34
ENDBRANCH  20  33
BRANCH  16  37
HETATM   37  C23 UNL     1     -12.118 -11.448  17.398  1.00  0.00     0.253 C 
HETATM   38  C24 UNL     1     -11.582 -11.559  18.830  1.00  0.00     0.046 C 
BRANCH  37  39
HETATM   39  N2  UNL     1     -11.621 -12.540  16.544  1.00  0.00     0.086 N 
HETATM   40  C25 UNL     1     -12.657 -13.498  16.189  1.00  0.00     0.307 C 
HETATM   41  H36 UNL     1     -10.865 -13.024  17.026  1.00  0.00     0.316 HD
ENDBRANCH  37  39
ENDBRANCH  16  37
TORSDOF 8
ENDMDL
MODEL 2
REMARK minimizedAffinity -6.01193047
REMARK CNNscore 0.356220007
REMARK CNNaffinity 5.60827112
REMARK  8 active torsions:
REMARK  status: ('A' for Active; 'I' for Inactive)
REMARK    1  A    between atoms: C3_3  and  C5_5 
REMARK       I    between atoms: C5_5  and  N1_7 
REMARK    2  A    between atoms: N1_7  and  C6_8 
REMARK    3  A    between atoms: C7_9  and  O2_10 
REMARK    4  A    between atoms: O2_10  and  C8_11 
REMARK    5  A    between atoms: C22_27  and  C23_28 
REMARK    6  A    between atoms: C23_28  and  N2_30 
REMARK    7  A    between atoms: C29_35  and  O5_36 
REMARK    8  A    between atoms: O5_36  and  C30_37 
ROOT
HETATM    1  C6  UNL     1     -14.272  -2.688  12.933  1.00  0.00     0.144 C 
HETATM    2  C7  UNL     1     -14.427  -4.032  12.179  1.00  0.00     0.162 C 
HETATM    3  C10 UNL     1     -13.575  -5.119  12.869  1.00  0.00     0.026 C 
HETATM    4  C11 UNL     1     -13.580  -6.448  12.101  1.00  0.00     0.008 C 
HETATM    5  C12 UNL     1     -12.531  -7.410  12.660  1.00  0.00     0.006 C 
HETATM    6  C13 UNL     1     -12.692  -7.637  14.168  1.00  0.00    -0.005 C 
HETATM    7  C14 UNL     1     -12.735  -6.278  14.946  1.00  0.00    -0.001 C 
HETATM    8  C15 UNL     1     -12.737  -6.471  16.490  1.00  0.00     0.007 C 
HETATM    9  C16 UNL     1     -11.669  -7.459  17.006  1.00  0.00     0.013 C 
HETATM   10  C17 UNL     1     -11.728  -8.791  16.257  1.00  0.00    -0.004 C 
HETATM   11  C18 UNL     1     -13.061  -9.521  16.561  1.00  0.00     0.019 C 
HETATM   12  C19 UNL     1     -11.540  -8.461  14.740  1.00  0.00     0.004 C 
HETATM   13  C20 UNL     1     -11.142  -9.810  14.118  1.00  0.00     0.041 C 
HETATM   14  C21 UNL     1     -10.265 -10.413  15.192  1.00  0.00     0.160 A 
HETATM   15  O4  UNL     1      -9.342  -9.507  15.798  1.00  0.00    -0.366 OA
HETATM   16  C22 UNL     1     -10.569  -9.757  16.520  1.00  0.00     0.125 A 
HETATM   17  C26 UNL     1     -13.869  -5.322  14.395  1.00  0.00    -0.032 C 
HETATM   18  C27 UNL     1     -15.259  -5.947  14.677  1.00  0.00     0.016 C 
HETATM   19  C28 UNL     1     -13.780  -3.933  15.098  1.00  0.00     0.044 C 
HETATM   20  C29 UNL     1     -14.583  -2.795  14.439  1.00  0.00     0.158 C 
ENDROOT
BRANCH   1  21
HETATM   21  N1  UNL     1     -15.089  -1.646  12.307  1.00  0.00    -0.347 N 
HETATM   22  C5  UNL     1     -16.457  -1.656  12.404  1.00  0.00     0.247 C 
HETATM   23  O1  UNL     1     -17.088  -2.608  12.848  1.00  0.00    -0.268 OA
HETATM   24  H8  UNL     1     -14.604  -0.808  12.020  1.00  0.00     0.163 HD
BRANCH  22  25
HETATM   25  C3  UNL     1     -17.130  -0.402  11.933  1.00  0.00     0.002 C 
HETATM   26  C2  UNL     1     -18.360  -0.560  11.403  1.00  0.00    -0.019 C 
HETATM   27  C1  UNL     1     -19.259   0.502  10.860  1.00  0.00     0.036 C 
HETATM   28  C4  UNL     1     -16.437   0.907  12.150  1.00  0.00     0.054 C 
ENDBRANCH  22  25
ENDBRANCH   1  21
BRANCH   2  29
HETATM   29  O2  UNL     1     -15.821  -4.402  12.144  1.00  0.00    -0.314 OA
BRANCH  29  30
HETATM   30  C8  UNL     1     -16.321  -4.867  10.970  1.00  0.00     0.255 C 
HETATM   31  C9  UNL     1     -17.651  -5.512  11.211  1.00  0.00     0.126 C 
HETATM   32  O3  UNL     1     -15.786  -4.783   9.875  1.00  0.00    -0.266 OA
ENDBRANCH  29  30
ENDBRANCH   2  29
BRANCH  20  33
HETATM   33  O5  UNL     1     -16.005  -2.976  14.621  1.00  0.00    -0.314 OA
BRANCH  33  34
HETATM   34  C30 UNL     1     -16.483  -2.784  15.880  1.00  0.00     0.255 C 
HETATM   35  C31 UNL     1     -17.949  -3.090  15.927  1.00  0.00     0.126 C 
HETATM   36  O6  UNL     1     -15.822  -2.449  16.850  1.00  0.00    -0.266 OA
ENDBRANCH  33  34
ENDBRANCH  20  33
BRANCH  16  37
HETATM   37  C23 UNL     1     -10.403 -10.452  17.859  1.00  0.00     0.253 C 
HETATM   38  C24 UNL     1     -11.504 -11.483  18.134  1.00  0.00     0.046 C 
BRANCH  37  39
HETATM   39  N2  UNL     1     -10.350  -9.420  18.907  1.00  0.00     0.086 N 
HETATM   40  C25 UNL     1      -9.067  -9.370  19.590  1.00  0.00     0.307 C 
HETATM   41  H36 UNL     1     -11.088  -9.595  19.588  1.00  0.00     0.316 HD
ENDBRANCH  37  39
ENDBRANCH  16  37
TORSDOF 8
ENDMDL
MODEL 3
REMARK minimizedAffinity -7.08175564
REMARK CNNscore 0.346417516
REMARK CNNaffinity 6.67055511
REMARK  8 active torsions:
REMARK  status: ('A' for Active; 'I' for Inactive)
REMARK    1  A    between atoms: C3_3  and  C5_5 
REMARK       I    between atoms: C5_5  and  N1_7 
REMARK    2  A    between atoms: N1_7  and  C6_8 
REMARK    3  A    between atoms: C7_9  and  O2_10 
REMARK    4  A    between atoms: O2_10  and  C8_11 
REMARK    5  A    between atoms: C22_27  and  C23_28 
REMARK    6  A    between atoms: C23_28  and  N2_30 
REMARK    7  A    between atoms: C29_35  and  O5_36 
REMARK    8  A    between atoms: O5_36  and  C30_37 
ROOT
HETATM    1  C6  UNL     1       1.579   5.888  11.395  1.00  0.00     0.144 C 
HETATM    2  C7  UNL     1       0.620   7.028  10.976  1.00  0.00     0.162 C 
HETATM    3  C10 UNL     1       0.169   7.818  12.224  1.00  0.00     0.026 C 
HETATM    4  C11 UNL     1      -0.884   8.885  11.898  1.00  0.00     0.008 C 
HETATM    5  C12 UNL     1      -1.494   9.463  13.175  1.00  0.00     0.006 C 
HETATM    6  C13 UNL     1      -0.430  10.005  14.137  1.00  0.00    -0.005 C 
HETATM    7  C14 UNL     1       0.672   8.930  14.431  1.00  0.00    -0.001 C 
HETATM    8  C15 UNL     1       1.679   9.388  15.524  1.00  0.00     0.007 C 
HETATM    9  C16 UNL     1       1.017   9.974  16.790  1.00  0.00     0.013 C 
HETATM   10  C17 UNL     1       0.007  11.069  16.440  1.00  0.00    -0.004 C 
HETATM   11  C18 UNL     1       0.732  12.291  15.820  1.00  0.00     0.019 C 
HETATM   12  C19 UNL     1      -1.038  10.422  15.475  1.00  0.00     0.004 C 
HETATM   13  C20 UNL     1      -2.238  11.381  15.538  1.00  0.00     0.041 C 
HETATM   14  C21 UNL     1      -2.245  11.793  16.993  1.00  0.00     0.160 A 
HETATM   15  O4  UNL     1      -2.019  10.732  17.922  1.00  0.00    -0.366 OA
HETATM   16  C22 UNL     1      -0.877  11.555  17.591  1.00  0.00     0.125 A 
HETATM   17  C26 UNL     1       1.336   8.392  13.100  1.00  0.00    -0.032 C 
HETATM   18  C27 UNL     1       2.120   9.536  12.409  1.00  0.00     0.016 C 
HETATM   19  C28 UNL     1       2.317   7.226  13.431  1.00  0.00     0.044 C 
HETATM   20  C29 UNL     1       2.779   6.377  12.230  1.00  0.00     0.158 C 
ENDROOT
BRANCH   1  21
HETATM   21  N1  UNL     1       2.035   5.137  10.223  1.00  0.00    -0.347 N 
HETATM   22  C5  UNL     1       3.100   5.563   9.471  1.00  0.00     0.247 C 
HETATM   23  O1  UNL     1       3.614   6.667   9.609  1.00  0.00    -0.268 OA
HETATM   24  H8  UNL     1       1.700   4.188  10.140  1.00  0.00     0.163 HD
BRANCH  22  25
HETATM   25  C3  UNL     1       3.599   4.569   8.466  1.00  0.00     0.002 C 
HETATM   26  C2  UNL     1       3.190   4.762   7.197  1.00  0.00    -0.019 C 
HETATM   27  C1  UNL     1       3.530   3.940   5.997  1.00  0.00     0.036 C 
HETATM   28  C4  UNL     1       4.553   3.509   8.923  1.00  0.00     0.054 C 
ENDBRANCH  22  25
ENDBRANCH   1  21
BRANCH   2  29
HETATM   29  O2  UNL     1       1.284   7.885  10.024  1.00  0.00    -0.314 OA
BRANCH  29  30
HETATM   30  C8  UNL     1       0.567   8.309   8.950  1.00  0.00     0.255 C 
HETATM   31  C9  UNL     1       1.202   7.802   7.692  1.00  0.00     0.126 C 
HETATM   32  O3  UNL     1      -0.441   8.996   8.982  1.00  0.00    -0.266 OA
ENDBRANCH  29  30
ENDBRANCH   2  29
BRANCH  20  33
HETATM   33  O5  UNL     1       3.685   7.113  11.379  1.00  0.00    -0.314 OA
BRANCH  33  34
HETATM   34  C30 UNL     1       4.944   7.303  11.857  1.00  0.00     0.255 C 
HETATM   35  C31 UNL     1       5.326   8.748  11.744  1.00  0.00     0.126 C 
HETATM   36  O6  UNL     1       5.658   6.442  12.347  1.00  0.00    -0.266 OA
ENDBRANCH  33  34
ENDBRANCH  20  33
BRANCH  16  37
HETATM   37  C23 UNL     1      -0.309  12.367  18.740  1.00  0.00     0.253 C 
HETATM   38  C24 UNL     1       0.213  11.493  19.886  1.00  0.00     0.046 C 
BRANCH  37  39
HETATM   39  N2  UNL     1      -1.350  13.301  19.200  1.00  0.00     0.086 N 
HETATM   40  C25 UNL     1      -0.886  14.678  19.272  1.00  0.00     0.307 C 
HETATM   41  H36 UNL     1      -1.682  13.008  20.119  1.00  0.00     0.316 HD
ENDBRANCH  37  39
ENDBRANCH  16  37
TORSDOF 8
ENDMDL
MODEL 4
REMARK minimizedAffinity -5.41340685
REMARK CNNscore 0.281640053
REMARK CNNaffinity 5.68534279
REMARK  8 active torsions:
REMARK  status: ('A' for Active; 'I' for Inactive)
REMARK    1  A    between atoms: C3_3  and  C5_5 
REMARK       I    between atoms: C5_5  and  N1_7 
REMARK    2  A    between atoms: N1_7  and  C6_8 
REMARK    3  A    between atoms: C7_9  and  O2_10 
REMARK    4  A    between atoms: O2_10  and  C8_11 
REMARK    5  A    between atoms: C22_27  and  C23_28 
REMARK    6  A    between atoms: C23_28  and  N2_30 
REMARK    7  A    between atoms: C29_35  and  O5_36 
REMARK    8  A    between atoms: O5_36  and  C30_37 
ROOT
HETATM    1  C6  UNL     1     -15.279  -0.723  13.697  1.00  0.00     0.144 C 
HETATM    2  C7  UNL     1     -16.009  -1.265  12.443  1.00  0.00     0.162 C 
HETATM    3  C10 UNL     1     -15.329  -2.566  11.964  1.00  0.00     0.026 C 
HETATM    4  C11 UNL     1     -15.921  -3.091  10.649  1.00  0.00     0.008 C 
HETATM    5  C12 UNL     1     -15.065  -4.218  10.072  1.00  0.00     0.006 C 
HETATM    6  C13 UNL     1     -14.841  -5.355  11.077  1.00  0.00    -0.005 C 
HETATM    7  C14 UNL     1     -14.283  -4.812  12.436  1.00  0.00    -0.001 C 
HETATM    8  C15 UNL     1     -13.895  -5.951  13.422  1.00  0.00     0.007 C 
HETATM    9  C16 UNL     1     -13.039  -7.071  12.792  1.00  0.00     0.013 C 
HETATM   10  C17 UNL     1     -13.676  -7.609  11.509  1.00  0.00    -0.004 C 
HETATM   11  C18 UNL     1     -15.014  -8.324  11.832  1.00  0.00     0.019 C 
HETATM   12  C19 UNL     1     -13.849  -6.388  10.548  1.00  0.00     0.004 C 
HETATM   13  C20 UNL     1     -14.034  -7.034   9.165  1.00  0.00     0.041 C 
HETATM   14  C21 UNL     1     -13.088  -8.213   9.230  1.00  0.00     0.160 A 
HETATM   15  O4  UNL     1     -11.818  -7.935   9.820  1.00  0.00    -0.366 OA
HETATM   16  C22 UNL     1     -12.805  -8.553  10.676  1.00  0.00     0.125 A 
HETATM   17  C26 UNL     1     -15.217  -3.692  13.049  1.00  0.00    -0.032 C 
HETATM   18  C27 UNL     1     -16.583  -4.310  13.439  1.00  0.00     0.016 C 
HETATM   19  C28 UNL     1     -14.550  -3.082  14.319  1.00  0.00     0.044 C 
HETATM   20  C29 UNL     1     -15.162  -1.763  14.829  1.00  0.00     0.158 C 
ENDROOT
BRANCH   1  21
HETATM   21  N1  UNL     1     -15.920   0.501  14.181  1.00  0.00    -0.347 N 
HETATM   22  C5  UNL     1     -15.286   1.339  15.063  1.00  0.00     0.247 C 
HETATM   23  O1  UNL     1     -14.247   1.038  15.639  1.00  0.00    -0.268 OA
HETATM   24  H8  UNL     1     -16.724   0.823  13.661  1.00  0.00     0.163 HD
BRANCH  22  25
HETATM   25  C3  UNL     1     -15.958   2.663  15.268  1.00  0.00     0.002 C 
HETATM   26  C2  UNL     1     -15.337   3.727  14.721  1.00  0.00    -0.019 C 
HETATM   27  C1  UNL     1     -15.775   5.155  14.761  1.00  0.00     0.036 C 
HETATM   28  C4  UNL     1     -17.275   2.693  15.980  1.00  0.00     0.054 C 
ENDBRANCH  22  25
ENDBRANCH   1  21
BRANCH   2  29
HETATM   29  O2  UNL     1     -17.400  -1.485  12.757  1.00  0.00    -0.314 OA
BRANCH  29  30
HETATM   30  C8  UNL     1     -18.326  -0.963  11.912  1.00  0.00     0.255 C 
HETATM   31  C9  UNL     1     -19.693  -1.417  12.325  1.00  0.00     0.126 C 
HETATM   32  O3  UNL     1     -18.103  -0.235  10.958  1.00  0.00    -0.266 OA
ENDBRANCH  29  30
ENDBRANCH   2  29
BRANCH  20  33
HETATM   33  O5  UNL     1     -16.463  -1.976  15.418  1.00  0.00    -0.314 OA
BRANCH  33  34
HETATM   34  C30 UNL     1     -16.500  -2.118  16.771  1.00  0.00     0.255 C 
HETATM   35  C31 UNL     1     -17.081  -0.889  17.402  1.00  0.00     0.126 C 
HETATM   36  O6  UNL     1     -16.151  -3.109  17.393  1.00  0.00    -0.266 OA
ENDBRANCH  33  34
ENDBRANCH  20  33
BRANCH  16  37
HETATM   37  C23 UNL     1     -12.460  -9.949  11.159  1.00  0.00     0.253 C 
HETATM   38  C24 UNL     1     -13.553 -10.559  12.045  1.00  0.00     0.046 C 
BRANCH  37  39
HETATM   39  N2  UNL     1     -11.166  -9.886  11.857  1.00  0.00     0.086 N 
HETATM   40  C25 UNL     1     -11.229 -10.403  13.216  1.00  0.00     0.307 C 
HETATM   41  H36 UNL     1     -10.844  -8.919  11.879  1.00  0.00     0.316 HD
ENDBRANCH  37  39
ENDBRANCH  16  37
TORSDOF 8
ENDMDL
MODEL 5
REMARK minimizedAffinity -5.86752748
REMARK CNNscore 0.273626417
REMARK CNNaffinity 5.68259764
REMARK  8 active torsions:
REMARK  status: ('A' for Active; 'I' for Inactive)
REMARK    1  A    between atoms: C3_3  and  C5_5 
REMARK       I    between atoms: C5_5  and  N1_7 
REMARK    2  A    between atoms: N1_7  and  C6_8 
REMARK    3  A    between atoms: C7_9  and  O2_10 
REMARK    4  A    between atoms: O2_10  and  C8_11 
REMARK    5  A    between atoms: C22_27  and  C23_28 
REMARK    6  A    between atoms: C23_28  and  N2_30 
REMARK    7  A    between atoms: C29_35  and  O5_36 
REMARK    8  A    between atoms: O5_36  and  C30_37 
ROOT
HETATM    1  C6  UNL     1     -15.267  -0.838  14.411  1.00  0.00     0.144 C 
HETATM    2  C7  UNL     1     -15.614  -1.735  13.197  1.00  0.00     0.162 C 
HETATM    3  C10 UNL     1     -14.746  -3.012  13.225  1.00  0.00     0.026 C 
HETATM    4  C11 UNL     1     -14.947  -3.889  11.981  1.00  0.00     0.008 C 
HETATM    5  C12 UNL     1     -13.895  -4.996  11.915  1.00  0.00     0.006 C 
HETATM    6  C13 UNL     1     -13.856  -5.842  13.194  1.00  0.00    -0.005 C 
HETATM    7  C14 UNL     1     -13.701  -4.942  14.467  1.00  0.00    -0.001 C 
HETATM    8  C15 UNL     1     -13.498  -5.773  15.767  1.00  0.00     0.007 C 
HETATM    9  C16 UNL     1     -12.434  -6.886  15.648  1.00  0.00     0.013 C 
HETATM   10  C17 UNL     1     -12.686  -7.774  14.428  1.00  0.00    -0.004 C 
HETATM   11  C18 UNL     1     -14.008  -8.564  14.600  1.00  0.00     0.019 C 
HETATM   12  C19 UNL     1     -12.692  -6.831  13.181  1.00  0.00     0.004 C 
HETATM   13  C20 UNL     1     -12.475  -7.787  11.997  1.00  0.00     0.041 C 
HETATM   14  C21 UNL     1     -11.497  -8.790  12.568  1.00  0.00     0.160 A 
HETATM   15  O4  UNL     1     -10.441  -8.227  13.346  1.00  0.00    -0.366 OA
HETATM   16  C22 UNL     1     -11.568  -8.760  14.078  1.00  0.00     0.125 A 
HETATM   17  C26 UNL     1     -14.835  -3.844  14.551  1.00  0.00    -0.032 C 
HETATM   18  C27 UNL     1     -16.210  -4.529  14.757  1.00  0.00     0.016 C 
HETATM   19  C28 UNL     1     -14.558  -2.884  15.749  1.00  0.00     0.044 C 
HETATM   20  C29 UNL     1     -15.369  -1.575  15.761  1.00  0.00     0.158 C 
ENDROOT
BRANCH   1  21
HETATM   21  N1  UNL     1     -16.093   0.371  14.415  1.00  0.00    -0.347 N 
HETATM   22  C5  UNL     1     -15.538   1.615  14.571  1.00  0.00     0.247 C 
HETATM   23  O1  UNL     1     -14.368   1.788  14.897  1.00  0.00    -0.268 OA
HETATM   24  H8  UNL     1     -17.033   0.273  14.059  1.00  0.00     0.163 HD
BRANCH  22  25
HETATM   25  C3  UNL     1     -16.470   2.759  14.305  1.00  0.00     0.002 C 
HETATM   26  C2  UNL     1     -17.185   2.679  13.166  1.00  0.00    -0.019 C 
HETATM   27  C1  UNL     1     -18.185   3.662  12.649  1.00  0.00     0.036 C 
HETATM   28  C4  UNL     1     -16.590   3.838  15.336  1.00  0.00     0.054 C 
ENDBRANCH  22  25
ENDBRANCH   1  21
BRANCH   2  29
HETATM   29  O2  UNL     1     -17.021  -2.056  13.227  1.00  0.00    -0.314 OA
BRANCH  29  30
HETATM   30  C8  UNL     1     -17.870  -1.223  12.572  1.00  0.00     0.255 C 
HETATM   31  C9  UNL     1     -17.611  -1.299  11.099  1.00  0.00     0.126 C 
HETATM   32  O3  UNL     1     -18.721  -0.512  13.084  1.00  0.00    -0.266 OA
ENDBRANCH  29  30
ENDBRANCH   2  29
BRANCH  20  33
HETATM   33  O5  UNL     1     -16.760  -1.817  16.069  1.00  0.00    -0.314 OA
BRANCH  33  34
HETATM   34  C30 UNL     1     -17.087  -1.871  17.388  1.00  0.00     0.255 C 
HETATM   35  C31 UNL     1     -18.255  -2.787  17.592  1.00  0.00     0.126 C 
HETATM   36  O6  UNL     1     -16.502  -1.295  18.292  1.00  0.00    -0.266 OA
ENDBRANCH  33  34
ENDBRANCH  20  33
BRANCH  16  37
HETATM   37  C23 UNL     1     -11.261  -9.957  14.958  1.00  0.00     0.253 C 
HETATM   38  C24 UNL     1      -9.878  -9.875  15.614  1.00  0.00     0.046 C 
BRANCH  37  39
HETATM   39  N2  UNL     1     -11.404 -11.174  14.142  1.00  0.00     0.086 N 
HETATM   40  C25 UNL     1     -10.207 -12.001  14.141  1.00  0.00     0.307 C 
HETATM   41  H36 UNL     1     -11.632 -10.910  13.183  1.00  0.00     0.316 HD
ENDBRANCH  37  39
ENDBRANCH  16  37
TORSDOF 8
ENDMDL
MODEL 6
REMARK minimizedAffinity -6.20571518
REMARK CNNscore 0.271739364
REMARK CNNaffinity 5.77534103
REMARK  8 active torsions:
REMARK  status: ('A' for Active; 'I' for Inactive)
REMARK    1  A    between atoms: C3_3  and  C5_5 
REMARK       I    between atoms: C5_5  and  N1_7 
REMARK    2  A    between atoms: N1_7  and  C6_8 
REMARK    3  A    between atoms: C7_9  and  O2_10 
REMARK    4  A    between atoms: O2_10  and  C8_11 
REMARK    5  A    between atoms: C22_27  and  C23_28 
REMARK    6  A    between atoms: C23_28  and  N2_30 
REMARK    7  A    between atoms: C29_35  and  O5_36 
REMARK    8  A    between atoms: O5_36  and  C30_37 
ROOT
HETATM    1  C6  UNL     1     -15.234  -0.652  14.061  1.00  0.00     0.144 C 
HETATM    2  C7  UNL     1     -15.646  -1.650  12.951  1.00  0.00     0.162 C 
HETATM    3  C10 UNL     1     -14.759  -2.911  13.027  1.00  0.00     0.026 C 
HETATM    4  C11 UNL     1     -15.027  -3.890  11.875  1.00  0.00     0.008 C 
HETATM    5  C12 UNL     1     -13.965  -4.989  11.830  1.00  0.00     0.006 C 
HETATM    6  C13 UNL     1     -13.830  -5.726  13.169  1.00  0.00    -0.005 C 
HETATM    7  C14 UNL     1     -13.606  -4.722  14.351  1.00  0.00    -0.001 C 
HETATM    8  C15 UNL     1     -13.306  -5.440  15.698  1.00  0.00     0.007 C 
HETATM    9  C16 UNL     1     -12.236  -6.548  15.601  1.00  0.00     0.013 C 
HETATM   10  C17 UNL     1     -12.552  -7.537  14.477  1.00  0.00    -0.004 C 
HETATM   11  C18 UNL     1     -13.849  -8.323  14.801  1.00  0.00     0.019 C 
HETATM   12  C19 UNL     1     -12.655  -6.701  13.160  1.00  0.00     0.004 C 
HETATM   13  C20 UNL     1     -12.500  -7.750  12.047  1.00  0.00     0.041 C 
HETATM   14  C21 UNL     1     -11.472  -8.692  12.632  1.00  0.00     0.160 A 
HETATM   15  O4  UNL     1     -10.376  -8.056  13.290  1.00  0.00    -0.366 OA
HETATM   16  C22 UNL     1     -11.445  -8.538  14.136  1.00  0.00     0.125 A 
HETATM   17  C26 UNL     1     -14.749  -3.631  14.419  1.00  0.00    -0.032 C 
HETATM   18  C27 UNL     1     -16.097  -4.310  14.771  1.00  0.00     0.016 C 
HETATM   19  C28 UNL     1     -14.408  -2.573  15.513  1.00  0.00     0.044 C 
HETATM   20  C29 UNL     1     -15.237  -1.275  15.472  1.00  0.00     0.158 C 
ENDROOT
BRANCH   1  21
HETATM   21  N1  UNL     1     -16.076   0.545  14.021  1.00  0.00    -0.347 N 
HETATM   22  C5  UNL     1     -15.580   1.780  14.356  1.00  0.00     0.247 C 
HETATM   23  O1  UNL     1     -14.482   1.939  14.877  1.00  0.00    -0.268 OA
HETATM   24  H8  UNL     1     -16.945   0.466  13.512  1.00  0.00     0.163 HD
BRANCH  22  25
HETATM   25  C3  UNL     1     -16.482   2.931  14.027  1.00  0.00     0.002 C 
HETATM   26  C2  UNL     1     -17.403   2.701  13.070  1.00  0.00    -0.019 C 
HETATM   27  C1  UNL     1     -18.427   3.653  12.545  1.00  0.00     0.036 C 
HETATM   28  C4  UNL     1     -16.348   4.193  14.821  1.00  0.00     0.054 C 
ENDBRANCH  22  25
ENDBRANCH   1  21
BRANCH   2  29
HETATM   29  O2  UNL     1     -17.042  -1.980  13.101  1.00  0.00    -0.314 OA
BRANCH  29  30
HETATM   30  C8  UNL     1     -17.800  -2.036  11.975  1.00  0.00     0.255 C 
HETATM   31  C9  UNL     1     -17.817  -0.691  11.315  1.00  0.00     0.126 C 
HETATM   32  O3  UNL     1     -18.387  -3.018  11.548  1.00  0.00    -0.266 OA
ENDBRANCH  29  30
ENDBRANCH   2  29
BRANCH  20  33
HETATM   33  O5  UNL     1     -16.601  -1.504  15.890  1.00  0.00    -0.314 OA
BRANCH  33  34
HETATM   34  C30 UNL     1     -16.952  -1.008  17.107  1.00  0.00     0.255 C 
HETATM   35  C31 UNL     1     -18.148  -0.116  16.974  1.00  0.00     0.126 C 
HETATM   36  O6  UNL     1     -16.409  -1.273  18.168  1.00  0.00    -0.266 OA
ENDBRANCH  33  34
ENDBRANCH  20  33
BRANCH  16  37
HETATM   37  C23 UNL     1     -11.063  -9.655  15.089  1.00  0.00     0.253 C 
HETATM   38  C24 UNL     1     -11.996 -10.868  14.989  1.00  0.00     0.046 C 
BRANCH  37  39
HETATM   39  N2  UNL     1     -11.034  -9.103  16.454  1.00  0.00     0.086 N 
HETATM   40  C25 UNL     1      -9.907  -9.586  17.237  1.00  0.00     0.307 C 
HETATM   41  H36 UNL     1     -11.903  -9.341  16.931  1.00  0.00     0.316 HD
ENDBRANCH  37  39
ENDBRANCH  16  37
TORSDOF 8
ENDMDL
MODEL 7
REMARK minimizedAffinity -7.3476305
REMARK CNNscore 0.263954431
REMARK CNNaffinity 6.550529
REMARK  8 active torsions:
REMARK  status: ('A' for Active; 'I' for Inactive)
REMARK    1  A    between atoms: C3_3  and  C5_5 
REMARK       I    between atoms: C5_5  and  N1_7 
REMARK    2  A    between atoms: N1_7  and  C6_8 
REMARK    3  A    between atoms: C7_9  and  O2_10 
REMARK    4  A    between atoms: O2_10  and  C8_11 
REMARK    5  A    between atoms: C22_27  and  C23_28 
REMARK    6  A    between atoms: C23_28  and  N2_30 
REMARK    7  A    between atoms: C29_35  and  O5_36 
REMARK    8  A    between atoms: O5_36  and  C30_37 
ROOT
HETATM    1  C6  UNL     1      -2.645   6.823  14.966  1.00  0.00     0.144 C 
HETATM    2  C7  UNL     1      -3.257   8.085  15.622  1.00  0.00     0.162 C 
HETATM    3  C10 UNL     1      -2.205   8.770  16.520  1.00  0.00     0.026 C 
HETATM    4  C11 UNL     1      -2.781   9.958  17.303  1.00  0.00     0.008 C 
HETATM    5  C12 UNL     1      -1.796  10.445  18.366  1.00  0.00     0.006 C 
HETATM    6  C13 UNL     1      -0.419  10.778  17.778  1.00  0.00    -0.005 C 
HETATM    7  C14 UNL     1       0.146   9.582  16.939  1.00  0.00    -0.001 C 
HETATM    8  C15 UNL     1       1.607   9.823  16.461  1.00  0.00     0.007 C 
HETATM    9  C16 UNL     1       2.561  10.324  17.567  1.00  0.00     0.013 C 
HETATM   10  C17 UNL     1       1.984  11.538  18.298  1.00  0.00    -0.004 C 
HETATM   11  C18 UNL     1       1.889  12.750  17.337  1.00  0.00     0.019 C 
HETATM   12  C19 UNL     1       0.598  11.098  18.872  1.00  0.00     0.004 C 
HETATM   13  C20 UNL     1       0.299  12.150  19.953  1.00  0.00     0.041 C 
HETATM   14  C21 UNL     1       1.667  12.398  20.549  1.00  0.00     0.160 A 
HETATM   15  O4  UNL     1       2.451  11.225  20.768  1.00  0.00    -0.366 OA
HETATM   16  C22 UNL     1       2.731  11.972  19.562  1.00  0.00     0.125 A 
HETATM   17  C26 UNL     1      -0.859   9.136  15.803  1.00  0.00    -0.032 C 
HETATM   18  C27 UNL     1      -1.006  10.273  14.761  1.00  0.00     0.016 C 
HETATM   19  C28 UNL     1      -0.322   7.856  15.091  1.00  0.00     0.044 C 
HETATM   20  C29 UNL     1      -1.335   7.107  14.205  1.00  0.00     0.158 C 
ENDROOT
BRANCH   1  21
HETATM   21  N1  UNL     1      -3.621   6.168  14.093  1.00  0.00    -0.347 N 
HETATM   22  C5  UNL     1      -3.360   4.951  13.516  1.00  0.00     0.247 C 
HETATM   23  O1  UNL     1      -2.252   4.427  13.536  1.00  0.00    -0.268 OA
HETATM   24  H8  UNL     1      -4.567   6.521  14.131  1.00  0.00     0.163 HD
BRANCH  22  25
HETATM   25  C3  UNL     1      -4.540   4.299  12.860  1.00  0.00     0.002 C 
HETATM   26  C2  UNL     1      -4.270   3.203  12.123  1.00  0.00    -0.019 C 
HETATM   27  C1  UNL     1      -5.240   2.355  11.366  1.00  0.00     0.036 C 
HETATM   28  C4  UNL     1      -5.904   4.854  13.129  1.00  0.00     0.054 C 
ENDBRANCH  22  25
ENDBRANCH   1  21
BRANCH   2  29
HETATM   29  O2  UNL     1      -3.728   8.978  14.591  1.00  0.00    -0.314 OA
BRANCH  29  30
HETATM   30  C8  UNL     1      -4.944   8.722  14.043  1.00  0.00     0.255 C 
HETATM   31  C9  UNL     1      -5.987   8.717  15.117  1.00  0.00     0.126 C 
HETATM   32  O3  UNL     1      -5.175   8.522  12.861  1.00  0.00    -0.266 OA
ENDBRANCH  29  30
ENDBRANCH   2  29
BRANCH  20  33
HETATM   33  O5  UNL     1      -1.633   7.846  13.000  1.00  0.00    -0.314 OA
BRANCH  33  34
HETATM   34  C30 UNL     1      -0.867   7.565  11.912  1.00  0.00     0.255 C 
HETATM   35  C31 UNL     1      -0.675   8.800  11.084  1.00  0.00     0.126 C 
HETATM   36  O6  UNL     1      -0.367   6.482  11.653  1.00  0.00    -0.266 OA
ENDBRANCH  33  34
ENDBRANCH  20  33
BRANCH  16  37
HETATM   37  C23 UNL     1       4.112  12.598  19.494  1.00  0.00     0.253 C 
HETATM   38  C24 UNL     1       5.221  11.643  19.950  1.00  0.00     0.046 C 
BRANCH  37  39
HETATM   39  N2  UNL     1       4.095  13.833  20.293  1.00  0.00     0.086 N 
HETATM   40  C25 UNL     1       5.291  14.001  21.104  1.00  0.00     0.307 C 
HETATM   41  H36 UNL     1       3.275  13.830  20.899  1.00  0.00     0.316 HD
ENDBRANCH  37  39
ENDBRANCH  16  37
TORSDOF 8
ENDMDL
MODEL 8
REMARK minimizedAffinity -8.42195034
REMARK CNNscore 0.248900294
REMARK CNNaffinity 7.30895185
REMARK  8 active torsions:
REMARK  status: ('A' for Active; 'I' for Inactive)
REMARK    1  A    between atoms: C3_3  and  C5_5 
REMARK       I    between atoms: C5_5  and  N1_7 
REMARK    2  A    between atoms: N1_7  and  C6_8 
REMARK    3  A    between atoms: C7_9  and  O2_10 
REMARK    4  A    between atoms: O2_10  and  C8_11 
REMARK    5  A    between atoms: C22_27  and  C23_28 
REMARK    6  A    between atoms: C23_28  and  N2_30 
REMARK    7  A    between atoms: C29_35  and  O5_36 
REMARK    8  A    between atoms: O5_36  and  C30_37 
ROOT
HETATM    1  C6  UNL     1       1.028   6.286  14.269  1.00  0.00     0.144 C 
HETATM    2  C7  UNL     1       0.389   5.891  12.916  1.00  0.00     0.162 C 
HETATM    3  C10 UNL     1      -1.099   5.533  13.124  1.00  0.00     0.026 C 
HETATM    4  C11 UNL     1      -1.765   5.008  11.844  1.00  0.00     0.008 C 
HETATM    5  C12 UNL     1      -3.145   4.424  12.143  1.00  0.00     0.006 C 
HETATM    6  C13 UNL     1      -4.054   5.417  12.878  1.00  0.00    -0.005 C 
HETATM    7  C14 UNL     1      -3.354   5.989  14.158  1.00  0.00    -0.001 C 
HETATM    8  C15 UNL     1      -4.303   6.877  15.013  1.00  0.00     0.007 C 
HETATM    9  C16 UNL     1      -5.688   6.249  15.280  1.00  0.00     0.013 C 
HETATM   10  C17 UNL     1      -6.350   5.779  13.983  1.00  0.00    -0.004 C 
HETATM   11  C18 UNL     1      -6.679   6.993  13.075  1.00  0.00     0.019 C 
HETATM   12  C19 UNL     1      -5.363   4.765  13.318  1.00  0.00     0.004 C 
HETATM   13  C20 UNL     1      -6.244   3.997  12.319  1.00  0.00     0.041 C 
HETATM   14  C21 UNL     1      -7.550   3.873  13.071  1.00  0.00     0.160 A 
HETATM   15  O4  UNL     1      -7.422   3.533  14.451  1.00  0.00    -0.366 OA
HETATM   16  C22 UNL     1      -7.615   4.933  14.147  1.00  0.00     0.125 A 
HETATM   17  C26 UNL     1      -1.956   6.647  13.818  1.00  0.00    -0.032 C 
HETATM   18  C27 UNL     1      -2.172   7.900  12.932  1.00  0.00     0.016 C 
HETATM   19  C28 UNL     1      -1.235   7.070  15.134  1.00  0.00     0.044 C 
HETATM   20  C29 UNL     1       0.262   7.408  14.999  1.00  0.00     0.158 C 
ENDROOT
BRANCH   1  21
HETATM   21  N1  UNL     1       2.435   6.649  14.092  1.00  0.00    -0.347 N 
HETATM   22  C5  UNL     1       2.802   7.767  13.387  1.00  0.00     0.247 C 
HETATM   23  O1  UNL     1       2.012   8.421  12.716  1.00  0.00    -0.268 OA
HETATM   24  H8  UNL     1       3.097   6.192  14.703  1.00  0.00     0.163 HD
BRANCH  22  25
HETATM   25  C3  UNL     1       4.249   8.139  13.505  1.00  0.00     0.002 C 
HETATM   26  C2  UNL     1       4.758   8.130  14.753  1.00  0.00    -0.019 C 
HETATM   27  C1  UNL     1       6.157   8.451  15.167  1.00  0.00     0.036 C 
HETATM   28  C4  UNL     1       5.021   8.411  12.251  1.00  0.00     0.054 C 
ENDBRANCH  22  25
ENDBRANCH   1  21
BRANCH   2  29
HETATM   29  O2  UNL     1       0.541   6.978  11.980  1.00  0.00    -0.314 OA
BRANCH  29  30
HETATM   30  C8  UNL     1       0.721   6.662  10.671  1.00  0.00     0.255 C 
HETATM   31  C9  UNL     1       0.159   7.752   9.811  1.00  0.00     0.126 C 
HETATM   32  O3  UNL     1       1.255   5.653  10.240  1.00  0.00    -0.266 OA
ENDBRANCH  29  30
ENDBRANCH   2  29
BRANCH  20  33
HETATM   33  O5  UNL     1       0.462   8.656  14.299  1.00  0.00    -0.314 OA
BRANCH  33  34
HETATM   34  C30 UNL     1       0.516   9.778  15.066  1.00  0.00     0.255 C 
HETATM   35  C31 UNL     1      -0.119   9.523  16.399  1.00  0.00     0.126 C 
HETATM   36  O6  UNL     1       1.037  10.835  14.746  1.00  0.00    -0.266 OA
ENDBRANCH  33  34
ENDBRANCH  20  33
BRANCH  16  37
HETATM   37  C23 UNL     1      -8.912   5.534  14.658  1.00  0.00     0.253 C 
HETATM   38  C24 UNL     1      -9.476   6.613  13.725  1.00  0.00     0.046 C 
BRANCH  37  39
HETATM   39  N2  UNL     1      -8.671   6.058  16.012  1.00  0.00     0.086 N 
HETATM   40  C25 UNL     1      -9.102   7.438  16.171  1.00  0.00     0.307 C 
HETATM   41  H36 UNL     1      -7.677   5.988  16.227  1.00  0.00     0.316 HD
ENDBRANCH  37  39
ENDBRANCH  16  37
TORSDOF 8
ENDMDL
MODEL 9
REMARK minimizedAffinity -5.40541363
REMARK CNNscore 0.220381081
REMARK CNNaffinity 5.64454508
REMARK  8 active torsions:
REMARK  status: ('A' for Active; 'I' for Inactive)
REMARK    1  A    between atoms: C3_3  and  C5_5 
REMARK       I    between atoms: C5_5  and  N1_7 
REMARK    2  A    between atoms: N1_7  and  C6_8 
REMARK    3  A    between atoms: C7_9  and  O2_10 
REMARK    4  A    between atoms: O2_10  and  C8_11 
REMARK    5  A    between atoms: C22_27  and  C23_28 
REMARK    6  A    between atoms: C23_28  and  N2_30 
REMARK    7  A    between atoms: C29_35  and  O5_36 
REMARK    8  A    between atoms: O5_36  and  C30_37 
ROOT
HETATM    1  C6  UNL     1       4.679  14.116  -0.973  1.00  0.00     0.144 C 
HETATM    2  C7  UNL     1       3.270  14.317  -0.362  1.00  0.00     0.162 C 
HETATM    3  C10 UNL     1       3.399  14.791   1.102  1.00  0.00     0.026 C 
HETATM    4  C11 UNL     1       2.041  14.889   1.812  1.00  0.00     0.008 C 
HETATM    5  C12 UNL     1       2.220  15.104   3.314  1.00  0.00     0.006 C 
HETATM    6  C13 UNL     1       3.103  16.317   3.630  1.00  0.00    -0.005 C 
HETATM    7  C14 UNL     1       4.470  16.240   2.867  1.00  0.00    -0.001 C 
HETATM    8  C15 UNL     1       5.454  17.371   3.284  1.00  0.00     0.007 C 
HETATM    9  C16 UNL     1       5.594  17.557   4.811  1.00  0.00     0.013 C 
HETATM   10  C17 UNL     1       4.229  17.700   5.486  1.00  0.00    -0.004 C 
HETATM   11  C18 UNL     1       3.538  19.012   5.030  1.00  0.00     0.019 C 
HETATM   12  C19 UNL     1       3.412  16.418   5.122  1.00  0.00     0.004 C 
HETATM   13  C20 UNL     1       2.287  16.391   6.170  1.00  0.00     0.041 C 
HETATM   14  C21 UNL     1       2.992  16.886   7.413  1.00  0.00     0.160 A 
HETATM   15  O4  UNL     1       4.296  16.344   7.624  1.00  0.00    -0.366 OA
HETATM   16  C22 UNL     1       4.233  17.654   7.016  1.00  0.00     0.125 A 
HETATM   17  C26 UNL     1       4.263  16.083   1.307  1.00  0.00    -0.032 C 
HETATM   18  C27 UNL     1       3.601  17.363   0.737  1.00  0.00     0.016 C 
HETATM   19  C28 UNL     1       5.640  15.865   0.608  1.00  0.00     0.044 C 
HETATM   20  C29 UNL     1       5.581  15.359  -0.847  1.00  0.00     0.158 C 
ENDROOT
BRANCH   1  21
HETATM   21  N1  UNL     1       4.581  13.685  -2.369  1.00  0.00    -0.347 N 
HETATM   22  C5  UNL     1       5.072  12.471  -2.778  1.00  0.00     0.247 C 
HETATM   23  O1  UNL     1       5.773  11.761  -2.067  1.00  0.00    -0.268 OA
HETATM   24  H8  UNL     1       3.934  14.196  -2.952  1.00  0.00     0.163 HD
BRANCH  22  25
HETATM   25  C3  UNL     1       4.677  12.068  -4.167  1.00  0.00     0.002 C 
HETATM   26  C2  UNL     1       5.514  11.215  -4.790  1.00  0.00    -0.019 C 
HETATM   27  C1  UNL     1       5.375  10.646  -6.165  1.00  0.00     0.036 C 
HETATM   28  C4  UNL     1       3.378  12.570  -4.715  1.00  0.00     0.054 C 
ENDBRANCH  22  25
ENDBRANCH   1  21
BRANCH   2  29
HETATM   29  O2  UNL     1       2.535  15.269  -1.159  1.00  0.00    -0.314 OA
BRANCH  29  30
HETATM   30  C8  UNL     1       1.426  14.826  -1.805  1.00  0.00     0.255 C 
HETATM   31  C9  UNL     1       1.390  15.399  -3.189  1.00  0.00     0.126 C 
HETATM   32  O3  UNL     1       0.576  14.078  -1.349  1.00  0.00    -0.266 OA
ENDBRANCH  29  30
ENDBRANCH   2  29
BRANCH  20  33
HETATM   33  O5  UNL     1       5.106  16.387  -1.745  1.00  0.00    -0.314 OA
BRANCH  33  34
HETATM   34  C30 UNL     1       5.856  16.612  -2.857  1.00  0.00     0.255 C 
HETATM   35  C31 UNL     1       7.060  17.433  -2.509  1.00  0.00     0.126 C 
HETATM   36  O6  UNL     1       5.619  16.183  -3.975  1.00  0.00    -0.266 OA
ENDBRANCH  33  34
ENDBRANCH  20  33
BRANCH  16  37
HETATM   37  C23 UNL     1       4.824  18.781   7.843  1.00  0.00     0.253 C 
HETATM   38  C24 UNL     1       6.220  18.452   8.386  1.00  0.00     0.046 C 
BRANCH  37  39
HETATM   39  N2  UNL     1       3.880  19.098   8.927  1.00  0.00     0.086 N 
HETATM   40  C25 UNL     1       4.454  18.914  10.251  1.00  0.00     0.307 C 
HETATM   41  H36 UNL     1       3.052  18.509   8.834  1.00  0.00     0.316 HD
ENDBRANCH  37  39
ENDBRANCH  16  37
TORSDOF 8
ENDMDL
