MODEL 1
REMARK minimizedAffinity -10.5821218
REMARK  10 active torsions:
REMARK  status: ('A' for Active; 'I' for Inactive)
REMARK    1  A    between atoms: C2_2  and  C3_3 
REMARK    2  A    between atoms: C2_2  and  C9_11 
REMARK    3  A    between atoms: C3_3  and  C4_4 
REMARK    4  A    between atoms: C4_4  and  C5_5 
REMARK    5  A    between atoms: C5_5  and  O1_6 
REMARK    6  A    between atoms: C5_5  and  C6_7 
REMARK    7  A    between atoms: C6_7  and  O2_10 
REMARK    8  A    between atoms: C12_14  and  C13_15 
REMARK    9  A    between atoms: C13_15  and  O4_17 
REMARK   10  A    between atoms: C21_25  and  O5_26 
ROOT
HETATM    1  C9  UNL     1       0.976   7.325  13.086  1.00  0.00    -0.001 C 
HETATM    2  C10 UNL     1       0.498   8.796  12.973  1.00  0.00     0.007 C 
HETATM    3  C11 UNL     1      -1.046   8.748  12.835  1.00  0.00     0.022 C 
HETATM    4  C12 UNL     1      -1.425   7.313  13.263  1.00  0.00     0.057 C 
HETATM    5  C14 UNL     1      -2.800   6.749  12.804  1.00  0.00     0.010 C 
HETATM    6  C15 UNL     1      -4.018   7.575  13.257  1.00  0.00     0.010 C 
HETATM    7  C16 UNL     1      -4.774   7.048  14.477  1.00  0.00     0.036 C 
HETATM    8  C17 UNL     1      -5.766   5.926  14.196  1.00  0.00    -0.067 C 
HETATM    9  C18 UNL     1      -5.509   4.903  13.341  1.00  0.00    -0.076 C 
HETATM   10  C19 UNL     1      -6.545   3.842  13.014  1.00  0.00     0.037 C 
HETATM   11  C20 UNL     1      -7.969   4.174  13.431  1.00  0.00     0.037 C 
HETATM   12  C21 UNL     1      -7.990   4.747  14.839  1.00  0.00     0.130 C 
HETATM   13  C22 UNL     1      -7.124   6.044  14.948  1.00  0.00     0.002 C 
HETATM   14  C23 UNL     1      -6.909   6.349  16.450  1.00  0.00     0.022 C 
HETATM   15  C24 UNL     1      -7.929   7.209  14.322  1.00  0.00     0.022 C 
HETATM   16  C25 UNL     1      -4.196   4.609  12.628  1.00  0.00     0.039 C 
HETATM   17  C26 UNL     1      -2.896   5.238  13.160  1.00  0.00    -0.005 C 
HETATM   18  C27 UNL     1      -1.683   4.427  12.631  1.00  0.00     0.006 C 
HETATM   19  C28 UNL     1      -0.305   5.030  12.957  1.00  0.00     0.011 C 
HETATM   20  C29 UNL     1      -0.244   6.514  12.565  1.00  0.00    -0.022 C 
HETATM   21  C30 UNL     1      -0.312   6.570  11.005  1.00  0.00     0.017 C 
ENDROOT
BRANCH   1  22
HETATM   22  C2  UNL     1       2.439   6.988  12.680  1.00  0.00    -0.014 C 
HETATM   23  C1  UNL     1       3.345   8.202  12.957  1.00  0.00     0.010 C 
BRANCH  22  24
HETATM   24  C3  UNL     1       2.782   6.385  11.301  1.00  0.00     0.007 C 
BRANCH  24  25
HETATM   25  C4  UNL     1       3.302   7.337  10.229  1.00  0.00     0.035 C 
BRANCH  25  26
HETATM   26  C5  UNL     1       3.064   6.885   8.779  1.00  0.00     0.151 C 
BRANCH  26  27
HETATM   27  O1  UNL     1       2.410   5.601   8.859  1.00  0.00    -0.393 OA
HETATM   28  H10 UNL     1       1.508   5.714   8.500  1.00  0.00     0.210 HD
ENDBRANCH  26  27
BRANCH  26  29
HETATM   29  C6  UNL     1       2.240   7.812   7.833  1.00  0.00     0.076 C 
HETATM   30  C7  UNL     1       0.994   8.388   8.509  1.00  0.00     0.048 C 
HETATM   31  C8  UNL     1       1.879   7.158   6.498  1.00  0.00     0.048 C 
BRANCH  29  32
HETATM   32  O2  UNL     1       3.079   8.941   7.502  1.00  0.00    -0.388 OA
HETATM   33  H17 UNL     1       3.548   9.203   8.317  1.00  0.00     0.210 HD
ENDBRANCH  29  32
ENDBRANCH  26  29
ENDBRANCH  25  26
ENDBRANCH  24  25
ENDBRANCH  22  24
ENDBRANCH   1  22
BRANCH   4  34
HETATM   34  C13 UNL     1      -1.393   7.267  14.820  1.00  0.00     0.149 C 
HETATM   35  O3  UNL     1      -1.728   8.140  15.602  1.00  0.00    -0.649 OA
BRANCH  34  36
HETATM   36  O4  UNL     1      -0.889   6.122  15.323  1.00  0.00    -0.776 OA
HETATM   37  H23 UNL     1      -0.921   6.264  16.293  1.00  0.00     0.167 HD
ENDBRANCH  34  36
ENDBRANCH   4  34
BRANCH  12  38
HETATM   38  O5  UNL     1      -7.550   3.745  15.761  1.00  0.00    -0.394 OA
HETATM   39  H34 UNL     1      -8.134   2.975  15.661  1.00  0.00     0.210 HD
ENDBRANCH  12  38
TORSDOF 10
ENDMDL
MODEL 2
REMARK minimizedAffinity -9.60982037
REMARK  10 active torsions:
REMARK  status: ('A' for Active; 'I' for Inactive)
REMARK    1  A    between atoms: C2_2  and  C3_3 
REMARK    2  A    between atoms: C2_2  and  C9_11 
REMARK    3  A    between atoms: C3_3  and  C4_4 
REMARK    4  A    between atoms: C4_4  and  C5_5 
REMARK    5  A    between atoms: C5_5  and  O1_6 
REMARK    6  A    between atoms: C5_5  and  C6_7 
REMARK    7  A    between atoms: C6_7  and  O2_10 
REMARK    8  A    between atoms: C12_14  and  C13_15 
REMARK    9  A    between atoms: C13_15  and  O4_17 
REMARK   10  A    between atoms: C21_25  and  O5_26 
ROOT
HETATM    1  C9  UNL     1       0.885   7.742  13.490  1.00  0.00    -0.001 C 
HETATM    2  C10 UNL     1       0.286   9.172  13.451  1.00  0.00     0.007 C 
HETATM    3  C11 UNL     1      -1.232   9.006  13.173  1.00  0.00     0.022 C 
HETATM    4  C12 UNL     1      -1.511   7.513  13.453  1.00  0.00     0.057 C 
HETATM    5  C14 UNL     1      -2.788   6.877  12.830  1.00  0.00     0.010 C 
HETATM    6  C15 UNL     1      -4.109   7.556  13.237  1.00  0.00     0.010 C 
HETATM    7  C16 UNL     1      -4.910   6.864  14.340  1.00  0.00     0.036 C 
HETATM    8  C17 UNL     1      -5.770   5.691  13.884  1.00  0.00    -0.067 C 
HETATM    9  C18 UNL     1      -5.351   4.771  12.979  1.00  0.00    -0.076 C 
HETATM   10  C19 UNL     1      -6.256   3.657  12.478  1.00  0.00     0.037 C 
HETATM   11  C20 UNL     1      -7.733   3.832  12.792  1.00  0.00     0.037 C 
HETATM   12  C21 UNL     1      -7.922   4.278  14.233  1.00  0.00     0.130 C 
HETATM   13  C22 UNL     1      -7.189   5.629  14.520  1.00  0.00     0.002 C 
HETATM   14  C23 UNL     1      -7.126   5.821  16.054  1.00  0.00     0.022 C 
HETATM   15  C24 UNL     1      -8.043   6.772  13.918  1.00  0.00     0.022 C 
HETATM   16  C25 UNL     1      -3.963   4.650  12.364  1.00  0.00     0.039 C 
HETATM   17  C26 UNL     1      -2.774   5.339  13.057  1.00  0.00    -0.005 C 
HETATM   18  C27 UNL     1      -1.452   4.680  12.576  1.00  0.00     0.006 C 
HETATM   19  C28 UNL     1      -0.167   5.368  13.069  1.00  0.00     0.011 C 
HETATM   20  C29 UNL     1      -0.210   6.879  12.801  1.00  0.00    -0.022 C 
HETATM   21  C30 UNL     1      -0.155   7.062  11.251  1.00  0.00     0.017 C 
ENDROOT
BRANCH   1  22
HETATM   22  C2  UNL     1       2.401   7.566  13.192  1.00  0.00    -0.014 C 
HETATM   23  C1  UNL     1       3.210   7.764  14.487  1.00  0.00     0.010 C 
BRANCH  22  24
HETATM   24  C3  UNL     1       3.092   8.307  12.027  1.00  0.00     0.007 C 
BRANCH  24  25
HETATM   25  C4  UNL     1       3.700   7.457  10.917  1.00  0.00     0.035 C 
BRANCH  25  26
HETATM   26  C5  UNL     1       4.943   6.645  11.318  1.00  0.00     0.151 C 
BRANCH  26  27
HETATM   27  O1  UNL     1       5.024   5.546  10.386  1.00  0.00    -0.393 OA
HETATM   28  H10 UNL     1       5.834   5.679   9.854  1.00  0.00     0.210 HD
ENDBRANCH  26  27
BRANCH  26  29
HETATM   29  C6  UNL     1       6.324   7.369  11.365  1.00  0.00     0.076 C 
HETATM   30  C7  UNL     1       6.932   7.390  12.768  1.00  0.00     0.048 C 
HETATM   31  C8  UNL     1       6.298   8.775  10.764  1.00  0.00     0.048 C 
BRANCH  29  32
HETATM   32  O2  UNL     1       7.235   6.607  10.540  1.00  0.00    -0.388 OA
HETATM   33  H17 UNL     1       7.061   5.662  10.713  1.00  0.00     0.210 HD
ENDBRANCH  29  32
ENDBRANCH  26  29
ENDBRANCH  25  26
ENDBRANCH  24  25
ENDBRANCH  22  24
ENDBRANCH   1  22
BRANCH   4  34
HETATM   34  C13 UNL     1      -1.603   7.337  14.997  1.00  0.00     0.149 C 
HETATM   35  O3  UNL     1      -1.944   8.162  15.826  1.00  0.00    -0.649 OA
BRANCH  34  36
HETATM   36  O4  UNL     1      -1.208   6.124  15.433  1.00  0.00    -0.776 OA
HETATM   37  H23 UNL     1      -1.306   6.186  16.408  1.00  0.00     0.167 HD
ENDBRANCH  34  36
ENDBRANCH   4  34
BRANCH  12  38
HETATM   38  O5  UNL     1      -7.469   3.241  15.109  1.00  0.00    -0.394 OA
HETATM   39  H34 UNL     1      -7.970   2.437  14.898  1.00  0.00     0.210 HD
ENDBRANCH  12  38
TORSDOF 10
ENDMDL
MODEL 3
REMARK minimizedAffinity -9.42248726
REMARK  10 active torsions:
REMARK  status: ('A' for Active; 'I' for Inactive)
REMARK    1  A    between atoms: C2_2  and  C3_3 
REMARK    2  A    between atoms: C2_2  and  C9_11 
REMARK    3  A    between atoms: C3_3  and  C4_4 
REMARK    4  A    between atoms: C4_4  and  C5_5 
REMARK    5  A    between atoms: C5_5  and  O1_6 
REMARK    6  A    between atoms: C5_5  and  C6_7 
REMARK    7  A    between atoms: C6_7  and  O2_10 
REMARK    8  A    between atoms: C12_14  and  C13_15 
REMARK    9  A    between atoms: C13_15  and  O4_17 
REMARK   10  A    between atoms: C21_25  and  O5_26 
ROOT
HETATM    1  C9  UNL     1       0.490   8.170  13.815  1.00  0.00    -0.001 C 
HETATM    2  C10 UNL     1      -0.221   9.539  13.658  1.00  0.00     0.007 C 
HETATM    3  C11 UNL     1      -1.690   9.231  13.267  1.00  0.00     0.022 C 
HETATM    4  C12 UNL     1      -1.867   7.732  13.594  1.00  0.00     0.057 C 
HETATM    5  C14 UNL     1      -3.029   6.962  12.902  1.00  0.00     0.010 C 
HETATM    6  C15 UNL     1      -4.432   7.539  13.167  1.00  0.00     0.010 C 
HETATM    7  C16 UNL     1      -5.263   6.827  14.233  1.00  0.00     0.036 C 
HETATM    8  C17 UNL     1      -5.980   5.566  13.767  1.00  0.00    -0.067 C 
HETATM    9  C18 UNL     1      -5.412   4.648  12.944  1.00  0.00    -0.076 C 
HETATM   10  C19 UNL     1      -6.174   3.441  12.426  1.00  0.00     0.037 C 
HETATM   11  C20 UNL     1      -7.682   3.499  12.611  1.00  0.00     0.037 C 
HETATM   12  C21 UNL     1      -8.029   3.986  14.008  1.00  0.00     0.130 C 
HETATM   13  C22 UNL     1      -7.438   5.407  14.288  1.00  0.00     0.002 C 
HETATM   14  C23 UNL     1      -7.523   5.667  15.811  1.00  0.00     0.022 C 
HETATM   15  C24 UNL     1      -8.331   6.445  13.564  1.00  0.00     0.022 C 
HETATM   16  C25 UNL     1      -3.971   4.624  12.451  1.00  0.00     0.039 C 
HETATM   17  C26 UNL     1      -2.907   5.441  13.204  1.00  0.00    -0.005 C 
HETATM   18  C27 UNL     1      -1.498   4.881  12.864  1.00  0.00     0.006 C 
HETATM   19  C28 UNL     1      -0.321   5.698  13.425  1.00  0.00     0.011 C 
HETATM   20  C29 UNL     1      -0.467   7.187  13.082  1.00  0.00    -0.022 C 
HETATM   21  C30 UNL     1      -0.296   7.311  11.535  1.00  0.00     0.017 C 
ENDROOT
BRANCH   1  22
HETATM   22  C2  UNL     1       2.034   8.114  13.649  1.00  0.00    -0.014 C 
HETATM   23  C1  UNL     1       2.406   7.014  12.638  1.00  0.00     0.010 C 
BRANCH  22  24
HETATM   24  C3  UNL     1       2.982   8.044  14.866  1.00  0.00     0.007 C 
BRANCH  24  25
HETATM   25  C4  UNL     1       4.315   8.777  14.760  1.00  0.00     0.035 C 
BRANCH  25  26
HETATM   26  C5  UNL     1       5.551   7.949  15.145  1.00  0.00     0.151 C 
BRANCH  26  27
HETATM   27  O1  UNL     1       5.055   6.770  15.813  1.00  0.00    -0.393 OA
HETATM   28  H10 UNL     1       5.272   6.004  15.246  1.00  0.00     0.210 HD
ENDBRANCH  26  27
BRANCH  26  29
HETATM   29  C6  UNL     1       6.537   7.511  14.018  1.00  0.00     0.076 C 
HETATM   30  C7  UNL     1       7.995   7.833  14.350  1.00  0.00     0.048 C 
HETATM   31  C8  UNL     1       6.164   8.051  12.636  1.00  0.00     0.048 C 
BRANCH  29  32
HETATM   32  O2  UNL     1       6.454   6.072  13.912  1.00  0.00    -0.388 OA
HETATM   33  H17 UNL     1       6.406   5.716  14.820  1.00  0.00     0.210 HD
ENDBRANCH  29  32
ENDBRANCH  26  29
ENDBRANCH  25  26
ENDBRANCH  24  25
ENDBRANCH  22  24
ENDBRANCH   1  22
BRANCH   4  34
HETATM   34  C13 UNL     1      -2.075   7.613  15.133  1.00  0.00     0.149 C 
HETATM   35  O3  UNL     1      -2.590   8.422  15.885  1.00  0.00    -0.649 OA
BRANCH  34  36
HETATM   36  O4  UNL     1      -1.571   6.481  15.666  1.00  0.00    -0.776 OA
HETATM   37  H23 UNL     1      -1.764   6.573  16.624  1.00  0.00     0.167 HD
ENDBRANCH  34  36
ENDBRANCH   4  34
BRANCH  12  38
HETATM   38  O5  UNL     1      -7.567   3.030  14.967  1.00  0.00    -0.394 OA
HETATM   39  H34 UNL     1      -7.980   2.177  14.755  1.00  0.00     0.210 HD
ENDBRANCH  12  38
TORSDOF 10
ENDMDL
MODEL 4
REMARK minimizedAffinity -9.35593033
REMARK  10 active torsions:
REMARK  status: ('A' for Active; 'I' for Inactive)
REMARK    1  A    between atoms: C2_2  and  C3_3 
REMARK    2  A    between atoms: C2_2  and  C9_11 
REMARK    3  A    between atoms: C3_3  and  C4_4 
REMARK    4  A    between atoms: C4_4  and  C5_5 
REMARK    5  A    between atoms: C5_5  and  O1_6 
REMARK    6  A    between atoms: C5_5  and  C6_7 
REMARK    7  A    between atoms: C6_7  and  O2_10 
REMARK    8  A    between atoms: C12_14  and  C13_15 
REMARK    9  A    between atoms: C13_15  and  O4_17 
REMARK   10  A    between atoms: C21_25  and  O5_26 
ROOT
HETATM    1  C9  UNL     1       0.865   6.966  12.333  1.00  0.00    -0.001 C 
HETATM    2  C10 UNL     1       1.129   5.780  13.296  1.00  0.00     0.007 C 
HETATM    3  C11 UNL     1      -0.202   5.521  14.051  1.00  0.00     0.022 C 
HETATM    4  C12 UNL     1      -1.263   6.286  13.229  1.00  0.00     0.057 C 
HETATM    5  C14 UNL     1      -2.604   6.655  13.926  1.00  0.00     0.010 C 
HETATM    6  C15 UNL     1      -3.396   5.454  14.477  1.00  0.00     0.010 C 
HETATM    7  C16 UNL     1      -4.558   4.961  13.615  1.00  0.00     0.036 C 
HETATM    8  C17 UNL     1      -5.854   5.750  13.754  1.00  0.00    -0.067 C 
HETATM    9  C18 UNL     1      -5.894   7.104  13.842  1.00  0.00    -0.076 C 
HETATM   10  C19 UNL     1      -7.191   7.864  14.063  1.00  0.00     0.037 C 
HETATM   11  C20 UNL     1      -8.372   7.015  14.506  1.00  0.00     0.037 C 
HETATM   12  C21 UNL     1      -8.451   5.741  13.681  1.00  0.00     0.130 C 
HETATM   13  C22 UNL     1      -7.148   4.887  13.810  1.00  0.00     0.002 C 
HETATM   14  C23 UNL     1      -7.162   3.823  12.687  1.00  0.00     0.022 C 
HETATM   15  C24 UNL     1      -7.189   4.158  15.176  1.00  0.00     0.022 C 
HETATM   16  C25 UNL     1      -4.726   8.070  13.695  1.00  0.00     0.039 C 
HETATM   17  C26 UNL     1      -3.438   7.589  13.004  1.00  0.00    -0.005 C 
HETATM   18  C27 UNL     1      -2.627   8.822  12.520  1.00  0.00     0.006 C 
HETATM   19  C28 UNL     1      -1.237   8.501  11.945  1.00  0.00     0.011 C 
HETATM   20  C29 UNL     1      -0.438   7.600  12.898  1.00  0.00    -0.022 C 
HETATM   21  C30 UNL     1      -0.123   8.456  14.166  1.00  0.00     0.017 C 
ENDROOT
BRANCH   1  22
HETATM   22  C2  UNL     1       2.075   7.821  11.862  1.00  0.00    -0.014 C 
HETATM   23  C1  UNL     1       2.089   9.161  12.621  1.00  0.00     0.010 C 
BRANCH  22  24
HETATM   24  C3  UNL     1       2.364   8.067  10.365  1.00  0.00     0.007 C 
BRANCH  24  25
HETATM   25  C4  UNL     1       3.469   7.240   9.718  1.00  0.00     0.035 C 
BRANCH  25  26
HETATM   26  C5  UNL     1       4.206   6.276  10.662  1.00  0.00     0.151 C 
BRANCH  26  27
HETATM   27  O1  UNL     1       4.435   5.068   9.908  1.00  0.00    -0.393 OA
HETATM   28  H10 UNL     1       5.401   4.981   9.788  1.00  0.00     0.210 HD
ENDBRANCH  26  27
BRANCH  26  29
HETATM   29  C6  UNL     1       5.555   6.738  11.295  1.00  0.00     0.076 C 
HETATM   30  C7  UNL     1       5.966   8.142  10.851  1.00  0.00     0.048 C 
HETATM   31  C8  UNL     1       6.700   5.746  11.083  1.00  0.00     0.048 C 
BRANCH  29  32
HETATM   32  O2  UNL     1       5.356   6.807  12.725  1.00  0.00    -0.388 OA
HETATM   33  H17 UNL     1       4.473   7.197  12.876  1.00  0.00     0.210 HD
ENDBRANCH  29  32
ENDBRANCH  26  29
ENDBRANCH  25  26
ENDBRANCH  24  25
ENDBRANCH  22  24
ENDBRANCH   1  22
BRANCH   4  34
HETATM   34  C13 UNL     1      -1.604   5.415  11.984  1.00  0.00     0.149 C 
HETATM   35  O3  UNL     1      -0.847   5.028  11.110  1.00  0.00    -0.649 OA
BRANCH  34  36
HETATM   36  O4  UNL     1      -2.913   5.108  11.873  1.00  0.00    -0.776 OA
HETATM   37  H23 UNL     1      -2.957   4.586  11.043  1.00  0.00     0.167 HD
ENDBRANCH  34  36
ENDBRANCH   4  34
BRANCH  12  38
HETATM   38  O5  UNL     1      -8.720   6.081  12.317  1.00  0.00    -0.394 OA
HETATM   39  H34 UNL     1      -9.547   6.592  12.298  1.00  0.00     0.210 HD
ENDBRANCH  12  38
TORSDOF 10
ENDMDL
MODEL 5
REMARK minimizedAffinity -9.24062061
REMARK  10 active torsions:
REMARK  status: ('A' for Active; 'I' for Inactive)
REMARK    1  A    between atoms: C2_2  and  C3_3 
REMARK    2  A    between atoms: C2_2  and  C9_11 
REMARK    3  A    between atoms: C3_3  and  C4_4 
REMARK    4  A    between atoms: C4_4  and  C5_5 
REMARK    5  A    between atoms: C5_5  and  O1_6 
REMARK    6  A    between atoms: C5_5  and  C6_7 
REMARK    7  A    between atoms: C6_7  and  O2_10 
REMARK    8  A    between atoms: C12_14  and  C13_15 
REMARK    9  A    between atoms: C13_15  and  O4_17 
REMARK   10  A    between atoms: C21_25  and  O5_26 
ROOT
HETATM    1  C9  UNL     1      -1.900   5.024  12.614  1.00  0.00    -0.001 C 
HETATM    2  C10 UNL     1      -1.089   5.841  11.574  1.00  0.00     0.007 C 
HETATM    3  C11 UNL     1      -0.902   7.258  12.176  1.00  0.00     0.022 C 
HETATM    4  C12 UNL     1      -1.257   7.090  13.670  1.00  0.00     0.057 C 
HETATM    5  C14 UNL     1      -1.648   8.360  14.479  1.00  0.00     0.010 C 
HETATM    6  C15 UNL     1      -0.573   9.463  14.503  1.00  0.00     0.010 C 
HETATM    7  C16 UNL     1       0.288   9.536  15.764  1.00  0.00     0.036 C 
HETATM    8  C17 UNL     1      -0.342  10.265  16.944  1.00  0.00    -0.067 C 
HETATM    9  C18 UNL     1      -1.647  10.127  17.291  1.00  0.00    -0.076 C 
HETATM   10  C19 UNL     1      -2.274  10.927  18.421  1.00  0.00     0.037 C 
HETATM   11  C20 UNL     1      -1.454  12.110  18.910  1.00  0.00     0.037 C 
HETATM   12  C21 UNL     1       0.005  11.716  19.071  1.00  0.00     0.130 C 
HETATM   13  C22 UNL     1       0.618  11.208  17.725  1.00  0.00     0.002 C 
HETATM   14  C23 UNL     1       1.957  10.504  18.048  1.00  0.00     0.022 C 
HETATM   15  C24 UNL     1       0.915  12.443  16.840  1.00  0.00     0.022 C 
HETATM   16  C25 UNL     1      -2.663   9.166  16.687  1.00  0.00     0.039 C 
HETATM   17  C26 UNL     1      -2.162   7.951  15.888  1.00  0.00    -0.005 C 
HETATM   18  C27 UNL     1      -3.289   6.884  15.820  1.00  0.00     0.006 C 
HETATM   19  C28 UNL     1      -2.986   5.674  14.920  1.00  0.00     0.011 C 
HETATM   20  C29 UNL     1      -2.508   6.122  13.532  1.00  0.00    -0.022 C 
HETATM   21  C30 UNL     1      -3.729   6.803  12.835  1.00  0.00     0.017 C 
ENDROOT
BRANCH   1  22
HETATM   22  C2  UNL     1      -2.721   3.800  12.117  1.00  0.00    -0.014 C 
HETATM   23  C1  UNL     1      -1.940   3.068  11.010  1.00  0.00     0.010 C 
BRANCH  22  24
HETATM   24  C3  UNL     1      -4.205   3.926  11.712  1.00  0.00     0.007 C 
BRANCH  24  25
HETATM   25  C4  UNL     1      -5.246   3.376  12.680  1.00  0.00     0.035 C 
BRANCH  25  26
HETATM   26  C5  UNL     1      -6.693   3.381  12.160  1.00  0.00     0.151 C 
BRANCH  26  27
HETATM   27  O1  UNL     1      -7.109   2.000  12.111  1.00  0.00    -0.393 OA
HETATM   28  H10 UNL     1      -7.820   1.890  12.773  1.00  0.00     0.210 HD
ENDBRANCH  26  27
BRANCH  26  29
HETATM   29  C6  UNL     1      -7.764   4.202  12.942  1.00  0.00     0.076 C 
HETATM   30  C7  UNL     1      -8.300   5.390  12.140  1.00  0.00     0.048 C 
HETATM   31  C8  UNL     1      -7.299   4.650  14.329  1.00  0.00     0.048 C 
BRANCH  29  32
HETATM   32  O2  UNL     1      -8.892   3.327  13.170  1.00  0.00    -0.388 OA
HETATM   33  H17 UNL     1      -9.030   2.812  12.352  1.00  0.00     0.210 HD
ENDBRANCH  29  32
ENDBRANCH  26  29
ENDBRANCH  25  26
ENDBRANCH  24  25
ENDBRANCH  22  24
ENDBRANCH   1  22
BRANCH   4  34
HETATM   34  C13 UNL     1      -0.026   6.445  14.372  1.00  0.00     0.149 C 
HETATM   35  O3  UNL     1       1.135   6.448  14.001  1.00  0.00    -0.649 OA
BRANCH  34  36
HETATM   36  O4  UNL     1      -0.330   5.775  15.502  1.00  0.00    -0.776 OA
HETATM   37  H23 UNL     1       0.536   5.422  15.800  1.00  0.00     0.167 HD
ENDBRANCH  34  36
ENDBRANCH   4  34
BRANCH  12  38
HETATM   38  O5  UNL     1       0.114  10.729  20.101  1.00  0.00    -0.394 OA
HETATM   39  H34 UNL     1      -0.264  11.106  20.913  1.00  0.00     0.210 HD
ENDBRANCH  12  38
TORSDOF 10
ENDMDL
MODEL 6
REMARK minimizedAffinity -9.13155842
REMARK  10 active torsions:
REMARK  status: ('A' for Active; 'I' for Inactive)
REMARK    1  A    between atoms: C2_2  and  C3_3 
REMARK    2  A    between atoms: C2_2  and  C9_11 
REMARK    3  A    between atoms: C3_3  and  C4_4 
REMARK    4  A    between atoms: C4_4  and  C5_5 
REMARK    5  A    between atoms: C5_5  and  O1_6 
REMARK    6  A    between atoms: C5_5  and  C6_7 
REMARK    7  A    between atoms: C6_7  and  O2_10 
REMARK    8  A    between atoms: C12_14  and  C13_15 
REMARK    9  A    between atoms: C13_15  and  O4_17 
REMARK   10  A    between atoms: C21_25  and  O5_26 
ROOT
HETATM    1  C9  UNL     1      -2.474   7.323  13.728  1.00  0.00    -0.001 C 
HETATM    2  C10 UNL     1      -2.113   7.342  15.236  1.00  0.00     0.007 C 
HETATM    3  C11 UNL     1      -0.577   7.140  15.324  1.00  0.00     0.022 C 
HETATM    4  C12 UNL     1      -0.073   7.405  13.888  1.00  0.00     0.057 C 
HETATM    5  C14 UNL     1       1.318   6.838  13.483  1.00  0.00     0.010 C 
HETATM    6  C15 UNL     1       2.490   7.325  14.354  1.00  0.00     0.010 C 
HETATM    7  C16 UNL     1       3.339   8.455  13.771  1.00  0.00     0.036 C 
HETATM    8  C17 UNL     1       4.398   8.023  12.764  1.00  0.00    -0.067 C 
HETATM    9  C18 UNL     1       4.179   7.080  11.813  1.00  0.00    -0.076 C 
HETATM   10  C19 UNL     1       5.274   6.607  10.873  1.00  0.00     0.037 C 
HETATM   11  C20 UNL     1       6.687   7.000  11.275  1.00  0.00     0.037 C 
HETATM   12  C21 UNL     1       6.732   8.456  11.707  1.00  0.00     0.130 C 
HETATM   13  C22 UNL     1       5.777   8.730  12.914  1.00  0.00     0.002 C 
HETATM   14  C23 UNL     1       5.610  10.262  13.053  1.00  0.00     0.022 C 
HETATM   15  C24 UNL     1       6.462   8.194  14.195  1.00  0.00     0.022 C 
HETATM   16  C25 UNL     1       2.859   6.392  11.487  1.00  0.00     0.039 C 
HETATM   17  C26 UNL     1       1.543   7.036  11.957  1.00  0.00    -0.005 C 
HETATM   18  C27 UNL     1       0.369   6.475  11.107  1.00  0.00     0.006 C 
HETATM   19  C28 UNL     1      -1.032   6.913  11.566  1.00  0.00     0.011 C 
HETATM   20  C29 UNL     1      -1.222   6.676  13.071  1.00  0.00    -0.022 C 
HETATM   21  C30 UNL     1      -1.231   5.129  13.284  1.00  0.00     0.017 C 
ENDROOT
BRANCH   1  22
HETATM   22  C2  UNL     1      -3.925   6.943  13.318  1.00  0.00    -0.014 C 
HETATM   23  C1  UNL     1      -4.780   8.219  13.199  1.00  0.00     0.010 C 
BRANCH  22  24
HETATM   24  C3  UNL     1      -4.721   5.850  14.063  1.00  0.00     0.007 C 
BRANCH  24  25
HETATM   25  C4  UNL     1      -6.212   6.090  14.276  1.00  0.00     0.035 C 
BRANCH  25  26
HETATM   26  C5  UNL     1      -7.086   4.826  14.281  1.00  0.00     0.151 C 
BRANCH  26  27
HETATM   27  O1  UNL     1      -8.190   5.102  15.168  1.00  0.00    -0.393 OA
HETATM   28  H10 UNL     1      -9.001   5.119  14.621  1.00  0.00     0.210 HD
ENDBRANCH  26  27
BRANCH  26  29
HETATM   29  C6  UNL     1      -7.648   4.301  12.924  1.00  0.00     0.076 C 
HETATM   30  C7  UNL     1      -6.578   3.635  12.059  1.00  0.00     0.048 C 
HETATM   31  C8  UNL     1      -8.407   5.363  12.126  1.00  0.00     0.048 C 
BRANCH  29  32
HETATM   32  O2  UNL     1      -8.618   3.274  13.231  1.00  0.00    -0.388 OA
HETATM   33  H17 UNL     1      -8.252   2.738  13.960  1.00  0.00     0.210 HD
ENDBRANCH  29  32
ENDBRANCH  26  29
ENDBRANCH  25  26
ENDBRANCH  24  25
ENDBRANCH  22  24
ENDBRANCH   1  22
BRANCH   4  34
HETATM   34  C13 UNL     1      -0.029   8.949  13.688  1.00  0.00     0.149 C 
HETATM   35  O3  UNL     1       0.231   9.805  14.516  1.00  0.00    -0.649 OA
BRANCH  34  36
HETATM   36  O4  UNL     1      -0.365   9.349  12.445  1.00  0.00    -0.776 OA
HETATM   37  H23 UNL     1      -0.307  10.327  12.495  1.00  0.00     0.167 HD
ENDBRANCH  34  36
ENDBRANCH   4  34
BRANCH  12  38
HETATM   38  O5  UNL     1       6.411   9.288  10.588  1.00  0.00    -0.394 OA
HETATM   39  H34 UNL     1       7.046   9.089   9.880  1.00  0.00     0.210 HD
ENDBRANCH  12  38
TORSDOF 10
ENDMDL
MODEL 7
REMARK minimizedAffinity -9.13144875
REMARK  10 active torsions:
REMARK  status: ('A' for Active; 'I' for Inactive)
REMARK    1  A    between atoms: C2_2  and  C3_3 
REMARK    2  A    between atoms: C2_2  and  C9_11 
REMARK    3  A    between atoms: C3_3  and  C4_4 
REMARK    4  A    between atoms: C4_4  and  C5_5 
REMARK    5  A    between atoms: C5_5  and  O1_6 
REMARK    6  A    between atoms: C5_5  and  C6_7 
REMARK    7  A    between atoms: C6_7  and  O2_10 
REMARK    8  A    between atoms: C12_14  and  C13_15 
REMARK    9  A    between atoms: C13_15  and  O4_17 
REMARK   10  A    between atoms: C21_25  and  O5_26 
ROOT
HETATM    1  C9  UNL     1       0.562   8.363  14.293  1.00  0.00    -0.001 C 
HETATM    2  C10 UNL     1      -0.143   9.711  13.990  1.00  0.00     0.007 C 
HETATM    3  C11 UNL     1      -1.556   9.359  13.454  1.00  0.00     0.022 C 
HETATM    4  C12 UNL     1      -1.751   7.875  13.836  1.00  0.00     0.057 C 
HETATM    5  C14 UNL     1      -2.819   7.053  13.059  1.00  0.00     0.010 C 
HETATM    6  C15 UNL     1      -4.249   7.618  13.137  1.00  0.00     0.010 C 
HETATM    7  C16 UNL     1      -5.186   6.944  14.140  1.00  0.00     0.036 C 
HETATM    8  C17 UNL     1      -5.832   5.650  13.662  1.00  0.00    -0.067 C 
HETATM    9  C18 UNL     1      -5.165   4.704  12.954  1.00  0.00    -0.076 C 
HETATM   10  C19 UNL     1      -5.851   3.459  12.417  1.00  0.00     0.037 C 
HETATM   11  C20 UNL     1      -7.371   3.501  12.430  1.00  0.00     0.037 C 
HETATM   12  C21 UNL     1      -7.877   4.050  13.754  1.00  0.00     0.130 C 
HETATM   13  C22 UNL     1      -7.337   5.492  14.025  1.00  0.00     0.002 C 
HETATM   14  C23 UNL     1      -7.593   5.825  15.514  1.00  0.00     0.022 C 
HETATM   15  C24 UNL     1      -8.155   6.478  13.156  1.00  0.00     0.022 C 
HETATM   16  C25 UNL     1      -3.678   4.679  12.625  1.00  0.00     0.039 C 
HETATM   17  C26 UNL     1      -2.714   5.551  13.449  1.00  0.00    -0.005 C 
HETATM   18  C27 UNL     1      -1.270   4.999  13.296  1.00  0.00     0.006 C 
HETATM   19  C28 UNL     1      -0.172   5.861  13.942  1.00  0.00     0.011 C 
HETATM   20  C29 UNL     1      -0.296   7.330  13.510  1.00  0.00    -0.022 C 
HETATM   21  C30 UNL     1       0.045   7.380  11.986  1.00  0.00     0.017 C 
ENDROOT
BRANCH   1  22
HETATM   22  C2  UNL     1       2.116   8.326  14.302  1.00  0.00    -0.014 C 
HETATM   23  C1  UNL     1       2.634   8.667  15.712  1.00  0.00     0.010 C 
BRANCH  22  24
HETATM   24  C3  UNL     1       2.954   9.075  13.244  1.00  0.00     0.007 C 
BRANCH  24  25
HETATM   25  C4  UNL     1       4.450   8.782  13.197  1.00  0.00     0.035 C 
BRANCH  25  26
HETATM   26  C5  UNL     1       4.867   7.653  12.240  1.00  0.00     0.151 C 
BRANCH  26  27
HETATM   27  O1  UNL     1       3.754   6.737  12.186  1.00  0.00    -0.393 OA
HETATM   28  H10 UNL     1       3.397   6.770  11.277  1.00  0.00     0.210 HD
ENDBRANCH  26  27
BRANCH  26  29
HETATM   29  C6  UNL     1       5.284   8.025  10.784  1.00  0.00     0.076 C 
HETATM   30  C7  UNL     1       5.904   9.420  10.684  1.00  0.00     0.048 C 
HETATM   31  C8  UNL     1       4.155   7.860   9.764  1.00  0.00     0.048 C 
BRANCH  29  32
HETATM   32  O2  UNL     1       6.314   7.094  10.381  1.00  0.00    -0.388 OA
HETATM   33  H17 UNL     1       6.907   6.969  11.147  1.00  0.00     0.210 HD
ENDBRANCH  29  32
ENDBRANCH  26  29
ENDBRANCH  25  26
ENDBRANCH  24  25
ENDBRANCH  22  24
ENDBRANCH   1  22
BRANCH   4  34
HETATM   34  C13 UNL     1      -2.127   7.828  15.346  1.00  0.00     0.149 C 
HETATM   35  O3  UNL     1      -2.776   8.640  15.982  1.00  0.00    -0.649 OA
BRANCH  34  36
HETATM   36  O4  UNL     1      -1.618   6.765  16.003  1.00  0.00    -0.776 OA
HETATM   37  H23 UNL     1      -1.926   6.897  16.925  1.00  0.00     0.167 HD
ENDBRANCH  34  36
ENDBRANCH   4  34
BRANCH  12  38
HETATM   38  O5  UNL     1      -7.514   3.149  14.806  1.00  0.00    -0.394 OA
HETATM   39  H34 UNL     1      -7.891   2.280  14.593  1.00  0.00     0.210 HD
ENDBRANCH  12  38
TORSDOF 10
ENDMDL
MODEL 8
REMARK minimizedAffinity -9.06944847
REMARK  10 active torsions:
REMARK  status: ('A' for Active; 'I' for Inactive)
REMARK    1  A    between atoms: C2_2  and  C3_3 
REMARK    2  A    between atoms: C2_2  and  C9_11 
REMARK    3  A    between atoms: C3_3  and  C4_4 
REMARK    4  A    between atoms: C4_4  and  C5_5 
REMARK    5  A    between atoms: C5_5  and  O1_6 
REMARK    6  A    between atoms: C5_5  and  C6_7 
REMARK    7  A    between atoms: C6_7  and  O2_10 
REMARK    8  A    between atoms: C12_14  and  C13_15 
REMARK    9  A    between atoms: C13_15  and  O4_17 
REMARK   10  A    between atoms: C21_25  and  O5_26 
ROOT
HETATM    1  C9  UNL     1      -8.079   7.469  14.821  1.00  0.00    -0.001 C 
HETATM    2  C10 UNL     1      -7.438   8.017  16.123  1.00  0.00     0.007 C 
HETATM    3  C11 UNL     1      -5.980   7.485  16.155  1.00  0.00     0.022 C 
HETATM    4  C12 UNL     1      -5.720   6.995  14.713  1.00  0.00     0.057 C 
HETATM    5  C14 UNL     1      -4.567   5.977  14.481  1.00  0.00     0.010 C 
HETATM    6  C15 UNL     1      -3.178   6.464  14.934  1.00  0.00     0.010 C 
HETATM    7  C16 UNL     1      -2.258   6.994  13.835  1.00  0.00     0.036 C 
HETATM    8  C17 UNL     1      -1.514   5.930  13.037  1.00  0.00    -0.067 C 
HETATM    9  C18 UNL     1      -2.087   4.769  12.632  1.00  0.00    -0.076 C 
HETATM   10  C19 UNL     1      -1.302   3.687  11.909  1.00  0.00     0.037 C 
HETATM   11  C20 UNL     1       0.210   3.836  11.965  1.00  0.00     0.037 C 
HETATM   12  C21 UNL     1       0.613   5.277  11.694  1.00  0.00     0.130 C 
HETATM   13  C22 UNL     1      -0.023   6.258  12.732  1.00  0.00     0.002 C 
HETATM   14  C23 UNL     1       0.134   7.697  12.185  1.00  0.00     0.022 C 
HETATM   15  C24 UNL     1       0.781   6.146  14.050  1.00  0.00     0.022 C 
HETATM   16  C25 UNL     1      -3.550   4.369  12.767  1.00  0.00     0.039 C 
HETATM   17  C26 UNL     1      -4.606   5.461  13.015  1.00  0.00    -0.005 C 
HETATM   18  C27 UNL     1      -6.005   4.919  12.614  1.00  0.00     0.006 C 
HETATM   19  C28 UNL     1      -7.183   5.849  12.951  1.00  0.00     0.011 C 
HETATM   20  C29 UNL     1      -7.122   6.312  14.414  1.00  0.00    -0.022 C 
HETATM   21  C30 UNL     1      -7.384   5.050  15.297  1.00  0.00     0.017 C 
ENDROOT
BRANCH   1  22
HETATM   22  C2  UNL     1      -9.626   7.337  14.756  1.00  0.00    -0.014 C 
HETATM   23  C1  UNL     1     -10.023   6.511  13.518  1.00  0.00     0.010 C 
BRANCH  22  24
HETATM   24  C3  UNL     1     -10.553   8.565  14.881  1.00  0.00     0.007 C 
BRANCH  24  25
HETATM   25  C4  UNL     1     -11.631   8.742  13.817  1.00  0.00     0.035 C 
BRANCH  25  26
HETATM   26  C5  UNL     1     -12.378  10.085  13.858  1.00  0.00     0.151 C 
BRANCH  26  27
HETATM   27  O1  UNL     1     -11.366  11.108  13.958  1.00  0.00    -0.393 OA
HETATM   28  H10 UNL     1     -11.395  11.625  13.128  1.00  0.00     0.210 HD
ENDBRANCH  26  27
BRANCH  26  29
HETATM   29  C6  UNL     1     -13.339  10.441  12.681  1.00  0.00     0.076 C 
HETATM   30  C7  UNL     1     -13.669  11.933  12.618  1.00  0.00     0.048 C 
HETATM   31  C8  UNL     1     -14.618   9.602  12.661  1.00  0.00     0.048 C 
BRANCH  29  32
HETATM   32  O2  UNL     1     -12.645  10.128  11.453  1.00  0.00    -0.388 OA
HETATM   33  H17 UNL     1     -11.718  10.416  11.561  1.00  0.00     0.210 HD
ENDBRANCH  29  32
ENDBRANCH  26  29
ENDBRANCH  25  26
ENDBRANCH  24  25
ENDBRANCH  22  24
ENDBRANCH   1  22
BRANCH   4  34
HETATM   34  C13 UNL     1      -5.423   8.250  13.841  1.00  0.00     0.149 C 
HETATM   35  O3  UNL     1      -5.395   8.329  12.625  1.00  0.00    -0.649 OA
BRANCH  34  36
HETATM   36  O4  UNL     1      -5.123   9.354  14.556  1.00  0.00    -0.776 OA
HETATM   37  H23 UNL     1      -4.947  10.032  13.869  1.00  0.00     0.167 HD
ENDBRANCH  34  36
ENDBRANCH   4  34
BRANCH  12  38
HETATM   38  O5  UNL     1       0.247   5.623  10.355  1.00  0.00    -0.394 OA
HETATM   39  H34 UNL     1       0.684   4.994   9.758  1.00  0.00     0.210 HD
ENDBRANCH  12  38
TORSDOF 10
ENDMDL
MODEL 9
REMARK minimizedAffinity -8.99165821
REMARK  10 active torsions:
REMARK  status: ('A' for Active; 'I' for Inactive)
REMARK    1  A    between atoms: C2_2  and  C3_3 
REMARK    2  A    between atoms: C2_2  and  C9_11 
REMARK    3  A    between atoms: C3_3  and  C4_4 
REMARK    4  A    between atoms: C4_4  and  C5_5 
REMARK    5  A    between atoms: C5_5  and  O1_6 
REMARK    6  A    between atoms: C5_5  and  C6_7 
REMARK    7  A    between atoms: C6_7  and  O2_10 
REMARK    8  A    between atoms: C12_14  and  C13_15 
REMARK    9  A    between atoms: C13_15  and  O4_17 
REMARK   10  A    between atoms: C21_25  and  O5_26 
ROOT
HETATM    1  C9  UNL     1      -3.178   7.609  13.881  1.00  0.00    -0.001 C 
HETATM    2  C10 UNL     1      -3.358   8.499  12.624  1.00  0.00     0.007 C 
HETATM    3  C11 UNL     1      -1.941   8.988  12.223  1.00  0.00     0.022 C 
HETATM    4  C12 UNL     1      -0.982   8.063  13.004  1.00  0.00     0.057 C 
HETATM    5  C14 UNL     1       0.479   8.547  13.233  1.00  0.00     0.010 C 
HETATM    6  C15 UNL     1       1.266   8.848  11.944  1.00  0.00     0.010 C 
HETATM    7  C16 UNL     1       2.232   7.760  11.474  1.00  0.00     0.036 C 
HETATM    8  C17 UNL     1       3.584   7.740  12.175  1.00  0.00    -0.067 C 
HETATM    9  C18 UNL     1       3.732   7.934  13.510  1.00  0.00    -0.076 C 
HETATM   10  C19 UNL     1       5.097   7.992  14.174  1.00  0.00     0.037 C 
HETATM   11  C20 UNL     1       6.274   8.150  13.225  1.00  0.00     0.037 C 
HETATM   12  C21 UNL     1       6.126   7.219  12.033  1.00  0.00     0.130 C 
HETATM   13  C22 UNL     1       4.806   7.498  11.242  1.00  0.00     0.002 C 
HETATM   14  C23 UNL     1       4.559   6.303  10.291  1.00  0.00     0.022 C 
HETATM   15  C24 UNL     1       5.024   8.769  10.385  1.00  0.00     0.022 C 
HETATM   16  C25 UNL     1       2.625   8.073  14.548  1.00  0.00     0.039 C 
HETATM   17  C26 UNL     1       1.210   7.577  14.204  1.00  0.00    -0.005 C 
HETATM   18  C27 UNL     1       0.417   7.348  15.520  1.00  0.00     0.006 C 
HETATM   19  C28 UNL     1      -1.069   6.996  15.330  1.00  0.00     0.011 C 
HETATM   20  C29 UNL     1      -1.758   7.993  14.387  1.00  0.00    -0.022 C 
HETATM   21  C30 UNL     1      -1.796   9.364  15.133  1.00  0.00     0.017 C 
ENDROOT
BRANCH   1  22
HETATM   22  C2  UNL     1      -4.388   7.428  14.840  1.00  0.00    -0.014 C 
HETATM   23  C1  UNL     1      -4.120   6.248  15.793  1.00  0.00     0.010 C 
BRANCH  22  24
HETATM   24  C3  UNL     1      -5.838   7.356  14.316  1.00  0.00     0.007 C 
BRANCH  24  25
HETATM   25  C4  UNL     1      -6.869   6.659  15.198  1.00  0.00     0.035 C 
BRANCH  25  26
HETATM   26  C5  UNL     1      -7.101   5.172  14.886  1.00  0.00     0.151 C 
BRANCH  26  27
HETATM   27  O1  UNL     1      -7.983   4.677  15.916  1.00  0.00    -0.393 OA
HETATM   28  H10 UNL     1      -8.827   4.440  15.483  1.00  0.00     0.210 HD
ENDBRANCH  26  27
BRANCH  26  29
HETATM   29  C6  UNL     1      -7.686   4.784  13.494  1.00  0.00     0.076 C 
HETATM   30  C7  UNL     1      -6.601   4.436  12.473  1.00  0.00     0.048 C 
HETATM   31  C8  UNL     1      -8.652   5.824  12.924  1.00  0.00     0.048 C 
BRANCH  29  32
HETATM   32  O2  UNL     1      -8.468   3.582  13.678  1.00  0.00    -0.388 OA
HETATM   33  H17 UNL     1      -7.972   3.003  14.288  1.00  0.00     0.210 HD
ENDBRANCH  29  32
ENDBRANCH  26  29
ENDBRANCH  25  26
ENDBRANCH  24  25
ENDBRANCH  22  24
ENDBRANCH   1  22
BRANCH   4  34
HETATM   34  C13 UNL     1      -0.915   6.708  12.239  1.00  0.00     0.149 C 
HETATM   35  O3  UNL     1      -0.691   6.526  11.056  1.00  0.00    -0.649 OA
BRANCH  34  36
HETATM   36  O4  UNL     1      -1.186   5.634  13.008  1.00  0.00    -0.776 OA
HETATM   37  H23 UNL     1      -1.123   4.881  12.381  1.00  0.00     0.167 HD
ENDBRANCH  34  36
ENDBRANCH   4  34
BRANCH  12  38
HETATM   38  O5  UNL     1       6.186   5.862  12.487  1.00  0.00    -0.394 OA
HETATM   39  H34 UNL     1       7.031   5.744  12.952  1.00  0.00     0.210 HD
ENDBRANCH  12  38
TORSDOF 10
ENDMDL
