MODEL 1
REMARK minimizedAffinity -7.65094995
REMARK CNNscore 0.630414665
REMARK CNNaffinity 6.93462372
REMARK  4 active torsions:
REMARK  status: ('A' for Active; 'I' for Inactive)
REMARK    1  A    between atoms: C4_4  and  C5_5 
REMARK    2  A    between atoms: C5_5  and  C6_6 
REMARK    3  A    between atoms: C6_6  and  C7_7 
REMARK    4  A    between atoms: C7_7  and  C9_9 
ROOT
HETATM    1  C9  UNL     1       3.152  54.222  -9.507  1.00  0.00    -0.001 C 
HETATM    2  C10 UNL     1       3.448  53.240  -8.346  1.00  0.00     0.007 C 
HETATM    3  C11 UNL     1       2.148  52.446  -8.088  1.00  0.00     0.024 C 
HETATM    4  C12 UNL     1       1.195  52.896  -9.176  1.00  0.00     0.092 C 
HETATM    5  C13 UNL     1       1.329  52.031 -10.460  1.00  0.00     0.272 C 
HETATM    6  O1  UNL     1       2.294  51.383 -10.828  1.00  0.00    -0.264 OA
HETATM    7  O2  UNL     1       0.139  52.104 -11.163  1.00  0.00    -0.305 OA
HETATM    8  C14 UNL     1      -0.789  52.931 -10.423  1.00  0.00     0.113 C 
HETATM    9  C15 UNL     1      -0.537  54.405 -10.889  1.00  0.00     0.043 C 
HETATM   10  C16 UNL     1       0.956  54.830 -10.806  1.00  0.00     0.014 C 
HETATM   11  C17 UNL     1       1.603  54.381  -9.474  1.00  0.00    -0.020 C 
HETATM   12  C18 UNL     1       1.132  55.347  -8.363  1.00  0.00     0.017 C 
HETATM   13  C19 UNL     1      -0.268  52.763  -9.023  1.00  0.00     0.137 A 
HETATM   14  O3  UNL     1      -0.965  53.270  -7.901  1.00  0.00    -0.364 OA
HETATM   15  C20 UNL     1      -0.923  51.834  -8.022  1.00  0.00     0.162 A 
HETATM   16  C21 UNL     1      -2.235  51.187  -8.353  1.00  0.00     0.042 C 
HETATM   17  C22 UNL     1      -2.361  50.998  -9.879  1.00  0.00     0.014 C 
HETATM   18  C23 UNL     1      -3.519  50.052 -10.346  1.00  0.00     0.018 C 
HETATM   19  C24 UNL     1      -3.342  48.648  -9.725  1.00  0.00     0.023 C 
HETATM   20  C25 UNL     1      -4.932  50.546 -10.013  1.00  0.00     0.023 C 
HETATM   21  C26 UNL     1      -3.433  49.882 -11.872  1.00  0.00     0.135 C 
HETATM   22  O4  UNL     1      -4.129  49.064 -12.475  1.00  0.00    -0.297 OA
HETATM   23  C27 UNL     1      -2.447  50.748 -12.621  1.00  0.00     0.080 C 
HETATM   24  C28 UNL     1      -2.578  52.186 -12.144  1.00  0.00     0.020 C 
HETATM   25  C29 UNL     1      -2.258  52.390 -10.630  1.00  0.00    -0.004 C 
HETATM   26  C30 UNL     1      -3.261  53.449 -10.096  1.00  0.00     0.019 C 
ENDROOT
BRANCH   1  27
HETATM   27  C7  UNL     1       4.104  55.434  -9.700  1.00  0.00    -0.014 C 
HETATM   28  C8  UNL     1       3.615  56.285 -10.890  1.00  0.00     0.010 C 
BRANCH  27  29
HETATM   29  C6  UNL     1       5.636  55.258  -9.802  1.00  0.00     0.008 C 
BRANCH  29  30
HETATM   30  C5  UNL     1       6.417  55.071  -8.501  1.00  0.00     0.028 C 
BRANCH  30  31
HETATM   31  C4  UNL     1       6.049  56.136  -7.500  1.00  0.00    -0.025 C 
HETATM   32  C2  UNL     1       6.758  56.564  -6.439  1.00  0.00    -0.091 C 
HETATM   33  C1  UNL     1       6.224  57.663  -5.557  1.00  0.00     0.042 C 
HETATM   34  C3  UNL     1       8.102  56.039  -6.017  1.00  0.00     0.042 C 
ENDBRANCH  30  31
ENDBRANCH  29  30
ENDBRANCH  27  29
ENDBRANCH   1  27
TORSDOF 4
ENDMDL
MODEL 2
REMARK minimizedAffinity -7.86436605
REMARK CNNscore 0.597910643
REMARK CNNaffinity 6.8707633
REMARK  4 active torsions:
REMARK  status: ('A' for Active; 'I' for Inactive)
REMARK    1  A    between atoms: C4_4  and  C5_5 
REMARK    2  A    between atoms: C5_5  and  C6_6 
REMARK    3  A    between atoms: C6_6  and  C7_7 
REMARK    4  A    between atoms: C7_7  and  C9_9 
ROOT
HETATM    1  C9  UNL     1      -1.500  52.991  -9.852  1.00  0.00    -0.001 C 
HETATM    2  C10 UNL     1      -1.293  51.830  -8.848  1.00  0.00     0.007 C 
HETATM    3  C11 UNL     1       0.166  51.926  -8.348  1.00  0.00     0.024 C 
HETATM    4  C12 UNL     1       0.707  53.197  -8.971  1.00  0.00     0.092 C 
HETATM    5  C13 UNL     1       0.443  54.441  -8.077  1.00  0.00     0.272 C 
HETATM    6  O1  UNL     1      -0.427  54.586  -7.236  1.00  0.00    -0.264 OA
HETATM    7  O2  UNL     1       1.382  55.409  -8.387  1.00  0.00    -0.305 OA
HETATM    8  C14 UNL     1       2.273  54.887  -9.401  1.00  0.00     0.113 C 
HETATM    9  C15 UNL     1       1.614  55.223 -10.783  1.00  0.00     0.043 C 
HETATM   10  C16 UNL     1       0.133  54.763 -10.887  1.00  0.00     0.014 C 
HETATM   11  C17 UNL     1      -0.059  53.331 -10.332  1.00  0.00    -0.020 C 
HETATM   12  C18 UNL     1       0.461  52.333 -11.393  1.00  0.00     0.017 C 
HETATM   13  C19 UNL     1       2.158  53.410  -9.149  1.00  0.00     0.137 A 
HETATM   14  O3  UNL     1       2.990  52.474  -9.808  1.00  0.00    -0.364 OA
HETATM   15  C20 UNL     1       3.217  52.634  -8.394  1.00  0.00     0.162 A 
HETATM   16  C21 UNL     1       4.512  53.299  -8.030  1.00  0.00     0.042 C 
HETATM   17  C22 UNL     1       4.295  54.816  -7.849  1.00  0.00     0.014 C 
HETATM   18  C23 UNL     1       5.471  55.585  -7.160  1.00  0.00     0.018 C 
HETATM   19  C24 UNL     1       5.747  54.992  -5.760  1.00  0.00     0.023 C 
HETATM   20  C25 UNL     1       6.790  55.589  -7.944  1.00  0.00     0.023 C 
HETATM   21  C26 UNL     1       5.050  57.049  -6.952  1.00  0.00     0.135 C 
HETATM   22  O4  UNL     1       5.730  57.833  -6.288  1.00  0.00    -0.297 OA
HETATM   23  C27 UNL     1       3.753  57.503  -7.580  1.00  0.00     0.080 C 
HETATM   24  C28 UNL     1       3.696  57.019  -9.021  1.00  0.00     0.020 C 
HETATM   25  C29 UNL     1       3.725  55.466  -9.177  1.00  0.00    -0.004 C 
HETATM   26  C30 UNL     1       4.587  55.154 -10.430  1.00  0.00     0.019 C 
ENDROOT
BRANCH   1  27
HETATM   27  C7  UNL     1      -2.701  52.901 -10.834  1.00  0.00    -0.014 C 
HETATM   28  C8  UNL     1      -3.799  53.892 -10.393  1.00  0.00     0.010 C 
BRANCH  27  29
HETATM   29  C6  UNL     1      -3.357  51.552 -11.198  1.00  0.00     0.008 C 
BRANCH  29  30
HETATM   30  C5  UNL     1      -4.565  51.104 -10.373  1.00  0.00     0.028 C 
BRANCH  30  31
HETATM   31  C4  UNL     1      -5.125  49.811 -10.905  1.00  0.00    -0.025 C 
HETATM   32  C2  UNL     1      -6.328  49.258 -10.658  1.00  0.00    -0.091 C 
HETATM   33  C1  UNL     1      -6.717  47.955 -11.307  1.00  0.00     0.042 C 
HETATM   34  C3  UNL     1      -7.387  49.835  -9.760  1.00  0.00     0.042 C 
ENDBRANCH  30  31
ENDBRANCH  29  30
ENDBRANCH  27  29
ENDBRANCH   1  27
TORSDOF 4
ENDMDL
MODEL 3
REMARK minimizedAffinity -7.60203886
REMARK CNNscore 0.525627613
REMARK CNNaffinity 6.79329252
REMARK  4 active torsions:
REMARK  status: ('A' for Active; 'I' for Inactive)
REMARK    1  A    between atoms: C4_4  and  C5_5 
REMARK    2  A    between atoms: C5_5  and  C6_6 
REMARK    3  A    between atoms: C6_6  and  C7_7 
REMARK    4  A    between atoms: C7_7  and  C9_9 
ROOT
HETATM    1  C9  UNL     1      -1.777  52.883  -9.534  1.00  0.00    -0.001 C 
HETATM    2  C10 UNL     1      -1.531  51.770  -8.486  1.00  0.00     0.007 C 
HETATM    3  C11 UNL     1      -0.041  51.854  -8.085  1.00  0.00     0.024 C 
HETATM    4  C12 UNL     1       0.487  53.078  -8.806  1.00  0.00     0.092 C 
HETATM    5  C13 UNL     1       0.308  54.371  -7.963  1.00  0.00     0.272 C 
HETATM    6  O1  UNL     1      -0.502  54.580  -7.078  1.00  0.00    -0.264 OA
HETATM    7  O2  UNL     1       1.247  55.299  -8.382  1.00  0.00    -0.305 OA
HETATM    8  C14 UNL     1       2.058  54.704  -9.422  1.00  0.00     0.113 C 
HETATM    9  C15 UNL     1       1.319  54.986 -10.775  1.00  0.00     0.043 C 
HETATM   10  C16 UNL     1      -0.176  54.559 -10.761  1.00  0.00     0.014 C 
HETATM   11  C17 UNL     1      -0.362  53.162 -10.122  1.00  0.00    -0.020 C 
HETATM   12  C18 UNL     1       0.066  52.099 -11.160  1.00  0.00     0.017 C 
HETATM   13  C19 UNL     1       1.927  53.245  -9.087  1.00  0.00     0.137 A 
HETATM   14  O3  UNL     1       2.694  52.256  -9.747  1.00  0.00    -0.364 OA
HETATM   15  C20 UNL     1       3.016  52.481  -8.361  1.00  0.00     0.162 A 
HETATM   16  C21 UNL     1       4.345  53.131  -8.115  1.00  0.00     0.042 C 
HETATM   17  C22 UNL     1       4.174  54.660  -8.000  1.00  0.00     0.014 C 
HETATM   18  C23 UNL     1       5.409  55.433  -7.427  1.00  0.00     0.018 C 
HETATM   19  C24 UNL     1       5.761  54.905  -6.018  1.00  0.00     0.023 C 
HETATM   20  C25 UNL     1       6.674  55.364  -8.292  1.00  0.00     0.023 C 
HETATM   21  C26 UNL     1       5.034  56.916  -7.269  1.00  0.00     0.135 C 
HETATM   22  O4  UNL     1       5.772  57.716  -6.692  1.00  0.00    -0.297 OA
HETATM   23  C27 UNL     1       3.709  57.370  -7.837  1.00  0.00     0.080 C 
HETATM   24  C28 UNL     1       3.549  56.816  -9.245  1.00  0.00     0.020 C 
HETATM   25  C29 UNL     1       3.533  55.257  -9.321  1.00  0.00    -0.004 C 
HETATM   26  C30 UNL     1       4.306  54.861 -10.608  1.00  0.00     0.019 C 
ENDROOT
BRANCH   1  27
HETATM   27  C7  UNL     1      -3.040  52.775 -10.432  1.00  0.00    -0.014 C 
HETATM   28  C8  UNL     1      -3.865  54.073 -10.316  1.00  0.00     0.010 C 
BRANCH  27  29
HETATM   29  C6  UNL     1      -3.995  51.563 -10.353  1.00  0.00     0.008 C 
BRANCH  29  30
HETATM   30  C5  UNL     1      -3.697  50.364 -11.255  1.00  0.00     0.028 C 
BRANCH  30  31
HETATM   31  C4  UNL     1      -3.178  50.820 -12.594  1.00  0.00    -0.025 C 
HETATM   32  C2  UNL     1      -2.842  50.067 -13.659  1.00  0.00    -0.091 C 
HETATM   33  C1  UNL     1      -2.356  50.716 -14.929  1.00  0.00     0.042 C 
HETATM   34  C3  UNL     1      -2.906  48.567 -13.723  1.00  0.00     0.042 C 
ENDBRANCH  30  31
ENDBRANCH  29  30
ENDBRANCH  27  29
ENDBRANCH   1  27
TORSDOF 4
ENDMDL
MODEL 4
REMARK minimizedAffinity -7.23641825
REMARK CNNscore 0.512094915
REMARK CNNaffinity 6.60139799
REMARK  4 active torsions:
REMARK  status: ('A' for Active; 'I' for Inactive)
REMARK    1  A    between atoms: C4_4  and  C5_5 
REMARK    2  A    between atoms: C5_5  and  C6_6 
REMARK    3  A    between atoms: C6_6  and  C7_7 
REMARK    4  A    between atoms: C7_7  and  C9_9 
ROOT
HETATM    1  C9  UNL     1       4.108  55.173  -8.546  1.00  0.00    -0.001 C 
HETATM    2  C10 UNL     1       3.132  56.035  -7.706  1.00  0.00     0.007 C 
HETATM    3  C11 UNL     1       1.703  55.674  -8.170  1.00  0.00     0.024 C 
HETATM    4  C12 UNL     1       1.891  54.539  -9.157  1.00  0.00     0.092 C 
HETATM    5  C13 UNL     1       1.886  53.152  -8.456  1.00  0.00     0.272 C 
HETATM    6  O1  UNL     1       2.156  52.901  -7.294  1.00  0.00    -0.264 OA
HETATM    7  O2  UNL     1       1.514  52.194  -9.383  1.00  0.00    -0.305 OA
HETATM    8  C14 UNL     1       1.240  52.849 -10.644  1.00  0.00     0.113 C 
HETATM    9  C15 UNL     1       2.604  52.920 -11.411  1.00  0.00     0.043 C 
HETATM   10  C16 UNL     1       3.753  53.541 -10.567  1.00  0.00     0.014 C 
HETATM   11  C17 UNL     1       3.286  54.812  -9.818  1.00  0.00    -0.020 C 
HETATM   12  C18 UNL     1       3.231  55.974 -10.835  1.00  0.00     0.017 C 
HETATM   13  C19 UNL     1       0.868  54.227 -10.175  1.00  0.00     0.137 A 
HETATM   14  O3  UNL     1       0.354  55.203 -11.062  1.00  0.00    -0.364 OA
HETATM   15  C20 UNL     1      -0.573  54.689 -10.084  1.00  0.00     0.162 A 
HETATM   16  C21 UNL     1      -1.668  53.828 -10.639  1.00  0.00     0.042 C 
HETATM   17  C22 UNL     1      -1.258  52.342 -10.572  1.00  0.00     0.014 C 
HETATM   18  C23 UNL     1      -2.416  51.315 -10.812  1.00  0.00     0.018 C 
HETATM   19  C24 UNL     1      -3.539  51.526  -9.771  1.00  0.00     0.023 C 
HETATM   20  C25 UNL     1      -3.045  51.363 -12.210  1.00  0.00     0.023 C 
HETATM   21  C26 UNL     1      -1.868  49.894 -10.597  1.00  0.00     0.135 C 
HETATM   22  O4  UNL     1      -2.607  48.909 -10.569  1.00  0.00    -0.297 OA
HETATM   23  C27 UNL     1      -0.377  49.738 -10.404  1.00  0.00     0.080 C 
HETATM   24  C28 UNL     1       0.354  50.553 -11.459  1.00  0.00     0.020 C 
HETATM   25  C29 UNL     1       0.075  52.088 -11.390  1.00  0.00    -0.004 C 
HETATM   26  C30 UNL     1       0.001  52.598 -12.855  1.00  0.00     0.019 C 
ENDROOT
BRANCH   1  27
HETATM   27  C7  UNL     1       5.595  55.616  -8.619  1.00  0.00    -0.014 C 
HETATM   28  C8  UNL     1       6.403  54.569  -9.414  1.00  0.00     0.010 C 
BRANCH  27  29
HETATM   29  C6  UNL     1       6.391  56.012  -7.356  1.00  0.00     0.008 C 
BRANCH  29  30
HETATM   30  C5  UNL     1       5.639  56.744  -6.243  1.00  0.00     0.028 C 
BRANCH  30  31
HETATM   31  C4  UNL     1       6.421  57.942  -5.770  1.00  0.00    -0.025 C 
HETATM   32  C2  UNL     1       7.653  57.973  -5.227  1.00  0.00    -0.091 C 
HETATM   33  C1  UNL     1       8.280  59.285  -4.832  1.00  0.00     0.042 C 
HETATM   34  C3  UNL     1       8.521  56.775  -4.963  1.00  0.00     0.042 C 
ENDBRANCH  30  31
ENDBRANCH  29  30
ENDBRANCH  27  29
ENDBRANCH   1  27
TORSDOF 4
ENDMDL
MODEL 5
REMARK minimizedAffinity -7.25675488
REMARK CNNscore 0.326951146
REMARK CNNaffinity 6.3154645
REMARK  4 active torsions:
REMARK  status: ('A' for Active; 'I' for Inactive)
REMARK    1  A    between atoms: C4_4  and  C5_5 
REMARK    2  A    between atoms: C5_5  and  C6_6 
REMARK    3  A    between atoms: C6_6  and  C7_7 
REMARK    4  A    between atoms: C7_7  and  C9_9 
ROOT
HETATM    1  C9  UNL     1       4.430  55.387  -7.457  1.00  0.00    -0.001 C 
HETATM    2  C10 UNL     1       4.062  54.769  -6.086  1.00  0.00     0.007 C 
HETATM    3  C11 UNL     1       2.612  54.246  -6.205  1.00  0.00     0.024 C 
HETATM    4  C12 UNL     1       2.241  54.459  -7.658  1.00  0.00     0.092 C 
HETATM    5  C13 UNL     1       2.628  53.241  -8.542  1.00  0.00     0.272 C 
HETATM    6  O1  UNL     1       3.488  52.404  -8.327  1.00  0.00    -0.264 OA
HETATM    7  O2  UNL     1       1.819  53.240  -9.664  1.00  0.00    -0.305 OA
HETATM    8  C14 UNL     1       0.898  54.353  -9.576  1.00  0.00     0.113 C 
HETATM    9  C15 UNL     1       1.626  55.581 -10.222  1.00  0.00     0.043 C 
HETATM   10  C16 UNL     1       3.044  55.833  -9.638  1.00  0.00     0.014 C 
HETATM   11  C17 UNL     1       3.051  55.729  -8.094  1.00  0.00    -0.020 C 
HETATM   12  C18 UNL     1       2.444  57.031  -7.524  1.00  0.00     0.017 C 
HETATM   13  C19 UNL     1       0.831  54.550  -8.088  1.00  0.00     0.137 A 
HETATM   14  O3  UNL     1      -0.089  55.447  -7.495  1.00  0.00    -0.364 OA
HETATM   15  C20 UNL     1      -0.331  54.046  -7.257  1.00  0.00     0.162 A 
HETATM   16  C21 UNL     1      -1.546  53.487  -7.936  1.00  0.00     0.042 C 
HETATM   17  C22 UNL     1      -1.156  52.869  -9.294  1.00  0.00     0.014 C 
HETATM   18  C23 UNL     1      -2.250  51.969  -9.962  1.00  0.00     0.018 C 
HETATM   19  C24 UNL     1      -2.628  50.804  -9.021  1.00  0.00     0.023 C 
HETATM   20  C25 UNL     1      -3.539  52.702 -10.356  1.00  0.00     0.023 C 
HETATM   21  C26 UNL     1      -1.663  51.342 -11.238  1.00  0.00     0.135 C 
HETATM   22  O4  UNL     1      -2.262  50.469 -11.868  1.00  0.00    -0.297 OA
HETATM   23  C27 UNL     1      -0.307  51.823 -11.697  1.00  0.00     0.080 C 
HETATM   24  C28 UNL     1      -0.272  53.343 -11.657  1.00  0.00     0.020 C 
HETATM   25  C29 UNL     1      -0.480  53.951 -10.234  1.00  0.00    -0.004 C 
HETATM   26  C30 UNL     1      -1.342  55.230 -10.411  1.00  0.00     0.019 C 
ENDROOT
BRANCH   1  27
HETATM   27  C7  UNL     1       5.636  56.365  -7.517  1.00  0.00    -0.014 C 
HETATM   28  C8  UNL     1       6.943  55.559  -7.665  1.00  0.00     0.010 C 
BRANCH  27  29
HETATM   29  C6  UNL     1       5.843  57.470  -6.458  1.00  0.00     0.008 C 
BRANCH  29  30
HETATM   30  C5  UNL     1       6.739  57.147  -5.261  1.00  0.00     0.028 C 
BRANCH  30  31
HETATM   31  C4  UNL     1       7.974  58.011  -5.271  1.00  0.00    -0.025 C 
HETATM   32  C2  UNL     1       8.121  59.261  -4.795  1.00  0.00    -0.091 C 
HETATM   33  C1  UNL     1       9.454  59.959  -4.880  1.00  0.00     0.042 C 
HETATM   34  C3  UNL     1       7.041  60.082  -4.146  1.00  0.00     0.042 C 
ENDBRANCH  30  31
ENDBRANCH  29  30
ENDBRANCH  27  29
ENDBRANCH   1  27
TORSDOF 4
ENDMDL
MODEL 6
REMARK minimizedAffinity -8.76198006
REMARK CNNscore 0.266643286
REMARK CNNaffinity 6.73158121
REMARK  4 active torsions:
REMARK  status: ('A' for Active; 'I' for Inactive)
REMARK    1  A    between atoms: C4_4  and  C5_5 
REMARK    2  A    between atoms: C5_5  and  C6_6 
REMARK    3  A    between atoms: C6_6  and  C7_7 
REMARK    4  A    between atoms: C7_7  and  C9_9 
ROOT
HETATM    1  C9  UNL     1      -1.872  51.309 -22.208  1.00  0.00    -0.001 C 
HETATM    2  C10 UNL     1      -3.232  52.005 -22.462  1.00  0.00     0.007 C 
HETATM    3  C11 UNL     1      -4.327  51.067 -21.904  1.00  0.00     0.024 C 
HETATM    4  C12 UNL     1      -3.567  49.936 -21.241  1.00  0.00     0.092 C 
HETATM    5  C13 UNL     1      -3.243  50.248 -19.753  1.00  0.00     0.272 C 
HETATM    6  O1  UNL     1      -3.147  51.341 -19.222  1.00  0.00    -0.264 OA
HETATM    7  O2  UNL     1      -3.070  49.050 -19.083  1.00  0.00    -0.305 OA
HETATM    8  C14 UNL     1      -3.286  47.961 -20.011  1.00  0.00     0.113 C 
HETATM    9  C15 UNL     1      -1.901  47.672 -20.685  1.00  0.00     0.043 C 
HETATM   10  C16 UNL     1      -1.231  48.941 -21.281  1.00  0.00     0.014 C 
HETATM   11  C17 UNL     1      -2.244  49.803 -22.072  1.00  0.00    -0.020 C 
HETATM   12  C18 UNL     1      -2.483  49.127 -23.441  1.00  0.00     0.017 C 
HETATM   13  C19 UNL     1      -4.192  48.617 -21.014  1.00  0.00     0.137 A 
HETATM   14  O3  UNL     1      -4.815  47.882 -22.050  1.00  0.00    -0.364 OA
HETATM   15  C20 UNL     1      -5.690  48.388 -21.023  1.00  0.00     0.162 A 
HETATM   16  C21 UNL     1      -6.290  47.344 -20.128  1.00  0.00     0.042 C 
HETATM   17  C22 UNL     1      -5.422  47.168 -18.865  1.00  0.00     0.014 C 
HETATM   18  C23 UNL     1      -6.086  46.357 -17.702  1.00  0.00     0.018 C 
HETATM   19  C24 UNL     1      -7.401  47.038 -17.261  1.00  0.00     0.023 C 
HETATM   20  C25 UNL     1      -6.395  44.890 -18.029  1.00  0.00     0.023 C 
HETATM   21  C26 UNL     1      -5.143  46.374 -16.486  1.00  0.00     0.135 C 
HETATM   22  O4  UNL     1      -5.493  45.944 -15.386  1.00  0.00    -0.297 OA
HETATM   23  C27 UNL     1      -3.762  46.954 -16.678  1.00  0.00     0.080 C 
HETATM   24  C28 UNL     1      -3.152  46.392 -17.952  1.00  0.00     0.020 C 
HETATM   25  C29 UNL     1      -3.945  46.743 -19.251  1.00  0.00    -0.004 C 
HETATM   26  C30 UNL     1      -3.887  45.491 -20.167  1.00  0.00     0.019 C 
ENDROOT
BRANCH   1  27
HETATM   27  C7  UNL     1      -0.642  51.787 -23.028  1.00  0.00    -0.014 C 
HETATM   28  C8  UNL     1       0.510  52.139 -22.065  1.00  0.00     0.010 C 
BRANCH  27  29
HETATM   29  C6  UNL     1      -0.758  52.892 -24.101  1.00  0.00     0.008 C 
BRANCH  29  30
HETATM   30  C5  UNL     1       0.518  53.300 -24.839  1.00  0.00     0.028 C 
BRANCH  30  31
HETATM   31  C4  UNL     1       0.449  52.895 -26.289  1.00  0.00    -0.025 C 
HETATM   32  C2  UNL     1       1.249  52.042 -26.956  1.00  0.00    -0.091 C 
HETATM   33  C1  UNL     1       1.005  51.747 -28.413  1.00  0.00     0.042 C 
HETATM   34  C3  UNL     1       2.422  51.306 -26.370  1.00  0.00     0.042 C 
ENDBRANCH  30  31
ENDBRANCH  29  30
ENDBRANCH  27  29
ENDBRANCH   1  27
TORSDOF 4
ENDMDL
MODEL 7
REMARK minimizedAffinity -9.00991344
REMARK CNNscore 0.19267334
REMARK CNNaffinity 6.79204893
REMARK  4 active torsions:
REMARK  status: ('A' for Active; 'I' for Inactive)
REMARK    1  A    between atoms: C4_4  and  C5_5 
REMARK    2  A    between atoms: C5_5  and  C6_6 
REMARK    3  A    between atoms: C6_6  and  C7_7 
REMARK    4  A    between atoms: C7_7  and  C9_9 
ROOT
HETATM    1  C9  UNL     1      -3.475  50.890 -25.272  1.00  0.00    -0.001 C 
HETATM    2  C10 UNL     1      -4.414  52.038 -24.824  1.00  0.00     0.007 C 
HETATM    3  C11 UNL     1      -4.679  51.836 -23.314  1.00  0.00     0.024 C 
HETATM    4  C12 UNL     1      -3.795  50.672 -22.917  1.00  0.00     0.092 C 
HETATM    5  C13 UNL     1      -2.377  51.140 -22.485  1.00  0.00     0.272 C 
HETATM    6  O1  UNL     1      -1.801  52.167 -22.800  1.00  0.00    -0.264 OA
HETATM    7  O2  UNL     1      -1.834  50.179 -21.651  1.00  0.00    -0.305 OA
HETATM    8  C14 UNL     1      -2.801  49.117 -21.472  1.00  0.00     0.113 C 
HETATM    9  C15 UNL     1      -2.564  48.100 -22.639  1.00  0.00     0.043 C 
HETATM   10  C16 UNL     1      -2.549  48.766 -24.044  1.00  0.00     0.014 C 
HETATM   11  C17 UNL     1      -3.707  49.781 -24.204  1.00  0.00    -0.020 C 
HETATM   12  C18 UNL     1      -5.010  48.986 -24.452  1.00  0.00     0.017 C 
HETATM   13  C19 UNL     1      -4.086  49.857 -21.720  1.00  0.00     0.137 A 
HETATM   14  O3  UNL     1      -5.347  49.258 -21.496  1.00  0.00    -0.364 OA
HETATM   15  C20 UNL     1      -4.984  50.319 -20.591  1.00  0.00     0.162 A 
HETATM   16  C21 UNL     1      -4.698  49.885 -19.185  1.00  0.00     0.042 C 
HETATM   17  C22 UNL     1      -3.185  49.637 -19.005  1.00  0.00     0.014 C 
HETATM   18  C23 UNL     1      -2.699  49.495 -17.524  1.00  0.00     0.018 C 
HETATM   19  C24 UNL     1      -3.052  50.768 -16.723  1.00  0.00     0.023 C 
HETATM   20  C25 UNL     1      -3.266  48.285 -16.769  1.00  0.00     0.023 C 
HETATM   21  C26 UNL     1      -1.166  49.371 -17.516  1.00  0.00     0.135 C 
HETATM   22  O4  UNL     1      -0.516  49.405 -16.470  1.00  0.00    -0.297 OA
HETATM   23  C27 UNL     1      -0.467  49.219 -18.847  1.00  0.00     0.080 C 
HETATM   24  C28 UNL     1      -1.190  48.169 -19.677  1.00  0.00     0.020 C 
HETATM   25  C29 UNL     1      -2.672  48.527 -20.013  1.00  0.00    -0.004 C 
HETATM   26  C30 UNL     1      -3.484  47.206 -19.933  1.00  0.00     0.019 C 
ENDROOT
BRANCH   1  27
HETATM   27  C7  UNL     1      -3.382  50.573 -26.789  1.00  0.00    -0.014 C 
HETATM   28  C8  UNL     1      -3.842  49.121 -27.038  1.00  0.00     0.010 C 
BRANCH  27  29
HETATM   29  C6  UNL     1      -2.095  50.839 -27.601  1.00  0.00     0.008 C 
BRANCH  29  30
HETATM   30  C5  UNL     1      -1.272  52.078 -27.241  1.00  0.00     0.028 C 
BRANCH  30  31
HETATM   31  C4  UNL     1       0.202  51.785 -27.336  1.00  0.00    -0.025 C 
HETATM   32  C2  UNL     1       1.124  51.816 -26.355  1.00  0.00    -0.091 C 
HETATM   33  C1  UNL     1       2.561  51.468 -26.646  1.00  0.00     0.042 C 
HETATM   34  C3  UNL     1       0.859  52.174 -24.919  1.00  0.00     0.042 C 
ENDBRANCH  30  31
ENDBRANCH  29  30
ENDBRANCH  27  29
ENDBRANCH   1  27
TORSDOF 4
ENDMDL
MODEL 8
REMARK minimizedAffinity -7.75933456
REMARK CNNscore 0.186063692
REMARK CNNaffinity 6.37253952
REMARK  4 active torsions:
REMARK  status: ('A' for Active; 'I' for Inactive)
REMARK    1  A    between atoms: C4_4  and  C5_5 
REMARK    2  A    between atoms: C5_5  and  C6_6 
REMARK    3  A    between atoms: C6_6  and  C7_7 
REMARK    4  A    between atoms: C7_7  and  C9_9 
ROOT
HETATM    1  C9  UNL     1      -1.874  49.692 -15.940  1.00  0.00    -0.001 C 
HETATM    2  C10 UNL     1      -0.376  49.718 -16.336  1.00  0.00     0.007 C 
HETATM    3  C11 UNL     1      -0.313  49.488 -17.863  1.00  0.00     0.024 C 
HETATM    4  C12 UNL     1      -1.760  49.467 -18.313  1.00  0.00     0.092 C 
HETATM    5  C13 UNL     1      -2.279  50.888 -18.667  1.00  0.00     0.272 C 
HETATM    6  O1  UNL     1      -1.860  51.959 -18.265  1.00  0.00    -0.264 OA
HETATM    7  O2  UNL     1      -3.338  50.759 -19.549  1.00  0.00    -0.305 OA
HETATM    8  C14 UNL     1      -3.541  49.354 -19.831  1.00  0.00     0.113 C 
HETATM    9  C15 UNL     1      -4.519  48.818 -18.730  1.00  0.00     0.043 C 
HETATM   10  C16 UNL     1      -4.061  49.154 -17.283  1.00  0.00     0.014 C 
HETATM   11  C17 UNL     1      -2.549  48.886 -17.089  1.00  0.00    -0.020 C 
HETATM   12  C18 UNL     1      -2.349  47.361 -16.937  1.00  0.00     0.017 C 
HETATM   13  C19 UNL     1      -2.165  48.809 -19.572  1.00  0.00     0.137 A 
HETATM   14  O3  UNL     1      -1.823  47.470 -19.876  1.00  0.00    -0.364 OA
HETATM   15  C20 UNL     1      -1.200  48.481 -20.693  1.00  0.00     0.162 A 
HETATM   16  C21 UNL     1      -1.670  48.524 -22.117  1.00  0.00     0.042 C 
HETATM   17  C22 UNL     1      -2.812  49.551 -22.266  1.00  0.00     0.014 C 
HETATM   18  C23 UNL     1      -3.179  49.938 -23.739  1.00  0.00     0.018 C 
HETATM   19  C24 UNL     1      -1.943  50.521 -24.460  1.00  0.00     0.023 C 
HETATM   20  C25 UNL     1      -3.731  48.789 -24.592  1.00  0.00     0.023 C 
HETATM   21  C26 UNL     1      -4.244  51.047 -23.708  1.00  0.00     0.135 C 
HETATM   22  O4  UNL     1      -4.593  51.642 -24.728  1.00  0.00    -0.297 OA
HETATM   23  C27 UNL     1      -4.849  51.402 -22.370  1.00  0.00     0.080 C 
HETATM   24  C28 UNL     1      -5.233  50.126 -21.637  1.00  0.00     0.020 C 
HETATM   25  C29 UNL     1      -4.030  49.181 -21.323  1.00  0.00    -0.004 C 
HETATM   26  C30 UNL     1      -4.536  47.726 -21.519  1.00  0.00     0.019 C 
ENDROOT
BRANCH   1  27
HETATM   27  C7  UNL     1      -2.231  49.462 -14.446  1.00  0.00    -0.014 C 
HETATM   28  C8  UNL     1      -2.755  48.022 -14.260  1.00  0.00     0.010 C 
BRANCH  27  29
HETATM   29  C6  UNL     1      -3.143  50.434 -13.666  1.00  0.00     0.008 C 
BRANCH  29  30
HETATM   30  C5  UNL     1      -2.713  51.899 -13.585  1.00  0.00     0.028 C 
BRANCH  30  31
HETATM   31  C4  UNL     1      -3.500  52.628 -12.526  1.00  0.00    -0.025 C 
HETATM   32  C2  UNL     1      -3.047  53.190 -11.389  1.00  0.00    -0.091 C 
HETATM   33  C1  UNL     1      -3.995  53.898 -10.457  1.00  0.00     0.042 C 
HETATM   34  C3  UNL     1      -1.616  53.192 -10.925  1.00  0.00     0.042 C 
ENDBRANCH  30  31
ENDBRANCH  29  30
ENDBRANCH  27  29
ENDBRANCH   1  27
TORSDOF 4
ENDMDL
MODEL 9
REMARK minimizedAffinity -7.20731592
REMARK CNNscore 0.158828959
REMARK CNNaffinity 5.56015539
REMARK  4 active torsions:
REMARK  status: ('A' for Active; 'I' for Inactive)
REMARK    1  A    between atoms: C4_4  and  C5_5 
REMARK    2  A    between atoms: C5_5  and  C6_6 
REMARK    3  A    between atoms: C6_6  and  C7_7 
REMARK    4  A    between atoms: C7_7  and  C9_9 
ROOT
HETATM    1  C9  UNL     1      -7.116  47.051 -22.884  1.00  0.00    -0.001 C 
HETATM    2  C10 UNL     1      -8.495  46.829 -22.214  1.00  0.00     0.007 C 
HETATM    3  C11 UNL     1      -9.550  46.844 -23.344  1.00  0.00     0.024 C 
HETATM    4  C12 UNL     1      -8.746  46.943 -24.624  1.00  0.00     0.092 C 
HETATM    5  C13 UNL     1      -8.351  45.544 -25.173  1.00  0.00     0.272 C 
HETATM    6  O1  UNL     1      -8.240  44.502 -24.551  1.00  0.00    -0.264 OA
HETATM    7  O2  UNL     1      -8.131  45.654 -26.535  1.00  0.00    -0.305 OA
HETATM    8  C14 UNL     1      -8.382  47.021 -26.938  1.00  0.00     0.113 C 
HETATM    9  C15 UNL     1      -7.030  47.791 -26.756  1.00  0.00     0.043 C 
HETATM   10  C16 UNL     1      -6.403  47.611 -25.345  1.00  0.00     0.014 C 
HETATM   11  C17 UNL     1      -7.465  47.756 -24.228  1.00  0.00    -0.020 C 
HETATM   12  C18 UNL     1      -7.764  49.262 -24.045  1.00  0.00     0.017 C 
HETATM   13  C19 UNL     1      -9.345  47.461 -25.871  1.00  0.00     0.137 A 
HETATM   14  O3  UNL     1     -10.010  48.708 -25.935  1.00  0.00    -0.364 OA
HETATM   15  C20 UNL     1     -10.838  47.542 -26.113  1.00  0.00     0.162 A 
HETATM   16  C21 UNL     1     -11.381  47.353 -27.498  1.00  0.00     0.042 C 
HETATM   17  C22 UNL     1     -10.449  46.429 -28.310  1.00  0.00     0.014 C 
HETATM   18  C23 UNL     1     -11.045  45.885 -29.652  1.00  0.00     0.018 C 
HETATM   19  C24 UNL     1     -12.343  45.095 -29.375  1.00  0.00     0.023 C 
HETATM   20  C25 UNL     1     -11.354  46.957 -30.705  1.00  0.00     0.023 C 
HETATM   21  C26 UNL     1     -10.043  44.897 -30.273  1.00  0.00     0.135 C 
HETATM   22  O4  UNL     1     -10.332  44.207 -31.251  1.00  0.00    -0.297 OA
HETATM   23  C27 UNL     1      -8.679  44.786 -29.633  1.00  0.00     0.080 C 
HETATM   24  C28 UNL     1      -8.127  46.180 -29.376  1.00  0.00     0.020 C 
HETATM   25  C29 UNL     1      -8.988  47.038 -28.396  1.00  0.00    -0.004 C 
HETATM   26  C30 UNL     1      -8.963  48.495 -28.932  1.00  0.00     0.019 C 
ENDROOT
BRANCH   1  27
HETATM   27  C7  UNL     1      -5.935  47.514 -21.988  1.00  0.00    -0.014 C 
HETATM   28  C8  UNL     1      -6.469  47.894 -20.592  1.00  0.00     0.010 C 
BRANCH  27  29
HETATM   29  C6  UNL     1      -4.932  48.592 -22.454  1.00  0.00     0.008 C 
BRANCH  29  30
HETATM   30  C5  UNL     1      -3.529  48.131 -22.855  1.00  0.00     0.028 C 
BRANCH  30  31
HETATM   31  C4  UNL     1      -2.779  49.243 -23.541  1.00  0.00    -0.025 C 
HETATM   32  C2  UNL     1      -2.587  49.429 -24.861  1.00  0.00    -0.091 C 
HETATM   33  C1  UNL     1      -1.816  50.624 -25.359  1.00  0.00     0.042 C 
HETATM   34  C3  UNL     1      -3.090  48.526 -25.953  1.00  0.00     0.042 C 
ENDBRANCH  30  31
ENDBRANCH  29  30
ENDBRANCH  27  29
ENDBRANCH   1  27
TORSDOF 4
ENDMDL
