MODEL 1
REMARK minimizedAffinity -7.98966694
REMARK CNNscore 0.707517028
REMARK CNNaffinity 7.60449171
REMARK  12 active torsions:
REMARK  status: ('A' for Active; 'I' for Inactive)
REMARK    1  A    between atoms: O1_2  and  C2_3 
REMARK    2  A    between atoms: C2_3  and  C3_4 
REMARK    3  A    between atoms: C3_4  and  C4_5 
REMARK    4  A    between atoms: C4_5  and  N1_6 
REMARK    5  A    between atoms: N1_6  and  C5_7 
REMARK    6  A    between atoms: C5_7  and  C6_8 
REMARK    7  A    between atoms: C10_12  and  O2_13 
REMARK    8  A    between atoms: C24_29  and  O5_30 
REMARK    9  A    between atoms: C28_34  and  C29_35 
REMARK   10  A    between atoms: C35_41  and  O6_42 
REMARK   11  A    between atoms: C38_45  and  C39_46 
REMARK   12  A    between atoms: C40_48  and  O8_49 
ROOT
HETATM    1  C6  UNL     1       1.408  47.506 -13.208  1.00  0.00    -0.016 C 
HETATM    2  C7  UNL     1       0.828  47.390 -14.423  1.00  0.00    -0.013 C 
HETATM    3  C8  UNL     1       0.701  48.540 -15.391  1.00  0.00     0.021 C 
HETATM    4  C9  UNL     1      -0.685  49.173 -15.389  1.00  0.00     0.051 C 
HETATM    5  C10 UNL     1      -0.509  50.552 -16.055  1.00  0.00     0.098 C 
HETATM    6  C11 UNL     1       0.896  51.049 -15.499  1.00  0.00     0.002 C 
HETATM    7  C12 UNL     1       0.784  52.038 -14.270  1.00  0.00     0.013 C 
HETATM    8  C13 UNL     1      -0.001  51.708 -12.996  1.00  0.00     0.001 C 
HETATM    9  C14 UNL     1       0.783  51.056 -11.858  1.00  0.00     0.004 C 
HETATM   10  C15 UNL     1       0.773  49.529 -11.906  1.00  0.00     0.048 C 
HETATM   11  C16 UNL     1       1.892  48.867 -12.735  1.00  0.00     0.120 A 
HETATM   12  O3  UNL     1       3.042  48.743 -11.885  1.00  0.00    -0.297 OA
HETATM   13  C17 UNL     1       4.074  49.462 -12.393  1.00  0.00     0.284 A 
HETATM   14  O4  UNL     1       5.165  49.593 -11.871  1.00  0.00    -0.260 OA
HETATM   15  C18 UNL     1       3.696  50.004 -13.692  1.00  0.00     0.089 A 
HETATM   16  C19 UNL     1       2.429  49.642 -13.891  1.00  0.00    -0.029 A 
HETATM   17  C20 UNL     1       1.676  49.725 -15.180  1.00  0.00     0.037 C 
HETATM   18  C21 UNL     1       1.732  51.868 -16.542  1.00  0.00     0.014 C 
HETATM   19  C22 UNL     1       0.905  52.460 -17.673  1.00  0.00     0.010 C 
HETATM   20  C23 UNL     1       0.311  51.304 -18.481  1.00  0.00     0.041 C 
HETATM   21  C24 UNL     1      -0.776  50.581 -17.648  1.00  0.00     0.095 C 
HETATM   22  C25 UNL     1      -1.081  49.223 -18.323  1.00  0.00     0.049 C 
HETATM   23  C26 UNL     1      -0.814  49.201 -19.852  1.00  0.00     0.025 C 
HETATM   24  C27 UNL     1      -1.439  47.932 -20.485  1.00  0.00     0.012 C 
HETATM   25  C28 UNL     1      -2.934  48.024 -20.838  1.00  0.00    -0.011 C 
HETATM   26  C32 UNL     1      -3.212  48.926 -22.070  1.00  0.00     0.005 C 
HETATM   27  C33 UNL     1      -2.050  49.577 -22.827  1.00  0.00     0.010 C 
HETATM   28  C34 UNL     1      -0.925  50.343 -22.086  1.00  0.00     0.050 C 
HETATM   29  C35 UNL     1      -0.643  51.681 -22.783  1.00  0.00     0.125 C 
HETATM   30  C36 UNL     1       0.690  52.270 -22.304  1.00  0.00     0.033 C 
HETATM   31  C37 UNL     1       1.063  51.867 -20.865  1.00  0.00     0.023 C 
HETATM   32  C38 UNL     1      -0.168  51.696 -19.937  1.00  0.00     0.051 C 
HETATM   33  C40 UNL     1      -1.109  50.559 -20.553  1.00  0.00     0.082 C 
ENDROOT
BRANCH   1  34
HETATM   34  C5  UNL     1       1.489  46.344 -12.249  1.00  0.00     0.306 C 
BRANCH  34  35
HETATM   35  N1  UNL     1       2.304  45.237 -12.741  1.00  0.00     0.087 N 
HETATM   36  H10 UNL     1       1.696  44.464 -13.007  1.00  0.00     0.316 HD
BRANCH  35  37
HETATM   37  C4  UNL     1       3.301  44.745 -11.780  1.00  0.00     0.272 C 
BRANCH  37  38
HETATM   38  C3  UNL     1       4.329  43.782 -12.389  1.00  0.00     0.056 C 
BRANCH  38  39
HETATM   39  C2  UNL     1       5.534  43.594 -11.470  1.00  0.00     0.168 C 
BRANCH  39  40
HETATM   40  O1  UNL     1       6.127  42.302 -11.613  1.00  0.00    -0.396 OA
HETATM   41  C1  UNL     1       6.691  42.091 -12.903  1.00  0.00     0.201 C 
ENDBRANCH  39  40
ENDBRANCH  38  39
ENDBRANCH  37  38
ENDBRANCH  35  37
ENDBRANCH  34  35
ENDBRANCH   1  34
BRANCH   5  42
HETATM   42  O2  UNL     1      -1.538  51.385 -15.466  1.00  0.00    -0.386 OA
HETATM   43  H17 UNL     1      -2.089  51.699 -16.216  1.00  0.00     0.210 HD
ENDBRANCH   5  42
BRANCH  21  44
HETATM   44  O5  UNL     1      -2.005  51.361 -17.775  1.00  0.00    -0.386 OA
HETATM   45  H33 UNL     1      -2.468  51.087 -18.598  1.00  0.00     0.210 HD
ENDBRANCH  21  44
BRANCH  32  46
HETATM   46  C39 UNL     1      -0.867  53.074 -19.840  1.00  0.00     0.244 C 
HETATM   47  O7  UNL     1      -0.273  54.151 -19.897  1.00  0.00    -0.306 OA
ENDBRANCH  32  46
BRANCH  33  48
HETATM   48  O8  UNL     1      -2.464  50.926 -20.270  1.00  0.00    -0.388 OA
HETATM   49  H59 UNL     1      -2.742  51.526 -21.003  1.00  0.00     0.210 HD
ENDBRANCH  33  48
BRANCH  25  50
HETATM   50  C29 UNL     1      -3.611  46.620 -21.034  1.00  0.00    -0.019 C 
HETATM   51  C30 UNL     1      -3.804  45.844 -19.722  1.00  0.00     0.010 C 
HETATM   52  C31 UNL     1      -4.994  46.763 -21.696  1.00  0.00     0.010 C 
ENDBRANCH  25  50
BRANCH  29  53
HETATM   53  O6  UNL     1      -1.731  52.563 -22.488  1.00  0.00    -0.395 OA
HETATM   54  H53 UNL     1      -1.524  53.428 -22.895  1.00  0.00     0.210 HD
ENDBRANCH  29  53
TORSDOF 12
ENDMDL
MODEL 2
REMARK minimizedAffinity -7.93601894
REMARK CNNscore 0.617168427
REMARK CNNaffinity 7.03578997
REMARK  12 active torsions:
REMARK  status: ('A' for Active; 'I' for Inactive)
REMARK    1  A    between atoms: O1_2  and  C2_3 
REMARK    2  A    between atoms: C2_3  and  C3_4 
REMARK    3  A    between atoms: C3_4  and  C4_5 
REMARK    4  A    between atoms: C4_5  and  N1_6 
REMARK    5  A    between atoms: N1_6  and  C5_7 
REMARK    6  A    between atoms: C5_7  and  C6_8 
REMARK    7  A    between atoms: C10_12  and  O2_13 
REMARK    8  A    between atoms: C24_29  and  O5_30 
REMARK    9  A    between atoms: C28_34  and  C29_35 
REMARK   10  A    between atoms: C35_41  and  O6_42 
REMARK   11  A    between atoms: C38_45  and  C39_46 
REMARK   12  A    between atoms: C40_48  and  O8_49 
ROOT
HETATM    1  C6  UNL     1      -9.948  44.775 -29.270  1.00  0.00    -0.016 C 
HETATM    2  C7  UNL     1      -9.597  43.594 -29.826  1.00  0.00    -0.013 C 
HETATM    3  C8  UNL     1      -8.380  43.421 -30.700  1.00  0.00     0.021 C 
HETATM    4  C9  UNL     1      -8.708  43.410 -32.188  1.00  0.00     0.051 C 
HETATM    5  C10 UNL     1      -7.372  43.681 -32.907  1.00  0.00     0.098 C 
HETATM    6  C11 UNL     1      -6.669  44.761 -31.975  1.00  0.00     0.002 C 
HETATM    7  C12 UNL     1      -6.848  46.251 -32.474  1.00  0.00     0.013 C 
HETATM    8  C13 UNL     1      -8.214  46.878 -32.771  1.00  0.00     0.001 C 
HETATM    9  C14 UNL     1      -8.886  47.630 -31.623  1.00  0.00     0.004 C 
HETATM   10  C15 UNL     1      -9.803  46.753 -30.772  1.00  0.00     0.048 C 
HETATM   11  C16 UNL     1      -9.140  46.022 -29.588  1.00  0.00     0.120 A 
HETATM   12  O3  UNL     1      -9.126  46.929 -28.475  1.00  0.00    -0.297 OA
HETATM   13  C17 UNL     1      -7.847  47.189 -28.104  1.00  0.00     0.284 A 
HETATM   14  O4  UNL     1      -7.512  47.960 -27.225  1.00  0.00    -0.260 OA
HETATM   15  C18 UNL     1      -6.937  46.355 -28.878  1.00  0.00     0.089 A 
HETATM   16  C19 UNL     1      -7.698  45.668 -29.731  1.00  0.00    -0.029 A 
HETATM   17  C20 UNL     1      -7.271  44.493 -30.550  1.00  0.00     0.037 C 
HETATM   18  C21 UNL     1      -5.113  44.598 -31.885  1.00  0.00     0.014 C 
HETATM   19  C22 UNL     1      -4.504  43.808 -33.034  1.00  0.00     0.010 C 
HETATM   20  C23 UNL     1      -5.044  42.377 -32.963  1.00  0.00     0.041 C 
HETATM   21  C24 UNL     1      -6.547  42.360 -33.338  1.00  0.00     0.095 C 
HETATM   22  C25 UNL     1      -7.140  41.000 -32.900  1.00  0.00     0.049 C 
HETATM   23  C26 UNL     1      -6.107  39.842 -32.858  1.00  0.00     0.025 C 
HETATM   24  C27 UNL     1      -6.836  38.482 -32.727  1.00  0.00     0.012 C 
HETATM   25  C28 UNL     1      -7.344  37.862 -34.041  1.00  0.00    -0.011 C 
HETATM   26  C32 UNL     1      -6.200  37.304 -34.930  1.00  0.00     0.005 C 
HETATM   27  C33 UNL     1      -4.748  37.362 -34.445  1.00  0.00     0.010 C 
HETATM   28  C34 UNL     1      -4.134  38.663 -33.871  1.00  0.00     0.050 C 
HETATM   29  C35 UNL     1      -2.751  38.916 -34.484  1.00  0.00     0.125 C 
HETATM   30  C36 UNL     1      -1.982  39.966 -33.672  1.00  0.00     0.033 C 
HETATM   31  C37 UNL     1      -2.892  40.986 -32.963  1.00  0.00     0.023 C 
HETATM   32  C38 UNL     1      -4.186  41.310 -33.755  1.00  0.00     0.051 C 
HETATM   33  C40 UNL     1      -5.007  39.952 -33.954  1.00  0.00     0.082 C 
ENDROOT
BRANCH   1  34
HETATM   34  C5  UNL     1     -11.191  44.921 -28.427  1.00  0.00     0.306 C 
BRANCH  34  35
HETATM   35  N1  UNL     1     -12.421  44.996 -29.209  1.00  0.00     0.087 N 
HETATM   36  H10 UNL     1     -12.192  44.970 -30.201  1.00  0.00     0.316 HD
BRANCH  35  37
HETATM   37  C4  UNL     1     -13.236  46.190 -28.944  1.00  0.00     0.272 C 
BRANCH  37  38
HETATM   38  C3  UNL     1     -14.561  45.892 -28.231  1.00  0.00     0.056 C 
BRANCH  38  39
HETATM   39  C2  UNL     1     -15.045  44.471 -28.518  1.00  0.00     0.168 C 
BRANCH  39  40
HETATM   40  O1  UNL     1     -16.385  44.447 -29.012  1.00  0.00    -0.396 OA
HETATM   41  C1  UNL     1     -17.198  43.473 -28.366  1.00  0.00     0.201 C 
ENDBRANCH  39  40
ENDBRANCH  38  39
ENDBRANCH  37  38
ENDBRANCH  35  37
ENDBRANCH  34  35
ENDBRANCH   1  34
BRANCH   5  42
HETATM   42  O2  UNL     1      -7.742  44.337 -34.145  1.00  0.00    -0.386 OA
HETATM   43  H17 UNL     1      -7.388  43.770 -34.864  1.00  0.00     0.210 HD
ENDBRANCH   5  42
BRANCH  21  44
HETATM   44  O5  UNL     1      -6.627  42.367 -34.796  1.00  0.00    -0.386 OA
HETATM   45  H33 UNL     1      -6.547  41.441 -35.120  1.00  0.00     0.210 HD
ENDBRANCH  21  44
BRANCH  32  46
HETATM   46  C39 UNL     1      -3.756  41.960 -35.092  1.00  0.00     0.244 C 
HETATM   47  O7  UNL     1      -4.315  41.750 -36.169  1.00  0.00    -0.306 OA
ENDBRANCH  32  46
BRANCH  33  48
HETATM   48  O8  UNL     1      -5.650  40.026 -35.231  1.00  0.00    -0.388 OA
HETATM   49  H59 UNL     1      -4.989  39.700 -35.888  1.00  0.00     0.210 HD
ENDBRANCH  33  48
BRANCH  25  50
HETATM   50  C29 UNL     1      -8.443  36.761 -33.822  1.00  0.00    -0.019 C 
HETATM   51  C30 UNL     1      -7.867  35.386 -33.449  1.00  0.00     0.010 C 
HETATM   52  C31 UNL     1      -9.422  37.173 -32.708  1.00  0.00     0.010 C 
ENDBRANCH  25  50
BRANCH  29  53
HETATM   53  O6  UNL     1      -2.945  39.350 -35.834  1.00  0.00    -0.395 OA
HETATM   54  H53 UNL     1      -2.064  39.554 -36.205  1.00  0.00     0.210 HD
ENDBRANCH  29  53
TORSDOF 12
ENDMDL
MODEL 3
REMARK minimizedAffinity -7.29874563
REMARK CNNscore 0.597282529
REMARK CNNaffinity 7.26307297
REMARK  12 active torsions:
REMARK  status: ('A' for Active; 'I' for Inactive)
REMARK    1  A    between atoms: O1_2  and  C2_3 
REMARK    2  A    between atoms: C2_3  and  C3_4 
REMARK    3  A    between atoms: C3_4  and  C4_5 
REMARK    4  A    between atoms: C4_5  and  N1_6 
REMARK    5  A    between atoms: N1_6  and  C5_7 
REMARK    6  A    between atoms: C5_7  and  C6_8 
REMARK    7  A    between atoms: C10_12  and  O2_13 
REMARK    8  A    between atoms: C24_29  and  O5_30 
REMARK    9  A    between atoms: C28_34  and  C29_35 
REMARK   10  A    between atoms: C35_41  and  O6_42 
REMARK   11  A    between atoms: C38_45  and  C39_46 
REMARK   12  A    between atoms: C40_48  and  O8_49 
ROOT
HETATM    1  C6  UNL     1       1.585  47.430 -13.239  1.00  0.00    -0.016 C 
HETATM    2  C7  UNL     1       0.949  47.222 -14.413  1.00  0.00    -0.013 C 
HETATM    3  C8  UNL     1       0.649  48.326 -15.396  1.00  0.00     0.021 C 
HETATM    4  C9  UNL     1      -0.791  48.819 -15.321  1.00  0.00     0.051 C 
HETATM    5  C10 UNL     1      -0.796  50.189 -16.028  1.00  0.00     0.098 C 
HETATM    6  C11 UNL     1       0.582  50.839 -15.571  1.00  0.00     0.002 C 
HETATM    7  C12 UNL     1       0.444  51.845 -14.359  1.00  0.00     0.013 C 
HETATM    8  C13 UNL     1      -0.227  51.474 -13.032  1.00  0.00     0.001 C 
HETATM    9  C14 UNL     1       0.685  50.936 -11.931  1.00  0.00     0.004 C 
HETATM   10  C15 UNL     1       0.828  49.415 -11.945  1.00  0.00     0.048 C 
HETATM   11  C16 UNL     1       1.956  48.845 -12.826  1.00  0.00     0.120 A 
HETATM   12  O3  UNL     1       3.161  48.860 -12.047  1.00  0.00    -0.297 OA
HETATM   13  C17 UNL     1       4.083  49.664 -12.633  1.00  0.00     0.284 A 
HETATM   14  O4  UNL     1       5.184  49.918 -12.183  1.00  0.00    -0.260 OA
HETATM   15  C18 UNL     1       3.576  50.129 -13.918  1.00  0.00     0.089 A 
HETATM   16  C19 UNL     1       2.342  49.637 -14.030  1.00  0.00    -0.029 A 
HETATM   17  C20 UNL     1       1.510  49.609 -15.271  1.00  0.00     0.037 C 
HETATM   18  C21 UNL     1       1.267  51.707 -16.681  1.00  0.00     0.014 C 
HETATM   19  C22 UNL     1       0.319  52.182 -17.771  1.00  0.00     0.010 C 
HETATM   20  C23 UNL     1      -0.202  50.951 -18.515  1.00  0.00     0.041 C 
HETATM   21  C24 UNL     1      -1.159  50.146 -17.601  1.00  0.00     0.095 C 
HETATM   22  C25 UNL     1      -1.364  48.746 -18.226  1.00  0.00     0.049 C 
HETATM   23  C26 UNL     1      -1.188  48.708 -19.768  1.00  0.00     0.025 C 
HETATM   24  C27 UNL     1      -1.717  47.367 -20.333  1.00  0.00     0.012 C 
HETATM   25  C28 UNL     1      -3.232  47.299 -20.594  1.00  0.00    -0.011 C 
HETATM   26  C32 UNL     1      -3.673  48.134 -21.826  1.00  0.00     0.005 C 
HETATM   27  C33 UNL     1      -2.630  48.877 -22.668  1.00  0.00     0.010 C 
HETATM   28  C34 UNL     1      -1.547  49.772 -22.015  1.00  0.00     0.050 C 
HETATM   29  C35 UNL     1      -1.444  51.111 -22.757  1.00  0.00     0.125 C 
HETATM   30  C36 UNL     1      -0.151  51.843 -22.374  1.00  0.00     0.033 C 
HETATM   31  C37 UNL     1       0.345  51.520 -20.953  1.00  0.00     0.023 C 
HETATM   32  C38 UNL     1      -0.804  51.253 -19.947  1.00  0.00     0.051 C 
HETATM   33  C40 UNL     1      -1.660  50.010 -20.478  1.00  0.00     0.082 C 
ENDROOT
BRANCH   1  34
HETATM   34  C5  UNL     1       1.841  46.308 -12.262  1.00  0.00     0.306 C 
BRANCH  34  35
HETATM   35  N1  UNL     1       0.626  45.771 -11.658  1.00  0.00     0.087 N 
HETATM   36  H10 UNL     1       0.179  46.495 -11.099  1.00  0.00     0.316 HD
BRANCH  35  37
HETATM   37  C4  UNL     1       0.841  44.588 -10.813  1.00  0.00     0.272 C 
BRANCH  37  38
HETATM   38  C3  UNL     1      -0.397  43.694 -10.669  1.00  0.00     0.056 C 
BRANCH  38  39
HETATM   39  C2  UNL     1      -0.646  43.313  -9.210  1.00  0.00     0.168 C 
BRANCH  39  40
HETATM   40  O1  UNL     1      -1.811  42.502  -9.055  1.00  0.00    -0.396 OA
HETATM   41  C1  UNL     1      -2.898  42.929  -9.871  1.00  0.00     0.201 C 
ENDBRANCH  39  40
ENDBRANCH  38  39
ENDBRANCH  37  38
ENDBRANCH  35  37
ENDBRANCH  34  35
ENDBRANCH   1  34
BRANCH   5  42
HETATM   42  O2  UNL     1      -1.867  50.931 -15.394  1.00  0.00    -0.386 OA
HETATM   43  H17 UNL     1      -2.491  51.167 -16.114  1.00  0.00     0.210 HD
ENDBRANCH   5  42
BRANCH  21  44
HETATM   44  O5  UNL     1      -2.466  50.796 -17.668  1.00  0.00    -0.386 OA
HETATM   45  H33 UNL     1      -2.947  50.454 -18.455  1.00  0.00     0.210 HD
ENDBRANCH  21  44
BRANCH  32  46
HETATM   46  C39 UNL     1      -1.632  52.556 -19.836  1.00  0.00     0.244 C 
HETATM   47  O7  UNL     1      -2.811  52.594 -19.482  1.00  0.00    -0.306 OA
ENDBRANCH  32  46
BRANCH  33  48
HETATM   48  O8  UNL     1      -3.026  50.248 -20.120  1.00  0.00    -0.388 OA
HETATM   49  H59 UNL     1      -3.407  50.797 -20.847  1.00  0.00     0.210 HD
ENDBRANCH  33  48
BRANCH  25  50
HETATM   50  C29 UNL     1      -3.775  45.829 -20.717  1.00  0.00    -0.019 C 
HETATM   51  C30 UNL     1      -3.887  45.103 -19.369  1.00  0.00     0.010 C 
HETATM   52  C31 UNL     1      -5.167  45.810 -21.374  1.00  0.00     0.010 C 
ENDBRANCH  25  50
BRANCH  29  53
HETATM   53  O6  UNL     1      -2.596  51.887 -22.415  1.00  0.00    -0.395 OA
HETATM   54  H53 UNL     1      -2.502  52.757 -22.852  1.00  0.00     0.210 HD
ENDBRANCH  29  53
TORSDOF 12
ENDMDL
MODEL 4
REMARK minimizedAffinity -7.44920254
REMARK CNNscore 0.514775515
REMARK CNNaffinity 6.54062033
REMARK  12 active torsions:
REMARK  status: ('A' for Active; 'I' for Inactive)
REMARK    1  A    between atoms: O1_2  and  C2_3 
REMARK    2  A    between atoms: C2_3  and  C3_4 
REMARK    3  A    between atoms: C3_4  and  C4_5 
REMARK    4  A    between atoms: C4_5  and  N1_6 
REMARK    5  A    between atoms: N1_6  and  C5_7 
REMARK    6  A    between atoms: C5_7  and  C6_8 
REMARK    7  A    between atoms: C10_12  and  O2_13 
REMARK    8  A    between atoms: C24_29  and  O5_30 
REMARK    9  A    between atoms: C28_34  and  C29_35 
REMARK   10  A    between atoms: C35_41  and  O6_42 
REMARK   11  A    between atoms: C38_45  and  C39_46 
REMARK   12  A    between atoms: C40_48  and  O8_49 
ROOT
HETATM    1  C6  UNL     1      -9.242  44.988 -27.848  1.00  0.00    -0.016 C 
HETATM    2  C7  UNL     1      -9.829  45.087 -26.635  1.00  0.00    -0.013 C 
HETATM    3  C8  UNL     1     -11.318  45.241 -26.448  1.00  0.00     0.021 C 
HETATM    4  C9  UNL     1     -11.742  46.678 -26.173  1.00  0.00     0.051 C 
HETATM    5  C10 UNL     1     -13.257  46.722 -26.458  1.00  0.00     0.098 C 
HETATM    6  C11 UNL     1     -13.415  45.785 -27.733  1.00  0.00     0.002 C 
HETATM    7  C12 UNL     1     -13.480  46.573 -29.103  1.00  0.00     0.013 C 
HETATM    8  C13 UNL     1     -12.416  47.585 -29.540  1.00  0.00     0.001 C 
HETATM    9  C14 UNL     1     -11.268  47.046 -30.392  1.00  0.00     0.004 C 
HETATM   10  C15 UNL     1     -10.066  46.580 -29.573  1.00  0.00     0.048 C 
HETATM   11  C16 UNL     1     -10.089  45.112 -29.104  1.00  0.00     0.120 A 
HETATM   12  O3  UNL     1      -9.558  44.310 -30.170  1.00  0.00    -0.297 OA
HETATM   13  C17 UNL     1     -10.500  43.437 -30.607  1.00  0.00     0.284 A 
HETATM   14  O4  UNL     1     -10.365  42.662 -31.534  1.00  0.00    -0.260 OA
HETATM   15  C18 UNL     1     -11.679  43.527 -29.755  1.00  0.00     0.089 A 
HETATM   16  C19 UNL     1     -11.427  44.495 -28.874  1.00  0.00    -0.029 A 
HETATM   17  C20 UNL     1     -12.208  44.787 -27.633  1.00  0.00     0.037 C 
HETATM   18  C21 UNL     1     -14.740  44.948 -27.738  1.00  0.00     0.014 C 
HETATM   19  C22 UNL     1     -15.833  45.510 -26.843  1.00  0.00     0.010 C 
HETATM   20  C23 UNL     1     -15.342  45.440 -25.395  1.00  0.00     0.041 C 
HETATM   21  C24 UNL     1     -14.202  46.465 -25.173  1.00  0.00     0.095 C 
HETATM   22  C25 UNL     1     -13.487  46.116 -23.847  1.00  0.00     0.049 C 
HETATM   23  C26 UNL     1     -14.387  45.384 -22.815  1.00  0.00     0.025 C 
HETATM   24  C27 UNL     1     -13.700  45.363 -21.427  1.00  0.00     0.012 C 
HETATM   25  C28 UNL     1     -13.890  46.623 -20.565  1.00  0.00    -0.011 C 
HETATM   26  C32 UNL     1     -15.326  46.753 -19.989  1.00  0.00     0.005 C 
HETATM   27  C33 UNL     1     -16.368  45.663 -20.263  1.00  0.00     0.010 C 
HETATM   28  C34 UNL     1     -16.617  45.118 -21.691  1.00  0.00     0.050 C 
HETATM   29  C35 UNL     1     -18.122  45.045 -21.979  1.00  0.00     0.125 C 
HETATM   30  C36 UNL     1     -18.396  44.175 -23.213  1.00  0.00     0.033 C 
HETATM   31  C37 UNL     1     -17.246  44.176 -24.237  1.00  0.00     0.023 C 
HETATM   32  C38 UNL     1     -16.487  45.527 -24.306  1.00  0.00     0.051 C 
HETATM   33  C40 UNL     1     -15.876  45.835 -22.861  1.00  0.00     0.082 C 
ENDROOT
BRANCH   1  34
HETATM   34  C5  UNL     1      -7.745  44.870 -28.002  1.00  0.00     0.306 C 
BRANCH  34  35
HETATM   35  N1  UNL     1      -7.057  46.156 -28.032  1.00  0.00     0.087 N 
HETATM   36  H10 UNL     1      -7.709  46.893 -27.766  1.00  0.00     0.316 HD
BRANCH  35  37
HETATM   37  C4  UNL     1      -6.465  46.497 -29.333  1.00  0.00     0.272 C 
BRANCH  37  38
HETATM   38  C3  UNL     1      -6.190  47.995 -29.517  1.00  0.00     0.056 C 
BRANCH  38  39
HETATM   39  C2  UNL     1      -4.881  48.411 -28.846  1.00  0.00     0.168 C 
BRANCH  39  40
HETATM   40  O1  UNL     1      -4.933  48.265 -27.427  1.00  0.00    -0.396 OA
HETATM   41  C1  UNL     1      -3.651  48.350 -26.813  1.00  0.00     0.201 C 
ENDBRANCH  39  40
ENDBRANCH  38  39
ENDBRANCH  37  38
ENDBRANCH  35  37
ENDBRANCH  34  35
ENDBRANCH   1  34
BRANCH   5  42
HETATM   42  O2  UNL     1     -13.517  48.085 -26.875  1.00  0.00    -0.386 OA
HETATM   43  H17 UNL     1     -14.178  48.437 -26.240  1.00  0.00     0.210 HD
ENDBRANCH   5  42
BRANCH  21  44
HETATM   44  O5  UNL     1     -14.830  47.764 -24.946  1.00  0.00    -0.386 OA
HETATM   45  H33 UNL     1     -15.066  47.837 -23.993  1.00  0.00     0.210 HD
ENDBRANCH  21  44
BRANCH  32  46
HETATM   46  C39 UNL     1     -17.496  46.600 -24.779  1.00  0.00     0.244 C 
HETATM   47  O7  UNL     1     -18.581  46.340 -25.303  1.00  0.00    -0.306 OA
ENDBRANCH  32  46
BRANCH  33  48
HETATM   48  O8  UNL     1     -15.922  47.254 -22.672  1.00  0.00    -0.388 OA
HETATM   49  H59 UNL     1     -16.821  47.451 -22.313  1.00  0.00     0.210 HD
ENDBRANCH  33  48
BRANCH  25  50
HETATM   50  C29 UNL     1     -12.833  46.748 -19.409  1.00  0.00    -0.019 C 
HETATM   51  C30 UNL     1     -11.608  47.594 -19.788  1.00  0.00     0.010 C 
HETATM   52  C31 UNL     1     -13.463  47.379 -18.153  1.00  0.00     0.010 C 
ENDBRANCH  25  50
BRANCH  29  53
HETATM   53  O6  UNL     1     -18.593  46.382 -22.177  1.00  0.00    -0.395 OA
HETATM   54  H53 UNL     1     -19.542  46.327 -22.406  1.00  0.00     0.210 HD
ENDBRANCH  29  53
TORSDOF 12
ENDMDL
MODEL 5
REMARK minimizedAffinity -8.12469387
REMARK CNNscore 0.455192387
REMARK CNNaffinity 6.96736574
REMARK  12 active torsions:
REMARK  status: ('A' for Active; 'I' for Inactive)
REMARK    1  A    between atoms: O1_2  and  C2_3 
REMARK    2  A    between atoms: C2_3  and  C3_4 
REMARK    3  A    between atoms: C3_4  and  C4_5 
REMARK    4  A    between atoms: C4_5  and  N1_6 
REMARK    5  A    between atoms: N1_6  and  C5_7 
REMARK    6  A    between atoms: C5_7  and  C6_8 
REMARK    7  A    between atoms: C10_12  and  O2_13 
REMARK    8  A    between atoms: C24_29  and  O5_30 
REMARK    9  A    between atoms: C28_34  and  C29_35 
REMARK   10  A    between atoms: C35_41  and  O6_42 
REMARK   11  A    between atoms: C38_45  and  C39_46 
REMARK   12  A    between atoms: C40_48  and  O8_49 
ROOT
HETATM    1  C6  UNL     1      -6.226  48.107 -23.428  1.00  0.00    -0.016 C 
HETATM    2  C7  UNL     1      -7.539  47.810 -23.548  1.00  0.00    -0.013 C 
HETATM    3  C8  UNL     1      -8.488  47.778 -22.377  1.00  0.00     0.021 C 
HETATM    4  C9  UNL     1      -8.768  46.368 -21.871  1.00  0.00     0.051 C 
HETATM    5  C10 UNL     1      -9.355  46.546 -20.456  1.00  0.00     0.098 C 
HETATM    6  C11 UNL     1      -8.503  47.748 -19.857  1.00  0.00     0.002 C 
HETATM    7  C12 UNL     1      -7.306  47.285 -18.933  1.00  0.00     0.013 C 
HETATM    8  C13 UNL     1      -6.235  46.285 -19.383  1.00  0.00     0.001 C 
HETATM    9  C14 UNL     1      -4.970  46.873 -20.006  1.00  0.00     0.004 C 
HETATM   10  C15 UNL     1      -5.049  47.021 -21.524  1.00  0.00     0.048 C 
HETATM   11  C16 UNL     1      -5.634  48.347 -22.049  1.00  0.00     0.120 A 
HETATM   12  O3  UNL     1      -4.561  49.300 -22.103  1.00  0.00    -0.297 OA
HETATM   13  C17 UNL     1      -4.823  50.341 -21.274  1.00  0.00     0.284 A 
HETATM   14  O4  UNL     1      -4.078  51.280 -21.065  1.00  0.00    -0.260 OA
HETATM   15  C18 UNL     1      -6.162  50.194 -20.716  1.00  0.00     0.089 A 
HETATM   16  C19 UNL     1      -6.633  49.037 -21.183  1.00  0.00    -0.029 A 
HETATM   17  C20 UNL     1      -8.051  48.568 -21.117  1.00  0.00     0.037 C 
HETATM   18  C21 UNL     1      -9.327  48.701 -18.926  1.00  0.00     0.014 C 
HETATM   19  C22 UNL     1     -10.596  48.077 -18.366  1.00  0.00     0.010 C 
HETATM   20  C23 UNL     1     -11.535  47.780 -19.538  1.00  0.00     0.041 C 
HETATM   21  C24 UNL     1     -10.967  46.617 -20.389  1.00  0.00     0.095 C 
HETATM   22  C25 UNL     1     -11.718  46.594 -21.741  1.00  0.00     0.049 C 
HETATM   23  C26 UNL     1     -13.156  47.176 -21.678  1.00  0.00     0.025 C 
HETATM   24  C27 UNL     1     -13.932  46.825 -22.971  1.00  0.00     0.012 C 
HETATM   25  C28 UNL     1     -14.593  45.435 -23.001  1.00  0.00    -0.011 C 
HETATM   26  C32 UNL     1     -15.838  45.336 -22.079  1.00  0.00     0.005 C 
HETATM   27  C33 UNL     1     -16.317  46.563 -21.296  1.00  0.00     0.010 C 
HETATM   28  C34 UNL     1     -15.339  47.427 -20.461  1.00  0.00     0.050 C 
HETATM   29  C35 UNL     1     -15.933  47.718 -19.077  1.00  0.00     0.125 C 
HETATM   30  C36 UNL     1     -15.170  48.858 -18.390  1.00  0.00     0.033 C 
HETATM   31  C37 UNL     1     -13.693  48.957 -18.814  1.00  0.00     0.023 C 
HETATM   32  C38 UNL     1     -13.051  47.581 -19.132  1.00  0.00     0.051 C 
HETATM   33  C40 UNL     1     -13.876  46.905 -20.325  1.00  0.00     0.082 C 
ENDROOT
BRANCH   1  34
HETATM   34  C5  UNL     1      -5.295  48.098 -24.616  1.00  0.00     0.306 C 
BRANCH  34  35
HETATM   35  N1  UNL     1      -5.021  49.427 -25.154  1.00  0.00     0.087 N 
HETATM   36  H10 UNL     1      -5.765  49.689 -25.799  1.00  0.00     0.316 HD
BRANCH  35  37
HETATM   37  C4  UNL     1      -3.731  49.545 -25.848  1.00  0.00     0.272 C 
BRANCH  37  38
HETATM   38  C3  UNL     1      -3.499  48.468 -26.916  1.00  0.00     0.056 C 
BRANCH  38  39
HETATM   39  C2  UNL     1      -4.726  48.292 -27.810  1.00  0.00     0.168 C 
BRANCH  39  40
HETATM   40  O1  UNL     1      -4.372  47.973 -29.156  1.00  0.00    -0.396 OA
HETATM   41  C1  UNL     1      -5.299  48.482 -30.110  1.00  0.00     0.201 C 
ENDBRANCH  39  40
ENDBRANCH  38  39
ENDBRANCH  37  38
ENDBRANCH  35  37
ENDBRANCH  34  35
ENDBRANCH   1  34
BRANCH   5  42
HETATM   42  O2  UNL     1      -8.981  45.340 -19.745  1.00  0.00    -0.386 OA
HETATM   43  H17 UNL     1      -9.825  44.931 -19.452  1.00  0.00     0.210 HD
ENDBRANCH   5  42
BRANCH  21  44
HETATM   44  O5  UNL     1     -11.337  45.373 -19.719  1.00  0.00    -0.386 OA
HETATM   45  H33 UNL     1     -12.245  45.121 -20.000  1.00  0.00     0.210 HD
ENDBRANCH  21  44
BRANCH  32  46
HETATM   46  C39 UNL     1     -13.078  46.748 -17.829  1.00  0.00     0.244 C 
HETATM   47  O7  UNL     1     -13.292  47.224 -16.713  1.00  0.00    -0.306 OA
ENDBRANCH  32  46
BRANCH  33  48
HETATM   48  O8  UNL     1     -13.880  45.492 -20.093  1.00  0.00    -0.388 OA
HETATM   49  H59 UNL     1     -14.644  45.317 -19.491  1.00  0.00     0.210 HD
ENDBRANCH  33  48
BRANCH  25  50
HETATM   50  C29 UNL     1     -14.956  44.953 -24.451  1.00  0.00    -0.019 C 
HETATM   51  C30 UNL     1     -16.361  44.340 -24.559  1.00  0.00     0.010 C 
HETATM   52  C31 UNL     1     -14.880  46.119 -25.454  1.00  0.00     0.010 C 
ENDBRANCH  25  50
BRANCH  29  53
HETATM   53  O6  UNL     1     -15.859  46.513 -18.310  1.00  0.00    -0.395 OA
HETATM   54  H53 UNL     1     -16.195  46.716 -17.414  1.00  0.00     0.210 HD
ENDBRANCH  29  53
TORSDOF 12
ENDMDL
MODEL 6
REMARK minimizedAffinity -8.31741142
REMARK CNNscore 0.447042614
REMARK CNNaffinity 7.19148397
REMARK  12 active torsions:
REMARK  status: ('A' for Active; 'I' for Inactive)
REMARK    1  A    between atoms: O1_2  and  C2_3 
REMARK    2  A    between atoms: C2_3  and  C3_4 
REMARK    3  A    between atoms: C3_4  and  C4_5 
REMARK    4  A    between atoms: C4_5  and  N1_6 
REMARK    5  A    between atoms: N1_6  and  C5_7 
REMARK    6  A    between atoms: C5_7  and  C6_8 
REMARK    7  A    between atoms: C10_12  and  O2_13 
REMARK    8  A    between atoms: C24_29  and  O5_30 
REMARK    9  A    between atoms: C28_34  and  C29_35 
REMARK   10  A    between atoms: C35_41  and  O6_42 
REMARK   11  A    between atoms: C38_45  and  C39_46 
REMARK   12  A    between atoms: C40_48  and  O8_49 
ROOT
HETATM    1  C6  UNL     1       1.432  47.561 -13.163  1.00  0.00    -0.016 C 
HETATM    2  C7  UNL     1       0.843  47.407 -14.370  1.00  0.00    -0.013 C 
HETATM    3  C8  UNL     1       0.689  48.531 -15.363  1.00  0.00     0.021 C 
HETATM    4  C9  UNL     1      -0.706  49.144 -15.362  1.00  0.00     0.051 C 
HETATM    5  C10 UNL     1      -0.557  50.509 -16.064  1.00  0.00     0.098 C 
HETATM    6  C11 UNL     1       0.845  51.040 -15.533  1.00  0.00     0.002 C 
HETATM    7  C12 UNL     1       0.730  52.056 -14.327  1.00  0.00     0.013 C 
HETATM    8  C13 UNL     1      -0.039  51.745 -13.038  1.00  0.00     0.001 C 
HETATM    9  C14 UNL     1       0.766  51.133 -11.892  1.00  0.00     0.004 C 
HETATM   10  C15 UNL     1       0.779  49.605 -11.904  1.00  0.00     0.048 C 
HETATM   11  C16 UNL     1       1.899  48.940 -12.727  1.00  0.00     0.120 A 
HETATM   12  O3  UNL     1       3.059  48.854 -11.885  1.00  0.00    -0.297 OA
HETATM   13  C17 UNL     1       4.075  49.576 -12.420  1.00  0.00     0.284 A 
HETATM   14  O4  UNL     1       5.169  49.736 -11.912  1.00  0.00    -0.260 OA
HETATM   15  C18 UNL     1       3.678  50.081 -13.728  1.00  0.00     0.089 A 
HETATM   16  C19 UNL     1       2.414  49.696 -13.906  1.00  0.00    -0.029 A 
HETATM   17  C20 UNL     1       1.649  49.736 -15.189  1.00  0.00     0.037 C 
HETATM   18  C21 UNL     1       1.659  51.846 -16.603  1.00  0.00     0.014 C 
HETATM   19  C22 UNL     1       0.813  52.398 -17.740  1.00  0.00     0.010 C 
HETATM   20  C23 UNL     1       0.229  51.214 -18.514  1.00  0.00     0.041 C 
HETATM   21  C24 UNL     1      -0.840  50.495 -17.654  1.00  0.00     0.095 C 
HETATM   22  C25 UNL     1      -1.129  49.117 -18.294  1.00  0.00     0.049 C 
HETATM   23  C26 UNL     1      -0.877  49.062 -19.824  1.00  0.00     0.025 C 
HETATM   24  C27 UNL     1      -1.487  47.770 -20.420  1.00  0.00     0.012 C 
HETATM   25  C28 UNL     1      -2.987  47.830 -20.761  1.00  0.00    -0.011 C 
HETATM   26  C32 UNL     1      -3.290  48.698 -22.012  1.00  0.00     0.005 C 
HETATM   27  C33 UNL     1      -2.145  49.349 -22.795  1.00  0.00     0.010 C 
HETATM   28  C34 UNL     1      -1.026  50.149 -22.083  1.00  0.00     0.050 C 
HETATM   29  C35 UNL     1      -0.771  51.474 -22.814  1.00  0.00     0.125 C 
HETATM   30  C36 UNL     1       0.558  52.094 -22.362  1.00  0.00     0.033 C 
HETATM   31  C37 UNL     1       0.950  51.732 -20.918  1.00  0.00     0.023 C 
HETATM   32  C38 UNL     1      -0.270  51.565 -19.974  1.00  0.00     0.051 C 
HETATM   33  C40 UNL     1      -1.199  50.399 -20.554  1.00  0.00     0.082 C 
ENDROOT
BRANCH   1  34
HETATM   34  C5  UNL     1       1.540  46.423 -12.178  1.00  0.00     0.306 C 
BRANCH  34  35
HETATM   35  N1  UNL     1       2.897  45.906 -12.029  1.00  0.00     0.087 N 
HETATM   36  H10 UNL     1       3.537  46.478 -12.577  1.00  0.00     0.316 HD
BRANCH  35  37
HETATM   37  C4  UNL     1       3.057  44.501 -12.430  1.00  0.00     0.272 C 
BRANCH  37  38
HETATM   38  C3  UNL     1       3.181  44.298 -13.946  1.00  0.00     0.056 C 
BRANCH  38  39
HETATM   39  C2  UNL     1       2.306  43.143 -14.430  1.00  0.00     0.168 C 
BRANCH  39  40
HETATM   40  O1  UNL     1       1.491  43.513 -15.543  1.00  0.00    -0.396 OA
HETATM   41  C1  UNL     1       1.641  42.637 -16.656  1.00  0.00     0.201 C 
ENDBRANCH  39  40
ENDBRANCH  38  39
ENDBRANCH  37  38
ENDBRANCH  35  37
ENDBRANCH  34  35
ENDBRANCH   1  34
BRANCH   5  42
HETATM   42  O2  UNL     1      -1.593  51.340 -15.484  1.00  0.00    -0.386 OA
HETATM   43  H17 UNL     1      -2.156  51.628 -16.236  1.00  0.00     0.210 HD
ENDBRANCH   5  42
BRANCH  21  44
HETATM   44  O5  UNL     1      -2.081  51.253 -17.787  1.00  0.00    -0.386 OA
HETATM   45  H33 UNL     1      -2.548  50.953 -18.600  1.00  0.00     0.210 HD
ENDBRANCH  21  44
BRANCH  32  46
HETATM   46  C39 UNL     1      -0.988  52.933 -19.903  1.00  0.00     0.244 C 
HETATM   47  O7  UNL     1      -0.403  54.013 -19.811  1.00  0.00    -0.306 OA
ENDBRANCH  32  46
BRANCH  33  48
HETATM   48  O8  UNL     1      -2.557  50.752 -20.267  1.00  0.00    -0.388 OA
HETATM   49  H59 UNL     1      -2.850  51.331 -21.011  1.00  0.00     0.210 HD
ENDBRANCH  33  48
BRANCH  25  50
HETATM   50  C29 UNL     1      -3.645  46.412 -20.917  1.00  0.00    -0.019 C 
HETATM   51  C30 UNL     1      -3.785  45.652 -19.589  1.00  0.00     0.010 C 
HETATM   52  C31 UNL     1      -5.049  46.522 -21.540  1.00  0.00     0.010 C 
ENDBRANCH  25  50
BRANCH  29  53
HETATM   53  O6  UNL     1      -1.869  52.346 -22.531  1.00  0.00    -0.395 OA
HETATM   54  H53 UNL     1      -1.679  53.204 -22.960  1.00  0.00     0.210 HD
ENDBRANCH  29  53
TORSDOF 12
ENDMDL
MODEL 7
REMARK minimizedAffinity -7.2313118
REMARK CNNscore 0.430108428
REMARK CNNaffinity 6.97766924
REMARK  12 active torsions:
REMARK  status: ('A' for Active; 'I' for Inactive)
REMARK    1  A    between atoms: O1_2  and  C2_3 
REMARK    2  A    between atoms: C2_3  and  C3_4 
REMARK    3  A    between atoms: C3_4  and  C4_5 
REMARK    4  A    between atoms: C4_5  and  N1_6 
REMARK    5  A    between atoms: N1_6  and  C5_7 
REMARK    6  A    between atoms: C5_7  and  C6_8 
REMARK    7  A    between atoms: C10_12  and  O2_13 
REMARK    8  A    between atoms: C24_29  and  O5_30 
REMARK    9  A    between atoms: C28_34  and  C29_35 
REMARK   10  A    between atoms: C35_41  and  O6_42 
REMARK   11  A    between atoms: C38_45  and  C39_46 
REMARK   12  A    between atoms: C40_48  and  O8_49 
ROOT
HETATM    1  C6  UNL     1       1.100  47.185 -13.172  1.00  0.00    -0.016 C 
HETATM    2  C7  UNL     1       0.496  46.962 -14.360  1.00  0.00    -0.013 C 
HETATM    3  C8  UNL     1       0.252  48.047 -15.379  1.00  0.00     0.021 C 
HETATM    4  C9  UNL     1      -1.178  48.574 -15.362  1.00  0.00     0.051 C 
HETATM    5  C10 UNL     1      -1.128  49.926 -16.102  1.00  0.00     0.098 C 
HETATM    6  C11 UNL     1       0.251  50.556 -15.618  1.00  0.00     0.002 C 
HETATM    7  C12 UNL     1       0.100  51.595 -14.436  1.00  0.00     0.013 C 
HETATM    8  C13 UNL     1      -0.621  51.274 -13.122  1.00  0.00     0.001 C 
HETATM    9  C14 UNL     1       0.245  50.743 -11.980  1.00  0.00     0.004 C 
HETATM   10  C15 UNL     1       0.351  49.219 -11.952  1.00  0.00     0.048 C 
HETATM   11  C16 UNL     1       1.492  48.601 -12.784  1.00  0.00     0.120 A 
HETATM   12  O3  UNL     1       2.673  48.608 -11.968  1.00  0.00    -0.297 OA
HETATM   13  C17 UNL     1       3.631  49.375 -12.544  1.00  0.00     0.284 A 
HETATM   14  O4  UNL     1       4.724  49.616 -12.066  1.00  0.00    -0.260 OA
HETATM   15  C18 UNL     1       3.175  49.820 -13.856  1.00  0.00     0.089 A 
HETATM   16  C19 UNL     1       1.934  49.353 -13.994  1.00  0.00    -0.029 A 
HETATM   17  C20 UNL     1       1.139  49.312 -15.259  1.00  0.00     0.037 C 
HETATM   18  C21 UNL     1       0.990  51.379 -16.728  1.00  0.00     0.014 C 
HETATM   19  C22 UNL     1       0.087  51.848 -17.858  1.00  0.00     0.010 C 
HETATM   20  C23 UNL     1      -0.440  50.610 -18.587  1.00  0.00     0.041 C 
HETATM   21  C24 UNL     1      -1.444  49.852 -17.684  1.00  0.00     0.095 C 
HETATM   22  C25 UNL     1      -1.662  48.441 -18.280  1.00  0.00     0.049 C 
HETATM   23  C26 UNL     1      -1.441  48.360 -19.814  1.00  0.00     0.025 C 
HETATM   24  C27 UNL     1      -1.984  47.017 -20.362  1.00  0.00     0.012 C 
HETATM   25  C28 UNL     1      -3.491  46.977 -20.669  1.00  0.00    -0.011 C 
HETATM   26  C32 UNL     1      -3.874  47.790 -21.935  1.00  0.00     0.005 C 
HETATM   27  C33 UNL     1      -2.789  48.487 -22.761  1.00  0.00     0.010 C 
HETATM   28  C34 UNL     1      -1.705  49.373 -22.097  1.00  0.00     0.050 C 
HETATM   29  C35 UNL     1      -1.547  50.690 -22.868  1.00  0.00     0.125 C 
HETATM   30  C36 UNL     1      -0.250  51.402 -22.464  1.00  0.00     0.033 C 
HETATM   31  C37 UNL     1       0.195  51.103 -21.020  1.00  0.00     0.023 C 
HETATM   32  C38 UNL     1      -0.991  50.889 -20.044  1.00  0.00     0.051 C 
HETATM   33  C40 UNL     1      -1.860  49.654 -20.571  1.00  0.00     0.082 C 
ENDROOT
BRANCH   1  34
HETATM   34  C5  UNL     1       1.299  46.083 -12.161  1.00  0.00     0.306 C 
BRANCH  34  35
HETATM   35  N1  UNL     1       1.179  46.531 -10.777  1.00  0.00     0.087 N 
HETATM   36  H10 UNL     1       1.256  47.546 -10.744  1.00  0.00     0.316 HD
BRANCH  35  37
HETATM   37  C4  UNL     1       2.175  45.953  -9.864  1.00  0.00     0.272 C 
BRANCH  37  38
HETATM   38  C3  UNL     1       3.481  45.536 -10.552  1.00  0.00     0.056 C 
BRANCH  38  39
HETATM   39  C2  UNL     1       4.692  45.785  -9.654  1.00  0.00     0.168 C 
BRANCH  39  40
HETATM   40  O1  UNL     1       5.789  44.929  -9.977  1.00  0.00    -0.396 OA
HETATM   41  C1  UNL     1       5.467  43.968 -10.977  1.00  0.00     0.201 C 
ENDBRANCH  39  40
ENDBRANCH  38  39
ENDBRANCH  37  38
ENDBRANCH  35  37
ENDBRANCH  34  35
ENDBRANCH   1  34
BRANCH   5  42
HETATM   42  O2  UNL     1      -2.200  50.708 -15.520  1.00  0.00    -0.386 OA
HETATM   43  H17 UNL     1      -2.796  50.941 -16.265  1.00  0.00     0.210 HD
ENDBRANCH   5  42
BRANCH  21  44
HETATM   44  O5  UNL     1      -2.732  50.529 -17.808  1.00  0.00    -0.386 OA
HETATM   45  H33 UNL     1      -3.197  50.178 -18.601  1.00  0.00     0.210 HD
ENDBRANCH  21  44
BRANCH  32  46
HETATM   46  C39 UNL     1      -1.790  52.213 -19.992  1.00  0.00     0.244 C 
HETATM   47  O7  UNL     1      -3.007  52.275 -19.816  1.00  0.00    -0.306 OA
ENDBRANCH  32  46
BRANCH  33  48
HETATM   48  O8  UNL     1      -3.230  49.932 -20.261  1.00  0.00    -0.388 OA
HETATM   49  H59 UNL     1      -3.574  50.471 -21.014  1.00  0.00     0.210 HD
ENDBRANCH  33  48
BRANCH  25  50
HETATM   50  C29 UNL     1      -4.065  45.518 -20.772  1.00  0.00    -0.019 C 
HETATM   51  C30 UNL     1      -4.160  44.800 -19.418  1.00  0.00     0.010 C 
HETATM   52  C31 UNL     1      -5.472  45.522 -21.396  1.00  0.00     0.010 C 
ENDBRANCH  25  50
BRANCH  29  53
HETATM   53  O6  UNL     1      -2.690  51.502 -22.582  1.00  0.00    -0.395 OA
HETATM   54  H53 UNL     1      -2.563  52.358 -23.038  1.00  0.00     0.210 HD
ENDBRANCH  29  53
TORSDOF 12
ENDMDL
MODEL 8
REMARK minimizedAffinity -8.53804016
REMARK CNNscore 0.39142698
REMARK CNNaffinity 6.87307739
REMARK  12 active torsions:
REMARK  status: ('A' for Active; 'I' for Inactive)
REMARK    1  A    between atoms: O1_2  and  C2_3 
REMARK    2  A    between atoms: C2_3  and  C3_4 
REMARK    3  A    between atoms: C3_4  and  C4_5 
REMARK    4  A    between atoms: C4_5  and  N1_6 
REMARK    5  A    between atoms: N1_6  and  C5_7 
REMARK    6  A    between atoms: C5_7  and  C6_8 
REMARK    7  A    between atoms: C10_12  and  O2_13 
REMARK    8  A    between atoms: C24_29  and  O5_30 
REMARK    9  A    between atoms: C28_34  and  C29_35 
REMARK   10  A    between atoms: C35_41  and  O6_42 
REMARK   11  A    between atoms: C38_45  and  C39_46 
REMARK   12  A    between atoms: C40_48  and  O8_49 
ROOT
HETATM    1  C6  UNL     1      -9.846  45.947 -30.255  1.00  0.00    -0.016 C 
HETATM    2  C7  UNL     1      -8.725  46.421 -29.667  1.00  0.00    -0.013 C 
HETATM    3  C8  UNL     1      -8.618  46.689 -28.187  1.00  0.00     0.021 C 
HETATM    4  C9  UNL     1      -8.779  48.162 -27.832  1.00  0.00     0.051 C 
HETATM    5  C10 UNL     1      -9.093  48.190 -26.322  1.00  0.00     0.098 C 
HETATM    6  C11 UNL     1     -10.045  46.931 -26.124  1.00  0.00     0.002 C 
HETATM    7  C12 UNL     1     -11.585  47.291 -26.104  1.00  0.00     0.013 C 
HETATM    8  C13 UNL     1     -12.277  48.083 -27.219  1.00  0.00     0.001 C 
HETATM    9  C14 UNL     1     -12.915  47.268 -28.343  1.00  0.00     0.004 C 
HETATM   10  C15 UNL     1     -11.973  47.006 -29.517  1.00  0.00     0.048 C 
HETATM   11  C16 UNL     1     -11.100  45.740 -29.420  1.00  0.00     0.120 A 
HETATM   12  O3  UNL     1     -11.878  44.641 -29.916  1.00  0.00    -0.297 OA
HETATM   13  C17 UNL     1     -12.061  43.722 -28.935  1.00  0.00     0.284 A 
HETATM   14  O4  UNL     1     -12.722  42.705 -29.037  1.00  0.00    -0.260 OA
HETATM   15  C18 UNL     1     -11.294  44.108 -27.758  1.00  0.00     0.089 A 
HETATM   16  C19 UNL     1     -10.726  45.277 -28.052  1.00  0.00    -0.029 A 
HETATM   17  C20 UNL     1      -9.637  45.952 -27.281  1.00  0.00     0.037 C 
HETATM   18  C21 UNL     1      -9.832  46.190 -24.760  1.00  0.00     0.014 C 
HETATM   19  C22 UNL     1      -9.158  47.037 -23.692  1.00  0.00     0.010 C 
HETATM   20  C23 UNL     1      -7.743  47.368 -24.173  1.00  0.00     0.041 C 
HETATM   21  C24 UNL     1      -7.807  48.360 -25.360  1.00  0.00     0.095 C 
HETATM   22  C25 UNL     1      -6.423  48.379 -26.050  1.00  0.00     0.049 C 
HETATM   23  C26 UNL     1      -5.241  48.019 -25.112  1.00  0.00     0.025 C 
HETATM   24  C27 UNL     1      -3.893  48.370 -25.790  1.00  0.00     0.012 C 
HETATM   25  C28 UNL     1      -3.436  49.834 -25.658  1.00  0.00    -0.011 C 
HETATM   26  C32 UNL     1      -2.949  50.190 -24.227  1.00  0.00     0.005 C 
HETATM   27  C33 UNL     1      -2.915  49.116 -23.135  1.00  0.00     0.010 C 
HETATM   28  C34 UNL     1      -4.129  48.191 -22.866  1.00  0.00     0.050 C 
HETATM   29  C35 UNL     1      -4.411  48.107 -21.360  1.00  0.00     0.125 C 
HETATM   30  C36 UNL     1      -5.345  46.930 -21.050  1.00  0.00     0.033 C 
HETATM   31  C37 UNL     1      -6.305  46.581 -22.203  1.00  0.00     0.023 C 
HETATM   32  C38 UNL     1      -6.748  47.818 -23.028  1.00  0.00     0.051 C 
HETATM   33  C40 UNL     1      -5.442  48.505 -23.646  1.00  0.00     0.082 C 
ENDROOT
BRANCH   1  34
HETATM   34  C5  UNL     1      -9.931  45.722 -31.744  1.00  0.00     0.306 C 
BRANCH  34  35
HETATM   35  N1  UNL     1      -9.830  44.318 -32.129  1.00  0.00     0.087 N 
HETATM   36  H10 UNL     1      -8.870  44.112 -32.400  1.00  0.00     0.316 HD
BRANCH  35  37
HETATM   37  C4  UNL     1     -10.724  43.924 -33.227  1.00  0.00     0.272 C 
BRANCH  37  38
HETATM   38  C3  UNL     1     -11.077  42.431 -33.235  1.00  0.00     0.056 C 
BRANCH  38  39
HETATM   39  C2  UNL     1     -10.709  41.760 -31.913  1.00  0.00     0.168 C 
BRANCH  39  40
HETATM   40  O1  UNL     1     -10.150  40.460 -32.104  1.00  0.00    -0.396 OA
HETATM   41  C1  UNL     1     -11.095  39.414 -31.900  1.00  0.00     0.201 C 
ENDBRANCH  39  40
ENDBRANCH  38  39
ENDBRANCH  37  38
ENDBRANCH  35  37
ENDBRANCH  34  35
ENDBRANCH   1  34
BRANCH   5  42
HETATM   42  O2  UNL     1      -9.891  49.384 -26.131  1.00  0.00    -0.386 OA
HETATM   43  H17 UNL     1      -9.398  49.935 -25.484  1.00  0.00     0.210 HD
ENDBRANCH   5  42
BRANCH  21  44
HETATM   44  O5  UNL     1      -7.976  49.697 -24.795  1.00  0.00    -0.386 OA
HETATM   45  H33 UNL     1      -7.090  50.053 -24.558  1.00  0.00     0.210 HD
ENDBRANCH  21  44
BRANCH  32  46
HETATM   46  C39 UNL     1      -7.530  48.752 -22.074  1.00  0.00     0.244 C 
HETATM   47  O7  UNL     1      -8.262  48.352 -21.168  1.00  0.00    -0.306 OA
ENDBRANCH  32  46
BRANCH  33  48
HETATM   48  O8  UNL     1      -5.673  49.918 -23.669  1.00  0.00    -0.388 OA
HETATM   49  H59 UNL     1      -5.404  50.251 -22.779  1.00  0.00     0.210 HD
ENDBRANCH  33  48
BRANCH  25  50
HETATM   50  C29 UNL     1      -2.346  50.241 -26.714  1.00  0.00    -0.019 C 
HETATM   51  C30 UNL     1      -2.778  51.401 -27.623  1.00  0.00     0.010 C 
HETATM   52  C31 UNL     1      -1.035  50.656 -26.021  1.00  0.00     0.010 C 
ENDBRANCH  25  50
BRANCH  29  53
HETATM   53  O6  UNL     1      -4.996  49.348 -20.956  1.00  0.00    -0.395 OA
HETATM   54  H53 UNL     1      -5.217  49.272 -20.006  1.00  0.00     0.210 HD
ENDBRANCH  29  53
TORSDOF 12
ENDMDL
MODEL 9
REMARK minimizedAffinity -7.25425196
REMARK CNNscore 0.389992923
REMARK CNNaffinity 6.60652018
REMARK  12 active torsions:
REMARK  status: ('A' for Active; 'I' for Inactive)
REMARK    1  A    between atoms: O1_2  and  C2_3 
REMARK    2  A    between atoms: C2_3  and  C3_4 
REMARK    3  A    between atoms: C3_4  and  C4_5 
REMARK    4  A    between atoms: C4_5  and  N1_6 
REMARK    5  A    between atoms: N1_6  and  C5_7 
REMARK    6  A    between atoms: C5_7  and  C6_8 
REMARK    7  A    between atoms: C10_12  and  O2_13 
REMARK    8  A    between atoms: C24_29  and  O5_30 
REMARK    9  A    between atoms: C28_34  and  C29_35 
REMARK   10  A    between atoms: C35_41  and  O6_42 
REMARK   11  A    between atoms: C38_45  and  C39_46 
REMARK   12  A    between atoms: C40_48  and  O8_49 
ROOT
HETATM    1  C6  UNL     1      -5.142  48.488 -23.464  1.00  0.00    -0.016 C 
HETATM    2  C7  UNL     1      -6.330  48.250 -24.063  1.00  0.00    -0.013 C 
HETATM    3  C8  UNL     1      -7.555  47.791 -23.313  1.00  0.00     0.021 C 
HETATM    4  C9  UNL     1      -7.805  46.293 -23.433  1.00  0.00     0.051 C 
HETATM    5  C10 UNL     1      -8.774  45.943 -22.286  1.00  0.00     0.098 C 
HETATM    6  C11 UNL     1      -8.259  46.849 -21.084  1.00  0.00     0.002 C 
HETATM    7  C12 UNL     1      -7.319  46.088 -20.066  1.00  0.00     0.013 C 
HETATM    8  C13 UNL     1      -6.062  45.323 -20.494  1.00  0.00     0.001 C 
HETATM    9  C14 UNL     1      -4.747  46.102 -20.470  1.00  0.00     0.004 C 
HETATM   10  C15 UNL     1      -4.421  46.790 -21.795  1.00  0.00     0.048 C 
HETATM   11  C16 UNL     1      -4.983  48.214 -21.978  1.00  0.00     0.120 A 
HETATM   12  O3  UNL     1      -4.050  49.125 -21.378  1.00  0.00    -0.297 OA
HETATM   13  C17 UNL     1      -4.644  49.794 -20.359  1.00  0.00     0.284 A 
HETATM   14  O4  UNL     1      -4.094  50.596 -19.627  1.00  0.00    -0.260 OA
HETATM   15  C18 UNL     1      -6.059  49.450 -20.310  1.00  0.00     0.089 A 
HETATM   16  C19 UNL     1      -6.252  48.539 -21.265  1.00  0.00    -0.029 A 
HETATM   17  C20 UNL     1      -7.572  48.072 -21.789  1.00  0.00     0.037 C 
HETATM   18  C21 UNL     1      -9.409  47.396 -20.171  1.00  0.00     0.014 C 
HETATM   19  C22 UNL     1     -10.705  46.607 -20.264  1.00  0.00     0.010 C 
HETATM   20  C23 UNL     1     -11.246  46.752 -21.689  1.00  0.00     0.041 C 
HETATM   21  C24 UNL     1     -10.341  45.979 -22.679  1.00  0.00     0.095 C 
HETATM   22  C25 UNL     1     -10.684  46.445 -24.114  1.00  0.00     0.049 C 
HETATM   23  C26 UNL     1     -12.138  46.959 -24.283  1.00  0.00     0.025 C 
HETATM   24  C27 UNL     1     -12.484  47.097 -25.786  1.00  0.00     0.012 C 
HETATM   25  C28 UNL     1     -12.953  45.810 -26.489  1.00  0.00    -0.011 C 
HETATM   26  C32 UNL     1     -14.385  45.379 -26.072  1.00  0.00     0.005 C 
HETATM   27  C33 UNL     1     -15.194  46.236 -25.093  1.00  0.00     0.010 C 
HETATM   28  C34 UNL     1     -14.586  46.743 -23.761  1.00  0.00     0.050 C 
HETATM   29  C35 UNL     1     -15.566  46.509 -22.605  1.00  0.00     0.125 C 
HETATM   30  C36 UNL     1     -15.153  47.325 -21.373  1.00  0.00     0.033 C 
HETATM   31  C37 UNL     1     -13.637  47.578 -21.278  1.00  0.00     0.023 C 
HETATM   32  C38 UNL     1     -12.784  46.414 -21.846  1.00  0.00     0.051 C 
HETATM   33  C40 UNL     1     -13.168  46.212 -23.386  1.00  0.00     0.082 C 
ENDROOT
BRANCH   1  34
HETATM   34  C5  UNL     1      -3.926  48.914 -24.249  1.00  0.00     0.306 C 
BRANCH  34  35
HETATM   35  N1  UNL     1      -3.438  50.244 -23.895  1.00  0.00     0.087 N 
HETATM   36  H10 UNL     1      -3.801  50.923 -24.561  1.00  0.00     0.316 HD
BRANCH  35  37
HETATM   37  C4  UNL     1      -1.974  50.361 -23.853  1.00  0.00     0.272 C 
BRANCH  37  38
HETATM   38  C3  UNL     1      -1.396  51.314 -24.907  1.00  0.00     0.056 C 
BRANCH  38  39
HETATM   39  C2  UNL     1      -1.098  50.586 -26.217  1.00  0.00     0.168 C 
BRANCH  39  40
HETATM   40  O1  UNL     1       0.298  50.566 -26.519  1.00  0.00    -0.396 OA
HETATM   41  C1  UNL     1       1.004  51.665 -25.951  1.00  0.00     0.201 C 
ENDBRANCH  39  40
ENDBRANCH  38  39
ENDBRANCH  37  38
ENDBRANCH  35  37
ENDBRANCH  34  35
ENDBRANCH   1  34
BRANCH   5  42
HETATM   42  O2  UNL     1      -8.480  44.563 -21.957  1.00  0.00    -0.386 OA
HETATM   43  H17 UNL     1      -9.320  44.072 -22.088  1.00  0.00     0.210 HD
ENDBRANCH   5  42
BRANCH  21  44
HETATM   44  O5  UNL     1     -10.740  44.575 -22.622  1.00  0.00    -0.386 OA
HETATM   45  H33 UNL     1     -11.502  44.439 -23.229  1.00  0.00     0.210 HD
ENDBRANCH  21  44
BRANCH  32  46
HETATM   46  C39 UNL     1     -13.075  45.164 -20.981  1.00  0.00     0.244 C 
HETATM   47  O7  UNL     1     -13.632  45.203 -19.883  1.00  0.00    -0.306 OA
ENDBRANCH  32  46
BRANCH  33  48
HETATM   48  O8  UNL     1     -13.079  44.811 -23.668  1.00  0.00    -0.388 OA
HETATM   49  H59 UNL     1     -13.954  44.428 -23.420  1.00  0.00     0.210 HD
ENDBRANCH  33  48
BRANCH  25  50
HETATM   50  C29 UNL     1     -12.847  45.886 -28.055  1.00  0.00    -0.019 C 
HETATM   51  C30 UNL     1     -14.188  45.663 -28.770  1.00  0.00     0.010 C 
HETATM   52  C31 UNL     1     -12.302  47.253 -28.504  1.00  0.00     0.010 C 
ENDBRANCH  25  50
BRANCH  29  53
HETATM   53  O6  UNL     1     -15.573  45.108 -22.316  1.00  0.00    -0.395 OA
HETATM   54  H53 UNL     1     -16.163  44.971 -21.547  1.00  0.00     0.210 HD
ENDBRANCH  29  53
TORSDOF 12
ENDMDL
