MODEL 1
REMARK minimizedAffinity -8.78093433
REMARK CNNscore 0.198199436
REMARK CNNaffinity 6.59026718
REMARK  13 active torsions:
REMARK  status: ('A' for Active; 'I' for Inactive)
REMARK    1  A    between atoms: C2_2  and  O1_3 
REMARK    2  A    between atoms: O1_3  and  C3_4 
REMARK       I    between atoms: C3_4  and  N1_6 
REMARK       I    between atoms: N2_9  and  C6_10 
REMARK    3  A    between atoms: C6_10  and  C7_12 
REMARK    4  A    between atoms: C7_12  and  C8_13 
REMARK    5  A    between atoms: C7_12  and  N5_24 
REMARK    6  A    between atoms: C8_13  and  C9_14 
REMARK    7  A    between atoms: C13_18  and  C14_19 
REMARK    8  A    between atoms: C14_19  and  N4_22 
REMARK    9  A    between atoms: N5_24  and  S1_25 
REMARK   10  A    between atoms: S1_25  and  C16_28 
REMARK   11  A    between atoms: C17_29  and  C18_30 
REMARK   12  A    between atoms: C22_34  and  C23_35 
REMARK   13  A    between atoms: C27_39  and  C28_40 
ROOT
HETATM    1  C7  UNL     1      -1.910  51.213 -21.600  1.00  0.00     0.189 C 
ENDROOT
BRANCH   1   2
HETATM    2  C6  UNL     1      -3.435  51.006 -21.515  1.00  0.00     0.243 C 
HETATM    3  N2  UNL     1      -4.088  50.247 -22.483  1.00  0.00    -0.347 N 
HETATM    4  C5  UNL     1      -3.418  49.436 -23.508  1.00  0.00     0.146 C 
HETATM    5  C31 UNL     1      -5.459  49.824 -22.173  1.00  0.00     0.146 C 
HETATM    6  C4  UNL     1      -4.283  49.202 -24.755  1.00  0.00     0.148 C 
HETATM    7  N1  UNL     1      -5.644  48.794 -24.428  1.00  0.00    -0.325 N 
HETATM    8  C3  UNL     1      -6.347  48.060 -25.368  1.00  0.00     0.362 C 
HETATM    9  C32 UNL     1      -6.321  49.607 -23.419  1.00  0.00     0.148 C 
HETATM   10  O2  UNL     1      -5.847  47.607 -26.392  1.00  0.00    -0.238 OA
HETATM   11  O3  UNL     1      -4.060  51.524 -20.580  1.00  0.00    -0.271 OA
BRANCH   8  12
HETATM   12  O1  UNL     1      -7.655  47.901 -25.029  1.00  0.00    -0.304 OA
BRANCH  12  13
HETATM   13  C2  UNL     1      -8.029  46.607 -24.537  1.00  0.00     0.176 C 
HETATM   14  C1  UNL     1      -8.724  45.823 -25.634  1.00  0.00     0.034 C 
ENDBRANCH  12  13
ENDBRANCH   8  12
ENDBRANCH   1   2
BRANCH   1  15
HETATM   15  C8  UNL     1      -1.265  50.427 -22.759  1.00  0.00     0.074 C 
BRANCH  15  16
HETATM   16  C9  UNL     1      -0.800  51.265 -23.931  1.00  0.00    -0.055 A 
HETATM   17  C10 UNL     1      -0.909  50.784 -25.242  1.00  0.00     0.007 A 
HETATM   18  C11 UNL     1      -0.489  51.566 -26.320  1.00  0.00     0.002 A 
HETATM   19  C12 UNL     1       0.038  52.841 -26.102  1.00  0.00     0.014 A 
HETATM   20  C13 UNL     1       0.139  53.341 -24.800  1.00  0.00     0.002 A 
HETATM   21  C15 UNL     1      -0.269  52.546 -23.721  1.00  0.00     0.022 A 
BRANCH  20  22
HETATM   22  C14 UNL     1       0.685  54.709 -24.536  1.00  0.00     0.081 C 
HETATM   23  N3  UNL     1       0.380  55.681 -25.336  1.00  0.00    -0.389 N 
HETATM   24  H16 UNL     1       0.796  56.549 -24.996  1.00  0.00     0.157 HD
ATOM     25  H3  UNL     1      -0.190  55.593 -26.177  1.00  0.00     0.157 HD
BRANCH  22  26
HETATM   26  N4  UNL     1       1.513  54.943 -23.474  1.00  0.00    -0.288 NA
HETATM   27  H17 UNL     1       2.066  54.149 -23.166  1.00  0.00     0.125 HD
HETATM   28  H18 UNL     1       2.080  55.779 -23.539  1.00  0.00     0.125 HD
ENDBRANCH  22  26
ENDBRANCH  20  22
ENDBRANCH  15  16
ENDBRANCH   1  15
BRANCH   1  29
HETATM   29  N5  UNL     1      -1.299  50.753 -20.325  1.00  0.00    -0.301 N 
HETATM   30  H20 UNL     1      -1.142  49.741 -20.322  1.00  0.00     0.173 HD
BRANCH  29  31
HETATM   31  S1  UNL     1      -1.837  51.345 -18.853  1.00  0.00     0.260 S 
HETATM   32  O4  UNL     1      -2.369  52.663 -19.103  1.00  0.00    -0.200 OA
HETATM   33  O5  UNL     1      -2.730  50.347 -18.308  1.00  0.00    -0.200 OA
BRANCH  31  34
HETATM   34  C16 UNL     1      -0.333  51.495 -17.844  1.00  0.00     0.092 A 
HETATM   35  C17 UNL     1       0.776  52.278 -18.302  1.00  0.00    -0.030 A 
HETATM   36  C21 UNL     1       1.901  52.404 -17.439  1.00  0.00     0.016 A 
HETATM   37  C22 UNL     1       1.970  51.824 -16.176  1.00  0.00    -0.054 A 
HETATM   38  C26 UNL     1       0.873  51.090 -15.742  1.00  0.00     0.016 A 
HETATM   39  C27 UNL     1      -0.279  50.890 -16.538  1.00  0.00    -0.030 A 
BRANCH  35  40
HETATM   40  C18 UNL     1       0.953  53.094 -19.595  1.00  0.00     0.012 C 
HETATM   41  C19 UNL     1       1.271  52.368 -20.901  1.00  0.00     0.015 C 
HETATM   42  C20 UNL     1      -0.108  54.191 -19.749  1.00  0.00     0.015 C 
ENDBRANCH  35  40
BRANCH  37  43
HETATM   43  C23 UNL     1       3.179  51.993 -15.275  1.00  0.00     0.010 C 
HETATM   44  C24 UNL     1       4.450  52.263 -16.084  1.00  0.00     0.015 C 
HETATM   45  C25 UNL     1       3.367  50.788 -14.350  1.00  0.00     0.015 C 
ENDBRANCH  37  43
BRANCH  39  46
HETATM   46  C28 UNL     1      -1.403  50.083 -15.877  1.00  0.00     0.012 C 
HETATM   47  C29 UNL     1      -1.605  48.751 -16.607  1.00  0.00     0.015 C 
HETATM   48  C30 UNL     1      -2.752  50.820 -15.772  1.00  0.00     0.015 C 
ENDBRANCH  39  46
ENDBRANCH  31  34
ENDBRANCH  29  31
ENDBRANCH   1  29
TORSDOF 13
ENDMDL
MODEL 2
REMARK minimizedAffinity -8.7401886
REMARK CNNscore 0.144895852
REMARK CNNaffinity 6.48383284
REMARK  13 active torsions:
REMARK  status: ('A' for Active; 'I' for Inactive)
REMARK    1  A    between atoms: C2_2  and  O1_3 
REMARK    2  A    between atoms: O1_3  and  C3_4 
REMARK       I    between atoms: C3_4  and  N1_6 
REMARK       I    between atoms: N2_9  and  C6_10 
REMARK    3  A    between atoms: C6_10  and  C7_12 
REMARK    4  A    between atoms: C7_12  and  C8_13 
REMARK    5  A    between atoms: C7_12  and  N5_24 
REMARK    6  A    between atoms: C8_13  and  C9_14 
REMARK    7  A    between atoms: C13_18  and  C14_19 
REMARK    8  A    between atoms: C14_19  and  N4_22 
REMARK    9  A    between atoms: N5_24  and  S1_25 
REMARK   10  A    between atoms: S1_25  and  C16_28 
REMARK   11  A    between atoms: C17_29  and  C18_30 
REMARK   12  A    between atoms: C22_34  and  C23_35 
REMARK   13  A    between atoms: C27_39  and  C28_40 
ROOT
HETATM    1  C7  UNL     1      -1.704  49.600 -19.974  1.00  0.00     0.189 C 
ENDROOT
BRANCH   1   2
HETATM    2  C6  UNL     1      -3.202  49.537 -19.617  1.00  0.00     0.243 C 
HETATM    3  N2  UNL     1      -3.933  48.384 -19.892  1.00  0.00    -0.347 N 
HETATM    4  C5  UNL     1      -3.356  47.107 -20.330  1.00  0.00     0.146 C 
HETATM    5  C31 UNL     1      -5.247  48.268 -19.246  1.00  0.00     0.146 C 
HETATM    6  C4  UNL     1      -4.347  46.230 -21.110  1.00  0.00     0.148 C 
HETATM    7  N1  UNL     1      -5.648  46.136 -20.460  1.00  0.00    -0.325 N 
HETATM    8  C3  UNL     1      -6.428  45.022 -20.721  1.00  0.00     0.362 C 
HETATM    9  C32 UNL     1      -6.235  47.406 -20.035  1.00  0.00     0.148 C 
HETATM   10  O2  UNL     1      -6.031  44.044 -21.344  1.00  0.00    -0.238 OA
HETATM   11  O3  UNL     1      -3.734  50.522 -19.089  1.00  0.00    -0.271 OA
BRANCH   8  12
HETATM   12  O1  UNL     1      -7.684  45.137 -20.210  1.00  0.00    -0.304 OA
BRANCH  12  13
HETATM   13  C2  UNL     1      -8.733  45.382 -21.157  1.00  0.00     0.176 C 
HETATM   14  C1  UNL     1      -8.354  44.794 -22.504  1.00  0.00     0.034 C 
ENDBRANCH  12  13
ENDBRANCH   8  12
ENDBRANCH   1   2
BRANCH   1  15
HETATM   15  C8  UNL     1      -0.983  50.794 -19.318  1.00  0.00     0.074 C 
BRANCH  15  16
HETATM   16  C9  UNL     1      -0.300  50.496 -18.001  1.00  0.00    -0.055 A 
HETATM   17  C10 UNL     1      -0.464  49.255 -17.373  1.00  0.00     0.007 A 
HETATM   18  C11 UNL     1       0.177  48.983 -16.164  1.00  0.00     0.002 A 
HETATM   19  C12 UNL     1       0.996  49.944 -15.569  1.00  0.00     0.014 A 
HETATM   20  C13 UNL     1       1.182  51.184 -16.190  1.00  0.00     0.002 A 
HETATM   21  C15 UNL     1       0.524  51.457 -17.396  1.00  0.00     0.022 A 
BRANCH  20  22
HETATM   22  C14 UNL     1       2.066  52.228 -15.585  1.00  0.00     0.081 C 
HETATM   23  N3  UNL     1       2.174  52.301 -14.296  1.00  0.00    -0.389 N 
HETATM   24  H16 UNL     1       2.840  53.035 -14.049  1.00  0.00     0.157 HD
ATOM     25  H3  UNL     1       1.670  51.716 -13.630  1.00  0.00     0.157 HD
BRANCH  22  26
HETATM   26  N4  UNL     1       2.746  53.115 -16.371  1.00  0.00    -0.288 NA
HETATM   27  H17 UNL     1       2.318  53.324 -17.268  1.00  0.00     0.125 HD
HETATM   28  H18 UNL     1       3.054  53.961 -15.908  1.00  0.00     0.125 HD
ENDBRANCH  22  26
ENDBRANCH  20  22
ENDBRANCH  15  16
ENDBRANCH   1  15
BRANCH   1  29
HETATM   29  N5  UNL     1      -1.575  49.728 -21.450  1.00  0.00    -0.301 N 
HETATM   30  H20 UNL     1      -0.613  49.572 -21.763  1.00  0.00     0.173 HD
BRANCH  29  31
HETATM   31  S1  UNL     1      -2.349  50.966 -22.274  1.00  0.00     0.260 S 
HETATM   32  O4  UNL     1      -3.663  50.479 -22.618  1.00  0.00    -0.200 OA
HETATM   33  O5  UNL     1      -2.260  52.139 -21.433  1.00  0.00    -0.200 OA
BRANCH  31  34
HETATM   34  C16 UNL     1      -1.378  51.179 -23.794  1.00  0.00     0.092 A 
HETATM   35  C17 UNL     1      -0.201  51.998 -23.798  1.00  0.00    -0.030 A 
HETATM   36  C21 UNL     1       0.548  52.078 -25.005  1.00  0.00     0.016 A 
HETATM   37  C22 UNL     1       0.209  51.392 -26.168  1.00  0.00    -0.054 A 
HETATM   38  C26 UNL     1      -0.921  50.585 -26.134  1.00  0.00     0.016 A 
HETATM   39  C27 UNL     1      -1.742  50.462 -24.988  1.00  0.00    -0.030 A 
BRANCH  35  40
HETATM   40  C18 UNL     1       0.460  52.797 -22.661  1.00  0.00     0.012 C 
HETATM   41  C19 UNL     1       1.272  52.056 -21.599  1.00  0.00     0.015 C 
HETATM   42  C20 UNL     1       1.133  54.082 -23.157  1.00  0.00     0.015 C 
ENDBRANCH  35  40
BRANCH  37  43
HETATM   43  C23 UNL     1       1.041  51.488 -27.434  1.00  0.00     0.010 C 
HETATM   44  C24 UNL     1       2.525  51.691 -27.117  1.00  0.00     0.015 C 
HETATM   45  C25 UNL     1       0.525  52.586 -28.367  1.00  0.00     0.015 C 
ENDBRANCH  37  43
BRANCH  39  46
HETATM   46  C28 UNL     1      -2.925  49.497 -25.128  1.00  0.00     0.012 C 
HETATM   47  C29 UNL     1      -2.621  48.428 -26.183  1.00  0.00     0.015 C 
HETATM   48  C30 UNL     1      -4.272  50.169 -25.453  1.00  0.00     0.015 C 
ENDBRANCH  39  46
ENDBRANCH  31  34
ENDBRANCH  29  31
ENDBRANCH   1  29
TORSDOF 13
ENDMDL
MODEL 3
REMARK minimizedAffinity -9.12469673
REMARK CNNscore 0.119585007
REMARK CNNaffinity 5.99409437
REMARK  13 active torsions:
REMARK  status: ('A' for Active; 'I' for Inactive)
REMARK    1  A    between atoms: C2_2  and  O1_3 
REMARK    2  A    between atoms: O1_3  and  C3_4 
REMARK       I    between atoms: C3_4  and  N1_6 
REMARK       I    between atoms: N2_9  and  C6_10 
REMARK    3  A    between atoms: C6_10  and  C7_12 
REMARK    4  A    between atoms: C7_12  and  C8_13 
REMARK    5  A    between atoms: C7_12  and  N5_24 
REMARK    6  A    between atoms: C8_13  and  C9_14 
REMARK    7  A    between atoms: C13_18  and  C14_19 
REMARK    8  A    between atoms: C14_19  and  N4_22 
REMARK    9  A    between atoms: N5_24  and  S1_25 
REMARK   10  A    between atoms: S1_25  and  C16_28 
REMARK   11  A    between atoms: C17_29  and  C18_30 
REMARK   12  A    between atoms: C22_34  and  C23_35 
REMARK   13  A    between atoms: C27_39  and  C28_40 
ROOT
HETATM    1  C7  UNL     1      -2.791  51.411 -22.058  1.00  0.00     0.189 C 
ENDROOT
BRANCH   1   2
HETATM    2  C6  UNL     1      -3.053  50.002 -22.627  1.00  0.00     0.243 C 
HETATM    3  N2  UNL     1      -4.315  49.675 -23.116  1.00  0.00    -0.347 N 
HETATM    4  C5  UNL     1      -5.410  50.632 -23.326  1.00  0.00     0.146 C 
HETATM    5  C31 UNL     1      -4.411  48.454 -23.927  1.00  0.00     0.146 C 
HETATM    6  C4  UNL     1      -6.799  49.980 -23.289  1.00  0.00     0.148 C 
HETATM    7  N1  UNL     1      -6.873  48.764 -24.089  1.00  0.00    -0.325 N 
HETATM    8  C3  UNL     1      -8.110  48.378 -24.577  1.00  0.00     0.362 C 
HETATM    9  C32 UNL     1      -5.794  47.800 -23.873  1.00  0.00     0.148 C 
HETATM   10  O2  UNL     1      -9.117  49.073 -24.504  1.00  0.00    -0.238 OA
HETATM   11  O3  UNL     1      -2.129  49.179 -22.639  1.00  0.00    -0.271 OA
BRANCH   8  12
HETATM   12  O1  UNL     1      -8.082  47.142 -25.144  1.00  0.00    -0.304 OA
BRANCH  12  13
HETATM   13  C2  UNL     1      -8.422  47.075 -26.535  1.00  0.00     0.176 C 
HETATM   14  C1  UNL     1      -7.164  47.193 -27.376  1.00  0.00     0.034 C 
ENDBRANCH  12  13
ENDBRANCH   8  12
ENDBRANCH   1   2
BRANCH   1  15
HETATM   15  C8  UNL     1      -2.271  52.398 -23.122  1.00  0.00     0.074 C 
BRANCH  15  16
HETATM   16  C9  UNL     1      -1.777  51.767 -24.407  1.00  0.00    -0.055 A 
HETATM   17  C10 UNL     1      -0.407  51.595 -24.640  1.00  0.00     0.007 A 
HETATM   18  C11 UNL     1       0.041  51.002 -25.822  1.00  0.00     0.002 A 
HETATM   19  C12 UNL     1      -0.874  50.567 -26.782  1.00  0.00     0.014 A 
HETATM   20  C13 UNL     1      -2.247  50.718 -26.558  1.00  0.00     0.002 A 
HETATM   21  C15 UNL     1      -2.690  51.328 -25.377  1.00  0.00     0.022 A 
BRANCH  20  22
HETATM   22  C14 UNL     1      -3.252  50.247 -27.561  1.00  0.00     0.081 C 
HETATM   23  N3  UNL     1      -4.095  49.322 -27.230  1.00  0.00    -0.389 N 
HETATM   24  H16 UNL     1      -4.733  49.145 -28.008  1.00  0.00     0.157 HD
ATOM     25  H3  UNL     1      -4.119  48.842 -26.330  1.00  0.00     0.157 HD
BRANCH  22  26
HETATM   26  N4  UNL     1      -3.281  50.768 -28.824  1.00  0.00    -0.288 NA
HETATM   27  H17 UNL     1      -2.395  51.116 -29.175  1.00  0.00     0.125 HD
HETATM   28  H18 UNL     1      -3.751  50.201 -29.518  1.00  0.00     0.125 HD
ENDBRANCH  22  26
ENDBRANCH  20  22
ENDBRANCH  15  16
ENDBRANCH   1  15
BRANCH   1  29
HETATM   29  N5  UNL     1      -1.770  51.302 -20.982  1.00  0.00    -0.301 N 
HETATM   30  H20 UNL     1      -0.935  50.802 -21.299  1.00  0.00     0.173 HD
BRANCH  29  31
HETATM   31  S1  UNL     1      -2.216  50.923 -19.412  1.00  0.00     0.260 S 
HETATM   32  O4  UNL     1      -3.299  51.810 -19.060  1.00  0.00    -0.200 OA
HETATM   33  O5  UNL     1      -2.473  49.500 -19.389  1.00  0.00    -0.200 OA
BRANCH  31  34
HETATM   34  C16 UNL     1      -0.759  51.340 -18.410  1.00  0.00     0.092 A 
HETATM   35  C17 UNL     1       0.287  52.157 -18.950  1.00  0.00    -0.030 A 
HETATM   36  C21 UNL     1       1.372  52.496 -18.095  1.00  0.00     0.016 A 
HETATM   37  C22 UNL     1       1.461  52.092 -16.767  1.00  0.00    -0.054 A 
HETATM   38  C26 UNL     1       0.423  51.322 -16.257  1.00  0.00     0.016 A 
HETATM   39  C27 UNL     1      -0.685  50.914 -17.036  1.00  0.00    -0.030 A 
BRANCH  35  40
HETATM   40  C18 UNL     1       0.423  52.813 -20.335  1.00  0.00     0.012 C 
HETATM   41  C19 UNL     1       0.719  54.310 -20.431  1.00  0.00     0.015 C 
HETATM   42  C20 UNL     1       1.249  51.965 -21.310  1.00  0.00     0.015 C 
ENDBRANCH  35  40
BRANCH  37  43
HETATM   43  C23 UNL     1       2.626  52.486 -15.878  1.00  0.00     0.010 C 
HETATM   44  C24 UNL     1       3.958  52.401 -16.627  1.00  0.00     0.015 C 
HETATM   45  C25 UNL     1       2.666  51.652 -14.595  1.00  0.00     0.015 C 
ENDBRANCH  37  43
BRANCH  39  46
HETATM   46  C28 UNL     1      -1.748  50.098 -16.292  1.00  0.00     0.012 C 
HETATM   47  C29 UNL     1      -2.062  50.740 -14.936  1.00  0.00     0.015 C 
HETATM   48  C30 UNL     1      -1.395  48.613 -16.086  1.00  0.00     0.015 C 
ENDBRANCH  39  46
ENDBRANCH  31  34
ENDBRANCH  29  31
ENDBRANCH   1  29
TORSDOF 13
ENDMDL
MODEL 4
REMARK minimizedAffinity -8.94087219
REMARK CNNscore 0.116539225
REMARK CNNaffinity 6.58213043
REMARK  13 active torsions:
REMARK  status: ('A' for Active; 'I' for Inactive)
REMARK    1  A    between atoms: C2_2  and  O1_3 
REMARK    2  A    between atoms: O1_3  and  C3_4 
REMARK       I    between atoms: C3_4  and  N1_6 
REMARK       I    between atoms: N2_9  and  C6_10 
REMARK    3  A    between atoms: C6_10  and  C7_12 
REMARK    4  A    between atoms: C7_12  and  C8_13 
REMARK    5  A    between atoms: C7_12  and  N5_24 
REMARK    6  A    between atoms: C8_13  and  C9_14 
REMARK    7  A    between atoms: C13_18  and  C14_19 
REMARK    8  A    between atoms: C14_19  and  N4_22 
REMARK    9  A    between atoms: N5_24  and  S1_25 
REMARK   10  A    between atoms: S1_25  and  C16_28 
REMARK   11  A    between atoms: C17_29  and  C18_30 
REMARK   12  A    between atoms: C22_34  and  C23_35 
REMARK   13  A    between atoms: C27_39  and  C28_40 
ROOT
HETATM    1  C7  UNL     1      -2.652  48.876 -20.738  1.00  0.00     0.189 C 
ENDROOT
BRANCH   1   2
HETATM    2  C6  UNL     1      -2.047  48.386 -19.408  1.00  0.00     0.243 C 
HETATM    3  N2  UNL     1      -1.354  49.275 -18.591  1.00  0.00    -0.347 N 
HETATM    4  C5  UNL     1      -1.304  50.731 -18.785  1.00  0.00     0.146 C 
HETATM    5  C31 UNL     1      -1.090  48.836 -17.215  1.00  0.00     0.146 C 
HETATM    6  C4  UNL     1      -0.061  51.382 -18.162  1.00  0.00     0.148 C 
HETATM    7  N1  UNL     1       0.193  50.925 -16.802  1.00  0.00    -0.325 N 
HETATM    8  C3  UNL     1       0.902  51.761 -15.955  1.00  0.00     0.362 C 
HETATM    9  C32 UNL     1       0.160  49.476 -16.605  1.00  0.00     0.148 C 
HETATM   10  O2  UNL     1       1.198  52.918 -16.232  1.00  0.00    -0.238 OA
HETATM   11  O3  UNL     1      -2.187  47.198 -19.087  1.00  0.00    -0.271 OA
BRANCH   8  12
HETATM   12  O1  UNL     1       1.234  51.153 -14.785  1.00  0.00    -0.304 OA
BRANCH  12  13
HETATM   13  C2  UNL     1       0.963  51.894 -13.587  1.00  0.00     0.176 C 
HETATM   14  C1  UNL     1      -0.531  51.902 -13.317  1.00  0.00     0.034 C 
ENDBRANCH  12  13
ENDBRANCH   8  12
ENDBRANCH   1   2
BRANCH   1  15
HETATM   15  C8  UNL     1      -2.987  47.722 -21.704  1.00  0.00     0.074 C 
BRANCH  15  16
HETATM   16  C9  UNL     1      -4.461  47.514 -21.979  1.00  0.00    -0.055 A 
HETATM   17  C10 UNL     1      -5.095  46.317 -21.622  1.00  0.00     0.007 A 
HETATM   18  C11 UNL     1      -6.457  46.136 -21.868  1.00  0.00     0.002 A 
HETATM   19  C12 UNL     1      -7.205  47.150 -22.468  1.00  0.00     0.014 A 
HETATM   20  C13 UNL     1      -6.591  48.358 -22.818  1.00  0.00     0.002 A 
HETATM   21  C15 UNL     1      -5.220  48.528 -22.582  1.00  0.00     0.022 A 
BRANCH  20  22
HETATM   22  C14 UNL     1      -7.369  49.469 -23.447  1.00  0.00     0.081 C 
HETATM   23  N3  UNL     1      -8.022  49.247 -24.543  1.00  0.00    -0.389 N 
HETATM   24  H16 UNL     1      -8.529  50.090 -24.818  1.00  0.00     0.157 HD
ATOM     25  H3  UNL     1      -8.030  48.364 -25.054  1.00  0.00     0.157 HD
BRANCH  22  26
HETATM   26  N4  UNL     1      -7.386  50.717 -22.892  1.00  0.00    -0.288 NA
HETATM   27  H17 UNL     1      -6.565  50.968 -22.350  1.00  0.00     0.125 HD
HETATM   28  H18 UNL     1      -7.654  51.468 -23.516  1.00  0.00     0.125 HD
ENDBRANCH  22  26
ENDBRANCH  20  22
ENDBRANCH  15  16
ENDBRANCH   1  15
BRANCH   1  29
HETATM   29  N5  UNL     1      -1.667  49.771 -21.403  1.00  0.00    -0.301 N 
HETATM   30  H20 UNL     1      -0.822  49.892 -20.839  1.00  0.00     0.173 HD
BRANCH  29  31
HETATM   31  S1  UNL     1      -2.165  51.178 -22.166  1.00  0.00     0.260 S 
HETATM   32  O4  UNL     1      -3.562  51.007 -22.485  1.00  0.00    -0.200 OA
HETATM   33  O5  UNL     1      -1.799  52.271 -21.293  1.00  0.00    -0.200 OA
BRANCH  31  34
HETATM   34  C16 UNL     1      -1.206  51.226 -23.708  1.00  0.00     0.092 A 
HETATM   35  C17 UNL     1      -1.663  50.525 -24.872  1.00  0.00    -0.030 A 
HETATM   36  C21 UNL     1      -0.897  50.651 -26.065  1.00  0.00     0.016 A 
HETATM   37  C22 UNL     1       0.253  51.427 -26.163  1.00  0.00    -0.054 A 
HETATM   38  C26 UNL     1       0.663  52.118 -25.029  1.00  0.00     0.016 A 
HETATM   39  C27 UNL     1      -0.018  52.036 -23.792  1.00  0.00    -0.030 A 
BRANCH  35  40
HETATM   40  C18 UNL     1      -2.923  49.669 -25.088  1.00  0.00     0.012 C 
HETATM   41  C19 UNL     1      -4.257  50.358 -25.375  1.00  0.00     0.015 C 
HETATM   42  C20 UNL     1      -2.661  48.450 -25.981  1.00  0.00     0.015 C 
ENDBRANCH  35  40
BRANCH  37  43
HETATM   43  C23 UNL     1       1.036  51.551 -27.457  1.00  0.00     0.010 C 
HETATM   44  C24 UNL     1       2.533  51.734 -27.192  1.00  0.00     0.015 C 
HETATM   45  C25 UNL     1       0.495  52.680 -28.338  1.00  0.00     0.015 C 
ENDBRANCH  37  43
BRANCH  39  46
HETATM   46  C28 UNL     1       0.561  52.897 -22.664  1.00  0.00     0.012 C 
HETATM   47  C29 UNL     1       1.290  54.115 -23.242  1.00  0.00     0.015 C 
HETATM   48  C30 UNL     1       1.500  52.149 -21.698  1.00  0.00     0.015 C 
ENDBRANCH  39  46
ENDBRANCH  31  34
ENDBRANCH  29  31
ENDBRANCH   1  29
TORSDOF 13
ENDMDL
MODEL 5
REMARK minimizedAffinity -8.81352329
REMARK CNNscore 0.11308635
REMARK CNNaffinity 5.82554245
REMARK  13 active torsions:
REMARK  status: ('A' for Active; 'I' for Inactive)
REMARK    1  A    between atoms: C2_2  and  O1_3 
REMARK    2  A    between atoms: O1_3  and  C3_4 
REMARK       I    between atoms: C3_4  and  N1_6 
REMARK       I    between atoms: N2_9  and  C6_10 
REMARK    3  A    between atoms: C6_10  and  C7_12 
REMARK    4  A    between atoms: C7_12  and  C8_13 
REMARK    5  A    between atoms: C7_12  and  N5_24 
REMARK    6  A    between atoms: C8_13  and  C9_14 
REMARK    7  A    between atoms: C13_18  and  C14_19 
REMARK    8  A    between atoms: C14_19  and  N4_22 
REMARK    9  A    between atoms: N5_24  and  S1_25 
REMARK   10  A    between atoms: S1_25  and  C16_28 
REMARK   11  A    between atoms: C17_29  and  C18_30 
REMARK   12  A    between atoms: C22_34  and  C23_35 
REMARK   13  A    between atoms: C27_39  and  C28_40 
ROOT
HETATM    1  C7  UNL     1      -0.220  50.135 -17.275  1.00  0.00     0.189 C 
ENDROOT
BRANCH   1   2
HETATM    2  C6  UNL     1      -1.347  49.710 -16.312  1.00  0.00     0.243 C 
HETATM    3  N2  UNL     1      -1.465  50.325 -15.068  1.00  0.00    -0.347 N 
HETATM    4  C5  UNL     1      -0.714  51.513 -14.642  1.00  0.00     0.146 C 
HETATM    5  C31 UNL     1      -2.726  50.111 -14.346  1.00  0.00     0.146 C 
HETATM    6  C4  UNL     1      -0.573  51.625 -13.117  1.00  0.00     0.148 C 
HETATM    7  N1  UNL     1      -1.831  51.399 -12.417  1.00  0.00    -0.325 N 
HETATM    8  C3  UNL     1      -1.990  51.965 -11.163  1.00  0.00     0.362 C 
HETATM    9  C32 UNL     1      -2.577  50.209 -12.826  1.00  0.00     0.148 C 
HETATM   10  O2  UNL     1      -1.201  52.764 -10.672  1.00  0.00    -0.238 OA
HETATM   11  O3  UNL     1      -2.133  48.821 -16.664  1.00  0.00    -0.271 OA
BRANCH   8  12
HETATM   12  O1  UNL     1      -3.118  51.533 -10.538  1.00  0.00    -0.304 OA
BRANCH  12  13
HETATM   13  C2  UNL     1      -4.330  52.225 -10.867  1.00  0.00     0.176 C 
HETATM   14  C1  UNL     1      -4.197  53.692 -10.503  1.00  0.00     0.034 C 
ENDBRANCH  12  13
ENDBRANCH   8  12
ENDBRANCH   1   2
BRANCH   1  15
HETATM   15  C8  UNL     1       0.228  51.595 -17.062  1.00  0.00     0.074 C 
BRANCH  15  16
HETATM   16  C9  UNL     1       1.624  51.770 -16.502  1.00  0.00    -0.055 A 
HETATM   17  C10 UNL     1       2.498  52.721 -17.043  1.00  0.00     0.007 A 
HETATM   18  C11 UNL     1       3.780  52.884 -16.515  1.00  0.00     0.002 A 
HETATM   19  C12 UNL     1       4.202  52.105 -15.436  1.00  0.00     0.014 A 
HETATM   20  C13 UNL     1       3.336  51.161 -14.875  1.00  0.00     0.002 A 
HETATM   21  C15 UNL     1       2.056  50.990 -15.419  1.00  0.00     0.022 A 
BRANCH  20  22
HETATM   22  C14 UNL     1       3.754  50.322 -13.709  1.00  0.00     0.081 C 
HETATM   23  N3  UNL     1       2.986  50.253 -12.668  1.00  0.00    -0.389 N 
HETATM   24  H16 UNL     1       3.393  49.613 -11.984  1.00  0.00     0.157 HD
ATOM     25  H3  UNL     1       2.109  50.760 -12.550  1.00  0.00     0.157 HD
BRANCH  22  26
HETATM   26  N4  UNL     1       4.939  49.644 -13.721  1.00  0.00    -0.288 NA
HETATM   27  H17 UNL     1       5.673  50.051 -14.292  1.00  0.00     0.125 HD
HETATM   28  H18 UNL     1       5.294  49.371 -12.812  1.00  0.00     0.125 HD
ENDBRANCH  22  26
ENDBRANCH  20  22
ENDBRANCH  15  16
ENDBRANCH   1  15
BRANCH   1  29
HETATM   29  N5  UNL     1      -0.715  49.997 -18.671  1.00  0.00    -0.301 N 
HETATM   30  H20 UNL     1       0.053  50.002 -19.348  1.00  0.00     0.173 HD
BRANCH  29  31
HETATM   31  S1  UNL     1      -2.065  50.842 -19.190  1.00  0.00     0.260 S 
HETATM   32  O4  UNL     1      -3.167  49.910 -19.186  1.00  0.00    -0.200 OA
HETATM   33  O5  UNL     1      -2.167  52.013 -18.349  1.00  0.00    -0.200 OA
BRANCH  31  34
HETATM   34  C16 UNL     1      -1.684  51.302 -20.906  1.00  0.00     0.092 A 
HETATM   35  C17 UNL     1      -0.575  52.162 -21.200  1.00  0.00    -0.030 A 
HETATM   36  C21 UNL     1      -0.294  52.437 -22.567  1.00  0.00     0.016 A 
HETATM   37  C22 UNL     1      -1.024  51.904 -23.625  1.00  0.00    -0.054 A 
HETATM   38  C26 UNL     1      -2.078  51.053 -23.318  1.00  0.00     0.016 A 
HETATM   39  C27 UNL     1      -2.448  50.740 -21.989  1.00  0.00    -0.030 A 
BRANCH  35  40
HETATM   40  C18 UNL     1       0.448  52.824 -20.261  1.00  0.00     0.012 C 
HETATM   41  C19 UNL     1       1.899  52.972 -20.718  1.00  0.00     0.015 C 
HETATM   42  C20 UNL     1      -0.107  54.078 -19.575  1.00  0.00     0.015 C 
ENDBRANCH  35  40
BRANCH  37  43
HETATM   43  C23 UNL     1      -0.685  52.206 -25.074  1.00  0.00     0.010 C 
HETATM   44  C24 UNL     1      -0.079  50.988 -25.775  1.00  0.00     0.015 C 
HETATM   45  C25 UNL     1       0.236  53.422 -25.197  1.00  0.00     0.015 C 
ENDBRANCH  37  43
BRANCH  39  46
HETATM   46  C28 UNL     1      -3.614  49.755 -21.846  1.00  0.00     0.012 C 
HETATM   47  C29 UNL     1      -3.305  48.449 -22.587  1.00  0.00     0.015 C 
HETATM   48  C30 UNL     1      -4.979  50.297 -22.313  1.00  0.00     0.015 C 
ENDBRANCH  39  46
ENDBRANCH  31  34
ENDBRANCH  29  31
ENDBRANCH   1  29
TORSDOF 13
ENDMDL
MODEL 6
REMARK minimizedAffinity -9.1360817
REMARK CNNscore 0.0997772962
REMARK CNNaffinity 6.21161222
REMARK  13 active torsions:
REMARK  status: ('A' for Active; 'I' for Inactive)
REMARK    1  A    between atoms: C2_2  and  O1_3 
REMARK    2  A    between atoms: O1_3  and  C3_4 
REMARK       I    between atoms: C3_4  and  N1_6 
REMARK       I    between atoms: N2_9  and  C6_10 
REMARK    3  A    between atoms: C6_10  and  C7_12 
REMARK    4  A    between atoms: C7_12  and  C8_13 
REMARK    5  A    between atoms: C7_12  and  N5_24 
REMARK    6  A    between atoms: C8_13  and  C9_14 
REMARK    7  A    between atoms: C13_18  and  C14_19 
REMARK    8  A    between atoms: C14_19  and  N4_22 
REMARK    9  A    between atoms: N5_24  and  S1_25 
REMARK   10  A    between atoms: S1_25  and  C16_28 
REMARK   11  A    between atoms: C17_29  and  C18_30 
REMARK   12  A    between atoms: C22_34  and  C23_35 
REMARK   13  A    between atoms: C27_39  and  C28_40 
ROOT
HETATM    1  C7  UNL     1      -3.134  48.446 -20.999  1.00  0.00     0.189 C 
ENDROOT
BRANCH   1   2
HETATM    2  C6  UNL     1      -1.967  48.449 -19.992  1.00  0.00     0.243 C 
HETATM    3  N2  UNL     1      -2.129  49.049 -18.745  1.00  0.00    -0.347 N 
HETATM    4  C5  UNL     1      -3.406  49.530 -18.202  1.00  0.00     0.146 C 
HETATM    5  C31 UNL     1      -1.114  48.740 -17.730  1.00  0.00     0.146 C 
HETATM    6  C4  UNL     1      -3.238  50.633 -17.147  1.00  0.00     0.148 C 
HETATM    7  N1  UNL     1      -2.219  50.314 -16.155  1.00  0.00    -0.325 N 
HETATM    8  C3  UNL     1      -2.317  50.906 -14.907  1.00  0.00     0.362 C 
HETATM    9  C32 UNL     1      -0.940  49.850 -16.690  1.00  0.00     0.148 C 
HETATM   10  O2  UNL     1      -3.286  51.561 -14.539  1.00  0.00    -0.238 OA
HETATM   11  O3  UNL     1      -0.897  47.915 -20.311  1.00  0.00    -0.271 OA
BRANCH   8  12
HETATM   12  O1  UNL     1      -1.218  50.680 -14.138  1.00  0.00    -0.304 OA
BRANCH  12  13
HETATM   13  C2  UNL     1      -0.442  51.834 -13.789  1.00  0.00     0.176 C 
HETATM   14  C1  UNL     1      -0.731  52.231 -12.353  1.00  0.00     0.034 C 
ENDBRANCH  12  13
ENDBRANCH   8  12
ENDBRANCH   1   2
BRANCH   1  15
HETATM   15  C8  UNL     1      -3.697  47.035 -21.257  1.00  0.00     0.074 C 
BRANCH  15  16
HETATM   16  C9  UNL     1      -5.088  46.990 -21.852  1.00  0.00    -0.055 A 
HETATM   17  C10 UNL     1      -5.841  45.809 -21.828  1.00  0.00     0.007 A 
HETATM   18  C11 UNL     1      -7.127  45.778 -22.369  1.00  0.00     0.002 A 
HETATM   19  C12 UNL     1      -7.680  46.928 -22.935  1.00  0.00     0.014 A 
HETATM   20  C13 UNL     1      -6.948  48.119 -22.955  1.00  0.00     0.002 A 
HETATM   21  C15 UNL     1      -5.651  48.141 -22.424  1.00  0.00     0.022 A 
BRANCH  20  22
HETATM   22  C14 UNL     1      -7.520  49.371 -23.541  1.00  0.00     0.081 C 
HETATM   23  N3  UNL     1      -8.217  49.302 -24.631  1.00  0.00    -0.389 N 
HETATM   24  H16 UNL     1      -8.566  50.231 -24.874  1.00  0.00     0.157 HD
ATOM     25  H3  UNL     1      -8.391  48.451 -25.165  1.00  0.00     0.157 HD
BRANCH  22  26
HETATM   26  N4  UNL     1      -7.303  50.585 -22.953  1.00  0.00    -0.288 NA
HETATM   27  H17 UNL     1      -6.444  50.667 -22.419  1.00  0.00     0.125 HD
HETATM   28  H18 UNL     1      -7.438  51.390 -23.552  1.00  0.00     0.125 HD
ENDBRANCH  22  26
ENDBRANCH  20  22
ENDBRANCH  15  16
ENDBRANCH   1  15
BRANCH   1  29
HETATM   29  N5  UNL     1      -2.643  48.997 -22.291  1.00  0.00    -0.301 N 
HETATM   30  H20 UNL     1      -1.694  48.677 -22.505  1.00  0.00     0.173 HD
BRANCH  29  31
HETATM   31  S1  UNL     1      -2.911  50.600 -22.697  1.00  0.00     0.260 S 
HETATM   32  O4  UNL     1      -4.205  50.658 -23.334  1.00  0.00    -0.200 OA
HETATM   33  O5  UNL     1      -2.717  51.369 -21.488  1.00  0.00    -0.200 OA
BRANCH  31  34
HETATM   34  C16 UNL     1      -1.627  50.981 -23.925  1.00  0.00     0.092 A 
HETATM   35  C17 UNL     1      -1.816  50.641 -25.304  1.00  0.00    -0.030 A 
HETATM   36  C21 UNL     1      -0.799  51.019 -26.225  1.00  0.00     0.016 A 
HETATM   37  C22 UNL     1       0.350  51.713 -25.861  1.00  0.00    -0.054 A 
HETATM   38  C26 UNL     1       0.500  52.055 -24.522  1.00  0.00     0.016 A 
HETATM   39  C27 UNL     1      -0.445  51.701 -23.530  1.00  0.00    -0.030 A 
BRANCH  35  40
HETATM   40  C18 UNL     1      -3.002  49.960 -26.009  1.00  0.00     0.012 C 
HETATM   41  C19 UNL     1      -3.323  50.324 -27.458  1.00  0.00     0.015 C 
HETATM   42  C20 UNL     1      -3.067  48.453 -25.730  1.00  0.00     0.015 C 
ENDBRANCH  35  40
BRANCH  37  43
HETATM   43  C23 UNL     1       1.407  52.115 -26.873  1.00  0.00     0.010 C 
HETATM   44  C24 UNL     1       0.921  51.901 -28.309  1.00  0.00     0.015 C 
HETATM   45  C25 UNL     1       2.730  51.385 -26.629  1.00  0.00     0.015 C 
ENDBRANCH  37  43
BRANCH  39  46
HETATM   46  C28 UNL     1      -0.128  52.197 -22.114  1.00  0.00     0.012 C 
HETATM   47  C29 UNL     1       0.825  53.396 -22.169  1.00  0.00     0.015 C 
HETATM   48  C30 UNL     1       0.450  51.126 -21.169  1.00  0.00     0.015 C 
ENDBRANCH  39  46
ENDBRANCH  31  34
ENDBRANCH  29  31
ENDBRANCH   1  29
TORSDOF 13
ENDMDL
MODEL 7
REMARK minimizedAffinity -9.39556885
REMARK CNNscore 0.0951958373
REMARK CNNaffinity 6.37307358
REMARK  13 active torsions:
REMARK  status: ('A' for Active; 'I' for Inactive)
REMARK    1  A    between atoms: C2_2  and  O1_3 
REMARK    2  A    between atoms: O1_3  and  C3_4 
REMARK       I    between atoms: C3_4  and  N1_6 
REMARK       I    between atoms: N2_9  and  C6_10 
REMARK    3  A    between atoms: C6_10  and  C7_12 
REMARK    4  A    between atoms: C7_12  and  C8_13 
REMARK    5  A    between atoms: C7_12  and  N5_24 
REMARK    6  A    between atoms: C8_13  and  C9_14 
REMARK    7  A    between atoms: C13_18  and  C14_19 
REMARK    8  A    between atoms: C14_19  and  N4_22 
REMARK    9  A    between atoms: N5_24  and  S1_25 
REMARK   10  A    between atoms: S1_25  and  C16_28 
REMARK   11  A    between atoms: C17_29  and  C18_30 
REMARK   12  A    between atoms: C22_34  and  C23_35 
REMARK   13  A    between atoms: C27_39  and  C28_40 
ROOT
HETATM    1  C7  UNL     1      -4.727  49.160 -25.112  1.00  0.00     0.189 C 
ENDROOT
BRANCH   1   2
HETATM    2  C6  UNL     1      -4.429  48.452 -23.775  1.00  0.00     0.243 C 
HETATM    3  N2  UNL     1      -5.439  48.302 -22.829  1.00  0.00    -0.347 N 
HETATM    4  C5  UNL     1      -6.861  48.592 -23.063  1.00  0.00     0.146 C 
HETATM    5  C31 UNL     1      -5.184  47.352 -21.739  1.00  0.00     0.146 C 
HETATM    6  C4  UNL     1      -7.632  48.915 -21.775  1.00  0.00     0.148 C 
HETATM    7  N1  UNL     1      -7.357  47.969 -20.701  1.00  0.00    -0.325 N 
HETATM    8  C3  UNL     1      -8.319  47.802 -19.718  1.00  0.00     0.362 C 
HETATM    9  C32 UNL     1      -5.944  47.688 -20.453  1.00  0.00     0.148 C 
HETATM   10  O2  UNL     1      -9.443  48.287 -19.777  1.00  0.00    -0.238 OA
HETATM   11  O3  UNL     1      -3.286  48.027 -23.564  1.00  0.00    -0.271 OA
BRANCH   8  12
HETATM   12  O1  UNL     1      -7.874  47.043 -18.682  1.00  0.00    -0.304 OA
BRANCH  12  13
HETATM   13  C2  UNL     1      -7.976  47.629 -17.377  1.00  0.00     0.176 C 
HETATM   14  C1  UNL     1      -7.753  46.565 -16.318  1.00  0.00     0.034 C 
ENDBRANCH  12  13
ENDBRANCH   8  12
ENDBRANCH   1   2
BRANCH   1  15
HETATM   15  C8  UNL     1      -4.160  48.403 -26.329  1.00  0.00     0.074 C 
BRANCH  15  16
HETATM   16  C9  UNL     1      -5.175  48.014 -27.382  1.00  0.00    -0.055 A 
HETATM   17  C10 UNL     1      -6.486  47.676 -27.022  1.00  0.00     0.007 A 
HETATM   18  C11 UNL     1      -7.420  47.328 -27.999  1.00  0.00     0.002 A 
HETATM   19  C12 UNL     1      -7.059  47.320 -29.348  1.00  0.00     0.014 A 
HETATM   20  C13 UNL     1      -5.758  47.668 -29.725  1.00  0.00     0.002 A 
HETATM   21  C15 UNL     1      -4.820  48.002 -28.739  1.00  0.00     0.022 A 
BRANCH  20  22
HETATM   22  C14 UNL     1      -5.346  47.684 -31.163  1.00  0.00     0.081 C 
HETATM   23  N3  UNL     1      -5.632  46.670 -31.917  1.00  0.00    -0.389 N 
HETATM   24  H16 UNL     1      -5.319  46.854 -32.871  1.00  0.00     0.157 HD
ATOM     25  H3  UNL     1      -6.098  45.818 -31.605  1.00  0.00     0.157 HD
BRANCH  22  26
HETATM   26  N4  UNL     1      -4.659  48.742 -31.685  1.00  0.00    -0.288 NA
HETATM   27  H17 UNL     1      -4.087  49.262 -31.028  1.00  0.00     0.125 HD
HETATM   28  H18 UNL     1      -4.151  48.553 -32.540  1.00  0.00     0.125 HD
ENDBRANCH  22  26
ENDBRANCH  20  22
ENDBRANCH  15  16
ENDBRANCH   1  15
BRANCH   1  29
HETATM   29  N5  UNL     1      -4.113  50.515 -25.076  1.00  0.00    -0.301 N 
HETATM   30  H20 UNL     1      -4.814  51.253 -25.184  1.00  0.00     0.173 HD
BRANCH  29  31
HETATM   31  S1  UNL     1      -2.684  50.831 -25.891  1.00  0.00     0.260 S 
HETATM   32  O4  UNL     1      -2.143  49.555 -26.293  1.00  0.00    -0.200 OA
HETATM   33  O5  UNL     1      -3.004  51.787 -26.927  1.00  0.00    -0.200 OA
BRANCH  31  34
HETATM   34  C16 UNL     1      -1.595  51.568 -24.637  1.00  0.00     0.092 A 
HETATM   35  C17 UNL     1      -2.066  51.782 -23.300  1.00  0.00    -0.030 A 
HETATM   36  C21 UNL     1      -1.146  52.308 -22.350  1.00  0.00     0.016 A 
HETATM   37  C22 UNL     1       0.181  52.606 -22.646  1.00  0.00    -0.054 A 
HETATM   38  C26 UNL     1       0.621  52.366 -23.942  1.00  0.00     0.016 A 
HETATM   39  C27 UNL     1      -0.225  51.868 -24.961  1.00  0.00    -0.030 A 
BRANCH  35  40
HETATM   40  C18 UNL     1      -3.433  51.476 -22.664  1.00  0.00     0.012 C 
HETATM   41  C19 UNL     1      -3.489  50.868 -21.263  1.00  0.00     0.015 C 
HETATM   42  C20 UNL     1      -4.449  52.604 -22.881  1.00  0.00     0.015 C 
ENDBRANCH  35  40
BRANCH  37  43
HETATM   43  C23 UNL     1       1.139  53.151 -21.603  1.00  0.00     0.010 C 
HETATM   44  C24 UNL     1       0.516  53.136 -20.205  1.00  0.00     0.015 C 
HETATM   45  C25 UNL     1       1.632  54.553 -21.967  1.00  0.00     0.015 C 
ENDBRANCH  37  43
BRANCH  39  46
HETATM   46  C28 UNL     1       0.448  51.634 -26.318  1.00  0.00     0.012 C 
HETATM   47  C29 UNL     1       1.930  51.293 -26.128  1.00  0.00     0.015 C 
HETATM   48  C30 UNL     1       0.314  52.800 -27.316  1.00  0.00     0.015 C 
ENDBRANCH  39  46
ENDBRANCH  31  34
ENDBRANCH  29  31
ENDBRANCH   1  29
TORSDOF 13
ENDMDL
MODEL 8
REMARK minimizedAffinity -8.90130138
REMARK CNNscore 0.0922590792
REMARK CNNaffinity 6.34239912
REMARK  13 active torsions:
REMARK  status: ('A' for Active; 'I' for Inactive)
REMARK    1  A    between atoms: C2_2  and  O1_3 
REMARK    2  A    between atoms: O1_3  and  C3_4 
REMARK       I    between atoms: C3_4  and  N1_6 
REMARK       I    between atoms: N2_9  and  C6_10 
REMARK    3  A    between atoms: C6_10  and  C7_12 
REMARK    4  A    between atoms: C7_12  and  C8_13 
REMARK    5  A    between atoms: C7_12  and  N5_24 
REMARK    6  A    between atoms: C8_13  and  C9_14 
REMARK    7  A    between atoms: C13_18  and  C14_19 
REMARK    8  A    between atoms: C14_19  and  N4_22 
REMARK    9  A    between atoms: N5_24  and  S1_25 
REMARK   10  A    between atoms: S1_25  and  C16_28 
REMARK   11  A    between atoms: C17_29  and  C18_30 
REMARK   12  A    between atoms: C22_34  and  C23_35 
REMARK   13  A    between atoms: C27_39  and  C28_40 
ROOT
HETATM    1  C7  UNL     1      -1.855  48.735 -20.418  1.00  0.00     0.189 C 
ENDROOT
BRANCH   1   2
HETATM    2  C6  UNL     1      -3.055  47.969 -21.009  1.00  0.00     0.243 C 
HETATM    3  N2  UNL     1      -4.290  48.015 -20.368  1.00  0.00    -0.347 N 
HETATM    4  C5  UNL     1      -4.625  48.906 -19.249  1.00  0.00     0.146 C 
HETATM    5  C31 UNL     1      -5.449  47.543 -21.137  1.00  0.00     0.146 C 
HETATM    6  C4  UNL     1      -5.768  48.374 -18.372  1.00  0.00     0.148 C 
HETATM    7  N1  UNL     1      -6.904  47.900 -19.153  1.00  0.00    -0.325 N 
HETATM    8  C3  UNL     1      -8.152  47.899 -18.553  1.00  0.00     0.362 C 
HETATM    9  C32 UNL     1      -6.578  47.000 -20.258  1.00  0.00     0.148 C 
HETATM   10  O2  UNL     1      -8.383  48.409 -17.463  1.00  0.00    -0.238 OA
HETATM   11  O3  UNL     1      -2.898  47.319 -22.050  1.00  0.00    -0.271 OA
BRANCH   8  12
HETATM   12  O1  UNL     1      -9.089  47.266 -19.308  1.00  0.00    -0.304 OA
BRANCH  12  13
HETATM   13  C2  UNL     1      -9.940  46.340 -18.617  1.00  0.00     0.176 C 
HETATM   14  C1  UNL     1      -9.717  44.940 -19.157  1.00  0.00     0.034 C 
ENDBRANCH  12  13
ENDBRANCH   8  12
ENDBRANCH   1   2
BRANCH   1  15
HETATM   15  C8  UNL     1      -2.259  49.694 -19.281  1.00  0.00     0.074 C 
BRANCH  15  16
HETATM   16  C9  UNL     1      -1.234  49.863 -18.180  1.00  0.00    -0.055 A 
HETATM   17  C10 UNL     1      -0.999  48.837 -17.256  1.00  0.00     0.007 A 
HETATM   18  C11 UNL     1      -0.044  48.996 -16.250  1.00  0.00     0.002 A 
HETATM   19  C12 UNL     1       0.693  50.177 -16.159  1.00  0.00     0.014 A 
HETATM   20  C13 UNL     1       0.481  51.206 -17.082  1.00  0.00     0.002 A 
HETATM   21  C15 UNL     1      -0.489  51.048 -18.081  1.00  0.00     0.022 A 
BRANCH  20  22
HETATM   22  C14 UNL     1       1.266  52.478 -17.019  1.00  0.00     0.081 C 
HETATM   23  N3  UNL     1       1.725  52.996 -18.114  1.00  0.00    -0.389 N 
HETATM   24  H16 UNL     1       2.200  53.876 -17.904  1.00  0.00     0.157 HD
ATOM     25  H3  UNL     1       1.628  52.589 -19.044  1.00  0.00     0.157 HD
BRANCH  22  26
HETATM   26  N4  UNL     1       1.520  53.089 -15.824  1.00  0.00    -0.288 NA
HETATM   27  H17 UNL     1       1.555  52.475 -15.016  1.00  0.00     0.125 HD
HETATM   28  H18 UNL     1       2.296  53.739 -15.823  1.00  0.00     0.125 HD
ENDBRANCH  22  26
ENDBRANCH  20  22
ENDBRANCH  15  16
ENDBRANCH   1  15
BRANCH   1  29
HETATM   29  N5  UNL     1      -1.226  49.535 -21.503  1.00  0.00    -0.301 N 
HETATM   30  H20 UNL     1      -0.223  49.669 -21.344  1.00  0.00     0.173 HD
BRANCH  29  31
HETATM   31  S1  UNL     1      -1.989  50.894 -22.119  1.00  0.00     0.260 S 
HETATM   32  O4  UNL     1      -3.369  50.534 -22.337  1.00  0.00    -0.200 OA
HETATM   33  O5  UNL     1      -1.708  51.976 -21.202  1.00  0.00    -0.200 OA
BRANCH  31  34
HETATM   34  C16 UNL     1      -1.189  51.178 -23.726  1.00  0.00     0.092 A 
HETATM   35  C17 UNL     1      -0.003  51.977 -23.817  1.00  0.00    -0.030 A 
HETATM   36  C21 UNL     1       0.608  52.113 -25.095  1.00  0.00     0.016 A 
HETATM   37  C22 UNL     1       0.127  51.500 -26.247  1.00  0.00    -0.054 A 
HETATM   38  C26 UNL     1      -1.010  50.710 -26.130  1.00  0.00     0.016 A 
HETATM   39  C27 UNL     1      -1.700  50.535 -24.908  1.00  0.00    -0.030 A 
BRANCH  35  40
HETATM   40  C18 UNL     1       0.798  52.700 -22.720  1.00  0.00     0.012 C 
HETATM   41  C19 UNL     1       1.278  54.131 -22.961  1.00  0.00     0.015 C 
HETATM   42  C20 UNL     1       0.210  52.481 -21.320  1.00  0.00     0.015 C 
ENDBRANCH  35  40
BRANCH  37  43
HETATM   43  C23 UNL     1       0.814  51.654 -27.592  1.00  0.00     0.010 C 
HETATM   44  C24 UNL     1       2.338  51.685 -27.444  1.00  0.00     0.015 C 
HETATM   45  C25 UNL     1       0.313  52.888 -28.345  1.00  0.00     0.015 C 
ENDBRANCH  37  43
BRANCH  39  46
HETATM   46  C28 UNL     1      -2.912  49.598 -24.966  1.00  0.00     0.012 C 
HETATM   47  C29 UNL     1      -2.710  48.528 -26.044  1.00  0.00     0.015 C 
HETATM   48  C30 UNL     1      -4.263  50.303 -25.191  1.00  0.00     0.015 C 
ENDBRANCH  39  46
ENDBRANCH  31  34
ENDBRANCH  29  31
ENDBRANCH   1  29
TORSDOF 13
ENDMDL
MODEL 9
REMARK minimizedAffinity -8.89990139
REMARK CNNscore 0.0907949433
REMARK CNNaffinity 6.54651451
REMARK  13 active torsions:
REMARK  status: ('A' for Active; 'I' for Inactive)
REMARK    1  A    between atoms: C2_2  and  O1_3 
REMARK    2  A    between atoms: O1_3  and  C3_4 
REMARK       I    between atoms: C3_4  and  N1_6 
REMARK       I    between atoms: N2_9  and  C6_10 
REMARK    3  A    between atoms: C6_10  and  C7_12 
REMARK    4  A    between atoms: C7_12  and  C8_13 
REMARK    5  A    between atoms: C7_12  and  N5_24 
REMARK    6  A    between atoms: C8_13  and  C9_14 
REMARK    7  A    between atoms: C13_18  and  C14_19 
REMARK    8  A    between atoms: C14_19  and  N4_22 
REMARK    9  A    between atoms: N5_24  and  S1_25 
REMARK   10  A    between atoms: S1_25  and  C16_28 
REMARK   11  A    between atoms: C17_29  and  C18_30 
REMARK   12  A    between atoms: C22_34  and  C23_35 
REMARK   13  A    between atoms: C27_39  and  C28_40 
ROOT
HETATM    1  C7  UNL     1      -4.068  48.438 -25.530  1.00  0.00     0.189 C 
ENDROOT
BRANCH   1   2
HETATM    2  C6  UNL     1      -4.244  48.282 -27.054  1.00  0.00     0.243 C 
HETATM    3  N2  UNL     1      -5.448  47.808 -27.568  1.00  0.00    -0.347 N 
HETATM    4  C5  UNL     1      -6.678  47.616 -26.788  1.00  0.00     0.146 C 
HETATM    5  C31 UNL     1      -5.664  47.988 -29.009  1.00  0.00     0.146 C 
HETATM    6  C4  UNL     1      -7.626  46.574 -27.399  1.00  0.00     0.148 C 
HETATM    7  N1  UNL     1      -7.819  46.760 -28.832  1.00  0.00    -0.325 N 
HETATM    8  C3  UNL     1      -8.989  46.283 -29.399  1.00  0.00     0.362 C 
HETATM    9  C32 UNL     1      -6.598  46.937 -29.616  1.00  0.00     0.148 C 
HETATM   10  O2  UNL     1      -9.933  45.849 -28.748  1.00  0.00    -0.238 OA
HETATM   11  O3  UNL     1      -3.303  48.581 -27.800  1.00  0.00    -0.271 OA
BRANCH   8  12
HETATM   12  O1  UNL     1      -8.971  46.347 -30.758  1.00  0.00    -0.304 OA
BRANCH  12  13
HETATM   13  C2  UNL     1      -9.643  47.468 -31.348  1.00  0.00     0.176 C 
HETATM   14  C1  UNL     1      -8.642  48.331 -32.093  1.00  0.00     0.034 C 
ENDBRANCH  12  13
ENDBRANCH   8  12
ENDBRANCH   1   2
BRANCH   1  15
HETATM   15  C8  UNL     1      -5.203  49.252 -24.878  1.00  0.00     0.074 C 
BRANCH  15  16
HETATM   16  C9  UNL     1      -5.666  48.751 -23.527  1.00  0.00    -0.055 A 
HETATM   17  C10 UNL     1      -6.746  49.356 -22.870  1.00  0.00     0.007 A 
HETATM   18  C11 UNL     1      -7.174  48.882 -21.629  1.00  0.00     0.002 A 
HETATM   19  C12 UNL     1      -6.536  47.794 -21.032  1.00  0.00     0.014 A 
HETATM   20  C13 UNL     1      -5.465  47.170 -21.681  1.00  0.00     0.002 A 
HETATM   21  C15 UNL     1      -5.029  47.659 -22.919  1.00  0.00     0.022 A 
BRANCH  20  22
HETATM   22  C14 UNL     1      -4.771  45.992 -21.073  1.00  0.00     0.081 C 
HETATM   23  N3  UNL     1      -3.717  46.182 -20.345  1.00  0.00    -0.389 N 
HETATM   24  H16 UNL     1      -3.389  45.288 -19.976  1.00  0.00     0.157 HD
ATOM     25  H3  UNL     1      -3.279  47.087 -20.168  1.00  0.00     0.157 HD
BRANCH  22  26
HETATM   26  N4  UNL     1      -5.223  44.722 -21.289  1.00  0.00    -0.288 NA
HETATM   27  H17 UNL     1      -5.719  44.574 -22.162  1.00  0.00     0.125 HD
HETATM   28  H18 UNL     1      -4.548  43.985 -21.124  1.00  0.00     0.125 HD
ENDBRANCH  22  26
ENDBRANCH  20  22
ENDBRANCH  15  16
ENDBRANCH   1  15
BRANCH   1  29
HETATM   29  N5  UNL     1      -2.781  49.140 -25.274  1.00  0.00    -0.301 N 
HETATM   30  H20 UNL     1      -2.352  48.837 -24.395  1.00  0.00     0.173 HD
BRANCH  29  31
HETATM   31  S1  UNL     1      -2.631  50.784 -25.555  1.00  0.00     0.260 S 
HETATM   32  O4  UNL     1      -2.016  50.930 -26.853  1.00  0.00    -0.200 OA
HETATM   33  O5  UNL     1      -3.943  51.358 -25.360  1.00  0.00    -0.200 OA
BRANCH  31  34
HETATM   34  C16 UNL     1      -1.471  51.362 -24.282  1.00  0.00     0.092 A 
HETATM   35  C17 UNL     1      -0.203  51.920 -24.651  1.00  0.00    -0.030 A 
HETATM   36  C21 UNL     1       0.635  52.408 -23.610  1.00  0.00     0.016 A 
HETATM   37  C22 UNL     1       0.282  52.387 -22.264  1.00  0.00    -0.054 A 
HETATM   38  C26 UNL     1      -0.962  51.865 -21.932  1.00  0.00     0.016 A 
HETATM   39  C27 UNL     1      -1.853  51.335 -22.894  1.00  0.00    -0.030 A 
BRANCH  35  40
HETATM   40  C18 UNL     1       0.418  52.149 -26.040  1.00  0.00     0.012 C 
HETATM   41  C19 UNL     1       0.205  53.489 -26.744  1.00  0.00     0.015 C 
HETATM   42  C20 UNL     1       1.858  51.633 -26.135  1.00  0.00     0.015 C 
ENDBRANCH  35  40
BRANCH  37  43
HETATM   43  C23 UNL     1       1.195  52.932 -21.181  1.00  0.00     0.010 C 
HETATM   44  C24 UNL     1       0.540  52.847 -19.799  1.00  0.00     0.015 C 
HETATM   45  C25 UNL     1       1.644  54.363 -21.486  1.00  0.00     0.015 C 
ENDBRANCH  37  43
BRANCH  39  46
HETATM   46  C28 UNL     1      -3.195  50.837 -22.344  1.00  0.00     0.012 C 
HETATM   47  C29 UNL     1      -4.169  52.007 -22.171  1.00  0.00     0.015 C 
HETATM   48  C30 UNL     1      -3.099  50.051 -21.022  1.00  0.00     0.015 C 
ENDBRANCH  39  46
ENDBRANCH  31  34
ENDBRANCH  29  31
ENDBRANCH   1  29
TORSDOF 13
ENDMDL
