MODEL 1
REMARK minimizedAffinity -9.98195839
REMARK  7 active torsions:
REMARK  status: ('A' for Active; 'I' for Inactive)
REMARK    1  A    between atoms: C2_2  and  C4_4 
REMARK    2  A    between atoms: C4_4  and  C6_6 
REMARK    3  A    between atoms: C7_7  and  C8_8 
REMARK    4  A    between atoms: C8_8  and  C10_10 
REMARK    5  A    between atoms: C17_17  and  O1_18 
REMARK    6  A    between atoms: C22_23  and  O2_24 
REMARK    7  A    between atoms: C24_26  and  O3_27 
ROOT
HETATM    1  C10 UNL     1      -5.124   5.712  13.119  1.00  0.00     0.004 C 
HETATM    2  C11 UNL     1      -5.630   7.116  13.502  1.00  0.00     0.007 C 
HETATM    3  C12 UNL     1      -4.403   8.037  13.478  1.00  0.00     0.009 C 
HETATM    4  C13 UNL     1      -3.214   7.159  13.041  1.00  0.00     0.038 C 
HETATM    5  C14 UNL     1      -3.622   5.753  13.470  1.00  0.00    -0.008 C 
HETATM    6  C15 UNL     1      -2.752   4.736  12.700  1.00  0.00     0.016 C 
HETATM    7  C16 UNL     1      -1.413   5.330  12.209  1.00  0.00     0.043 C 
HETATM    8  C17 UNL     1      -0.757   6.255  13.261  1.00  0.00     0.103 C 
HETATM    9  C18 UNL     1       0.618   6.978  12.839  1.00  0.00     0.025 C 
HETATM   10  C19 UNL     1       1.497   7.131  14.135  1.00  0.00     0.022 C 
HETATM   11  C20 UNL     1       1.494   6.134  11.856  1.00  0.00     0.018 C 
HETATM   12  C21 UNL     1       1.085   6.165  10.379  1.00  0.00     0.033 C 
HETATM   13  C22 UNL     1       0.805   7.568   9.855  1.00  0.00     0.121 C 
HETATM   14  C23 UNL     1      -0.127   8.364  10.773  1.00  0.00     0.074 C 
HETATM   15  C24 UNL     1       0.393   8.406  12.223  1.00  0.00     0.088 C 
HETATM   16  C25 UNL     1      -0.504   9.238  13.090  1.00  0.00     0.010 C 
HETATM   17  C26 UNL     1      -1.480   8.727  13.851  1.00  0.00     0.013 C 
HETATM   18  C27 UNL     1      -1.882   7.285  13.812  1.00  0.00     0.115 C 
HETATM   19  O4  UNL     1      -2.273   6.863  15.136  1.00  0.00    -0.372 OA
HETATM   20  C28 UNL     1      -3.257   5.816  14.972  1.00  0.00     0.179 C 
ENDROOT
BRANCH   1  21
HETATM   21  C8  UNL     1      -6.031   4.562  13.628  1.00  0.00     0.009 C 
HETATM   22  C9  UNL     1      -6.577   3.601  12.571  1.00  0.00     0.014 C 
BRANCH  21  23
HETATM   23  C7  UNL     1      -7.195   5.087  14.441  1.00  0.00    -0.026 C 
HETATM   24  C6  UNL     1      -8.055   6.020  14.001  1.00  0.00    -0.026 C 
BRANCH  24  25
HETATM   25  C4  UNL     1      -9.217   6.545  14.815  1.00  0.00     0.007 C 
HETATM   26  C5  UNL     1     -10.340   6.976  13.864  1.00  0.00     0.014 C 
BRANCH  25  27
HETATM   27  C2  UNL     1      -8.822   7.676  15.805  1.00  0.00    -0.015 C 
HETATM   28  C1  UNL     1      -8.330   8.961  15.131  1.00  0.00     0.010 C 
HETATM   29  C3  UNL     1      -7.774   7.193  16.815  1.00  0.00     0.010 C 
ENDBRANCH  25  27
ENDBRANCH  24  25
ENDBRANCH  21  23
ENDBRANCH   1  21
BRANCH   8  30
HETATM   30  O1  UNL     1      -0.421   5.297  14.313  1.00  0.00    -0.385 OA
HETATM   31  H28 UNL     1       0.273   4.703  13.985  1.00  0.00     0.210 HD
ENDBRANCH   8  30
BRANCH  15  32
HETATM   32  O3  UNL     1       1.633   9.131  12.220  1.00  0.00    -0.385 OA
HETATM   33  H40 UNL     1       2.083   8.948  11.368  1.00  0.00     0.211 HD
ENDBRANCH  15  32
BRANCH  13  34
HETATM   34  O2  UNL     1       2.048   8.269   9.748  1.00  0.00    -0.395 OA
HETATM   35  H37 UNL     1       2.554   7.855   9.025  1.00  0.00     0.210 HD
ENDBRANCH  13  34
TORSDOF 7
ENDMDL
MODEL 2
REMARK minimizedAffinity -9.92238522
REMARK  7 active torsions:
REMARK  status: ('A' for Active; 'I' for Inactive)
REMARK    1  A    between atoms: C2_2  and  C4_4 
REMARK    2  A    between atoms: C4_4  and  C6_6 
REMARK    3  A    between atoms: C7_7  and  C8_8 
REMARK    4  A    between atoms: C8_8  and  C10_10 
REMARK    5  A    between atoms: C17_17  and  O1_18 
REMARK    6  A    between atoms: C22_23  and  O2_24 
REMARK    7  A    between atoms: C24_26  and  O3_27 
ROOT
HETATM    1  C10 UNL     1      -5.427   7.044  14.049  1.00  0.00     0.004 C 
HETATM    2  C11 UNL     1      -5.530   8.568  14.259  1.00  0.00     0.007 C 
HETATM    3  C12 UNL     1      -4.116   9.127  14.050  1.00  0.00     0.009 C 
HETATM    4  C13 UNL     1      -3.227   7.923  13.681  1.00  0.00     0.038 C 
HETATM    5  C14 UNL     1      -3.940   6.735  14.318  1.00  0.00    -0.008 C 
HETATM    6  C15 UNL     1      -3.420   5.441  13.655  1.00  0.00     0.016 C 
HETATM    7  C16 UNL     1      -2.020   5.602  13.023  1.00  0.00     0.043 C 
HETATM    8  C17 UNL     1      -1.068   6.444  13.906  1.00  0.00     0.103 C 
HETATM    9  C18 UNL     1       0.406   6.726  13.322  1.00  0.00     0.025 C 
HETATM   10  C19 UNL     1       1.398   6.800  14.542  1.00  0.00     0.022 C 
HETATM   11  C20 UNL     1       0.958   5.571  12.425  1.00  0.00     0.018 C 
HETATM   12  C21 UNL     1       0.450   5.529  10.978  1.00  0.00     0.033 C 
HETATM   13  C22 UNL     1       0.491   6.883  10.281  1.00  0.00     0.121 C 
HETATM   14  C23 UNL     1      -0.132   7.999  11.124  1.00  0.00     0.074 C 
HETATM   15  C24 UNL     1       0.499   8.078  12.528  1.00  0.00     0.088 C 
HETATM   16  C25 UNL     1      -0.085   9.214  13.314  1.00  0.00     0.010 C 
HETATM   17  C26 UNL     1      -1.093   9.070  14.184  1.00  0.00     0.013 C 
HETATM   18  C27 UNL     1      -1.847   7.790  14.363  1.00  0.00     0.115 C 
HETATM   19  O4  UNL     1      -2.223   7.647  15.750  1.00  0.00    -0.372 OA
HETATM   20  C28 UNL     1      -3.449   6.880  15.778  1.00  0.00     0.179 C 
ENDROOT
BRANCH   1  21
HETATM   21  C8  UNL     1      -6.549   6.241  14.753  1.00  0.00     0.009 C 
HETATM   22  C9  UNL     1      -6.359   5.959  16.244  1.00  0.00     0.014 C 
BRANCH  21  23
HETATM   23  C7  UNL     1      -6.820   4.927  14.052  1.00  0.00    -0.026 C 
HETATM   24  C6  UNL     1      -6.448   4.661  12.789  1.00  0.00    -0.026 C 
BRANCH  24  25
HETATM   25  C4  UNL     1      -6.720   3.348  12.089  1.00  0.00     0.007 C 
HETATM   26  C5  UNL     1      -7.642   2.494  12.966  1.00  0.00     0.014 C 
BRANCH  25  27
HETATM   27  C2  UNL     1      -5.430   2.584  11.680  1.00  0.00    -0.015 C 
HETATM   28  C1  UNL     1      -4.573   3.305  10.635  1.00  0.00     0.010 C 
HETATM   29  C3  UNL     1      -5.751   1.167  11.189  1.00  0.00     0.010 C 
ENDBRANCH  25  27
ENDBRANCH  24  25
ENDBRANCH  21  23
ENDBRANCH   1  21
BRANCH   8  30
HETATM   30  O1  UNL     1      -0.899   5.565  15.062  1.00  0.00    -0.385 OA
HETATM   31  H28 UNL     1      -0.407   4.776  14.785  1.00  0.00     0.210 HD
ENDBRANCH   8  30
BRANCH  15  32
HETATM   32  O3  UNL     1       1.877   8.449  12.366  1.00  0.00    -0.385 OA
HETATM   33  H40 UNL     1       2.195   8.054  11.526  1.00  0.00     0.211 HD
ENDBRANCH  15  32
BRANCH  13  34
HETATM   34  O2  UNL     1       1.858   7.218  10.019  1.00  0.00    -0.395 OA
HETATM   35  H37 UNL     1       2.182   6.602   9.336  1.00  0.00     0.210 HD
ENDBRANCH  13  34
TORSDOF 7
ENDMDL
MODEL 3
REMARK minimizedAffinity -9.40237331
REMARK  7 active torsions:
REMARK  status: ('A' for Active; 'I' for Inactive)
REMARK    1  A    between atoms: C2_2  and  C4_4 
REMARK    2  A    between atoms: C4_4  and  C6_6 
REMARK    3  A    between atoms: C7_7  and  C8_8 
REMARK    4  A    between atoms: C8_8  and  C10_10 
REMARK    5  A    between atoms: C17_17  and  O1_18 
REMARK    6  A    between atoms: C22_23  and  O2_24 
REMARK    7  A    between atoms: C24_26  and  O3_27 
ROOT
HETATM    1  C10 UNL     1       1.116   7.197   9.682  1.00  0.00     0.004 C 
HETATM    2  C11 UNL     1       1.880   5.998  10.279  1.00  0.00     0.007 C 
HETATM    3  C12 UNL     1       1.271   5.748  11.666  1.00  0.00     0.009 C 
HETATM    4  C13 UNL     1       0.139   6.781  11.831  1.00  0.00     0.038 C 
HETATM    5  C14 UNL     1       0.556   7.929  10.918  1.00  0.00    -0.008 C 
HETATM    6  C15 UNL     1      -0.683   8.808  10.640  1.00  0.00     0.016 C 
HETATM    7  C16 UNL     1      -1.773   8.682  11.727  1.00  0.00     0.043 C 
HETATM    8  C17 UNL     1      -1.179   8.628  13.155  1.00  0.00     0.103 C 
HETATM    9  C18 UNL     1      -2.220   8.440  14.369  1.00  0.00     0.025 C 
HETATM   10  C19 UNL     1      -1.642   9.207  15.617  1.00  0.00     0.022 C 
HETATM   11  C20 UNL     1      -3.615   9.094  14.106  1.00  0.00     0.018 C 
HETATM   12  C21 UNL     1      -4.585   8.300  13.222  1.00  0.00     0.033 C 
HETATM   13  C22 UNL     1      -4.690   6.829  13.605  1.00  0.00     0.121 C 
HETATM   14  C23 UNL     1      -3.321   6.165  13.774  1.00  0.00     0.074 C 
HETATM   15  C24 UNL     1      -2.428   6.935  14.767  1.00  0.00     0.088 C 
HETATM   16  C25 UNL     1      -1.116   6.235  14.961  1.00  0.00     0.010 C 
HETATM   17  C26 UNL     1      -0.002   6.554  14.290  1.00  0.00     0.013 C 
HETATM   18  C27 UNL     1       0.027   7.545  13.168  1.00  0.00     0.115 C 
HETATM   19  O4  UNL     1       1.280   8.262  13.197  1.00  0.00    -0.372 OA
HETATM   20  C28 UNL     1       1.581   8.639  11.834  1.00  0.00     0.179 C 
ENDROOT
BRANCH   1  21
HETATM   21  C8  UNL     1       1.911   7.962   8.593  1.00  0.00     0.009 C 
HETATM   22  C9  UNL     1       1.799   7.432   7.162  1.00  0.00     0.014 C 
BRANCH  21  23
HETATM   23  C7  UNL     1       3.380   8.069   8.946  1.00  0.00    -0.026 C 
HETATM   24  C6  UNL     1       3.896   7.688  10.125  1.00  0.00    -0.026 C 
BRANCH  24  25
HETATM   25  C4  UNL     1       5.364   7.796  10.477  1.00  0.00     0.007 C 
HETATM   26  C5  UNL     1       5.777   6.563  11.287  1.00  0.00     0.014 C 
BRANCH  25  27
HETATM   27  C2  UNL     1       5.733   9.121  11.200  1.00  0.00    -0.015 C 
HETATM   28  C1  UNL     1       6.823   9.940  10.501  1.00  0.00     0.010 C 
HETATM   29  C3  UNL     1       6.138   8.868  12.658  1.00  0.00     0.010 C 
ENDBRANCH  25  27
ENDBRANCH  24  25
ENDBRANCH  21  23
ENDBRANCH   1  21
BRANCH   8  30
HETATM   30  O1  UNL     1      -0.624   9.974  13.284  1.00  0.00    -0.385 OA
HETATM   31  H28 UNL     1      -1.354  10.613  13.303  1.00  0.00     0.210 HD
ENDBRANCH   8  30
BRANCH  15  32
HETATM   32  O3  UNL     1      -3.049   6.859  16.060  1.00  0.00    -0.385 OA
HETATM   33  H40 UNL     1      -4.020   6.850  15.924  1.00  0.00     0.211 HD
ENDBRANCH  15  32
BRANCH  13  34
HETATM   34  O2  UNL     1      -5.400   6.732  14.844  1.00  0.00    -0.395 OA
HETATM   35  H37 UNL     1      -6.325   6.986  14.669  1.00  0.00     0.210 HD
ENDBRANCH  13  34
TORSDOF 7
ENDMDL
MODEL 4
REMARK minimizedAffinity -9.0846405
REMARK  7 active torsions:
REMARK  status: ('A' for Active; 'I' for Inactive)
REMARK    1  A    between atoms: C2_2  and  C4_4 
REMARK    2  A    between atoms: C4_4  and  C6_6 
REMARK    3  A    between atoms: C7_7  and  C8_8 
REMARK    4  A    between atoms: C8_8  and  C10_10 
REMARK    5  A    between atoms: C17_17  and  O1_18 
REMARK    6  A    between atoms: C22_23  and  O2_24 
REMARK    7  A    between atoms: C24_26  and  O3_27 
ROOT
HETATM    1  C10 UNL     1      -0.021   5.922  12.583  1.00  0.00     0.004 C 
HETATM    2  C11 UNL     1      -0.013   5.459  11.113  1.00  0.00     0.007 C 
HETATM    3  C12 UNL     1       1.289   5.996  10.501  1.00  0.00     0.009 C 
HETATM    4  C13 UNL     1       2.031   6.725  11.638  1.00  0.00     0.038 C 
HETATM    5  C14 UNL     1       0.915   7.147  12.589  1.00  0.00    -0.008 C 
HETATM    6  C15 UNL     1       1.541   7.473  13.963  1.00  0.00     0.016 C 
HETATM    7  C16 UNL     1       3.037   7.851  13.874  1.00  0.00     0.043 C 
HETATM    8  C17 UNL     1       3.346   8.757  12.659  1.00  0.00     0.103 C 
HETATM    9  C18 UNL     1       4.886   9.170  12.431  1.00  0.00     0.025 C 
HETATM   10  C19 UNL     1       4.907  10.610  11.797  1.00  0.00     0.022 C 
HETATM   11  C20 UNL     1       5.702   9.303  13.758  1.00  0.00     0.018 C 
HETATM   12  C21 UNL     1       6.200   7.996  14.387  1.00  0.00     0.033 C 
HETATM   13  C22 UNL     1       6.857   7.053  13.388  1.00  0.00     0.121 C 
HETATM   14  C23 UNL     1       6.014   6.851  12.126  1.00  0.00     0.074 C 
HETATM   15  C24 UNL     1       5.643   8.191  11.463  1.00  0.00     0.088 C 
HETATM   16  C25 UNL     1       4.868   7.968  10.198  1.00  0.00     0.010 C 
HETATM   17  C26 UNL     1       3.531   7.995  10.136  1.00  0.00     0.013 C 
HETATM   18  C27 UNL     1       2.654   8.107  11.344  1.00  0.00     0.115 C 
HETATM   19  O4  UNL     1       1.485   8.887  11.015  1.00  0.00    -0.372 OA
HETATM   20  C28 UNL     1       0.411   8.416  11.862  1.00  0.00     0.179 C 
ENDROOT
BRANCH   1  21
HETATM   21  C8  UNL     1      -1.440   5.999  13.204  1.00  0.00     0.009 C 
HETATM   22  C9  UNL     1      -1.544   5.752  14.710  1.00  0.00     0.014 C 
BRANCH  21  23
HETATM   23  C7  UNL     1      -2.407   5.070  12.502  1.00  0.00    -0.026 C 
HETATM   24  C6  UNL     1      -3.540   4.609  13.057  1.00  0.00    -0.026 C 
BRANCH  24  25
HETATM   25  C4  UNL     1      -4.505   3.680  12.354  1.00  0.00     0.007 C 
HETATM   26  C5  UNL     1      -4.082   3.533  10.889  1.00  0.00     0.014 C 
BRANCH  25  27
HETATM   27  C2  UNL     1      -5.993   4.110  12.492  1.00  0.00    -0.015 C 
HETATM   28  C1  UNL     1      -6.264   5.084  13.643  1.00  0.00     0.010 C 
HETATM   29  C3  UNL     1      -6.917   2.892  12.624  1.00  0.00     0.010 C 
ENDBRANCH  25  27
ENDBRANCH  24  25
ENDBRANCH  21  23
ENDBRANCH   1  21
BRANCH   8  30
HETATM   30  O1  UNL     1       2.635   9.979  13.026  1.00  0.00    -0.385 OA
HETATM   31  H28 UNL     1       3.073  10.377  13.796  1.00  0.00     0.210 HD
ENDBRANCH   8  30
BRANCH  15  32
HETATM   32  O3  UNL     1       6.861   8.807  11.012  1.00  0.00    -0.385 OA
HETATM   33  H40 UNL     1       7.570   8.563  11.644  1.00  0.00     0.211 HD
ENDBRANCH  15  32
BRANCH  13  34
HETATM   34  O2  UNL     1       8.123   7.604  13.008  1.00  0.00    -0.395 OA
HETATM   35  H37 UNL     1       8.707   7.551  13.786  1.00  0.00     0.210 HD
ENDBRANCH  13  34
TORSDOF 7
ENDMDL
MODEL 5
REMARK minimizedAffinity -8.64878082
REMARK  7 active torsions:
REMARK  status: ('A' for Active; 'I' for Inactive)
REMARK    1  A    between atoms: C2_2  and  C4_4 
REMARK    2  A    between atoms: C4_4  and  C6_6 
REMARK    3  A    between atoms: C7_7  and  C8_8 
REMARK    4  A    between atoms: C8_8  and  C10_10 
REMARK    5  A    between atoms: C17_17  and  O1_18 
REMARK    6  A    between atoms: C22_23  and  O2_24 
REMARK    7  A    between atoms: C24_26  and  O3_27 
ROOT
HETATM    1  C10 UNL     1      -3.478   5.875  12.792  1.00  0.00     0.004 C 
HETATM    2  C11 UNL     1      -3.986   7.300  13.088  1.00  0.00     0.007 C 
HETATM    3  C12 UNL     1      -2.760   8.219  13.006  1.00  0.00     0.009 C 
HETATM    4  C13 UNL     1      -1.571   7.317  12.623  1.00  0.00     0.038 C 
HETATM    5  C14 UNL     1      -1.977   5.940  13.138  1.00  0.00    -0.008 C 
HETATM    6  C15 UNL     1      -1.106   4.878  12.431  1.00  0.00     0.016 C 
HETATM    7  C16 UNL     1       0.231   5.442  11.903  1.00  0.00     0.043 C 
HETATM    8  C17 UNL     1       0.887   6.431  12.896  1.00  0.00     0.103 C 
HETATM    9  C18 UNL     1       2.262   7.128  12.428  1.00  0.00     0.025 C 
HETATM   10  C19 UNL     1       3.141   7.362  13.712  1.00  0.00     0.022 C 
HETATM   11  C20 UNL     1       3.137   6.226  11.499  1.00  0.00     0.018 C 
HETATM   12  C21 UNL     1       2.727   6.166  10.022  1.00  0.00     0.033 C 
HETATM   13  C22 UNL     1       2.444   7.534   9.414  1.00  0.00     0.121 C 
HETATM   14  C23 UNL     1       1.513   8.383  10.282  1.00  0.00     0.074 C 
HETATM   15  C24 UNL     1       2.034   8.515  11.726  1.00  0.00     0.088 C 
HETATM   16  C25 UNL     1       1.137   9.398  12.541  1.00  0.00     0.010 C 
HETATM   17  C26 UNL     1       0.162   8.933  13.333  1.00  0.00     0.013 C 
HETATM   18  C27 UNL     1      -0.238   7.492  13.383  1.00  0.00     0.115 C 
HETATM   19  O4  UNL     1      -0.628   7.152  14.731  1.00  0.00    -0.372 OA
HETATM   20  C28 UNL     1      -1.610   6.095  14.632  1.00  0.00     0.179 C 
ENDROOT
BRANCH   1  21
HETATM   21  C8  UNL     1      -4.384   4.758  13.371  1.00  0.00     0.009 C 
HETATM   22  C9  UNL     1      -4.201   3.356  12.788  1.00  0.00     0.014 C 
BRANCH  21  23
HETATM   23  C7  UNL     1      -5.850   5.123  13.278  1.00  0.00    -0.026 C 
HETATM   24  C6  UNL     1      -6.654   5.269  14.344  1.00  0.00    -0.026 C 
BRANCH  24  25
HETATM   25  C4  UNL     1      -8.119   5.634  14.250  1.00  0.00     0.007 C 
HETATM   26  C5  UNL     1      -8.502   5.795  12.775  1.00  0.00     0.014 C 
BRANCH  25  27
HETATM   27  C2  UNL     1      -8.504   6.881  15.094  1.00  0.00    -0.015 C 
HETATM   28  C1  UNL     1      -9.892   7.449  14.784  1.00  0.00     0.010 C 
HETATM   29  C3  UNL     1      -7.454   7.992  14.960  1.00  0.00     0.010 C 
ENDBRANCH  25  27
ENDBRANCH  24  25
ENDBRANCH  21  23
ENDBRANCH   1  21
BRANCH   8  30
HETATM   30  O1  UNL     1       1.226   5.540  14.004  1.00  0.00    -0.385 OA
HETATM   31  H28 UNL     1       1.920   4.928  13.712  1.00  0.00     0.210 HD
ENDBRANCH   8  30
BRANCH  15  32
HETATM   32  O3  UNL     1       3.273   9.240  11.677  1.00  0.00    -0.385 OA
HETATM   33  H40 UNL     1       3.723   9.006  10.837  1.00  0.00     0.211 HD
ENDBRANCH  15  32
BRANCH  13  34
HETATM   34  O2  UNL     1       3.687   8.229   9.263  1.00  0.00    -0.395 OA
HETATM   35  H37 UNL     1       4.192   7.771   8.565  1.00  0.00     0.210 HD
ENDBRANCH  13  34
TORSDOF 7
ENDMDL
MODEL 6
REMARK minimizedAffinity -8.63567638
REMARK  7 active torsions:
REMARK  status: ('A' for Active; 'I' for Inactive)
REMARK    1  A    between atoms: C2_2  and  C4_4 
REMARK    2  A    between atoms: C4_4  and  C6_6 
REMARK    3  A    between atoms: C7_7  and  C8_8 
REMARK    4  A    between atoms: C8_8  and  C10_10 
REMARK    5  A    between atoms: C17_17  and  O1_18 
REMARK    6  A    between atoms: C22_23  and  O2_24 
REMARK    7  A    between atoms: C24_26  and  O3_27 
ROOT
HETATM    1  C10 UNL     1      -2.933   5.855  12.653  1.00  0.00     0.004 C 
HETATM    2  C11 UNL     1      -3.051   7.141  13.495  1.00  0.00     0.007 C 
HETATM    3  C12 UNL     1      -1.765   7.940  13.241  1.00  0.00     0.009 C 
HETATM    4  C13 UNL     1      -0.943   7.123  12.225  1.00  0.00     0.038 C 
HETATM    5  C14 UNL     1      -1.413   5.688  12.446  1.00  0.00    -0.008 C 
HETATM    6  C15 UNL     1      -1.019   4.850  11.211  1.00  0.00     0.016 C 
HETATM    7  C16 UNL     1       0.165   5.450  10.421  1.00  0.00     0.043 C 
HETATM    8  C17 UNL     1       1.269   6.010  11.349  1.00  0.00     0.103 C 
HETATM    9  C18 UNL     1       2.531   6.713  10.637  1.00  0.00     0.025 C 
HETATM   10  C19 UNL     1       3.796   6.449  11.535  1.00  0.00     0.022 C 
HETATM   11  C20 UNL     1       2.890   6.097   9.246  1.00  0.00     0.018 C 
HETATM   12  C21 UNL     1       2.033   6.551   8.057  1.00  0.00     0.033 C 
HETATM   13  C22 UNL     1       1.831   8.060   7.995  1.00  0.00     0.121 C 
HETATM   14  C23 UNL     1       1.391   8.651   9.338  1.00  0.00     0.074 C 
HETATM   15  C24 UNL     1       2.353   8.266  10.477  1.00  0.00     0.088 C 
HETATM   16  C25 UNL     1       1.936   8.903  11.770  1.00  0.00     0.010 C 
HETATM   17  C26 UNL     1       1.191   8.283  12.693  1.00  0.00     0.013 C 
HETATM   18  C27 UNL     1       0.569   6.938  12.479  1.00  0.00     0.115 C 
HETATM   19  O4  UNL     1       0.566   6.210  13.726  1.00  0.00    -0.372 OA
HETATM   20  C28 UNL     1      -0.574   5.321  13.693  1.00  0.00     0.179 C 
ENDROOT
BRANCH   1  21
HETATM   21  C8  UNL     1      -3.800   4.683  13.181  1.00  0.00     0.009 C 
HETATM   22  C9  UNL     1      -3.783   3.393  12.359  1.00  0.00     0.014 C 
BRANCH  21  23
HETATM   23  C7  UNL     1      -5.241   5.101  13.380  1.00  0.00    -0.026 C 
HETATM   24  C6  UNL     1      -6.273   4.242  13.405  1.00  0.00    -0.026 C 
BRANCH  24  25
HETATM   25  C4  UNL     1      -7.713   4.661  13.604  1.00  0.00     0.007 C 
HETATM   26  C5  UNL     1      -8.297   5.104  12.258  1.00  0.00     0.014 C 
BRANCH  25  27
HETATM   27  C2  UNL     1      -7.899   5.742  14.705  1.00  0.00    -0.015 C 
HETATM   28  C1  UNL     1      -7.366   7.127  14.327  1.00  0.00     0.010 C 
HETATM   29  C3  UNL     1      -7.275   5.299  16.035  1.00  0.00     0.010 C 
ENDBRANCH  25  27
ENDBRANCH  24  25
ENDBRANCH  21  23
ENDBRANCH   1  21
BRANCH   8  30
HETATM   30  O1  UNL     1       1.769   4.785  11.970  1.00  0.00    -0.385 OA
HETATM   31  H28 UNL     1       2.211   4.249  11.292  1.00  0.00     0.210 HD
ENDBRANCH   8  30
BRANCH  15  32
HETATM   32  O3  UNL     1       3.626   8.870  10.196  1.00  0.00    -0.385 OA
HETATM   33  H40 UNL     1       3.738   8.888   9.221  1.00  0.00     0.211 HD
ENDBRANCH  15  32
BRANCH  13  34
HETATM   34  O2  UNL     1       3.069   8.669   7.612  1.00  0.00    -0.395 OA
HETATM   35  H37 UNL     1       3.236   8.425   6.684  1.00  0.00     0.210 HD
ENDBRANCH  13  34
TORSDOF 7
ENDMDL
MODEL 7
REMARK minimizedAffinity -8.61843014
REMARK  7 active torsions:
REMARK  status: ('A' for Active; 'I' for Inactive)
REMARK    1  A    between atoms: C2_2  and  C4_4 
REMARK    2  A    between atoms: C4_4  and  C6_6 
REMARK    3  A    between atoms: C7_7  and  C8_8 
REMARK    4  A    between atoms: C8_8  and  C10_10 
REMARK    5  A    between atoms: C17_17  and  O1_18 
REMARK    6  A    between atoms: C22_23  and  O2_24 
REMARK    7  A    between atoms: C24_26  and  O3_27 
ROOT
HETATM    1  C10 UNL     1       2.503   7.498  13.518  1.00  0.00     0.004 C 
HETATM    2  C11 UNL     1       2.938   7.395  14.993  1.00  0.00     0.007 C 
HETATM    3  C12 UNL     1       1.679   7.657  15.831  1.00  0.00     0.009 C 
HETATM    4  C13 UNL     1       0.529   7.866  14.827  1.00  0.00     0.038 C 
HETATM    5  C14 UNL     1       1.230   8.367  13.568  1.00  0.00    -0.008 C 
HETATM    6  C15 UNL     1       0.275   8.181  12.370  1.00  0.00     0.016 C 
HETATM    7  C16 UNL     1      -1.213   8.121  12.782  1.00  0.00     0.043 C 
HETATM    8  C17 UNL     1      -1.561   9.149  13.885  1.00  0.00     0.103 C 
HETATM    9  C18 UNL     1      -3.074   9.140  14.436  1.00  0.00     0.025 C 
HETATM   10  C19 UNL     1      -3.449  10.617  14.830  1.00  0.00     0.022 C 
HETATM   11  C20 UNL     1      -4.131   8.731  13.359  1.00  0.00     0.018 C 
HETATM   12  C21 UNL     1      -4.279   7.229  13.084  1.00  0.00     0.033 C 
HETATM   13  C22 UNL     1      -4.375   6.386  14.350  1.00  0.00     0.121 C 
HETATM   14  C23 UNL     1      -3.283   6.726  15.368  1.00  0.00     0.074 C 
HETATM   15  C24 UNL     1      -3.257   8.229  15.703  1.00  0.00     0.088 C 
HETATM   16  C25 UNL     1      -2.220   8.529  16.744  1.00  0.00     0.010 C 
HETATM   17  C26 UNL     1      -0.983   8.953  16.455  1.00  0.00     0.013 C 
HETATM   18  C27 UNL     1      -0.449   9.038  15.059  1.00  0.00     0.115 C 
HETATM   19  O4  UNL     1       0.434  10.176  14.956  1.00  0.00    -0.372 OA
HETATM   20  C28 UNL     1       1.416   9.857  13.942  1.00  0.00     0.179 C 
ENDROOT
BRANCH   1  21
HETATM   21  C8  UNL     1       3.664   7.838  12.549  1.00  0.00     0.009 C 
HETATM   22  C9  UNL     1       3.952   9.322  12.318  1.00  0.00     0.014 C 
BRANCH  21  23
HETATM   23  C7  UNL     1       3.478   7.175  11.200  1.00  0.00    -0.026 C 
HETATM   24  C6  UNL     1       2.318   7.162  10.525  1.00  0.00    -0.026 C 
BRANCH  24  25
HETATM   25  C4  UNL     1       2.134   6.498   9.178  1.00  0.00     0.007 C 
HETATM   26  C5  UNL     1       3.304   5.541   8.928  1.00  0.00     0.014 C 
BRANCH  25  27
HETATM   27  C2  UNL     1       1.942   7.506   8.010  1.00  0.00    -0.015 C 
HETATM   28  C1  UNL     1       1.852   6.857   6.626  1.00  0.00     0.010 C 
HETATM   29  C3  UNL     1       3.045   8.572   8.006  1.00  0.00     0.010 C 
ENDBRANCH  25  27
ENDBRANCH  24  25
ENDBRANCH  21  23
ENDBRANCH   1  21
BRANCH   8  30
HETATM   30  O1  UNL     1      -1.384  10.409  13.167  1.00  0.00    -0.385 OA
HETATM   31  H28 UNL     1      -2.071  10.480  12.485  1.00  0.00     0.210 HD
ENDBRANCH   8  30
BRANCH  15  32
HETATM   32  O3  UNL     1      -4.496   8.552  16.354  1.00  0.00    -0.385 OA
HETATM   33  H40 UNL     1      -5.193   7.979  15.970  1.00  0.00     0.211 HD
ENDBRANCH  15  32
BRANCH  13  34
HETATM   34  O2  UNL     1      -5.652   6.620  14.955  1.00  0.00    -0.395 OA
HETATM   35  H37 UNL     1      -6.326   6.228  14.370  1.00  0.00     0.210 HD
ENDBRANCH  13  34
TORSDOF 7
ENDMDL
MODEL 8
REMARK minimizedAffinity -8.59647274
REMARK  7 active torsions:
REMARK  status: ('A' for Active; 'I' for Inactive)
REMARK    1  A    between atoms: C2_2  and  C4_4 
REMARK    2  A    between atoms: C4_4  and  C6_6 
REMARK    3  A    between atoms: C7_7  and  C8_8 
REMARK    4  A    between atoms: C8_8  and  C10_10 
REMARK    5  A    between atoms: C17_17  and  O1_18 
REMARK    6  A    between atoms: C22_23  and  O2_24 
REMARK    7  A    between atoms: C24_26  and  O3_27 
ROOT
HETATM    1  C10 UNL     1      -5.383   5.647  13.364  1.00  0.00     0.004 C 
HETATM    2  C11 UNL     1      -6.142   6.938  12.999  1.00  0.00     0.007 C 
HETATM    3  C12 UNL     1      -5.109   8.072  13.044  1.00  0.00     0.009 C 
HETATM    4  C13 UNL     1      -3.761   7.412  13.395  1.00  0.00     0.038 C 
HETATM    5  C14 UNL     1      -4.159   6.151  14.155  1.00  0.00    -0.008 C 
HETATM    6  C15 UNL     1      -2.955   5.184  14.164  1.00  0.00     0.016 C 
HETATM    7  C16 UNL     1      -1.600   5.900  13.966  1.00  0.00     0.043 C 
HETATM    8  C17 UNL     1      -1.517   7.232  14.749  1.00  0.00     0.103 C 
HETATM    9  C18 UNL     1      -0.169   8.096  14.574  1.00  0.00     0.025 C 
HETATM   10  C19 UNL     1       0.100   8.845  15.932  1.00  0.00     0.022 C 
HETATM   11  C20 UNL     1       1.108   7.225  14.336  1.00  0.00     0.018 C 
HETATM   12  C21 UNL     1       1.321   6.702  12.910  1.00  0.00     0.033 C 
HETATM   13  C22 UNL     1       1.129   7.767  11.837  1.00  0.00     0.121 C 
HETATM   14  C23 UNL     1      -0.167   8.560  12.019  1.00  0.00     0.074 C 
HETATM   15  C24 UNL     1      -0.276   9.168  13.430  1.00  0.00     0.088 C 
HETATM   16  C25 UNL     1      -1.524   9.988  13.567  1.00  0.00     0.010 C 
HETATM   17  C26 UNL     1      -2.664   9.518  14.089  1.00  0.00     0.013 C 
HETATM   18  C27 UNL     1      -2.867   8.082  14.461  1.00  0.00     0.115 C 
HETATM   19  O4  UNL     1      -3.708   8.008  15.632  1.00  0.00    -0.372 OA
HETATM   20  C28 UNL     1      -4.431   6.757  15.553  1.00  0.00     0.179 C 
ENDROOT
BRANCH   1  21
HETATM   21  C8  UNL     1      -6.294   4.528  13.930  1.00  0.00     0.009 C 
HETATM   22  C9  UNL     1      -6.624   3.369  12.988  1.00  0.00     0.014 C 
BRANCH  21  23
HETATM   23  C7  UNL     1      -7.594   5.086  14.470  1.00  0.00    -0.026 C 
HETATM   24  C6  UNL     1      -7.874   6.398  14.542  1.00  0.00    -0.026 C 
BRANCH  24  25
HETATM   25  C4  UNL     1      -9.172   6.954  15.082  1.00  0.00     0.007 C 
HETATM   26  C5  UNL     1     -10.228   6.932  13.971  1.00  0.00     0.014 C 
BRANCH  25  27
HETATM   27  C2  UNL     1      -9.027   8.363  15.722  1.00  0.00    -0.015 C 
HETATM   28  C1  UNL     1     -10.123   9.354  15.322  1.00  0.00     0.010 C 
HETATM   29  C3  UNL     1      -7.651   8.973  15.423  1.00  0.00     0.010 C 
ENDBRANCH  25  27
ENDBRANCH  24  25
ENDBRANCH  21  23
ENDBRANCH   1  21
BRANCH   8  30
HETATM   30  O1  UNL     1      -1.531   6.753  16.129  1.00  0.00    -0.385 OA
HETATM   31  H28 UNL     1      -0.707   6.270  16.301  1.00  0.00     0.210 HD
ENDBRANCH   8  30
BRANCH  15  32
HETATM   32  O3  UNL     1       0.781  10.131  13.573  1.00  0.00    -0.385 OA
HETATM   33  H40 UNL     1       1.550   9.808  13.056  1.00  0.00     0.211 HD
ENDBRANCH  15  32
BRANCH  13  34
HETATM   34  O2  UNL     1       2.233   8.677  11.899  1.00  0.00    -0.395 OA
HETATM   35  H37 UNL     1       3.025   8.193  11.599  1.00  0.00     0.210 HD
ENDBRANCH  13  34
TORSDOF 7
ENDMDL
MODEL 9
REMARK minimizedAffinity -8.58059883
REMARK  7 active torsions:
REMARK  status: ('A' for Active; 'I' for Inactive)
REMARK    1  A    between atoms: C2_2  and  C4_4 
REMARK    2  A    between atoms: C4_4  and  C6_6 
REMARK    3  A    between atoms: C7_7  and  C8_8 
REMARK    4  A    between atoms: C8_8  and  C10_10 
REMARK    5  A    between atoms: C17_17  and  O1_18 
REMARK    6  A    between atoms: C22_23  and  O2_24 
REMARK    7  A    between atoms: C24_26  and  O3_27 
ROOT
HETATM    1  C10 UNL     1      -2.477   5.693  13.682  1.00  0.00     0.004 C 
HETATM    2  C11 UNL     1      -1.266   5.998  12.778  1.00  0.00     0.007 C 
HETATM    3  C12 UNL     1      -0.835   7.433  13.107  1.00  0.00     0.009 C 
HETATM    4  C13 UNL     1      -1.777   7.921  14.225  1.00  0.00     0.038 C 
HETATM    5  C14 UNL     1      -3.039   7.086  14.027  1.00  0.00    -0.008 C 
HETATM    6  C15 UNL     1      -3.870   7.142  15.327  1.00  0.00     0.016 C 
HETATM    7  C16 UNL     1      -3.566   8.388  16.190  1.00  0.00     0.043 C 
HETATM    8  C17 UNL     1      -3.393   9.667  15.338  1.00  0.00     0.103 C 
HETATM    9  C18 UNL     1      -3.017  11.021  16.126  1.00  0.00     0.025 C 
HETATM   10  C19 UNL     1      -3.676  12.223  15.353  1.00  0.00     0.022 C 
HETATM   11  C20 UNL     1      -3.615  11.093  17.568  1.00  0.00     0.018 C 
HETATM   12  C21 UNL     1      -2.866  10.314  18.657  1.00  0.00     0.033 C 
HETATM   13  C22 UNL     1      -1.359  10.536  18.636  1.00  0.00     0.121 C 
HETATM   14  C23 UNL     1      -0.760  10.375  17.236  1.00  0.00     0.074 C 
HETATM   15  C24 UNL     1      -1.468  11.272  16.202  1.00  0.00     0.088 C 
HETATM   16  C25 UNL     1      -0.828  11.142  14.852  1.00  0.00     0.010 C 
HETATM   17  C26 UNL     1      -1.280  10.321  13.895  1.00  0.00     0.013 C 
HETATM   18  C27 UNL     1      -2.385   9.335  14.112  1.00  0.00     0.115 C 
HETATM   19  O4  UNL     1      -3.165   9.219  12.903  1.00  0.00    -0.372 OA
HETATM   20  C28 UNL     1      -3.703   7.877  12.875  1.00  0.00     0.179 C 
ENDROOT
BRANCH   1  21
HETATM   21  C8  UNL     1      -3.398   4.574  13.133  1.00  0.00     0.009 C 
HETATM   22  C9  UNL     1      -3.246   4.226  11.652  1.00  0.00     0.014 C 
BRANCH  21  23
HETATM   23  C7  UNL     1      -4.858   4.869  13.404  1.00  0.00    -0.026 C 
HETATM   24  C6  UNL     1      -5.849   3.981  13.221  1.00  0.00    -0.026 C 
BRANCH  24  25
HETATM   25  C4  UNL     1      -7.307   4.278  13.493  1.00  0.00     0.007 C 
HETATM   26  C5  UNL     1      -8.170   3.200  12.827  1.00  0.00     0.014 C 
BRANCH  25  27
HETATM   27  C2  UNL     1      -7.737   5.712  13.075  1.00  0.00    -0.015 C 
HETATM   28  C1  UNL     1      -8.373   6.533  14.201  1.00  0.00     0.010 C 
HETATM   29  C3  UNL     1      -8.681   5.682  11.866  1.00  0.00     0.010 C 
ENDBRANCH  25  27
ENDBRANCH  24  25
ENDBRANCH  21  23
ENDBRANCH   1  21
BRANCH   8  30
HETATM   30  O1  UNL     1      -4.747   9.848  14.817  1.00  0.00    -0.385 OA
HETATM   31  H28 UNL     1      -5.337  10.074  15.553  1.00  0.00     0.210 HD
ENDBRANCH   8  30
BRANCH  15  32
HETATM   32  O3  UNL     1      -1.219  12.639  16.567  1.00  0.00    -0.385 OA
HETATM   33  H40 UNL     1      -1.169  12.681  17.545  1.00  0.00     0.211 HD
ENDBRANCH  15  32
BRANCH  13  34
HETATM   34  O2  UNL     1      -1.089  11.864  19.098  1.00  0.00    -0.395 OA
HETATM   35  H37 UNL     1      -1.308  11.890  20.048  1.00  0.00     0.210 HD
ENDBRANCH  13  34
TORSDOF 7
ENDMDL
