MODEL 1
REMARK minimizedAffinity -10.0304785
REMARK CNNscore 0.645236015
REMARK CNNaffinity 7.58976603
REMARK  11 active torsions:
REMARK  status: ('A' for Active; 'I' for Inactive)
REMARK    1  A    between atoms: C2_2  and  C4_4 
REMARK    2  A    between atoms: C4_4  and  C6_6 
REMARK    3  A    between atoms: C7_7  and  C8_8 
REMARK    4  A    between atoms: C8_8  and  C10_10 
REMARK    5  A    between atoms: C24_24  and  O1_25 
REMARK    6  A    between atoms: O1_25  and  C25_26 
REMARK    7  A    between atoms: C26_28  and  C27_29 
REMARK    8  A    between atoms: C27_29  and  O3_30 
REMARK    9  A    between atoms: C28_31  and  O4_32 
REMARK   10  A    between atoms: C29_33  and  O5_34 
REMARK   11  A    between atoms: C30_35  and  O6_36 
ROOT
HETATM    1  C10 UNL     1      -3.438  51.144 -24.090  1.00  0.00     0.001 C 
HETATM    2  C11 UNL     1      -4.746  51.859 -23.660  1.00  0.00     0.006 C 
HETATM    3  C12 UNL     1      -4.729  51.900 -22.118  1.00  0.00     0.009 C 
HETATM    4  C13 UNL     1      -3.370  51.318 -21.743  1.00  0.00     0.036 C 
HETATM    5  C14 UNL     1      -3.083  50.269 -22.847  1.00  0.00    -0.033 C 
HETATM    6  C15 UNL     1      -3.946  48.995 -22.753  1.00  0.00     0.016 C 
HETATM    7  C16 UNL     1      -1.596  49.885 -22.745  1.00  0.00     0.010 C 
HETATM    8  C17 UNL     1      -1.236  49.355 -21.343  1.00  0.00     0.010 C 
HETATM    9  C18 UNL     1      -1.621  50.334 -20.210  1.00  0.00     0.039 C 
HETATM   10  C19 UNL     1      -3.094  50.871 -20.303  1.00  0.00     0.123 C 
HETATM   11  C20 UNL     1      -4.100  49.955 -19.655  1.00  0.00     0.014 C 
HETATM   12  C21 UNL     1      -3.839  49.698 -18.366  1.00  0.00     0.014 C 
HETATM   13  C22 UNL     1      -2.552  50.328 -17.869  1.00  0.00     0.124 C 
HETATM   14  C23 UNL     1      -2.350  50.114 -16.363  1.00  0.00     0.078 C 
HETATM   15  C24 UNL     1      -0.969  50.560 -15.860  1.00  0.00     0.128 C 
HETATM   16  C31 UNL     1      -0.096  51.231 -16.919  1.00  0.00     0.033 C 
HETATM   17  C32 UNL     1       0.011  50.414 -18.211  1.00  0.00     0.015 C 
HETATM   18  C33 UNL     1      -1.341  49.828 -18.731  1.00  0.00     0.001 C 
HETATM   19  C34 UNL     1      -1.221  48.281 -18.648  1.00  0.00     0.019 C 
HETATM   20  O7  UNL     1      -2.679  51.760 -18.085  1.00  0.00    -0.223 OA
HETATM   21  O8  UNL     1      -3.134  52.067 -19.475  1.00  0.00    -0.224 OA
ENDROOT
BRANCH  15  22
HETATM   22  O1  UNL     1      -0.257  49.400 -15.400  1.00  0.00    -0.353 OA
BRANCH  22  23
HETATM   23  C25 UNL     1       0.775  49.706 -14.453  1.00  0.00     0.292 C 
HETATM   24  O2  UNL     1       1.788  50.474 -15.110  1.00  0.00    -0.348 OA
HETATM   25  C26 UNL     1       2.866  50.837 -14.246  1.00  0.00     0.179 C 
HETATM   26  C28 UNL     1       3.597  49.573 -13.776  1.00  0.00     0.180 C 
HETATM   27  C29 UNL     1       2.614  48.634 -13.082  1.00  0.00     0.183 C 
HETATM   28  C30 UNL     1       1.364  48.376 -13.928  1.00  0.00     0.204 C 
BRANCH  25  29
HETATM   29  C27 UNL     1       3.825  51.763 -15.013  1.00  0.00     0.198 C 
BRANCH  29  30
HETATM   30  O3  UNL     1       3.126  52.791 -15.712  1.00  0.00    -0.398 OA
HETATM   31  H41 UNL     1       2.396  53.095 -15.128  1.00  0.00     0.209 HD
ENDBRANCH  29  30
ENDBRANCH  25  29
BRANCH  26  32
HETATM   32  O4  UNL     1       4.666  49.902 -12.880  1.00  0.00    -0.390 OA
HETATM   33  H43 UNL     1       4.935  49.058 -12.458  1.00  0.00     0.210 HD
ENDBRANCH  26  32
BRANCH  27  34
HETATM   34  O5  UNL     1       3.275  47.387 -12.784  1.00  0.00    -0.390 OA
HETATM   35  H45 UNL     1       3.456  46.926 -13.625  1.00  0.00     0.210 HD
ENDBRANCH  27  34
BRANCH  28  36
HETATM   36  O6  UNL     1       0.417  47.656 -13.125  1.00  0.00    -0.388 OA
HETATM   37  H47 UNL     1       0.909  46.939 -12.682  1.00  0.00     0.210 HD
ENDBRANCH  28  36
ENDBRANCH  22  23
ENDBRANCH  15  22
BRANCH   1  38
HETATM   38  C8  UNL     1      -3.447  50.510 -25.505  1.00  0.00     0.008 C 
HETATM   39  C9  UNL     1      -4.230  49.187 -25.482  1.00  0.00     0.014 C 
BRANCH  38  40
HETATM   40  C7  UNL     1      -2.102  50.352 -26.188  1.00  0.00    -0.026 C 
HETATM   41  C6  UNL     1      -1.248  51.334 -26.526  1.00  0.00    -0.026 C 
BRANCH  41  42
HETATM   42  C4  UNL     1       0.111  51.097 -27.159  1.00  0.00     0.007 C 
HETATM   43  C5  UNL     1       0.290  52.102 -28.303  1.00  0.00     0.014 C 
BRANCH  42  44
HETATM   44  C2  UNL     1       1.247  51.193 -26.103  1.00  0.00    -0.015 C 
HETATM   45  C1  UNL     1       2.602  51.500 -26.755  1.00  0.00     0.010 C 
HETATM   46  C3  UNL     1       0.964  52.262 -25.041  1.00  0.00     0.010 C 
ENDBRANCH  42  44
ENDBRANCH  41  42
ENDBRANCH  38  40
ENDBRANCH   1  38
TORSDOF 11
ENDMDL
MODEL 2
REMARK minimizedAffinity -9.72500706
REMARK CNNscore 0.298929781
REMARK CNNaffinity 6.61949396
REMARK  11 active torsions:
REMARK  status: ('A' for Active; 'I' for Inactive)
REMARK    1  A    between atoms: C2_2  and  C4_4 
REMARK    2  A    between atoms: C4_4  and  C6_6 
REMARK    3  A    between atoms: C7_7  and  C8_8 
REMARK    4  A    between atoms: C8_8  and  C10_10 
REMARK    5  A    between atoms: C24_24  and  O1_25 
REMARK    6  A    between atoms: O1_25  and  C25_26 
REMARK    7  A    between atoms: C26_28  and  C27_29 
REMARK    8  A    between atoms: C27_29  and  O3_30 
REMARK    9  A    between atoms: C28_31  and  O4_32 
REMARK   10  A    between atoms: C29_33  and  O5_34 
REMARK   11  A    between atoms: C30_35  and  O6_36 
ROOT
HETATM    1  C10 UNL     1      -0.714  51.231 -20.351  1.00  0.00     0.001 C 
HETATM    2  C11 UNL     1      -0.350  49.953 -19.549  1.00  0.00     0.006 C 
HETATM    3  C12 UNL     1      -1.443  48.914 -19.871  1.00  0.00     0.009 C 
HETATM    4  C13 UNL     1      -2.311  49.598 -20.924  1.00  0.00     0.036 C 
HETATM    5  C14 UNL     1      -2.257  51.100 -20.550  1.00  0.00    -0.033 C 
HETATM    6  C15 UNL     1      -3.051  51.469 -19.280  1.00  0.00     0.016 C 
HETATM    7  C16 UNL     1      -2.812  51.894 -21.746  1.00  0.00     0.010 C 
HETATM    8  C17 UNL     1      -4.239  51.448 -22.118  1.00  0.00     0.010 C 
HETATM    9  C18 UNL     1      -4.346  49.927 -22.381  1.00  0.00     0.039 C 
HETATM   10  C19 UNL     1      -3.697  49.038 -21.261  1.00  0.00     0.123 C 
HETATM   11  C20 UNL     1      -4.631  48.757 -20.112  1.00  0.00     0.014 C 
HETATM   12  C21 UNL     1      -5.779  48.172 -20.485  1.00  0.00     0.014 C 
HETATM   13  C22 UNL     1      -5.910  47.992 -21.985  1.00  0.00     0.124 C 
HETATM   14  C23 UNL     1      -7.176  47.213 -22.363  1.00  0.00     0.078 C 
HETATM   15  C24 UNL     1      -7.449  47.181 -23.874  1.00  0.00     0.128 C 
HETATM   16  C31 UNL     1      -6.361  47.831 -24.728  1.00  0.00     0.033 C 
HETATM   17  C32 UNL     1      -5.987  49.238 -24.251  1.00  0.00     0.015 C 
HETATM   18  C33 UNL     1      -5.801  49.380 -22.706  1.00  0.00     0.001 C 
HETATM   19  C34 UNL     1      -6.918  50.338 -22.205  1.00  0.00     0.019 C 
HETATM   20  O7  UNL     1      -4.772  47.191 -22.409  1.00  0.00    -0.223 OA
HETATM   21  O8  UNL     1      -3.489  47.730 -21.864  1.00  0.00    -0.224 OA
ENDROOT
BRANCH  15  22
HETATM   22  O1  UNL     1      -8.668  47.896 -24.131  1.00  0.00    -0.353 OA
BRANCH  22  23
HETATM   23  C25 UNL     1      -9.254  47.581 -25.400  1.00  0.00     0.292 C 
HETATM   24  O2  UNL     1      -8.689  46.356 -25.876  1.00  0.00    -0.348 OA
HETATM   25  C26 UNL     1      -9.214  45.948 -27.141  1.00  0.00     0.179 C 
HETATM   26  C28 UNL     1      -8.834  46.979 -28.211  1.00  0.00     0.180 C 
HETATM   27  C29 UNL     1      -9.348  48.359 -27.809  1.00  0.00     0.183 C 
HETATM   28  C30 UNL     1      -8.940  48.734 -26.382  1.00  0.00     0.204 C 
BRANCH  25  29
HETATM   29  C27 UNL     1      -8.640  44.566 -27.492  1.00  0.00     0.198 C 
BRANCH  29  30
HETATM   30  O3  UNL     1      -8.058  43.927 -26.359  1.00  0.00    -0.398 OA
HETATM   31  H41 UNL     1      -8.639  44.117 -25.588  1.00  0.00     0.209 HD
ENDBRANCH  29  30
ENDBRANCH  25  29
BRANCH  26  32
HETATM   32  O4  UNL     1      -9.374  46.616 -29.488  1.00  0.00    -0.390 OA
HETATM   33  H43 UNL     1      -9.284  47.410 -30.057  1.00  0.00     0.210 HD
ENDBRANCH  26  32
BRANCH  27  34
HETATM   34  O5  UNL     1      -8.853  49.343 -28.740  1.00  0.00    -0.390 OA
HETATM   35  H45 UNL     1      -7.890  49.428 -28.614  1.00  0.00     0.210 HD
ENDBRANCH  27  34
BRANCH  28  36
HETATM   36  O6  UNL     1      -9.627  49.942 -26.020  1.00  0.00    -0.388 OA
HETATM   37  H47 UNL     1      -9.534  50.556 -26.772  1.00  0.00     0.210 HD
ENDBRANCH  28  36
ENDBRANCH  22  23
ENDBRANCH  15  22
BRANCH   1  38
HETATM   38  C8  UNL     1      -0.111  52.557 -19.821  1.00  0.00     0.008 C 
HETATM   39  C9  UNL     1       1.112  52.951 -20.666  1.00  0.00     0.014 C 
BRANCH  38  40
HETATM   40  C7  UNL     1       0.191  52.621 -18.336  1.00  0.00    -0.026 C 
HETATM   41  C6  UNL     1       1.351  52.303 -17.734  1.00  0.00    -0.026 C 
BRANCH  41  42
HETATM   42  C4  UNL     1       1.601  52.445 -16.244  1.00  0.00     0.007 C 
HETATM   43  C5  UNL     1       0.512  51.666 -15.497  1.00  0.00     0.014 C 
BRANCH  42  44
HETATM   44  C2  UNL     1       3.032  51.971 -15.867  1.00  0.00    -0.015 C 
HETATM   45  C1  UNL     1       4.088  53.034 -16.201  1.00  0.00     0.010 C 
HETATM   46  C3  UNL     1       3.153  51.616 -14.380  1.00  0.00     0.010 C 
ENDBRANCH  42  44
ENDBRANCH  41  42
ENDBRANCH  38  40
ENDBRANCH   1  38
TORSDOF 11
ENDMDL
MODEL 3
REMARK minimizedAffinity -9.38365173
REMARK CNNscore 0.283170104
REMARK CNNaffinity 6.63794327
REMARK  11 active torsions:
REMARK  status: ('A' for Active; 'I' for Inactive)
REMARK    1  A    between atoms: C2_2  and  C4_4 
REMARK    2  A    between atoms: C4_4  and  C6_6 
REMARK    3  A    between atoms: C7_7  and  C8_8 
REMARK    4  A    between atoms: C8_8  and  C10_10 
REMARK    5  A    between atoms: C24_24  and  O1_25 
REMARK    6  A    between atoms: O1_25  and  C25_26 
REMARK    7  A    between atoms: C26_28  and  C27_29 
REMARK    8  A    between atoms: C27_29  and  O3_30 
REMARK    9  A    between atoms: C28_31  and  O4_32 
REMARK   10  A    between atoms: C29_33  and  O5_34 
REMARK   11  A    between atoms: C30_35  and  O6_36 
ROOT
HETATM    1  C10 UNL     1      -0.311  51.506 -20.876  1.00  0.00     0.001 C 
HETATM    2  C11 UNL     1      -0.801  52.291 -19.630  1.00  0.00     0.006 C 
HETATM    3  C12 UNL     1      -2.138  51.646 -19.211  1.00  0.00     0.009 C 
HETATM    4  C13 UNL     1      -2.292  50.458 -20.156  1.00  0.00     0.036 C 
HETATM    5  C14 UNL     1      -1.631  50.927 -21.476  1.00  0.00    -0.033 C 
HETATM    6  C15 UNL     1      -2.441  51.984 -22.253  1.00  0.00     0.016 C 
HETATM    7  C16 UNL     1      -1.433  49.684 -22.361  1.00  0.00     0.010 C 
HETATM    8  C17 UNL     1      -2.762  48.947 -22.618  1.00  0.00     0.010 C 
HETATM    9  C18 UNL     1      -3.505  48.570 -21.314  1.00  0.00     0.039 C 
HETATM   10  C19 UNL     1      -3.648  49.757 -20.296  1.00  0.00     0.123 C 
HETATM   11  C20 UNL     1      -4.853  50.621 -20.561  1.00  0.00     0.014 C 
HETATM   12  C21 UNL     1      -6.010  49.943 -20.564  1.00  0.00     0.014 C 
HETATM   13  C22 UNL     1      -5.838  48.448 -20.373  1.00  0.00     0.124 C 
HETATM   14  C23 UNL     1      -7.185  47.723 -20.261  1.00  0.00     0.078 C 
HETATM   15  C24 UNL     1      -7.061  46.192 -20.267  1.00  0.00     0.128 C 
HETATM   16  C31 UNL     1      -5.623  45.674 -20.273  1.00  0.00     0.033 C 
HETATM   17  C32 UNL     1      -4.761  46.316 -21.365  1.00  0.00     0.015 C 
HETATM   18  C33 UNL     1      -4.915  47.864 -21.499  1.00  0.00     0.001 C 
HETATM   19  C34 UNL     1      -5.533  48.136 -22.898  1.00  0.00     0.019 C 
HETATM   20  O7  UNL     1      -5.148  48.267 -19.106  1.00  0.00    -0.223 OA
HETATM   21  O8  UNL     1      -3.941  49.142 -19.009  1.00  0.00    -0.224 OA
ENDROOT
BRANCH  15  22
HETATM   22  O1  UNL     1      -7.694  45.690 -21.455  1.00  0.00    -0.353 OA
BRANCH  22  23
HETATM   23  C25 UNL     1      -8.851  46.441 -21.842  1.00  0.00     0.292 C 
HETATM   24  O2  UNL     1      -9.939  46.084 -20.985  1.00  0.00    -0.348 OA
HETATM   25  C26 UNL     1     -11.147  46.786 -21.286  1.00  0.00     0.179 C 
HETATM   26  C28 UNL     1     -11.630  46.398 -22.690  1.00  0.00     0.180 C 
HETATM   27  C29 UNL     1     -10.538  46.694 -23.714  1.00  0.00     0.183 C 
HETATM   28  C30 UNL     1      -9.189  46.094 -23.311  1.00  0.00     0.204 C 
BRANCH  25  29
HETATM   29  C27 UNL     1     -12.205  46.427 -20.230  1.00  0.00     0.198 C 
BRANCH  29  30
HETATM   30  O3  UNL     1     -13.286  47.356 -20.222  1.00  0.00    -0.398 OA
HETATM   31  H41 UNL     1     -13.479  47.585 -21.159  1.00  0.00     0.209 HD
ENDBRANCH  29  30
ENDBRANCH  25  29
BRANCH  26  32
HETATM   32  O4  UNL     1     -12.824  47.111 -23.036  1.00  0.00    -0.390 OA
HETATM   33  H43 UNL     1     -12.945  46.985 -24.001  1.00  0.00     0.210 HD
ENDBRANCH  26  32
BRANCH  27  34
HETATM   34  O5  UNL     1     -10.942  46.183 -25.002  1.00  0.00    -0.390 OA
HETATM   35  H45 UNL     1     -10.940  45.209 -24.961  1.00  0.00     0.210 HD
ENDBRANCH  27  34
BRANCH  28  36
HETATM   36  O6  UNL     1      -8.189  46.585 -24.217  1.00  0.00    -0.388 OA
HETATM   37  H47 UNL     1      -8.555  46.498 -25.117  1.00  0.00     0.210 HD
ENDBRANCH  28  36
ENDBRANCH  22  23
ENDBRANCH  15  22
BRANCH   1  38
HETATM   38  C8  UNL     1       0.695  52.250 -21.792  1.00  0.00     0.008 C 
HETATM   39  C9  UNL     1       1.177  53.538 -21.103  1.00  0.00     0.014 C 
BRANCH  38  40
HETATM   40  C7  UNL     1       0.251  52.511 -23.219  1.00  0.00    -0.026 C 
HETATM   41  C6  UNL     1       0.670  51.871 -24.324  1.00  0.00    -0.026 C 
BRANCH  41  42
HETATM   42  C4  UNL     1       0.138  52.148 -25.718  1.00  0.00     0.007 C 
HETATM   43  C5  UNL     1       0.161  53.664 -25.949  1.00  0.00     0.014 C 
BRANCH  42  44
HETATM   44  C2  UNL     1       0.950  51.373 -26.793  1.00  0.00    -0.015 C 
HETATM   45  C1  UNL     1       0.618  51.857 -28.212  1.00  0.00     0.010 C 
HETATM   46  C3  UNL     1       2.463  51.496 -26.579  1.00  0.00     0.010 C 
ENDBRANCH  42  44
ENDBRANCH  41  42
ENDBRANCH  38  40
ENDBRANCH   1  38
TORSDOF 11
ENDMDL
MODEL 4
REMARK minimizedAffinity -9.86130428
REMARK CNNscore 0.276583701
REMARK CNNaffinity 7.05644417
REMARK  11 active torsions:
REMARK  status: ('A' for Active; 'I' for Inactive)
REMARK    1  A    between atoms: C2_2  and  C4_4 
REMARK    2  A    between atoms: C4_4  and  C6_6 
REMARK    3  A    between atoms: C7_7  and  C8_8 
REMARK    4  A    between atoms: C8_8  and  C10_10 
REMARK    5  A    between atoms: C24_24  and  O1_25 
REMARK    6  A    between atoms: O1_25  and  C25_26 
REMARK    7  A    between atoms: C26_28  and  C27_29 
REMARK    8  A    between atoms: C27_29  and  O3_30 
REMARK    9  A    between atoms: C28_31  and  O4_32 
REMARK   10  A    between atoms: C29_33  and  O5_34 
REMARK   11  A    between atoms: C30_35  and  O6_36 
ROOT
HETATM    1  C10 UNL     1      -3.474  50.630 -24.579  1.00  0.00     0.001 C 
HETATM    2  C11 UNL     1      -4.905  51.138 -24.256  1.00  0.00     0.006 C 
HETATM    3  C12 UNL     1      -4.975  51.287 -22.722  1.00  0.00     0.009 C 
HETATM    4  C13 UNL     1      -3.559  50.973 -22.251  1.00  0.00     0.036 C 
HETATM    5  C14 UNL     1      -3.043  49.916 -23.259  1.00  0.00    -0.033 C 
HETATM    6  C15 UNL     1      -3.683  48.522 -23.103  1.00  0.00     0.016 C 
HETATM    7  C16 UNL     1      -1.520  49.801 -23.070  1.00  0.00     0.010 C 
HETATM    8  C17 UNL     1      -1.149  49.437 -21.619  1.00  0.00     0.010 C 
HETATM    9  C18 UNL     1      -1.752  50.411 -20.579  1.00  0.00     0.039 C 
HETATM   10  C19 UNL     1      -3.287  50.679 -20.771  1.00  0.00     0.123 C 
HETATM   11  C20 UNL     1      -4.157  49.650 -20.096  1.00  0.00     0.014 C 
HETATM   12  C21 UNL     1      -3.924  49.531 -18.781  1.00  0.00     0.014 C 
HETATM   13  C22 UNL     1      -2.788  50.404 -18.283  1.00  0.00     0.124 C 
HETATM   14  C23 UNL     1      -2.632  50.332 -16.758  1.00  0.00     0.078 C 
HETATM   15  C24 UNL     1      -1.374  51.041 -16.237  1.00  0.00     0.128 C 
HETATM   16  C31 UNL     1      -0.571  51.778 -17.309  1.00  0.00     0.033 C 
HETATM   17  C32 UNL     1      -0.262  50.906 -18.530  1.00  0.00     0.015 C 
HETATM   18  C33 UNL     1      -1.468  50.062 -19.056  1.00  0.00     0.001 C 
HETATM   19  C34 UNL     1      -1.094  48.568 -18.851  1.00  0.00     0.019 C 
HETATM   20  O7  UNL     1      -3.143  51.775 -18.612  1.00  0.00    -0.223 OA
HETATM   21  O8  UNL     1      -3.570  51.904 -20.038  1.00  0.00    -0.224 OA
ENDROOT
BRANCH  15  22
HETATM   22  O1  UNL     1      -0.501  50.055 -15.662  1.00  0.00    -0.353 OA
BRANCH  22  23
HETATM   23  C25 UNL     1      -0.149  50.333 -14.301  1.00  0.00     0.292 C 
HETATM   24  O2  UNL     1      -1.144  51.193 -13.736  1.00  0.00    -0.348 OA
HETATM   25  C26 UNL     1      -0.887  51.527 -12.371  1.00  0.00     0.179 C 
HETATM   26  C28 UNL     1       0.411  52.339 -12.275  1.00  0.00     0.180 C 
HETATM   27  C29 UNL     1       1.564  51.547 -12.885  1.00  0.00     0.183 C 
HETATM   28  C30 UNL     1       1.232  51.028 -14.287  1.00  0.00     0.204 C 
BRANCH  25  29
HETATM   29  C27 UNL     1      -2.075  52.339 -11.828  1.00  0.00     0.198 C 
BRANCH  29  30
HETATM   30  O3  UNL     1      -2.913  52.821 -12.876  1.00  0.00    -0.398 OA
HETATM   31  H41 UNL     1      -2.978  52.106 -13.548  1.00  0.00     0.209 HD
ENDBRANCH  29  30
ENDBRANCH  25  29
BRANCH  26  32
HETATM   32  O4  UNL     1       0.714  52.664 -10.913  1.00  0.00    -0.390 OA
HETATM   33  H43 UNL     1       1.643  52.978 -10.910  1.00  0.00     0.210 HD
ENDBRANCH  26  32
BRANCH  27  34
HETATM   34  O5  UNL     1       2.742  52.379 -12.932  1.00  0.00    -0.390 OA
HETATM   35  H45 UNL     1       2.595  53.084 -13.589  1.00  0.00     0.210 HD
ENDBRANCH  27  34
BRANCH  28  36
HETATM   36  O6  UNL     1       2.280  50.136 -14.697  1.00  0.00    -0.388 OA
HETATM   37  H47 UNL     1       3.125  50.576 -14.485  1.00  0.00     0.210 HD
ENDBRANCH  28  36
ENDBRANCH  22  23
ENDBRANCH  15  22
BRANCH   1  38
HETATM   38  C8  UNL     1      -3.304  49.909 -25.941  1.00  0.00     0.008 C 
HETATM   39  C9  UNL     1      -3.773  48.450 -25.823  1.00  0.00     0.014 C 
BRANCH  38  40
HETATM   40  C7  UNL     1      -1.939  50.007 -26.595  1.00  0.00    -0.026 C 
HETATM   41  C6  UNL     1      -1.171  51.105 -26.700  1.00  0.00    -0.026 C 
BRANCH  41  42
HETATM   42  C4  UNL     1       0.214  51.117 -27.321  1.00  0.00     0.007 C 
HETATM   43  C5  UNL     1       0.288  52.288 -28.308  1.00  0.00     0.014 C 
BRANCH  42  44
HETATM   44  C2  UNL     1       1.318  51.192 -26.230  1.00  0.00    -0.015 C 
HETATM   45  C1  UNL     1       2.680  51.570 -26.827  1.00  0.00     0.010 C 
HETATM   46  C3  UNL     1       0.975  52.197 -25.124  1.00  0.00     0.010 C 
ENDBRANCH  42  44
ENDBRANCH  41  42
ENDBRANCH  38  40
ENDBRANCH   1  38
TORSDOF 11
ENDMDL
MODEL 5
REMARK minimizedAffinity -8.8008709
REMARK CNNscore 0.249528885
REMARK CNNaffinity 6.41117525
REMARK  11 active torsions:
REMARK  status: ('A' for Active; 'I' for Inactive)
REMARK    1  A    between atoms: C2_2  and  C4_4 
REMARK    2  A    between atoms: C4_4  and  C6_6 
REMARK    3  A    between atoms: C7_7  and  C8_8 
REMARK    4  A    between atoms: C8_8  and  C10_10 
REMARK    5  A    between atoms: C24_24  and  O1_25 
REMARK    6  A    between atoms: O1_25  and  C25_26 
REMARK    7  A    between atoms: C26_28  and  C27_29 
REMARK    8  A    between atoms: C27_29  and  O3_30 
REMARK    9  A    between atoms: C28_31  and  O4_32 
REMARK   10  A    between atoms: C29_33  and  O5_34 
REMARK   11  A    between atoms: C30_35  and  O6_36 
ROOT
HETATM    1  C10 UNL     1      -1.554  49.530 -21.718  1.00  0.00     0.001 C 
HETATM    2  C11 UNL     1      -0.889  48.453 -20.820  1.00  0.00     0.006 C 
HETATM    3  C12 UNL     1      -2.038  47.724 -20.096  1.00  0.00     0.009 C 
HETATM    4  C13 UNL     1      -3.303  48.332 -20.694  1.00  0.00     0.036 C 
HETATM    5  C14 UNL     1      -2.915  49.800 -21.002  1.00  0.00    -0.033 C 
HETATM    6  C15 UNL     1      -2.762  50.694 -19.755  1.00  0.00     0.016 C 
HETATM    7  C16 UNL     1      -4.007  50.384 -21.917  1.00  0.00     0.010 C 
HETATM    8  C17 UNL     1      -5.404  50.284 -21.275  1.00  0.00     0.010 C 
HETATM    9  C18 UNL     1      -5.771  48.844 -20.847  1.00  0.00     0.039 C 
HETATM   10  C19 UNL     1      -4.657  48.126 -20.005  1.00  0.00     0.123 C 
HETATM   11  C20 UNL     1      -4.740  48.429 -18.532  1.00  0.00     0.014 C 
HETATM   12  C21 UNL     1      -5.927  48.121 -17.988  1.00  0.00     0.014 C 
HETATM   13  C22 UNL     1      -6.941  47.606 -18.991  1.00  0.00     0.124 C 
HETATM   14  C23 UNL     1      -8.241  47.152 -18.315  1.00  0.00     0.078 C 
HETATM   15  C24 UNL     1      -9.362  46.813 -19.307  1.00  0.00     0.128 C 
HETATM   16  C31 UNL     1      -8.950  46.882 -20.777  1.00  0.00     0.033 C 
HETATM   17  C32 UNL     1      -8.252  48.197 -21.141  1.00  0.00     0.015 C 
HETATM   18  C33 UNL     1      -7.171  48.672 -20.118  1.00  0.00     0.001 C 
HETATM   19  C34 UNL     1      -7.686  50.004 -19.505  1.00  0.00     0.019 C 
HETATM   20  O7  UNL     1      -6.350  46.433 -19.614  1.00  0.00    -0.223 OA
HETATM   21  O8  UNL     1      -4.957  46.703 -20.082  1.00  0.00    -0.224 OA
ENDROOT
BRANCH  15  22
HETATM   22  O1  UNL     1     -10.431  47.756 -19.125  1.00  0.00    -0.353 OA
BRANCH  22  23
HETATM   23  C25 UNL     1     -11.728  47.147 -19.110  1.00  0.00     0.292 C 
HETATM   24  O2  UNL     1     -12.443  47.558 -20.279  1.00  0.00    -0.348 OA
HETATM   25  C26 UNL     1     -13.755  46.998 -20.362  1.00  0.00     0.179 C 
HETATM   26  C28 UNL     1     -14.609  47.515 -19.198  1.00  0.00     0.180 C 
HETATM   27  C29 UNL     1     -13.937  47.175 -17.870  1.00  0.00     0.183 C 
HETATM   28  C30 UNL     1     -12.470  47.613 -17.835  1.00  0.00     0.204 C 
BRANCH  25  29
HETATM   29  C27 UNL     1     -14.378  47.397 -21.710  1.00  0.00     0.198 C 
BRANCH  29  30
HETATM   30  O3  UNL     1     -13.410  47.431 -22.756  1.00  0.00    -0.398 OA
HETATM   31  H41 UNL     1     -12.807  46.666 -22.618  1.00  0.00     0.209 HD
ENDBRANCH  29  30
ENDBRANCH  25  29
BRANCH  26  32
HETATM   32  O4  UNL     1     -15.923  46.946 -19.234  1.00  0.00    -0.390 OA
HETATM   33  H43 UNL     1     -16.327  47.140 -18.362  1.00  0.00     0.210 HD
ENDBRANCH  26  32
BRANCH  27  34
HETATM   34  O5  UNL     1     -14.665  47.799 -16.793  1.00  0.00    -0.390 OA
HETATM   35  H45 UNL     1     -14.540  48.764 -16.856  1.00  0.00     0.210 HD
ENDBRANCH  27  34
BRANCH  28  36
HETATM   36  O6  UNL     1     -11.869  47.081 -16.645  1.00  0.00    -0.388 OA
HETATM   37  H47 UNL     1     -12.488  47.257 -15.913  1.00  0.00     0.210 HD
ENDBRANCH  28  36
ENDBRANCH  22  23
ENDBRANCH  15  22
BRANCH   1  38
HETATM   38  C8  UNL     1      -0.648  50.718 -22.133  1.00  0.00     0.008 C 
HETATM   39  C9  UNL     1      -0.756  51.847 -21.094  1.00  0.00     0.014 C 
BRANCH  38  40
HETATM   40  C7  UNL     1      -0.818  51.242 -23.546  1.00  0.00    -0.026 C 
HETATM   41  C6  UNL     1       0.097  51.899 -24.279  1.00  0.00    -0.026 C 
BRANCH  41  42
HETATM   42  C4  UNL     1      -0.124  52.346 -25.712  1.00  0.00     0.007 C 
HETATM   43  C5  UNL     1       0.271  53.823 -25.822  1.00  0.00     0.014 C 
BRANCH  42  44
HETATM   44  C2  UNL     1       0.661  51.448 -26.708  1.00  0.00    -0.015 C 
HETATM   45  C1  UNL     1       0.436  51.883 -28.163  1.00  0.00     0.010 C 
HETATM   46  C3  UNL     1       2.169  51.450 -26.427  1.00  0.00     0.010 C 
ENDBRANCH  42  44
ENDBRANCH  41  42
ENDBRANCH  38  40
ENDBRANCH   1  38
TORSDOF 11
ENDMDL
MODEL 6
REMARK minimizedAffinity -8.73730469
REMARK CNNscore 0.24196367
REMARK CNNaffinity 5.53857756
REMARK  11 active torsions:
REMARK  status: ('A' for Active; 'I' for Inactive)
REMARK    1  A    between atoms: C2_2  and  C4_4 
REMARK    2  A    between atoms: C4_4  and  C6_6 
REMARK    3  A    between atoms: C7_7  and  C8_8 
REMARK    4  A    between atoms: C8_8  and  C10_10 
REMARK    5  A    between atoms: C24_24  and  O1_25 
REMARK    6  A    between atoms: O1_25  and  C25_26 
REMARK    7  A    between atoms: C26_28  and  C27_29 
REMARK    8  A    between atoms: C27_29  and  O3_30 
REMARK    9  A    between atoms: C28_31  and  O4_32 
REMARK   10  A    between atoms: C29_33  and  O5_34 
REMARK   11  A    between atoms: C30_35  and  O6_36 
ROOT
HETATM    1  C10 UNL     1     -17.907  45.731 -25.691  1.00  0.00     0.001 C 
HETATM    2  C11 UNL     1     -17.575  46.355 -24.309  1.00  0.00     0.006 C 
HETATM    3  C12 UNL     1     -16.077  46.719 -24.347  1.00  0.00     0.009 C 
HETATM    4  C13 UNL     1     -15.650  46.398 -25.776  1.00  0.00     0.036 C 
HETATM    5  C14 UNL     1     -16.527  45.185 -26.176  1.00  0.00    -0.033 C 
HETATM    6  C15 UNL     1     -16.137  43.863 -25.486  1.00  0.00     0.016 C 
HETATM    7  C16 UNL     1     -16.413  45.016 -27.702  1.00  0.00     0.010 C 
HETATM    8  C17 UNL     1     -14.950  44.838 -28.151  1.00  0.00     0.010 C 
HETATM    9  C18 UNL     1     -14.025  45.978 -27.662  1.00  0.00     0.039 C 
HETATM   10  C19 UNL     1     -14.162  46.299 -26.131  1.00  0.00     0.123 C 
HETATM   11  C20 UNL     1     -13.298  45.422 -25.262  1.00  0.00     0.014 C 
HETATM   12  C21 UNL     1     -11.995  45.475 -25.576  1.00  0.00     0.014 C 
HETATM   13  C22 UNL     1     -11.694  46.347 -26.780  1.00  0.00     0.124 C 
HETATM   14  C23 UNL     1     -10.187  46.478 -27.034  1.00  0.00     0.078 C 
HETATM   15  C24 UNL     1      -9.847  47.185 -28.354  1.00  0.00     0.128 C 
HETATM   16  C31 UNL     1     -11.058  47.722 -29.116  1.00  0.00     0.033 C 
HETATM   17  C32 UNL     1     -12.159  46.673 -29.304  1.00  0.00     0.015 C 
HETATM   18  C33 UNL     1     -12.488  45.830 -28.030  1.00  0.00     0.001 C 
HETATM   19  C34 UNL     1     -12.095  44.361 -28.350  1.00  0.00     0.019 C 
HETATM   20  O7  UNL     1     -12.194  47.675 -26.466  1.00  0.00    -0.223 OA
HETATM   21  O8  UNL     1     -13.596  47.627 -25.952  1.00  0.00    -0.224 OA
ENDROOT
BRANCH  15  22
HETATM   22  O1  UNL     1      -9.190  46.243 -29.217  1.00  0.00    -0.353 OA
BRANCH  22  23
HETATM   23  C25 UNL     1      -8.197  46.842 -30.059  1.00  0.00     0.292 C 
HETATM   24  O2  UNL     1      -7.454  45.803 -30.703  1.00  0.00    -0.348 OA
HETATM   25  C26 UNL     1      -6.436  46.298 -31.575  1.00  0.00     0.179 C 
HETATM   26  C28 UNL     1      -5.385  47.060 -30.758  1.00  0.00     0.180 C 
HETATM   27  C29 UNL     1      -6.054  48.189 -29.979  1.00  0.00     0.183 C 
HETATM   28  C30 UNL     1      -7.263  47.701 -29.175  1.00  0.00     0.204 C 
BRANCH  25  29
HETATM   29  C27 UNL     1      -5.793  45.109 -32.310  1.00  0.00     0.198 C 
BRANCH  29  30
HETATM   30  O3  UNL     1      -4.861  45.537 -33.300  1.00  0.00    -0.398 OA
HETATM   31  H41 UNL     1      -4.368  46.301 -32.925  1.00  0.00     0.209 HD
ENDBRANCH  29  30
ENDBRANCH  25  29
BRANCH  26  32
HETATM   32  O4  UNL     1      -4.365  47.598 -31.608  1.00  0.00    -0.390 OA
HETATM   33  H43 UNL     1      -3.867  48.242 -31.061  1.00  0.00     0.210 HD
ENDBRANCH  26  32
BRANCH  27  34
HETATM   34  O5  UNL     1      -5.088  48.798 -29.097  1.00  0.00    -0.390 OA
HETATM   35  H45 UNL     1      -4.864  48.157 -28.397  1.00  0.00     0.210 HD
ENDBRANCH  27  34
BRANCH  28  36
HETATM   36  O6  UNL     1      -7.942  48.848 -28.642  1.00  0.00    -0.388 OA
HETATM   37  H47 UNL     1      -7.258  49.430 -28.262  1.00  0.00     0.210 HD
ENDBRANCH  28  36
ENDBRANCH  22  23
ENDBRANCH  15  22
BRANCH   1  38
HETATM   38  C8  UNL     1     -19.160  44.820 -25.739  1.00  0.00     0.008 C 
HETATM   39  C9  UNL     1     -19.162  43.867 -24.532  1.00  0.00     0.014 C 
BRANCH  38  40
HETATM   40  C7  UNL     1     -19.412  44.077 -27.038  1.00  0.00    -0.026 C 
HETATM   41  C6  UNL     1     -19.837  42.810 -27.173  1.00  0.00    -0.026 C 
BRANCH  41  42
HETATM   42  C4  UNL     1     -20.123  42.147 -28.508  1.00  0.00     0.007 C 
HETATM   43  C5  UNL     1     -21.510  41.499 -28.436  1.00  0.00     0.014 C 
BRANCH  42  44
HETATM   44  C2  UNL     1     -20.003  43.164 -29.677  1.00  0.00    -0.015 C 
HETATM   45  C1  UNL     1     -18.684  42.994 -30.444  1.00  0.00     0.010 C 
HETATM   46  C3  UNL     1     -21.164  43.043 -30.672  1.00  0.00     0.010 C 
ENDBRANCH  42  44
ENDBRANCH  41  42
ENDBRANCH  38  40
ENDBRANCH   1  38
TORSDOF 11
ENDMDL
MODEL 7
REMARK minimizedAffinity -8.0739069
REMARK CNNscore 0.221559778
REMARK CNNaffinity 6.3610034
REMARK  11 active torsions:
REMARK  status: ('A' for Active; 'I' for Inactive)
REMARK    1  A    between atoms: C2_2  and  C4_4 
REMARK    2  A    between atoms: C4_4  and  C6_6 
REMARK    3  A    between atoms: C7_7  and  C8_8 
REMARK    4  A    between atoms: C8_8  and  C10_10 
REMARK    5  A    between atoms: C24_24  and  O1_25 
REMARK    6  A    between atoms: O1_25  and  C25_26 
REMARK    7  A    between atoms: C26_28  and  C27_29 
REMARK    8  A    between atoms: C27_29  and  O3_30 
REMARK    9  A    between atoms: C28_31  and  O4_32 
REMARK   10  A    between atoms: C29_33  and  O5_34 
REMARK   11  A    between atoms: C30_35  and  O6_36 
ROOT
HETATM    1  C10 UNL     1      -2.035  51.138 -20.579  1.00  0.00     0.001 C 
HETATM    2  C11 UNL     1      -3.532  50.764 -20.408  1.00  0.00     0.006 C 
HETATM    3  C12 UNL     1      -3.757  50.560 -18.896  1.00  0.00     0.009 C 
HETATM    4  C13 UNL     1      -2.420  50.937 -18.265  1.00  0.00     0.036 C 
HETATM    5  C14 UNL     1      -1.364  50.512 -19.316  1.00  0.00    -0.033 C 
HETATM    6  C15 UNL     1      -1.171  48.987 -19.442  1.00  0.00     0.016 C 
HETATM    7  C16 UNL     1      -0.028  51.164 -18.919  1.00  0.00     0.010 C 
HETATM    8  C17 UNL     1       0.397  50.774 -17.490  1.00  0.00     0.010 C 
HETATM    9  C18 UNL     1      -0.690  51.079 -16.432  1.00  0.00     0.039 C 
HETATM   10  C19 UNL     1      -2.118  50.549 -16.813  1.00  0.00     0.123 C 
HETATM   11  C20 UNL     1      -2.342  49.113 -16.417  1.00  0.00     0.014 C 
HETATM   12  C21 UNL     1      -2.155  48.882 -15.109  1.00  0.00     0.014 C 
HETATM   13  C22 UNL     1      -1.690  50.102 -14.337  1.00  0.00     0.124 C 
HETATM   14  C23 UNL     1      -1.605  49.832 -12.829  1.00  0.00     0.078 C 
HETATM   15  C24 UNL     1      -0.951  50.973 -12.037  1.00  0.00     0.128 C 
HETATM   16  C31 UNL     1      -0.606  52.206 -12.871  1.00  0.00     0.033 C 
HETATM   17  C32 UNL     1       0.189  51.869 -14.137  1.00  0.00     0.015 C 
HETATM   18  C33 UNL     1      -0.349  50.644 -14.943  1.00  0.00     0.001 C 
HETATM   19  C34 UNL     1       0.751  49.548 -14.884  1.00  0.00     0.019 C 
HETATM   20  O7  UNL     1      -2.702  51.128 -14.531  1.00  0.00    -0.223 OA
HETATM   21  O8  UNL     1      -3.051  51.287 -15.975  1.00  0.00    -0.224 OA
ENDROOT
BRANCH  15  22
HETATM   22  O1  UNL     1       0.279  50.488 -11.474  1.00  0.00    -0.353 OA
BRANCH  22  23
HETATM   23  C25 UNL     1       0.579  51.056 -10.193  1.00  0.00     0.292 C 
HETATM   24  O2  UNL     1      -0.300  52.160  -9.963  1.00  0.00    -0.348 OA
HETATM   25  C26 UNL     1      -0.085  52.797  -8.701  1.00  0.00     0.179 C 
HETATM   26  C28 UNL     1       1.317  53.419  -8.672  1.00  0.00     0.180 C 
HETATM   27  C29 UNL     1       2.367  52.346  -8.946  1.00  0.00     0.183 C 
HETATM   28  C30 UNL     1       2.050  51.534 -10.205  1.00  0.00     0.204 C 
BRANCH  25  29
HETATM   29  C27 UNL     1      -1.162  53.876  -8.502  1.00  0.00     0.198 C 
BRANCH  29  30
HETATM   30  O3  UNL     1      -0.675  55.178  -8.819  1.00  0.00    -0.398 OA
HETATM   31  H41 UNL     1      -0.106  55.090  -9.616  1.00  0.00     0.209 HD
ENDBRANCH  29  30
ENDBRANCH  25  29
BRANCH  26  32
HETATM   32  O4  UNL     1       1.577  54.039  -7.407  1.00  0.00    -0.390 OA
HETATM   33  H43 UNL     1       2.542  54.213  -7.383  1.00  0.00     0.210 HD
ENDBRANCH  26  32
BRANCH  27  34
HETATM   34  O5  UNL     1       3.663  52.967  -9.071  1.00  0.00    -0.390 OA
HETATM   35  H45 UNL     1       3.674  53.493  -9.892  1.00  0.00     0.210 HD
ENDBRANCH  27  34
BRANCH  28  36
HETATM   36  O6  UNL     1       2.967  50.432 -10.273  1.00  0.00    -0.388 OA
HETATM   37  H47 UNL     1       3.855  50.791 -10.088  1.00  0.00     0.210 HD
ENDBRANCH  28  36
ENDBRANCH  22  23
ENDBRANCH  15  22
BRANCH   1  38
HETATM   38  C8  UNL     1      -1.431  50.883 -21.984  1.00  0.00     0.008 C 
HETATM   39  C9  UNL     1      -0.193  51.772 -22.190  1.00  0.00     0.014 C 
BRANCH  38  40
HETATM   40  C7  UNL     1      -2.384  50.970 -23.160  1.00  0.00    -0.026 C 
HETATM   41  C6  UNL     1      -2.120  50.648 -24.438  1.00  0.00    -0.026 C 
BRANCH  41  42
HETATM   42  C4  UNL     1      -3.143  50.707 -25.558  1.00  0.00     0.007 C 
HETATM   43  C5  UNL     1      -3.398  52.180 -25.899  1.00  0.00     0.014 C 
BRANCH  42  44
HETATM   44  C2  UNL     1      -2.675  49.886 -26.791  1.00  0.00    -0.015 C 
HETATM   45  C1  UNL     1      -3.215  48.449 -26.754  1.00  0.00     0.010 C 
HETATM   46  C3  UNL     1      -3.101  50.532 -28.115  1.00  0.00     0.010 C 
ENDBRANCH  42  44
ENDBRANCH  41  42
ENDBRANCH  38  40
ENDBRANCH   1  38
TORSDOF 11
ENDMDL
MODEL 8
REMARK minimizedAffinity -9.4326334
REMARK CNNscore 0.215680227
REMARK CNNaffinity 6.67746305
REMARK  11 active torsions:
REMARK  status: ('A' for Active; 'I' for Inactive)
REMARK    1  A    between atoms: C2_2  and  C4_4 
REMARK    2  A    between atoms: C4_4  and  C6_6 
REMARK    3  A    between atoms: C7_7  and  C8_8 
REMARK    4  A    between atoms: C8_8  and  C10_10 
REMARK    5  A    between atoms: C24_24  and  O1_25 
REMARK    6  A    between atoms: O1_25  and  C25_26 
REMARK    7  A    between atoms: C26_28  and  C27_29 
REMARK    8  A    between atoms: C27_29  and  O3_30 
REMARK    9  A    between atoms: C28_31  and  O4_32 
REMARK   10  A    between atoms: C29_33  and  O5_34 
REMARK   11  A    between atoms: C30_35  and  O6_36 
ROOT
HETATM    1  C10 UNL     1      -1.030  49.949 -21.904  1.00  0.00     0.001 C 
HETATM    2  C11 UNL     1      -0.906  48.965 -20.711  1.00  0.00     0.006 C 
HETATM    3  C12 UNL     1      -2.239  48.192 -20.648  1.00  0.00     0.009 C 
HETATM    4  C13 UNL     1      -3.014  48.682 -21.867  1.00  0.00     0.036 C 
HETATM    5  C14 UNL     1      -2.572  50.157 -22.037  1.00  0.00    -0.033 C 
HETATM    6  C15 UNL     1      -3.135  51.117 -20.969  1.00  0.00     0.016 C 
HETATM    7  C16 UNL     1      -3.031  50.620 -23.431  1.00  0.00     0.010 C 
HETATM    8  C17 UNL     1      -4.552  50.452 -23.617  1.00  0.00     0.010 C 
HETATM    9  C18 UNL     1      -5.040  49.011 -23.337  1.00  0.00     0.039 C 
HETATM   10  C19 UNL     1      -4.519  48.413 -21.982  1.00  0.00     0.123 C 
HETATM   11  C20 UNL     1      -5.382  48.779 -20.803  1.00  0.00     0.014 C 
HETATM   12  C21 UNL     1      -6.665  48.415 -20.944  1.00  0.00     0.014 C 
HETATM   13  C22 UNL     1      -6.973  47.784 -22.288  1.00  0.00     0.124 C 
HETATM   14  C23 UNL     1      -8.418  47.272 -22.366  1.00  0.00     0.078 C 
HETATM   15  C24 UNL     1      -8.829  46.809 -23.771  1.00  0.00     0.128 C 
HETATM   16  C31 UNL     1      -7.702  46.837 -24.803  1.00  0.00     0.033 C 
HETATM   17  C32 UNL     1      -6.964  48.180 -24.844  1.00  0.00     0.015 C 
HETATM   18  C33 UNL     1      -6.607  48.776 -23.445  1.00  0.00     0.001 C 
HETATM   19  C34 UNL     1      -7.414  50.096 -23.301  1.00  0.00     0.019 C 
HETATM   20  O7  UNL     1      -6.102  46.627 -22.414  1.00  0.00    -0.223 OA
HETATM   21  O8  UNL     1      -4.683  46.972 -22.096  1.00  0.00    -0.224 OA
ENDROOT
BRANCH  15  22
HETATM   22  O1  UNL     1      -9.863  47.682 -24.253  1.00  0.00    -0.353 OA
BRANCH  22  23
HETATM   23  C25 UNL     1     -10.673  47.091 -25.278  1.00  0.00     0.292 C 
HETATM   24  O2  UNL     1     -10.192  45.769 -25.538  1.00  0.00    -0.348 OA
HETATM   25  C26 UNL     1     -10.940  45.088 -26.547  1.00  0.00     0.179 C 
HETATM   26  C28 UNL     1     -10.779  45.817 -27.887  1.00  0.00     0.180 C 
HETATM   27  C29 UNL     1     -11.225  47.270 -27.743  1.00  0.00     0.183 C 
HETATM   28  C30 UNL     1     -10.561  47.964 -26.550  1.00  0.00     0.204 C 
BRANCH  25  29
HETATM   29  C27 UNL     1     -10.426  43.642 -26.652  1.00  0.00     0.198 C 
BRANCH  29  30
HETATM   30  O3  UNL     1      -9.392  43.514 -27.624  1.00  0.00    -0.398 OA
HETATM   31  H41 UNL     1      -8.820  44.312 -27.548  1.00  0.00     0.209 HD
ENDBRANCH  29  30
ENDBRANCH  25  29
BRANCH  26  32
HETATM   32  O4  UNL     1     -11.544  45.177 -28.915  1.00  0.00    -0.390 OA
HETATM   33  H43 UNL     1     -11.571  45.807 -29.666  1.00  0.00     0.210 HD
ENDBRANCH  26  32
BRANCH  27  34
HETATM   34  O5  UNL     1     -10.924  47.984 -28.960  1.00  0.00    -0.390 OA
HETATM   35  H45 UNL     1      -9.955  48.063 -29.039  1.00  0.00     0.210 HD
ENDBRANCH  27  34
BRANCH  28  36
HETATM   36  O6  UNL     1     -11.181  49.246 -26.372  1.00  0.00    -0.388 OA
HETATM   37  H47 UNL     1     -11.239  49.657 -27.255  1.00  0.00     0.210 HD
ENDBRANCH  28  36
ENDBRANCH  22  23
ENDBRANCH  15  22
BRANCH   1  38
HETATM   38  C8  UNL     1      -0.084  51.177 -21.869  1.00  0.00     0.008 C 
HETATM   39  C9  UNL     1      -0.243  51.924 -20.534  1.00  0.00     0.014 C 
BRANCH  38  40
HETATM   40  C7  UNL     1      -0.156  52.125 -23.051  1.00  0.00    -0.026 C 
HETATM   41  C6  UNL     1       0.224  51.869 -24.314  1.00  0.00    -0.026 C 
BRANCH  41  42
HETATM   42  C4  UNL     1       0.070  52.849 -25.463  1.00  0.00     0.007 C 
HETATM   43  C5  UNL     1       0.354  54.260 -24.933  1.00  0.00     0.014 C 
BRANCH  42  44
HETATM   44  C2  UNL     1       0.992  52.469 -26.655  1.00  0.00    -0.015 C 
HETATM   45  C1  UNL     1       1.994  51.372 -26.268  1.00  0.00     0.010 C 
HETATM   46  C3  UNL     1       0.196  51.992 -27.875  1.00  0.00     0.010 C 
ENDBRANCH  42  44
ENDBRANCH  41  42
ENDBRANCH  38  40
ENDBRANCH   1  38
TORSDOF 11
ENDMDL
MODEL 9
REMARK minimizedAffinity -9.12051105
REMARK CNNscore 0.209825024
REMARK CNNaffinity 6.13705635
REMARK  11 active torsions:
REMARK  status: ('A' for Active; 'I' for Inactive)
REMARK    1  A    between atoms: C2_2  and  C4_4 
REMARK    2  A    between atoms: C4_4  and  C6_6 
REMARK    3  A    between atoms: C7_7  and  C8_8 
REMARK    4  A    between atoms: C8_8  and  C10_10 
REMARK    5  A    between atoms: C24_24  and  O1_25 
REMARK    6  A    between atoms: O1_25  and  C25_26 
REMARK    7  A    between atoms: C26_28  and  C27_29 
REMARK    8  A    between atoms: C27_29  and  O3_30 
REMARK    9  A    between atoms: C28_31  and  O4_32 
REMARK   10  A    between atoms: C29_33  and  O5_34 
REMARK   11  A    between atoms: C30_35  and  O6_36 
ROOT
HETATM    1  C10 UNL     1      -2.415  47.346 -20.632  1.00  0.00     0.001 C 
HETATM    2  C11 UNL     1      -3.047  46.379 -19.596  1.00  0.00     0.006 C 
HETATM    3  C12 UNL     1      -4.493  46.125 -20.068  1.00  0.00     0.009 C 
HETATM    4  C13 UNL     1      -4.586  46.859 -21.402  1.00  0.00     0.036 C 
HETATM    5  C14 UNL     1      -3.652  48.084 -21.233  1.00  0.00    -0.033 C 
HETATM    6  C15 UNL     1      -4.202  49.179 -20.296  1.00  0.00     0.016 C 
HETATM    7  C16 UNL     1      -3.416  48.682 -22.631  1.00  0.00     0.010 C 
HETATM    8  C17 UNL     1      -4.741  49.062 -23.322  1.00  0.00     0.010 C 
HETATM    9  C18 UNL     1      -5.742  47.885 -23.398  1.00  0.00     0.039 C 
HETATM   10  C19 UNL     1      -5.954  47.139 -22.033  1.00  0.00     0.123 C 
HETATM   11  C20 UNL     1      -7.002  47.783 -21.163  1.00  0.00     0.014 C 
HETATM   12  C21 UNL     1      -8.198  47.896 -21.759  1.00  0.00     0.014 C 
HETATM   13  C22 UNL     1      -8.209  47.417 -23.197  1.00  0.00     0.124 C 
HETATM   14  C23 UNL     1      -9.617  47.447 -23.805  1.00  0.00     0.078 C 
HETATM   15  C24 UNL     1      -9.641  47.161 -25.314  1.00  0.00     0.128 C 
HETATM   16  C31 UNL     1      -8.283  46.793 -25.910  1.00  0.00     0.033 C 
HETATM   17  C32 UNL     1      -7.178  47.789 -25.541  1.00  0.00     0.015 C 
HETATM   18  C33 UNL     1      -7.156  48.218 -24.039  1.00  0.00     0.001 C 
HETATM   19  C34 UNL     1      -7.479  49.738 -24.002  1.00  0.00     0.019 C 
HETATM   20  O7  UNL     1      -7.782  46.027 -23.176  1.00  0.00    -0.223 OA
HETATM   21  O8  UNL     1      -6.535  45.848 -22.373  1.00  0.00    -0.224 OA
ENDROOT
BRANCH  15  22
HETATM   22  O1  UNL     1     -10.092  48.344 -25.993  1.00  0.00    -0.353 OA
BRANCH  22  23
HETATM   23  C25 UNL     1     -11.367  48.183 -26.628  1.00  0.00     0.292 C 
HETATM   24  O2  UNL     1     -12.230  47.460 -25.746  1.00  0.00    -0.348 OA
HETATM   25  C26 UNL     1     -13.536  47.250 -26.285  1.00  0.00     0.179 C 
HETATM   26  C28 UNL     1     -13.441  46.360 -27.531  1.00  0.00     0.180 C 
HETATM   27  C29 UNL     1     -12.507  47.000 -28.555  1.00  0.00     0.183 C 
HETATM   28  C30 UNL     1     -11.160  47.395 -27.942  1.00  0.00     0.204 C 
BRANCH  25  29
HETATM   29  C27 UNL     1     -14.415  46.586 -25.212  1.00  0.00     0.198 C 
BRANCH  29  30
HETATM   30  O3  UNL     1     -15.089  47.548 -24.406  1.00  0.00    -0.398 OA
HETATM   31  H41 UNL     1     -15.380  48.274 -25.003  1.00  0.00     0.209 HD
ENDBRANCH  29  30
ENDBRANCH  25  29
BRANCH  26  32
HETATM   32  O4  UNL     1     -14.732  46.156 -28.117  1.00  0.00    -0.390 OA
HETATM   33  H43 UNL     1     -14.570  45.777 -29.007  1.00  0.00     0.210 HD
ENDBRANCH  26  32
BRANCH  27  34
HETATM   34  O5  UNL     1     -12.302  46.085 -29.651  1.00  0.00    -0.390 OA
HETATM   35  H45 UNL     1     -11.779  45.329 -29.327  1.00  0.00     0.210 HD
ENDBRANCH  27  34
BRANCH  28  36
HETATM   36  O6  UNL     1     -10.431  48.162 -28.913  1.00  0.00    -0.388 OA
HETATM   37  H47 UNL     1     -10.504  47.686 -29.761  1.00  0.00     0.210 HD
ENDBRANCH  28  36
ENDBRANCH  22  23
ENDBRANCH  15  22
BRANCH   1  38
HETATM   38  C8  UNL     1      -1.192  48.161 -20.138  1.00  0.00     0.008 C 
HETATM   39  C9  UNL     1      -1.403  48.589 -18.676  1.00  0.00     0.014 C 
BRANCH  38  40
HETATM   40  C7  UNL     1      -0.757  49.328 -21.004  1.00  0.00    -0.026 C 
HETATM   41  C6  UNL     1      -0.284  50.513 -20.583  1.00  0.00    -0.026 C 
BRANCH  41  42
HETATM   42  C4  UNL     1       0.186  51.619 -21.511  1.00  0.00     0.007 C 
HETATM   43  C5  UNL     1      -1.034  52.169 -22.259  1.00  0.00     0.014 C 
BRANCH  42  44
HETATM   44  C2  UNL     1       0.949  52.723 -20.728  1.00  0.00    -0.015 C 
HETATM   45  C1  UNL     1       1.231  53.949 -21.608  1.00  0.00     0.010 C 
HETATM   46  C3  UNL     1       0.185  53.184 -19.481  1.00  0.00     0.010 C 
ENDBRANCH  42  44
ENDBRANCH  41  42
ENDBRANCH  38  40
ENDBRANCH   1  38
TORSDOF 11
ENDMDL
