MODEL 1
REMARK minimizedAffinity -10.5712461
REMARK  9 active torsions:
REMARK  status: ('A' for Active; 'I' for Inactive)
REMARK    1  A    between atoms: C2_2  and  C3_3 
REMARK    2  A    between atoms: C2_2  and  C27_31 
REMARK    3  A    between atoms: C3_3  and  C4_4 
REMARK    4  A    between atoms: C4_4  and  C5_5 
REMARK    5  A    between atoms: C5_5  and  C7_7 
REMARK    6  A    between atoms: C22_24  and  O3_26 
REMARK    7  A    between atoms: C26_29  and  O4_30 
REMARK    8  A    between atoms: C27_31  and  C29_33 
REMARK    9  A    between atoms: C29_33  and  O6_35 
ROOT
HETATM    1  C7  UNL     1      -0.843  51.007 -22.950  1.00  0.00    -0.002 C 
HETATM    2  C8  UNL     1      -0.186  52.416 -23.033  1.00  0.00     0.006 C 
HETATM    3  C9  UNL     1       0.202  52.819 -21.605  1.00  0.00     0.010 C 
HETATM    4  C10 UNL     1       0.076  51.522 -20.809  1.00  0.00     0.027 C 
HETATM    5  C11 UNL     1       0.103  51.493 -19.291  1.00  0.00    -0.036 C 
HETATM    6  C12 UNL     1      -0.429  50.448 -18.605  1.00  0.00     0.002 C 
HETATM    7  C13 UNL     1      -1.236  49.421 -19.380  1.00  0.00     0.157 C 
HETATM    8  O1  UNL     1      -1.913  48.575 -18.800  1.00  0.00    -0.293 OA
HETATM    9  C14 UNL     1      -1.214  49.437 -20.899  1.00  0.00     0.093 C 
HETATM   10  C15 UNL     1      -1.180  50.868 -21.432  1.00  0.00    -0.026 C 
HETATM   11  C16 UNL     1      -2.493  51.607 -21.069  1.00  0.00     0.016 C 
HETATM   12  C17 UNL     1      -0.272  50.274 -17.070  1.00  0.00    -0.006 C 
HETATM   13  C18 UNL     1      -1.591  50.781 -16.442  1.00  0.00     0.021 C 
HETATM   14  C19 UNL     1      -0.020  48.795 -16.646  1.00  0.00     0.022 C 
HETATM   15  C20 UNL     1       0.243  48.609 -15.158  1.00  0.00     0.083 C 
HETATM   16  C21 UNL     1       1.384  49.469 -14.687  1.00  0.00     0.161 C 
HETATM   17  O2  UNL     1       2.244  49.006 -13.936  1.00  0.00    -0.295 OA
HETATM   18  C22 UNL     1       1.348  50.956 -15.086  1.00  0.00     0.119 C 
HETATM   19  C23 UNL     1       2.707  51.596 -14.751  1.00  0.00     0.055 C 
HETATM   20  C24 UNL     1       1.013  51.071 -16.601  1.00  0.00     0.043 C 
HETATM   21  C25 UNL     1       0.922  52.522 -17.079  1.00  0.00     0.045 C 
HETATM   22  C26 UNL     1       0.868  52.601 -18.605  1.00  0.00     0.148 C 
ENDROOT
BRANCH   1  23
HETATM   23  C5  UNL     1      -1.973  50.827 -24.008  1.00  0.00    -0.014 C 
HETATM   24  C6  UNL     1      -3.013  51.951 -23.923  1.00  0.00     0.010 C 
BRANCH  23  25
HETATM   25  C4  UNL     1      -2.681  49.453 -23.828  1.00  0.00     0.009 C 
BRANCH  25  26
HETATM   26  C3  UNL     1      -2.677  48.558 -25.082  1.00  0.00     0.034 C 
BRANCH  26  27
HETATM   27  C2  UNL     1      -3.936  48.571 -25.928  1.00  0.00    -0.075 C 
HETATM   28  C1  UNL     1      -5.141  48.574 -25.326  1.00  0.00     0.015 C 
BRANCH  27  29
HETATM   29  C27 UNL     1      -3.735  48.603 -27.443  1.00  0.00     0.107 C 
HETATM   30  C28 UNL     1      -4.876  48.025 -28.289  1.00  0.00     0.026 C 
BRANCH  29  31
HETATM   31  C29 UNL     1      -3.488  50.034 -27.899  1.00  0.00     0.147 C 
HETATM   32  O5  UNL     1      -3.106  50.974 -27.220  1.00  0.00    -0.650 OA
BRANCH  31  33
HETATM   33  O6  UNL     1      -3.734  50.210 -29.216  1.00  0.00    -0.776 OA
HETATM   34  H42 UNL     1      -3.526  51.157 -29.364  1.00  0.00     0.167 HD
ENDBRANCH  31  33
ENDBRANCH  29  31
ENDBRANCH  27  29
ENDBRANCH  26  27
ENDBRANCH  25  26
ENDBRANCH  23  25
ENDBRANCH   1  23
BRANCH  22  35
HETATM   35  O4  UNL     1       0.292  53.859 -18.933  1.00  0.00    -0.391 OA
HETATM   36  H37 UNL     1      -0.634  53.843 -18.635  1.00  0.00     0.210 HD
ENDBRANCH  22  35
BRANCH  18  37
HETATM   37  O3  UNL     1       0.361  51.628 -14.311  1.00  0.00    -0.382 OA
HETATM   38  H32 UNL     1       0.646  51.592 -13.378  1.00  0.00     0.211 HD
ENDBRANCH  18  37
TORSDOF 9
ENDMDL
MODEL 2
REMARK minimizedAffinity -10.4878531
REMARK  9 active torsions:
REMARK  status: ('A' for Active; 'I' for Inactive)
REMARK    1  A    between atoms: C2_2  and  C3_3 
REMARK    2  A    between atoms: C2_2  and  C27_31 
REMARK    3  A    between atoms: C3_3  and  C4_4 
REMARK    4  A    between atoms: C4_4  and  C5_5 
REMARK    5  A    between atoms: C5_5  and  C7_7 
REMARK    6  A    between atoms: C22_24  and  O3_26 
REMARK    7  A    between atoms: C26_29  and  O4_30 
REMARK    8  A    between atoms: C27_31  and  C29_33 
REMARK    9  A    between atoms: C29_33  and  O6_35 
ROOT
HETATM    1  C7  UNL     1      -1.159  50.444 -22.373  1.00  0.00    -0.002 C 
HETATM    2  C8  UNL     1      -0.580  51.866 -22.633  1.00  0.00     0.006 C 
HETATM    3  C9  UNL     1      -0.076  52.403 -21.288  1.00  0.00     0.010 C 
HETATM    4  C10 UNL     1      -0.066  51.174 -20.381  1.00  0.00     0.027 C 
HETATM    5  C11 UNL     1       0.107  51.275 -18.876  1.00  0.00    -0.036 C 
HETATM    6  C12 UNL     1      -0.309  50.272 -18.059  1.00  0.00     0.002 C 
HETATM    7  C13 UNL     1      -1.138  49.153 -18.665  1.00  0.00     0.157 C 
HETATM    8  O1  UNL     1      -1.717  48.333 -17.955  1.00  0.00    -0.293 OA
HETATM    9  C14 UNL     1      -1.260  49.041 -20.175  1.00  0.00     0.093 C 
HETATM   10  C15 UNL     1      -1.344  50.422 -20.823  1.00  0.00    -0.026 C 
HETATM   11  C16 UNL     1      -2.649  51.139 -20.393  1.00  0.00     0.016 C 
HETATM   12  C17 UNL     1       0.002  50.235 -16.538  1.00  0.00    -0.006 C 
HETATM   13  C18 UNL     1      -1.274  50.743 -15.826  1.00  0.00     0.021 C 
HETATM   14  C19 UNL     1       0.361  48.808 -16.023  1.00  0.00     0.022 C 
HETATM   15  C20 UNL     1       0.772  48.759 -14.558  1.00  0.00     0.083 C 
HETATM   16  C21 UNL     1       1.912  49.699 -14.272  1.00  0.00     0.161 C 
HETATM   17  O2  UNL     1       2.860  49.335 -13.575  1.00  0.00    -0.295 OA
HETATM   18  C22 UNL     1       1.769  51.144 -14.785  1.00  0.00     0.119 C 
HETATM   19  C23 UNL     1       3.123  51.862 -14.638  1.00  0.00     0.055 C 
HETATM   20  C24 UNL     1       1.287  51.118 -16.264  1.00  0.00     0.043 C 
HETATM   21  C25 UNL     1       1.084  52.518 -16.846  1.00  0.00     0.045 C 
HETATM   22  C26 UNL     1       0.881  52.465 -18.360  1.00  0.00     0.148 C 
ENDROOT
BRANCH   1  23
HETATM   23  C5  UNL     1      -2.376  50.132 -23.297  1.00  0.00    -0.014 C 
HETATM   24  C6  UNL     1      -2.934  48.727 -23.042  1.00  0.00     0.010 C 
BRANCH  23  25
HETATM   25  C4  UNL     1      -1.977  50.267 -24.794  1.00  0.00     0.009 C 
BRANCH  25  26
HETATM   26  C3  UNL     1      -0.808  51.232 -25.064  1.00  0.00     0.034 C 
BRANCH  26  27
HETATM   27  C2  UNL     1      -0.243  51.236 -26.473  1.00  0.00    -0.075 C 
HETATM   28  C1  UNL     1       0.974  50.706 -26.701  1.00  0.00     0.015 C 
BRANCH  27  29
HETATM   29  C27 UNL     1      -1.133  51.838 -27.560  1.00  0.00     0.107 C 
HETATM   30  C28 UNL     1      -2.615  51.450 -27.511  1.00  0.00     0.026 C 
BRANCH  29  31
HETATM   31  C29 UNL     1      -1.040  53.357 -27.517  1.00  0.00     0.147 C 
HETATM   32  O5  UNL     1      -0.269  54.035 -26.856  1.00  0.00    -0.650 OA
BRANCH  31  33
HETATM   33  O6  UNL     1      -1.938  53.955 -28.329  1.00  0.00    -0.776 OA
HETATM   34  H42 UNL     1      -1.758  54.911 -28.207  1.00  0.00     0.167 HD
ENDBRANCH  31  33
ENDBRANCH  29  31
ENDBRANCH  27  29
ENDBRANCH  26  27
ENDBRANCH  25  26
ENDBRANCH  23  25
ENDBRANCH   1  23
BRANCH  22  35
HETATM   35  O4  UNL     1       0.219  53.669 -18.731  1.00  0.00    -0.391 OA
HETATM   36  H37 UNL     1      -0.672  53.642 -18.343  1.00  0.00     0.210 HD
ENDBRANCH  22  35
BRANCH  18  37
HETATM   37  O3  UNL     1       0.830  51.842 -13.973  1.00  0.00    -0.382 OA
HETATM   38  H32 UNL     1       1.204  51.895 -13.073  1.00  0.00     0.211 HD
ENDBRANCH  18  37
TORSDOF 9
ENDMDL
MODEL 3
REMARK minimizedAffinity -9.95802689
REMARK  9 active torsions:
REMARK  status: ('A' for Active; 'I' for Inactive)
REMARK    1  A    between atoms: C2_2  and  C3_3 
REMARK    2  A    between atoms: C2_2  and  C27_31 
REMARK    3  A    between atoms: C3_3  and  C4_4 
REMARK    4  A    between atoms: C4_4  and  C5_5 
REMARK    5  A    between atoms: C5_5  and  C7_7 
REMARK    6  A    between atoms: C22_24  and  O3_26 
REMARK    7  A    between atoms: C26_29  and  O4_30 
REMARK    8  A    between atoms: C27_31  and  C29_33 
REMARK    9  A    between atoms: C29_33  and  O6_35 
ROOT
HETATM    1  C7  UNL     1      -0.479  51.462 -24.222  1.00  0.00    -0.002 C 
HETATM    2  C8  UNL     1       0.371  52.767 -24.210  1.00  0.00     0.006 C 
HETATM    3  C9  UNL     1       0.644  53.116 -22.742  1.00  0.00     0.010 C 
HETATM    4  C10 UNL     1       0.249  51.852 -21.982  1.00  0.00     0.027 C 
HETATM    5  C11 UNL     1       0.096  51.824 -20.472  1.00  0.00    -0.036 C 
HETATM    6  C12 UNL     1      -0.651  50.864 -19.866  1.00  0.00     0.002 C 
HETATM    7  C13 UNL     1      -1.498  49.957 -20.741  1.00  0.00     0.157 C 
HETATM    8  O1  UNL     1      -2.348  49.215 -20.254  1.00  0.00    -0.293 OA
HETATM    9  C14 UNL     1      -1.298  49.965 -22.247  1.00  0.00     0.093 C 
HETATM   10  C15 UNL     1      -1.005  51.376 -22.754  1.00  0.00    -0.026 C 
HETATM   11  C16 UNL     1      -2.236  52.292 -22.535  1.00  0.00     0.016 C 
HETATM   12  C17 UNL     1      -0.698  50.675 -18.325  1.00  0.00    -0.006 C 
HETATM   13  C18 UNL     1      -1.998  51.362 -17.846  1.00  0.00     0.021 C 
HETATM   14  C19 UNL     1      -0.704  49.177 -17.894  1.00  0.00     0.022 C 
HETATM   15  C20 UNL     1      -0.643  48.960 -16.388  1.00  0.00     0.083 C 
HETATM   16  C21 UNL     1       0.544  49.655 -15.778  1.00  0.00     0.161 C 
HETATM   17  O2  UNL     1       1.240  49.080 -14.939  1.00  0.00    -0.295 OA
HETATM   18  C22 UNL     1       0.760  51.132 -16.159  1.00  0.00     0.119 C 
HETATM   19  C23 UNL     1       2.146  51.578 -15.662  1.00  0.00     0.055 C 
HETATM   20  C24 UNL     1       0.622  51.288 -17.701  1.00  0.00     0.043 C 
HETATM   21  C25 UNL     1       0.788  52.736 -18.168  1.00  0.00     0.045 C 
HETATM   22  C26 UNL     1       0.922  52.816 -19.688  1.00  0.00     0.148 C 
ENDROOT
BRANCH   1  23
HETATM   23  C5  UNL     1      -1.493  51.438 -25.405  1.00  0.00    -0.014 C 
HETATM   24  C6  UNL     1      -2.799  52.158 -25.046  1.00  0.00     0.010 C 
BRANCH  23  25
HETATM   25  C4  UNL     1      -1.809  49.974 -25.828  1.00  0.00     0.009 C 
BRANCH  25  26
HETATM   26  C3  UNL     1      -2.589  49.157 -24.781  1.00  0.00     0.034 C 
BRANCH  26  27
HETATM   27  C2  UNL     1      -4.000  48.742 -25.158  1.00  0.00    -0.075 C 
HETATM   28  C1  UNL     1      -4.292  48.481 -26.447  1.00  0.00     0.015 C 
BRANCH  27  29
HETATM   29  C27 UNL     1      -5.003  48.628 -24.011  1.00  0.00     0.107 C 
HETATM   30  C28 UNL     1      -4.569  47.772 -22.816  1.00  0.00     0.026 C 
BRANCH  29  31
HETATM   31  C29 UNL     1      -5.353  50.017 -23.495  1.00  0.00     0.147 C 
HETATM   32  O5  UNL     1      -5.070  50.500 -22.410  1.00  0.00    -0.650 OA
BRANCH  31  33
HETATM   33  O6  UNL     1      -6.053  50.743 -24.394  1.00  0.00    -0.776 OA
HETATM   34  H42 UNL     1      -6.195  51.600 -23.937  1.00  0.00     0.167 HD
ENDBRANCH  31  33
ENDBRANCH  29  31
ENDBRANCH  27  29
ENDBRANCH  26  27
ENDBRANCH  25  26
ENDBRANCH  23  25
ENDBRANCH   1  23
BRANCH  22  35
HETATM   35  O4  UNL     1       0.568  54.142 -20.064  1.00  0.00    -0.391 OA
HETATM   36  H37 UNL     1      -0.379  54.255 -19.875  1.00  0.00     0.210 HD
ENDBRANCH  22  35
BRANCH  18  37
HETATM   37  O3  UNL     1      -0.208  51.937 -15.494  1.00  0.00    -0.382 OA
HETATM   38  H32 UNL     1      -0.040  51.864 -14.535  1.00  0.00     0.211 HD
ENDBRANCH  18  37
TORSDOF 9
ENDMDL
MODEL 4
REMARK minimizedAffinity -9.86646748
REMARK  9 active torsions:
REMARK  status: ('A' for Active; 'I' for Inactive)
REMARK    1  A    between atoms: C2_2  and  C3_3 
REMARK    2  A    between atoms: C2_2  and  C27_31 
REMARK    3  A    between atoms: C3_3  and  C4_4 
REMARK    4  A    between atoms: C4_4  and  C5_5 
REMARK    5  A    between atoms: C5_5  and  C7_7 
REMARK    6  A    between atoms: C22_24  and  O3_26 
REMARK    7  A    between atoms: C26_29  and  O4_30 
REMARK    8  A    between atoms: C27_31  and  C29_33 
REMARK    9  A    between atoms: C29_33  and  O6_35 
ROOT
HETATM    1  C7  UNL     1      -0.390  51.551 -20.725  1.00  0.00    -0.002 C 
HETATM    2  C8  UNL     1       0.380  52.898 -20.591  1.00  0.00     0.006 C 
HETATM    3  C9  UNL     1       0.910  52.974 -19.154  1.00  0.00     0.010 C 
HETATM    4  C10 UNL     1       0.731  51.556 -18.618  1.00  0.00     0.027 C 
HETATM    5  C11 UNL     1       0.871  51.219 -17.145  1.00  0.00    -0.036 C 
HETATM    6  C12 UNL     1       0.302  50.097 -16.630  1.00  0.00     0.002 C 
HETATM    7  C13 UNL     1      -0.649  49.309 -17.512  1.00  0.00     0.157 C 
HETATM    8  O1  UNL     1      -1.353  48.414 -17.049  1.00  0.00    -0.293 OA
HETATM    9  C14 UNL     1      -0.742  49.630 -18.994  1.00  0.00     0.093 C 
HETATM   10  C15 UNL     1      -0.622  51.133 -19.238  1.00  0.00    -0.026 C 
HETATM   11  C16 UNL     1      -1.833  51.876 -18.618  1.00  0.00     0.016 C 
HETATM   12  C17 UNL     1       0.560  49.606 -15.179  1.00  0.00    -0.006 C 
HETATM   13  C18 UNL     1      -0.658  50.069 -14.345  1.00  0.00     0.021 C 
HETATM   14  C19 UNL     1       0.711  48.058 -15.078  1.00  0.00     0.022 C 
HETATM   15  C20 UNL     1       1.069  47.556 -13.685  1.00  0.00     0.083 C 
HETATM   16  C21 UNL     1       2.315  48.219 -13.163  1.00  0.00     0.161 C 
HETATM   17  O2  UNL     1       3.186  47.554 -12.599  1.00  0.00    -0.295 OA
HETATM   18  C22 UNL     1       2.381  49.755 -13.259  1.00  0.00     0.119 C 
HETATM   19  C23 UNL     1       3.812  50.215 -12.932  1.00  0.00     0.055 C 
HETATM   20  C24 UNL     1       1.943  50.198 -14.685  1.00  0.00     0.043 C 
HETATM   21  C25 UNL     1       1.944  51.718 -14.860  1.00  0.00     0.045 C 
HETATM   22  C26 UNL     1       1.781  52.107 -16.329  1.00  0.00     0.148 C 
ENDROOT
BRANCH   1  23
HETATM   23  C5  UNL     1      -1.610  51.670 -21.689  1.00  0.00    -0.014 C 
HETATM   24  C6  UNL     1      -2.266  50.308 -21.942  1.00  0.00     0.010 C 
BRANCH  23  25
HETATM   25  C4  UNL     1      -1.178  52.297 -23.046  1.00  0.00     0.009 C 
BRANCH  25  26
HETATM   26  C3  UNL     1      -1.704  51.560 -24.291  1.00  0.00     0.034 C 
BRANCH  26  27
HETATM   27  C2  UNL     1      -0.746  51.438 -25.462  1.00  0.00    -0.075 C 
HETATM   28  C1  UNL     1      -0.976  50.513 -26.414  1.00  0.00     0.015 C 
BRANCH  27  29
HETATM   29  C27 UNL     1       0.428  52.416 -25.483  1.00  0.00     0.107 C 
HETATM   30  C28 UNL     1       1.706  51.923 -26.170  1.00  0.00     0.026 C 
BRANCH  29  31
HETATM   31  C29 UNL     1       0.002  53.716 -26.151  1.00  0.00     0.147 C 
HETATM   32  O5  UNL     1      -0.568  53.847 -27.223  1.00  0.00    -0.650 OA
BRANCH  31  33
HETATM   33  O6  UNL     1       0.318  54.805 -25.417  1.00  0.00    -0.776 OA
HETATM   34  H42 UNL     1      -0.019  55.552 -25.957  1.00  0.00     0.167 HD
ENDBRANCH  31  33
ENDBRANCH  29  31
ENDBRANCH  27  29
ENDBRANCH  26  27
ENDBRANCH  25  26
ENDBRANCH  23  25
ENDBRANCH   1  23
BRANCH  22  35
HETATM   35  O4  UNL     1       1.296  53.444 -16.351  1.00  0.00    -0.391 OA
HETATM   36  H37 UNL     1       0.398  53.435 -15.977  1.00  0.00     0.210 HD
ENDBRANCH  22  35
BRANCH  18  37
HETATM   37  O3  UNL     1       1.518  50.326 -12.279  1.00  0.00    -0.382 OA
HETATM   38  H32 UNL     1       1.870  50.082 -11.402  1.00  0.00     0.211 HD
ENDBRANCH  18  37
TORSDOF 9
ENDMDL
MODEL 5
REMARK minimizedAffinity -9.50096416
REMARK  9 active torsions:
REMARK  status: ('A' for Active; 'I' for Inactive)
REMARK    1  A    between atoms: C2_2  and  C3_3 
REMARK    2  A    between atoms: C2_2  and  C27_31 
REMARK    3  A    between atoms: C3_3  and  C4_4 
REMARK    4  A    between atoms: C4_4  and  C5_5 
REMARK    5  A    between atoms: C5_5  and  C7_7 
REMARK    6  A    between atoms: C22_24  and  O3_26 
REMARK    7  A    between atoms: C26_29  and  O4_30 
REMARK    8  A    between atoms: C27_31  and  C29_33 
REMARK    9  A    between atoms: C29_33  and  O6_35 
ROOT
HETATM    1  C7  UNL     1      -0.064  49.872 -18.040  1.00  0.00    -0.002 C 
HETATM    2  C8  UNL     1      -1.039  48.665 -17.910  1.00  0.00     0.006 C 
HETATM    3  C9  UNL     1      -1.850  48.595 -19.210  1.00  0.00     0.010 C 
HETATM    4  C10 UNL     1      -1.100  49.524 -20.162  1.00  0.00     0.027 C 
HETATM    5  C11 UNL     1      -1.688  49.979 -21.486  1.00  0.00    -0.036 C 
HETATM    6  C12 UNL     1      -1.234  51.104 -22.099  1.00  0.00     0.002 C 
HETATM    7  C13 UNL     1      -0.283  52.003 -21.330  1.00  0.00     0.157 C 
HETATM    8  O1  UNL     1      -0.001  53.128 -21.738  1.00  0.00    -0.293 OA
HETATM    9  C14 UNL     1       0.332  51.513 -20.031  1.00  0.00     0.093 C 
HETATM   10  C15 UNL     1      -0.669  50.682 -19.230  1.00  0.00    -0.026 C 
HETATM   11  C16 UNL     1      -1.857  51.566 -18.772  1.00  0.00     0.016 C 
HETATM   12  C17 UNL     1      -1.665  51.518 -23.533  1.00  0.00    -0.006 C 
HETATM   13  C18 UNL     1      -2.763  52.593 -23.357  1.00  0.00     0.021 C 
HETATM   14  C19 UNL     1      -0.490  52.097 -24.378  1.00  0.00     0.022 C 
HETATM   15  C20 UNL     1      -0.858  52.415 -25.822  1.00  0.00     0.083 C 
HETATM   16  C21 UNL     1      -1.438  51.215 -26.520  1.00  0.00     0.161 C 
HETATM   17  O2  UNL     1      -1.083  50.929 -27.665  1.00  0.00    -0.295 OA
HETATM   18  C22 UNL     1      -2.564  50.459 -25.789  1.00  0.00     0.119 C 
HETATM   19  C23 UNL     1      -2.833  49.134 -26.523  1.00  0.00     0.055 C 
HETATM   20  C24 UNL     1      -2.146  50.225 -24.309  1.00  0.00     0.043 C 
HETATM   21  C25 UNL     1      -3.225  49.508 -23.495  1.00  0.00     0.045 C 
HETATM   22  C26 UNL     1      -2.685  49.051 -22.140  1.00  0.00     0.148 C 
ENDROOT
BRANCH   1  23
HETATM   23  C5  UNL     1       0.176  50.578 -16.672  1.00  0.00    -0.014 C 
HETATM   24  C6  UNL     1      -1.145  50.968 -15.997  1.00  0.00     0.010 C 
BRANCH  23  25
HETATM   25  C4  UNL     1       1.057  51.847 -16.856  1.00  0.00     0.009 C 
BRANCH  25  26
HETATM   26  C3  UNL     1       1.642  52.419 -15.551  1.00  0.00     0.034 C 
BRANCH  26  27
HETATM   27  C2  UNL     1       3.073  52.035 -15.223  1.00  0.00    -0.075 C 
HETATM   28  C1  UNL     1       4.037  52.218 -16.145  1.00  0.00     0.015 C 
BRANCH  27  29
HETATM   29  C27 UNL     1       3.320  51.472 -13.823  1.00  0.00     0.107 C 
HETATM   30  C28 UNL     1       2.238  51.761 -12.777  1.00  0.00     0.026 C 
BRANCH  29  31
HETATM   31  C29 UNL     1       3.509  49.963 -13.903  1.00  0.00     0.147 C 
HETATM   32  O5  UNL     1       2.641  49.109 -13.979  1.00  0.00    -0.650 OA
BRANCH  31  33
HETATM   33  O6  UNL     1       4.811  49.602 -13.887  1.00  0.00    -0.776 OA
HETATM   34  H42 UNL     1       4.779  48.623 -13.953  1.00  0.00     0.167 HD
ENDBRANCH  31  33
ENDBRANCH  29  31
ENDBRANCH  27  29
ENDBRANCH  26  27
ENDBRANCH  25  26
ENDBRANCH  23  25
ENDBRANCH   1  23
BRANCH  22  35
HETATM   35  O4  UNL     1      -3.809  48.872 -21.287  1.00  0.00    -0.391 OA
HETATM   36  H37 UNL     1      -4.202  49.749 -21.134  1.00  0.00     0.210 HD
ENDBRANCH  22  35
BRANCH  18  37
HETATM   37  O3  UNL     1      -3.762  51.226 -25.848  1.00  0.00    -0.382 OA
HETATM   38  H32 UNL     1      -4.025  51.288 -26.786  1.00  0.00     0.211 HD
ENDBRANCH  18  37
TORSDOF 9
ENDMDL
MODEL 6
REMARK minimizedAffinity -9.4362936
REMARK  9 active torsions:
REMARK  status: ('A' for Active; 'I' for Inactive)
REMARK    1  A    between atoms: C2_2  and  C3_3 
REMARK    2  A    between atoms: C2_2  and  C27_31 
REMARK    3  A    between atoms: C3_3  and  C4_4 
REMARK    4  A    between atoms: C4_4  and  C5_5 
REMARK    5  A    between atoms: C5_5  and  C7_7 
REMARK    6  A    between atoms: C22_24  and  O3_26 
REMARK    7  A    between atoms: C26_29  and  O4_30 
REMARK    8  A    between atoms: C27_31  and  C29_33 
REMARK    9  A    between atoms: C29_33  and  O6_35 
ROOT
HETATM    1  C7  UNL     1      -0.946  50.638 -23.020  1.00  0.00    -0.002 C 
HETATM    2  C8  UNL     1      -0.377  52.077 -23.195  1.00  0.00     0.006 C 
HETATM    3  C9  UNL     1       0.007  52.584 -21.800  1.00  0.00     0.010 C 
HETATM    4  C10 UNL     1      -0.027  51.330 -20.929  1.00  0.00     0.027 C 
HETATM    5  C11 UNL     1       0.025  51.390 -19.413  1.00  0.00    -0.036 C 
HETATM    6  C12 UNL     1      -0.433  50.356 -18.659  1.00  0.00     0.002 C 
HETATM    7  C13 UNL     1      -1.188  49.241 -19.359  1.00  0.00     0.157 C 
HETATM    8  O1  UNL     1      -1.803  48.390 -18.720  1.00  0.00    -0.293 OA
HETATM    9  C14 UNL     1      -1.189  49.170 -20.877  1.00  0.00     0.093 C 
HETATM   10  C15 UNL     1      -1.251  50.567 -21.491  1.00  0.00    -0.026 C 
HETATM   11  C16 UNL     1      -2.601  51.247 -21.146  1.00  0.00     0.016 C 
HETATM   12  C17 UNL     1      -0.242  50.282 -17.120  1.00  0.00    -0.006 C 
HETATM   13  C18 UNL     1      -1.580  50.744 -16.497  1.00  0.00     0.021 C 
HETATM   14  C19 UNL     1       0.106  48.847 -16.618  1.00  0.00     0.022 C 
HETATM   15  C20 UNL     1       0.402  48.763 -15.126  1.00  0.00     0.083 C 
HETATM   16  C21 UNL     1       1.496  49.715 -14.726  1.00  0.00     0.161 C 
HETATM   17  O2  UNL     1       2.394  49.349 -13.966  1.00  0.00    -0.295 OA
HETATM   18  C22 UNL     1       1.364  51.172 -15.209  1.00  0.00     0.119 C 
HETATM   19  C23 UNL     1       2.686  51.910 -14.936  1.00  0.00     0.055 C 
HETATM   20  C24 UNL     1       1.000  51.180 -16.721  1.00  0.00     0.043 C 
HETATM   21  C25 UNL     1       0.813  52.592 -17.279  1.00  0.00     0.045 C 
HETATM   22  C26 UNL     1       0.731  52.579 -18.805  1.00  0.00     0.148 C 
ENDROOT
BRANCH   1  23
HETATM   23  C5  UNL     1      -2.079  50.331 -24.045  1.00  0.00    -0.014 C 
HETATM   24  C6  UNL     1      -3.240  51.325 -23.921  1.00  0.00     0.010 C 
BRANCH  23  25
HETATM   25  C4  UNL     1      -2.615  48.883 -23.853  1.00  0.00     0.009 C 
BRANCH  25  26
HETATM   26  C3  UNL     1      -4.092  48.686 -24.246  1.00  0.00     0.034 C 
BRANCH  26  27
HETATM   27  C2  UNL     1      -5.004  48.104 -23.182  1.00  0.00    -0.075 C 
HETATM   28  C1  UNL     1      -4.527  47.895 -21.940  1.00  0.00     0.015 C 
BRANCH  27  29
HETATM   29  C27 UNL     1      -6.442  47.810 -23.609  1.00  0.00     0.107 C 
HETATM   30  C28 UNL     1      -7.096  46.576 -22.978  1.00  0.00     0.026 C 
BRANCH  29  31
HETATM   31  C29 UNL     1      -7.323  49.016 -23.312  1.00  0.00     0.147 C 
HETATM   32  O5  UNL     1      -7.859  49.300 -22.253  1.00  0.00    -0.650 OA
BRANCH  31  33
HETATM   33  O6  UNL     1      -7.482  49.820 -24.386  1.00  0.00    -0.776 OA
HETATM   34  H42 UNL     1      -8.051  50.544 -24.049  1.00  0.00     0.167 HD
ENDBRANCH  31  33
ENDBRANCH  29  31
ENDBRANCH  27  29
ENDBRANCH  26  27
ENDBRANCH  25  26
ENDBRANCH  23  25
ENDBRANCH   1  23
BRANCH  22  35
HETATM   35  O4  UNL     1       0.075  53.780 -19.193  1.00  0.00    -0.391 OA
HETATM   36  H37 UNL     1      -0.843  53.726 -18.878  1.00  0.00     0.210 HD
ENDBRANCH  22  35
BRANCH  18  37
HETATM   37  O3  UNL     1       0.349  51.828 -14.454  1.00  0.00    -0.382 OA
HETATM   38  H32 UNL     1       0.651  51.862 -13.526  1.00  0.00     0.211 HD
ENDBRANCH  18  37
TORSDOF 9
ENDMDL
MODEL 7
REMARK minimizedAffinity -9.38449097
REMARK  9 active torsions:
REMARK  status: ('A' for Active; 'I' for Inactive)
REMARK    1  A    between atoms: C2_2  and  C3_3 
REMARK    2  A    between atoms: C2_2  and  C27_31 
REMARK    3  A    between atoms: C3_3  and  C4_4 
REMARK    4  A    between atoms: C4_4  and  C5_5 
REMARK    5  A    between atoms: C5_5  and  C7_7 
REMARK    6  A    between atoms: C22_24  and  O3_26 
REMARK    7  A    between atoms: C26_29  and  O4_30 
REMARK    8  A    between atoms: C27_31  and  C29_33 
REMARK    9  A    between atoms: C29_33  and  O6_35 
ROOT
HETATM    1  C7  UNL     1      -2.844  52.185 -23.262  1.00  0.00    -0.002 C 
HETATM    2  C8  UNL     1      -4.296  51.654 -23.080  1.00  0.00     0.006 C 
HETATM    3  C9  UNL     1      -4.384  51.048 -21.674  1.00  0.00     0.010 C 
HETATM    4  C10 UNL     1      -3.117  51.543 -20.980  1.00  0.00     0.027 C 
HETATM    5  C11 UNL     1      -2.642  50.977 -19.654  1.00  0.00    -0.036 C 
HETATM    6  C12 UNL     1      -1.343  51.095 -19.272  1.00  0.00     0.002 C 
HETATM    7  C13 UNL     1      -0.343  51.613 -20.290  1.00  0.00     0.157 C 
HETATM    8  O1  UNL     1       0.867  51.549 -20.083  1.00  0.00    -0.293 OA
HETATM    9  C14 UNL     1      -0.839  52.219 -21.592  1.00  0.00     0.093 C 
HETATM   10  C15 UNL     1      -2.065  51.471 -22.113  1.00  0.00    -0.026 C 
HETATM   11  C16 UNL     1      -1.685  50.018 -22.497  1.00  0.00     0.016 C 
HETATM   12  C17 UNL     1      -0.837  50.701 -17.858  1.00  0.00    -0.006 C 
HETATM   13  C18 UNL     1      -0.202  49.298 -18.004  1.00  0.00     0.021 C 
HETATM   14  C19 UNL     1       0.215  51.699 -17.286  1.00  0.00     0.022 C 
HETATM   15  C20 UNL     1       0.651  51.397 -15.859  1.00  0.00     0.083 C 
HETATM   16  C21 UNL     1      -0.527  51.318 -14.926  1.00  0.00     0.161 C 
HETATM   17  O2  UNL     1      -0.485  51.862 -13.822  1.00  0.00    -0.295 OA
HETATM   18  C22 UNL     1      -1.710  50.436 -15.369  1.00  0.00     0.119 C 
HETATM   19  C23 UNL     1      -2.903  50.695 -14.434  1.00  0.00     0.055 C 
HETATM   20  C24 UNL     1      -2.058  50.754 -16.852  1.00  0.00     0.043 C 
HETATM   21  C25 UNL     1      -3.205  49.894 -17.389  1.00  0.00     0.045 C 
HETATM   22  C26 UNL     1      -3.702  50.413 -18.737  1.00  0.00     0.148 C 
ENDROOT
BRANCH   1  23
HETATM   23  C5  UNL     1      -2.349  52.038 -24.733  1.00  0.00    -0.014 C 
HETATM   24  C6  UNL     1      -3.495  52.216 -25.737  1.00  0.00     0.010 C 
BRANCH  23  25
HETATM   25  C4  UNL     1      -1.681  50.650 -24.952  1.00  0.00     0.009 C 
BRANCH  25  26
HETATM   26  C3  UNL     1      -1.214  50.381 -26.394  1.00  0.00     0.034 C 
BRANCH  26  27
HETATM   27  C2  UNL     1      -0.074  51.240 -26.910  1.00  0.00    -0.075 C 
HETATM   28  C1  UNL     1      -0.115  51.709 -28.172  1.00  0.00     0.015 C 
BRANCH  27  29
HETATM   29  C27 UNL     1       1.054  51.534 -25.922  1.00  0.00     0.107 C 
HETATM   30  C28 UNL     1       2.480  51.426 -26.474  1.00  0.00     0.026 C 
BRANCH  29  31
HETATM   31  C29 UNL     1       0.877  52.929 -25.340  1.00  0.00     0.147 C 
HETATM   32  O5  UNL     1       0.941  53.257 -24.166  1.00  0.00    -0.650 OA
BRANCH  31  33
HETATM   33  O6  UNL     1       0.628  53.859 -26.287  1.00  0.00    -0.776 OA
HETATM   34  H42 UNL     1       0.549  54.693 -25.776  1.00  0.00     0.167 HD
ENDBRANCH  31  33
ENDBRANCH  29  31
ENDBRANCH  27  29
ENDBRANCH  26  27
ENDBRANCH  25  26
ENDBRANCH  23  25
ENDBRANCH   1  23
BRANCH  22  35
HETATM   35  O4  UNL     1      -4.366  49.330 -19.377  1.00  0.00    -0.391 OA
HETATM   36  H37 UNL     1      -3.695  48.657 -19.583  1.00  0.00     0.210 HD
ENDBRANCH  22  35
BRANCH  18  37
HETATM   37  O3  UNL     1      -1.352  49.064 -15.231  1.00  0.00    -0.382 OA
HETATM   38  H32 UNL     1      -1.212  48.893 -14.280  1.00  0.00     0.211 HD
ENDBRANCH  18  37
TORSDOF 9
ENDMDL
MODEL 8
REMARK minimizedAffinity -9.37153244
REMARK  9 active torsions:
REMARK  status: ('A' for Active; 'I' for Inactive)
REMARK    1  A    between atoms: C2_2  and  C3_3 
REMARK    2  A    between atoms: C2_2  and  C27_31 
REMARK    3  A    between atoms: C3_3  and  C4_4 
REMARK    4  A    between atoms: C4_4  and  C5_5 
REMARK    5  A    between atoms: C5_5  and  C7_7 
REMARK    6  A    between atoms: C22_24  and  O3_26 
REMARK    7  A    between atoms: C26_29  and  O4_30 
REMARK    8  A    between atoms: C27_31  and  C29_33 
REMARK    9  A    between atoms: C29_33  and  O6_35 
ROOT
HETATM    1  C7  UNL     1      -1.925  51.697 -22.292  1.00  0.00    -0.002 C 
HETATM    2  C8  UNL     1      -2.960  52.352 -23.253  1.00  0.00     0.006 C 
HETATM    3  C9  UNL     1      -4.309  51.669 -22.999  1.00  0.00     0.010 C 
HETATM    4  C10 UNL     1      -4.096  50.903 -21.696  1.00  0.00     0.027 C 
HETATM    5  C11 UNL     1      -5.078  49.861 -21.194  1.00  0.00    -0.036 C 
HETATM    6  C12 UNL     1      -4.689  48.906 -20.308  1.00  0.00     0.002 C 
HETATM    7  C13 UNL     1      -3.209  48.778 -20.000  1.00  0.00     0.157 C 
HETATM    8  O1  UNL     1      -2.769  47.814 -19.377  1.00  0.00    -0.293 OA
HETATM    9  C14 UNL     1      -2.246  49.855 -20.470  1.00  0.00     0.093 C 
HETATM   10  C15 UNL     1      -2.645  50.385 -21.846  1.00  0.00    -0.026 C 
HETATM   11  C16 UNL     1      -2.507  49.268 -22.912  1.00  0.00     0.016 C 
HETATM   12  C17 UNL     1      -5.685  47.931 -19.623  1.00  0.00    -0.006 C 
HETATM   13  C18 UNL     1      -5.597  46.603 -20.411  1.00  0.00     0.021 C 
HETATM   14  C19 UNL     1      -5.353  47.676 -18.121  1.00  0.00     0.022 C 
HETATM   15  C20 UNL     1      -6.372  46.807 -17.396  1.00  0.00     0.083 C 
HETATM   16  C21 UNL     1      -7.762  47.369 -17.516  1.00  0.00     0.161 C 
HETATM   17  O2  UNL     1      -8.504  47.413 -16.533  1.00  0.00    -0.295 OA
HETATM   18  C22 UNL     1      -8.237  47.761 -18.929  1.00  0.00     0.119 C 
HETATM   19  C23 UNL     1      -9.552  48.551 -18.812  1.00  0.00     0.055 C 
HETATM   20  C24 UNL     1      -7.124  48.591 -19.631  1.00  0.00     0.043 C 
HETATM   21  C25 UNL     1      -7.498  48.995 -21.058  1.00  0.00     0.045 C 
HETATM   22  C26 UNL     1      -6.520  50.028 -21.616  1.00  0.00     0.148 C 
ENDROOT
BRANCH   1  23
HETATM   23  C5  UNL     1      -0.505  51.616 -22.930  1.00  0.00    -0.014 C 
HETATM   24  C6  UNL     1       0.425  52.705 -22.382  1.00  0.00     0.010 C 
BRANCH  23  25
HETATM   25  C4  UNL     1      -0.591  51.739 -24.479  1.00  0.00     0.009 C 
BRANCH  25  26
HETATM   26  C3  UNL     1       0.541  52.561 -25.122  1.00  0.00     0.034 C 
BRANCH  26  27
HETATM   27  C2  UNL     1       0.985  52.135 -26.509  1.00  0.00    -0.075 C 
HETATM   28  C1  UNL     1       2.241  51.685 -26.695  1.00  0.00     0.015 C 
BRANCH  27  29
HETATM   29  C27 UNL     1      -0.064  52.232 -27.617  1.00  0.00     0.107 C 
HETATM   30  C28 UNL     1      -1.238  51.252 -27.524  1.00  0.00     0.026 C 
BRANCH  29  31
HETATM   31  C29 UNL     1      -0.631  53.645 -27.665  1.00  0.00     0.147 C 
HETATM   32  O5  UNL     1      -0.050  54.687 -27.408  1.00  0.00    -0.650 OA
BRANCH  31  33
HETATM   33  O6  UNL     1      -1.926  53.671 -28.046  1.00  0.00    -0.776 OA
HETATM   34  H42 UNL     1      -2.148  54.627 -28.041  1.00  0.00     0.167 HD
ENDBRANCH  31  33
ENDBRANCH  29  31
ENDBRANCH  27  29
ENDBRANCH  26  27
ENDBRANCH  25  26
ENDBRANCH  23  25
ENDBRANCH   1  23
BRANCH  22  35
HETATM   35  O4  UNL     1      -6.617  49.966 -23.034  1.00  0.00    -0.391 OA
HETATM   36  H37 UNL     1      -6.274  49.099 -23.312  1.00  0.00     0.210 HD
ENDBRANCH  22  35
BRANCH  18  37
HETATM   37  O3  UNL     1      -8.517  46.581 -19.676  1.00  0.00    -0.382 OA
HETATM   38  H32 UNL     1      -9.265  46.130 -19.240  1.00  0.00     0.211 HD
ENDBRANCH  18  37
TORSDOF 9
ENDMDL
MODEL 9
REMARK minimizedAffinity -9.35227394
REMARK  9 active torsions:
REMARK  status: ('A' for Active; 'I' for Inactive)
REMARK    1  A    between atoms: C2_2  and  C3_3 
REMARK    2  A    between atoms: C2_2  and  C27_31 
REMARK    3  A    between atoms: C3_3  and  C4_4 
REMARK    4  A    between atoms: C4_4  and  C5_5 
REMARK    5  A    between atoms: C5_5  and  C7_7 
REMARK    6  A    between atoms: C22_24  and  O3_26 
REMARK    7  A    between atoms: C26_29  and  O4_30 
REMARK    8  A    between atoms: C27_31  and  C29_33 
REMARK    9  A    between atoms: C29_33  and  O6_35 
ROOT
HETATM    1  C7  UNL     1      -5.867  49.484 -22.002  1.00  0.00    -0.002 C 
HETATM    2  C8  UNL     1      -5.205  49.744 -20.617  1.00  0.00     0.006 C 
HETATM    3  C9  UNL     1      -3.843  50.397 -20.883  1.00  0.00     0.010 C 
HETATM    4  C10 UNL     1      -3.906  50.798 -22.354  1.00  0.00     0.027 C 
HETATM    5  C11 UNL     1      -2.679  51.239 -23.131  1.00  0.00    -0.036 C 
HETATM    6  C12 UNL     1      -2.653  51.171 -24.489  1.00  0.00     0.002 C 
HETATM    7  C13 UNL     1      -3.789  50.449 -25.191  1.00  0.00     0.157 C 
HETATM    8  O1  UNL     1      -3.724  50.171 -26.386  1.00  0.00    -0.293 OA
HETATM    9  C14 UNL     1      -5.030  50.058 -24.406  1.00  0.00     0.093 C 
HETATM   10  C15 UNL     1      -4.666  49.610 -22.992  1.00  0.00    -0.026 C 
HETATM   11  C16 UNL     1      -3.826  48.308 -23.040  1.00  0.00     0.016 C 
HETATM   12  C17 UNL     1      -1.504  51.773 -25.344  1.00  0.00    -0.006 C 
HETATM   13  C18 UNL     1      -0.578  50.590 -25.712  1.00  0.00     0.021 C 
HETATM   14  C19 UNL     1      -2.013  52.468 -26.643  1.00  0.00     0.022 C 
HETATM   15  C20 UNL     1      -0.920  53.159 -27.449  1.00  0.00     0.083 C 
HETATM   16  C21 UNL     1      -0.159  54.150 -26.612  1.00  0.00     0.161 C 
HETATM   17  O2  UNL     1       0.116  55.264 -27.060  1.00  0.00    -0.295 OA
HETATM   18  C22 UNL     1       0.353  53.660 -25.244  1.00  0.00     0.119 C 
HETATM   19  C23 UNL     1       0.858  54.869 -24.438  1.00  0.00     0.055 C 
HETATM   20  C24 UNL     1      -0.794  52.912 -24.506  1.00  0.00     0.043 C 
HETATM   21  C25 UNL     1      -0.362  52.358 -23.146  1.00  0.00     0.045 C 
HETATM   22  C26 UNL     1      -1.565  51.878 -22.335  1.00  0.00     0.148 C 
ENDROOT
BRANCH   1  23
HETATM   23  C5  UNL     1      -6.729  48.185 -22.001  1.00  0.00    -0.014 C 
HETATM   24  C6  UNL     1      -5.861  46.929 -22.149  1.00  0.00     0.010 C 
BRANCH  23  25
HETATM   25  C4  UNL     1      -7.782  48.224 -23.146  1.00  0.00     0.009 C 
BRANCH  25  26
HETATM   26  C3  UNL     1      -7.387  47.438 -24.410  1.00  0.00     0.034 C 
BRANCH  26  27
HETATM   27  C2  UNL     1      -8.522  46.991 -25.314  1.00  0.00    -0.075 C 
HETATM   28  C1  UNL     1      -9.214  45.877 -25.009  1.00  0.00     0.015 C 
BRANCH  27  29
HETATM   29  C27 UNL     1      -8.816  47.879 -26.523  1.00  0.00     0.107 C 
HETATM   30  C28 UNL     1      -9.165  47.151 -27.826  1.00  0.00     0.026 C 
BRANCH  29  31
HETATM   31  C29 UNL     1      -9.955  48.834 -26.195  1.00  0.00     0.147 C 
HETATM   32  O5  UNL     1     -11.148  48.578 -26.142  1.00  0.00    -0.650 OA
BRANCH  31  33
HETATM   33  O6  UNL     1      -9.523  50.088 -25.939  1.00  0.00    -0.776 OA
HETATM   34  H42 UNL     1     -10.349  50.579 -25.738  1.00  0.00     0.167 HD
ENDBRANCH  31  33
ENDBRANCH  29  31
ENDBRANCH  27  29
ENDBRANCH  26  27
ENDBRANCH  25  26
ENDBRANCH  23  25
ENDBRANCH   1  23
BRANCH  22  35
HETATM   35  O4  UNL     1      -1.072  50.957 -21.370  1.00  0.00    -0.391 OA
HETATM   36  H37 UNL     1      -0.748  50.176 -21.851  1.00  0.00     0.210 HD
ENDBRANCH  22  35
BRANCH  18  37
HETATM   37  O3  UNL     1       1.463  52.789 -25.440  1.00  0.00    -0.382 OA
HETATM   38  H32 UNL     1       2.181  53.315 -25.840  1.00  0.00     0.211 HD
ENDBRANCH  18  37
TORSDOF 9
ENDMDL
