MODEL 1
REMARK minimizedAffinity -10.3123169
REMARK CNNscore 0.338940352
REMARK CNNaffinity 7.02842665
REMARK  11 active torsions:
REMARK  status: ('A' for Active; 'I' for Inactive)
REMARK    1  A    between atoms: C2_2  and  O1_4 
REMARK    2  A    between atoms: C2_2  and  C4_5 
REMARK    3  A    between atoms: C5_6  and  C6_7 
REMARK    4  A    between atoms: C6_7  and  C7_8 
REMARK    5  A    between atoms: C7_8  and  C8_9 
REMARK    6  A    between atoms: C7_8  and  C14_21 
REMARK    7  A    between atoms: C8_9  and  O3_11 
REMARK    8  A    between atoms: O3_11  and  C9_12 
REMARK    9  A    between atoms: C11_15  and  O5_16 
REMARK   10  A    between atoms: C12_17  and  O6_18 
REMARK   11  A    between atoms: C13_19  and  O7_20 
ROOT
HETATM    1  C7  UNL     1      -3.405  49.972 -26.079  1.00  0.00     0.094 C 
ENDROOT
BRANCH   1   2
HETATM    2  C6  UNL     1      -1.932  49.521 -26.128  1.00  0.00     0.042 C 
BRANCH   2   3
HETATM    3  C5  UNL     1      -1.032  50.552 -26.772  1.00  0.00    -0.027 C 
HETATM    4  C4  UNL     1       0.143  50.942 -26.248  1.00  0.00     0.006 C 
BRANCH   4   5
HETATM    5  C2  UNL     1       1.129  51.934 -26.822  1.00  0.00     0.068 C 
HETATM    6  C1  UNL     1       2.556  51.427 -26.594  1.00  0.00     0.050 C 
HETATM    7  C3  UNL     1       0.924  52.271 -28.300  1.00  0.00     0.050 C 
BRANCH   5   8
HETATM    8  O1  UNL     1       0.972  53.137 -26.070  1.00  0.00    -0.387 OA
HETATM    9  H7  UNL     1       0.052  53.419 -26.197  1.00  0.00     0.211 HD
ENDBRANCH   5   8
ENDBRANCH   4   5
ENDBRANCH   2   3
ENDBRANCH   1   2
BRANCH   1  10
HETATM   10  C8  UNL     1      -4.274  48.835 -26.604  1.00  0.00     0.266 C 
HETATM   11  O2  UNL     1      -4.588  47.860 -25.930  1.00  0.00    -0.265 OA
BRANCH  10  12
HETATM   12  O3  UNL     1      -4.664  49.048 -27.890  1.00  0.00    -0.287 OA
BRANCH  12  13
HETATM   13  C9  UNL     1      -4.977  47.852 -28.613  1.00  0.00     0.300 C 
HETATM   14  O4  UNL     1      -4.541  47.981 -29.985  1.00  0.00    -0.355 OA
HETATM   15  C10 UNL     1      -5.546  48.541 -30.831  1.00  0.00     0.205 C 
HETATM   16  C11 UNL     1      -6.696  47.537 -30.991  1.00  0.00     0.173 C 
HETATM   17  C12 UNL     1      -6.895  46.688 -29.717  1.00  0.00     0.182 C 
HETATM   18  C13 UNL     1      -6.486  47.485 -28.484  1.00  0.00     0.205 C 
BRANCH  16  19
HETATM   19  O5  UNL     1      -6.431  46.627 -32.075  1.00  0.00    -0.391 OA
HETATM   20  H17 UNL     1      -5.503  46.339 -31.989  1.00  0.00     0.210 HD
ENDBRANCH  16  19
BRANCH  17  21
HETATM   21  O6  UNL     1      -8.276  46.306 -29.607  1.00  0.00    -0.390 OA
HETATM   22  H19 UNL     1      -8.505  45.884 -30.456  1.00  0.00     0.210 HD
ENDBRANCH  17  21
BRANCH  18  23
HETATM   23  O7  UNL     1      -7.330  48.655 -28.417  1.00  0.00    -0.388 OA
HETATM   24  H21 UNL     1      -8.239  48.303 -28.354  1.00  0.00     0.210 HD
ENDBRANCH  18  23
ENDBRANCH  12  13
ENDBRANCH  10  12
ENDBRANCH   1  10
BRANCH   1  25
HETATM   25  C14 UNL     1      -3.953  50.475 -24.714  1.00  0.00     0.009 C 
HETATM   26  C15 UNL     1      -5.428  50.135 -24.370  1.00  0.00     0.007 C 
HETATM   27  C16 UNL     1      -5.509  49.971 -22.834  1.00  0.00     0.015 C 
HETATM   28  C17 UNL     1      -4.176  50.539 -22.303  1.00  0.00    -0.013 C 
HETATM   29  C18 UNL     1      -4.359  52.088 -22.195  1.00  0.00     0.021 C 
HETATM   30  C19 UNL     1      -3.658  50.112 -20.932  1.00  0.00    -0.068 C 
HETATM   31  C23 UNL     1      -3.190  50.048 -23.423  1.00  0.00    -0.028 C 
HETATM   32  C20 UNL     1      -2.324  50.103 -20.678  1.00  0.00    -0.068 C 
HETATM   33  C35 UNL     1      -4.705  49.792 -19.895  1.00  0.00     0.036 C 
HETATM   34  C21 UNL     1      -1.301  50.430 -21.776  1.00  0.00     0.036 C 
HETATM   35  C25 UNL     1      -1.758  49.719 -19.283  1.00  0.00    -0.015 C 
HETATM   36  C22 UNL     1      -1.837  50.726 -23.194  1.00  0.00     0.015 C 
HETATM   37  C26 UNL     1      -1.338  48.233 -19.351  1.00  0.00     0.020 C 
HETATM   38  C27 UNL     1      -0.549  50.607 -18.913  1.00  0.00     0.021 C 
HETATM   39  C33 UNL     1      -2.835  49.993 -18.181  1.00  0.00     0.013 C 
HETATM   40  C28 UNL     1       0.045  50.355 -17.540  1.00  0.00     0.080 C 
HETATM   41  C29 UNL     1      -0.852  49.651 -16.549  1.00  0.00     0.135 C 
HETATM   42  O8  UNL     1      -0.331  49.080 -15.586  1.00  0.00    -0.297 OA
HETATM   43  C30 UNL     1      -2.376  49.731 -16.703  1.00  0.00     0.018 C 
HETATM   44  C31 UNL     1      -2.824  50.912 -15.814  1.00  0.00     0.023 C 
HETATM   45  C32 UNL     1      -2.973  48.438 -16.101  1.00  0.00     0.023 C 
HETATM   46  C34 UNL     1      -4.164  49.314 -18.549  1.00  0.00     0.011 C 
HETATM   47  C24 UNL     1      -2.964  48.504 -23.420  1.00  0.00     0.016 C 
ENDBRANCH   1  25
TORSDOF 11
ENDMDL
MODEL 2
REMARK minimizedAffinity -10.4841452
REMARK CNNscore 0.318846643
REMARK CNNaffinity 7.22879028
REMARK  11 active torsions:
REMARK  status: ('A' for Active; 'I' for Inactive)
REMARK    1  A    between atoms: C2_2  and  O1_4 
REMARK    2  A    between atoms: C2_2  and  C4_5 
REMARK    3  A    between atoms: C5_6  and  C6_7 
REMARK    4  A    between atoms: C6_7  and  C7_8 
REMARK    5  A    between atoms: C7_8  and  C8_9 
REMARK    6  A    between atoms: C7_8  and  C14_21 
REMARK    7  A    between atoms: C8_9  and  O3_11 
REMARK    8  A    between atoms: O3_11  and  C9_12 
REMARK    9  A    between atoms: C11_15  and  O5_16 
REMARK   10  A    between atoms: C12_17  and  O6_18 
REMARK   11  A    between atoms: C13_19  and  O7_20 
ROOT
HETATM    1  C7  UNL     1      -0.150  51.377 -21.864  1.00  0.00     0.094 C 
ENDROOT
BRANCH   1   2
HETATM    2  C6  UNL     1      -0.922  52.505 -22.578  1.00  0.00     0.042 C 
BRANCH   2   3
HETATM    3  C5  UNL     1      -0.567  52.613 -24.043  1.00  0.00    -0.027 C 
HETATM    4  C4  UNL     1       0.460  51.953 -24.608  1.00  0.00     0.006 C 
BRANCH   4   5
HETATM    5  C2  UNL     1       0.882  51.964 -26.060  1.00  0.00     0.068 C 
HETATM    6  C1  UNL     1       2.324  51.465 -26.177  1.00  0.00     0.050 C 
HETATM    7  C3  UNL     1      -0.025  51.171 -27.004  1.00  0.00     0.050 C 
BRANCH   5   8
HETATM    8  O1  UNL     1       0.861  53.329 -26.474  1.00  0.00    -0.387 OA
HETATM    9  H7  UNL     1      -0.053  53.637 -26.354  1.00  0.00     0.211 HD
ENDBRANCH   5   8
ENDBRANCH   4   5
ENDBRANCH   2   3
ENDBRANCH   1   2
BRANCH   1  10
HETATM   10  C8  UNL     1       0.344  51.906 -20.523  1.00  0.00     0.266 C 
HETATM   11  O2  UNL     1       0.931  52.975 -20.393  1.00  0.00    -0.265 OA
BRANCH  10  12
HETATM   12  O3  UNL     1       0.037  51.061 -19.501  1.00  0.00    -0.287 OA
BRANCH  12  13
HETATM   13  C9  UNL     1      -0.354  51.720 -18.292  1.00  0.00     0.300 C 
HETATM   14  O4  UNL     1       0.671  52.656 -17.891  1.00  0.00    -0.355 OA
HETATM   15  C10 UNL     1       1.653  52.064 -17.038  1.00  0.00     0.205 C 
HETATM   16  C11 UNL     1       1.017  51.737 -15.679  1.00  0.00     0.173 C 
HETATM   17  C12 UNL     1      -0.471  51.353 -15.822  1.00  0.00     0.182 C 
HETATM   18  C13 UNL     1      -0.718  50.697 -17.175  1.00  0.00     0.205 C 
BRANCH  16  19
HETATM   19  O5  UNL     1       1.084  52.875 -14.799  1.00  0.00    -0.391 OA
HETATM   20  H17 UNL     1       0.818  53.657 -15.319  1.00  0.00     0.210 HD
ENDBRANCH  16  19
BRANCH  17  21
HETATM   21  O6  UNL     1      -0.832  50.440 -14.772  1.00  0.00    -0.390 OA
HETATM   22  H19 UNL     1      -0.568  50.874 -13.938  1.00  0.00     0.210 HD
ENDBRANCH  17  21
BRANCH  18  23
HETATM   23  O7  UNL     1       0.094  49.504 -17.240  1.00  0.00    -0.388 OA
HETATM   24  H21 UNL     1      -0.212  48.954 -16.493  1.00  0.00     0.210 HD
ENDBRANCH  18  23
ENDBRANCH  12  13
ENDBRANCH  10  12
ENDBRANCH   1  10
BRANCH   1  25
HETATM   25  C14 UNL     1      -0.888  50.024 -21.663  1.00  0.00     0.009 C 
HETATM   26  C15 UNL     1      -1.097  49.537 -20.204  1.00  0.00     0.007 C 
HETATM   27  C16 UNL     1      -2.425  48.743 -20.178  1.00  0.00     0.015 C 
HETATM   28  C17 UNL     1      -2.777  48.507 -21.661  1.00  0.00    -0.013 C 
HETATM   29  C18 UNL     1      -1.976  47.245 -22.118  1.00  0.00     0.021 C 
HETATM   30  C19 UNL     1      -4.221  48.220 -22.064  1.00  0.00    -0.068 C 
HETATM   31  C23 UNL     1      -2.310  49.871 -22.285  1.00  0.00    -0.028 C 
HETATM   32  C20 UNL     1      -4.668  48.567 -23.300  1.00  0.00    -0.068 C 
HETATM   33  C35 UNL     1      -5.058  47.476 -21.055  1.00  0.00     0.036 C 
HETATM   34  C21 UNL     1      -3.772  49.333 -24.285  1.00  0.00     0.036 C 
HETATM   35  C25 UNL     1      -6.116  48.251 -23.766  1.00  0.00    -0.015 C 
HETATM   36  C22 UNL     1      -2.360  49.737 -23.809  1.00  0.00     0.015 C 
HETATM   37  C26 UNL     1      -6.956  49.532 -23.553  1.00  0.00     0.020 C 
HETATM   38  C27 UNL     1      -6.138  47.829 -25.252  1.00  0.00     0.021 C 
HETATM   39  C33 UNL     1      -6.673  47.024 -22.971  1.00  0.00     0.013 C 
HETATM   40  C28 UNL     1      -7.501  47.441 -25.795  1.00  0.00     0.080 C 
HETATM   41  C29 UNL     1      -8.539  47.058 -24.767  1.00  0.00     0.135 C 
HETATM   42  O8  UNL     1      -9.731  47.111 -25.086  1.00  0.00    -0.297 OA
HETATM   43  C30 UNL     1      -8.102  46.532 -23.394  1.00  0.00     0.018 C 
HETATM   44  C31 UNL     1      -8.094  44.992 -23.520  1.00  0.00     0.023 C 
HETATM   45  C32 UNL     1      -9.202  46.914 -22.378  1.00  0.00     0.023 C 
HETATM   46  C34 UNL     1      -6.514  47.247 -21.458  1.00  0.00     0.011 C 
HETATM   47  C24 UNL     1      -3.206  51.082 -21.877  1.00  0.00     0.016 C 
ENDBRANCH   1  25
TORSDOF 11
ENDMDL
MODEL 3
REMARK minimizedAffinity -8.12219524
REMARK CNNscore 0.315121919
REMARK CNNaffinity 5.58893204
REMARK  11 active torsions:
REMARK  status: ('A' for Active; 'I' for Inactive)
REMARK    1  A    between atoms: C2_2  and  O1_4 
REMARK    2  A    between atoms: C2_2  and  C4_5 
REMARK    3  A    between atoms: C5_6  and  C6_7 
REMARK    4  A    between atoms: C6_7  and  C7_8 
REMARK    5  A    between atoms: C7_8  and  C8_9 
REMARK    6  A    between atoms: C7_8  and  C14_21 
REMARK    7  A    between atoms: C8_9  and  O3_11 
REMARK    8  A    between atoms: O3_11  and  C9_12 
REMARK    9  A    between atoms: C11_15  and  O5_16 
REMARK   10  A    between atoms: C12_17  and  O6_18 
REMARK   11  A    between atoms: C13_19  and  O7_20 
ROOT
HETATM    1  C7  UNL     1       6.745  66.904 -36.417  1.00  0.00     0.094 C 
ENDROOT
BRANCH   1   2
HETATM    2  C6  UNL     1       8.170  67.358 -36.790  1.00  0.00     0.042 C 
BRANCH   2   3
HETATM    3  C5  UNL     1       8.328  67.614 -38.272  1.00  0.00    -0.027 C 
HETATM    4  C4  UNL     1       8.916  68.713 -38.776  1.00  0.00     0.006 C 
BRANCH   4   5
HETATM    5  C2  UNL     1       9.153  69.051 -40.231  1.00  0.00     0.068 C 
HETATM    6  C1  UNL     1       8.528  67.969 -41.115  1.00  0.00     0.050 C 
HETATM    7  C3  UNL     1       8.656  70.432 -40.665  1.00  0.00     0.050 C 
BRANCH   5   8
HETATM    8  O1  UNL     1      10.565  69.010 -40.428  1.00  0.00    -0.387 OA
HETATM    9  H7  UNL     1      10.944  69.675 -39.830  1.00  0.00     0.211 HD
ENDBRANCH   5   8
ENDBRANCH   4   5
ENDBRANCH   2   3
ENDBRANCH   1   2
BRANCH   1  10
HETATM   10  C8  UNL     1       6.787  66.279 -35.028  1.00  0.00     0.266 C 
HETATM   11  O2  UNL     1       7.067  66.907 -34.013  1.00  0.00    -0.265 OA
BRANCH  10  12
HETATM   12  O3  UNL     1       6.460  64.958 -35.057  1.00  0.00    -0.287 OA
BRANCH  12  13
HETATM   13  C9  UNL     1       5.127  64.674 -34.617  1.00  0.00     0.300 C 
HETATM   14  O4  UNL     1       4.725  65.638 -33.619  1.00  0.00    -0.355 OA
HETATM   15  C10 UNL     1       5.059  65.228 -32.292  1.00  0.00     0.205 C 
HETATM   16  C11 UNL     1       4.188  64.028 -31.896  1.00  0.00     0.173 C 
HETATM   17  C12 UNL     1       3.859  63.134 -33.110  1.00  0.00     0.182 C 
HETATM   18  C13 UNL     1       4.987  63.199 -34.133  1.00  0.00     0.205 C 
BRANCH  16  19
HETATM   19  O5  UNL     1       2.936  64.469 -31.337  1.00  0.00    -0.391 OA
HETATM   20  H17 UNL     1       2.600  65.183 -31.912  1.00  0.00     0.210 HD
ENDBRANCH  16  19
BRANCH  17  21
HETATM   21  O6  UNL     1       3.686  61.776 -32.673  1.00  0.00    -0.390 OA
HETATM   22  H19 UNL     1       3.022  61.808 -31.958  1.00  0.00     0.210 HD
ENDBRANCH  17  21
BRANCH  18  23
HETATM   23  O7  UNL     1       6.190  62.717 -33.493  1.00  0.00    -0.388 OA
HETATM   24  H21 UNL     1       5.978  61.802 -33.224  1.00  0.00     0.210 HD
ENDBRANCH  18  23
ENDBRANCH  12  13
ENDBRANCH  10  12
ENDBRANCH   1  10
BRANCH   1  25
HETATM   25  C14 UNL     1       5.615  67.969 -36.488  1.00  0.00     0.009 C 
HETATM   26  C15 UNL     1       6.039  69.461 -36.434  1.00  0.00     0.007 C 
HETATM   27  C16 UNL     1       5.015  70.253 -37.282  1.00  0.00     0.015 C 
HETATM   28  C17 UNL     1       3.854  69.268 -37.527  1.00  0.00    -0.013 C 
HETATM   29  C18 UNL     1       2.933  69.337 -36.265  1.00  0.00     0.021 C 
HETATM   30  C19 UNL     1       2.911  69.479 -38.709  1.00  0.00    -0.068 C 
HETATM   31  C23 UNL     1       4.651  67.927 -37.712  1.00  0.00    -0.028 C 
HETATM   32  C20 UNL     1       2.291  68.418 -39.286  1.00  0.00    -0.068 C 
HETATM   33  C35 UNL     1       2.667  70.910 -39.118  1.00  0.00     0.036 C 
HETATM   34  C21 UNL     1       2.584  66.980 -38.834  1.00  0.00     0.036 C 
HETATM   35  C25 UNL     1       1.289  68.594 -40.462  1.00  0.00    -0.015 C 
HETATM   36  C22 UNL     1       3.644  66.775 -37.730  1.00  0.00     0.015 C 
HETATM   37  C26 UNL     1       2.066  68.328 -41.771  1.00  0.00     0.020 C 
HETATM   38  C27 UNL     1       0.102  67.615 -40.327  1.00  0.00     0.021 C 
HETATM   39  C33 UNL     1       0.661  70.027 -40.412  1.00  0.00     0.013 C 
HETATM   40  C28 UNL     1      -0.969  67.744 -41.395  1.00  0.00     0.080 C 
HETATM   41  C29 UNL     1      -1.004  69.056 -42.142  1.00  0.00     0.135 C 
HETATM   42  O8  UNL     1      -1.561  69.091 -43.244  1.00  0.00    -0.297 OA
HETATM   43  C30 UNL     1      -0.438  70.324 -41.492  1.00  0.00     0.018 C 
HETATM   44  C31 UNL     1      -1.640  71.020 -40.816  1.00  0.00     0.023 C 
HETATM   45  C32 UNL     1       0.060  71.247 -42.628  1.00  0.00     0.023 C 
HETATM   46  C34 UNL     1       1.765  71.094 -40.336  1.00  0.00     0.011 C 
HETATM   47  C24 UNL     1       5.472  67.870 -39.038  1.00  0.00     0.016 C 
ENDBRANCH   1  25
TORSDOF 11
ENDMDL
MODEL 4
REMARK minimizedAffinity -10.3699484
REMARK CNNscore 0.283954412
REMARK CNNaffinity 7.14920473
REMARK  11 active torsions:
REMARK  status: ('A' for Active; 'I' for Inactive)
REMARK    1  A    between atoms: C2_2  and  O1_4 
REMARK    2  A    between atoms: C2_2  and  C4_5 
REMARK    3  A    between atoms: C5_6  and  C6_7 
REMARK    4  A    between atoms: C6_7  and  C7_8 
REMARK    5  A    between atoms: C7_8  and  C8_9 
REMARK    6  A    between atoms: C7_8  and  C14_21 
REMARK    7  A    between atoms: C8_9  and  O3_11 
REMARK    8  A    between atoms: O3_11  and  C9_12 
REMARK    9  A    between atoms: C11_15  and  O5_16 
REMARK   10  A    between atoms: C12_17  and  O6_18 
REMARK   11  A    between atoms: C13_19  and  O7_20 
ROOT
HETATM    1  C7  UNL     1      -0.413  52.548 -21.042  1.00  0.00     0.094 C 
ENDROOT
BRANCH   1   2
HETATM    2  C6  UNL     1       0.185  53.373 -19.885  1.00  0.00     0.042 C 
BRANCH   2   3
HETATM    3  C5  UNL     1       0.533  52.520 -18.686  1.00  0.00    -0.027 C 
HETATM    4  C4  UNL     1       1.288  52.954 -17.661  1.00  0.00     0.006 C 
BRANCH   4   5
HETATM    5  C2  UNL     1       1.667  52.200 -16.406  1.00  0.00     0.068 C 
HETATM    6  C1  UNL     1       1.051  50.799 -16.446  1.00  0.00     0.050 C 
HETATM    7  C3  UNL     1       3.170  52.103 -16.138  1.00  0.00     0.050 C 
BRANCH   5   8
HETATM    8  O1  UNL     1       1.071  52.904 -15.319  1.00  0.00    -0.387 OA
HETATM    9  H7  UNL     1       1.445  53.801 -15.336  1.00  0.00     0.211 HD
ENDBRANCH   5   8
ENDBRANCH   4   5
ENDBRANCH   2   3
ENDBRANCH   1   2
BRANCH   1  10
HETATM   10  C8  UNL     1       0.453  52.757 -22.279  1.00  0.00     0.266 C 
HETATM   11  O2  UNL     1       1.515  53.369 -22.264  1.00  0.00    -0.265 OA
BRANCH  10  12
HETATM   12  O3  UNL     1      -0.089  52.170 -23.381  1.00  0.00    -0.287 OA
BRANCH  12  13
HETATM   13  C9  UNL     1      -0.161  53.027 -24.526  1.00  0.00     0.300 C 
HETATM   14  O4  UNL     1      -1.543  53.274 -24.867  1.00  0.00    -0.355 OA
HETATM   15  C10 UNL     1      -2.066  52.309 -25.781  1.00  0.00     0.205 C 
HETATM   16  C11 UNL     1      -1.398  52.490 -27.151  1.00  0.00     0.173 C 
HETATM   17  C12 UNL     1       0.061  52.976 -27.016  1.00  0.00     0.182 C 
HETATM   18  C13 UNL     1       0.669  52.461 -25.717  1.00  0.00     0.205 C 
BRANCH  16  19
HETATM   19  O5  UNL     1      -2.104  53.468 -27.936  1.00  0.00    -0.391 OA
HETATM   20  H17 UNL     1      -2.294  54.226 -27.351  1.00  0.00     0.210 HD
ENDBRANCH  16  19
BRANCH  17  21
HETATM   21  O6  UNL     1       0.831  52.495 -28.130  1.00  0.00    -0.390 OA
HETATM   22  H19 UNL     1       0.347  52.776 -28.930  1.00  0.00     0.210 HD
ENDBRANCH  17  21
BRANCH  18  23
HETATM   23  O7  UNL     1       0.646  51.017 -25.763  1.00  0.00    -0.388 OA
HETATM   24  H21 UNL     1       1.180  50.785 -26.547  1.00  0.00     0.210 HD
ENDBRANCH  18  23
ENDBRANCH  12  13
ENDBRANCH  10  12
ENDBRANCH   1  10
BRANCH   1  25
HETATM   25  C14 UNL     1      -0.632  51.028 -20.798  1.00  0.00     0.009 C 
HETATM   26  C15 UNL     1      -0.230  50.466 -19.409  1.00  0.00     0.007 C 
HETATM   27  C16 UNL     1      -1.199  49.301 -19.094  1.00  0.00     0.015 C 
HETATM   28  C17 UNL     1      -1.911  49.004 -20.430  1.00  0.00    -0.013 C 
HETATM   29  C18 UNL     1      -0.965  48.061 -21.244  1.00  0.00     0.021 C 
HETATM   30  C19 UNL     1      -3.262  48.295 -20.433  1.00  0.00    -0.068 C 
HETATM   31  C23 UNL     1      -2.070  50.460 -20.998  1.00  0.00    -0.028 C 
HETATM   32  C20 UNL     1      -4.149  48.517 -21.437  1.00  0.00    -0.068 C 
HETATM   33  C35 UNL     1      -3.496  47.305 -19.320  1.00  0.00     0.036 C 
HETATM   34  C21 UNL     1      -3.861  49.545 -22.541  1.00  0.00     0.036 C 
HETATM   35  C25 UNL     1      -5.517  47.782 -21.501  1.00  0.00    -0.015 C 
HETATM   36  C22 UNL     1      -2.549  50.354 -22.448  1.00  0.00     0.015 C 
HETATM   37  C26 UNL     1      -6.578  48.735 -20.907  1.00  0.00     0.020 C 
HETATM   38  C27 UNL     1      -5.876  47.409 -22.956  1.00  0.00     0.021 C 
HETATM   39  C33 UNL     1      -5.424  46.424 -20.729  1.00  0.00     0.013 C 
HETATM   40  C28 UNL     1      -7.169  46.633 -23.127  1.00  0.00     0.080 C 
HETATM   41  C29 UNL     1      -7.683  45.924 -21.896  1.00  0.00     0.135 C 
HETATM   42  O8  UNL     1      -8.877  45.615 -21.849  1.00  0.00    -0.297 OA
HETATM   43  C30 UNL     1      -6.710  45.525 -20.778  1.00  0.00     0.018 C 
HETATM   44  C31 UNL     1      -6.301  44.067 -21.081  1.00  0.00     0.023 C 
HETATM   45  C32 UNL     1      -7.502  45.525 -19.451  1.00  0.00     0.023 C 
HETATM   46  C34 UNL     1      -4.876  46.648 -19.311  1.00  0.00     0.011 C 
HETATM   47  C24 UNL     1      -3.103  51.326 -20.211  1.00  0.00     0.016 C 
ENDBRANCH   1  25
TORSDOF 11
ENDMDL
MODEL 5
REMARK minimizedAffinity -8.15189743
REMARK CNNscore 0.266755432
REMARK CNNaffinity 6.29672813
REMARK  11 active torsions:
REMARK  status: ('A' for Active; 'I' for Inactive)
REMARK    1  A    between atoms: C2_2  and  O1_4 
REMARK    2  A    between atoms: C2_2  and  C4_5 
REMARK    3  A    between atoms: C5_6  and  C6_7 
REMARK    4  A    between atoms: C6_7  and  C7_8 
REMARK    5  A    between atoms: C7_8  and  C8_9 
REMARK    6  A    between atoms: C7_8  and  C14_21 
REMARK    7  A    between atoms: C8_9  and  O3_11 
REMARK    8  A    between atoms: O3_11  and  C9_12 
REMARK    9  A    between atoms: C11_15  and  O5_16 
REMARK   10  A    between atoms: C12_17  and  O6_18 
REMARK   11  A    between atoms: C13_19  and  O7_20 
ROOT
HETATM    1  C7  UNL     1      -8.988  44.897 -31.490  1.00  0.00     0.094 C 
ENDROOT
BRANCH   1   2
HETATM    2  C6  UNL     1      -8.488  46.355 -31.456  1.00  0.00     0.042 C 
BRANCH   2   3
HETATM    3  C5  UNL     1      -6.995  46.461 -31.669  1.00  0.00    -0.027 C 
HETATM    4  C4  UNL     1      -6.410  47.476 -32.330  1.00  0.00     0.006 C 
BRANCH   4   5
HETATM    5  C2  UNL     1      -4.933  47.694 -32.571  1.00  0.00     0.068 C 
HETATM    6  C1  UNL     1      -4.158  46.438 -32.163  1.00  0.00     0.050 C 
HETATM    7  C3  UNL     1      -4.562  48.098 -33.999  1.00  0.00     0.050 C 
BRANCH   5   8
HETATM    8  O1  UNL     1      -4.536  48.750 -31.697  1.00  0.00    -0.387 OA
HETATM    9  H7  UNL     1      -5.067  49.525 -31.946  1.00  0.00     0.211 HD
ENDBRANCH   5   8
ENDBRANCH   4   5
ENDBRANCH   2   3
ENDBRANCH   1   2
BRANCH   1  10
HETATM   10  C8  UNL     1     -10.009  44.713 -30.374  1.00  0.00     0.266 C 
HETATM   11  O2  UNL     1     -10.191  43.648 -29.794  1.00  0.00    -0.265 OA
BRANCH  10  12
HETATM   12  O3  UNL     1     -10.670  45.870 -30.096  1.00  0.00    -0.287 OA
BRANCH  12  13
HETATM   13  C9  UNL     1     -10.928  46.078 -28.703  1.00  0.00     0.300 C 
HETATM   14  O4  UNL     1     -12.267  45.640 -28.383  1.00  0.00    -0.355 OA
HETATM   15  C10 UNL     1     -13.237  46.679 -28.533  1.00  0.00     0.205 C 
HETATM   16  C11 UNL     1     -13.016  47.742 -27.448  1.00  0.00     0.173 C 
HETATM   17  C12 UNL     1     -11.524  47.884 -27.080  1.00  0.00     0.182 C 
HETATM   18  C13 UNL     1     -10.651  47.553 -28.285  1.00  0.00     0.205 C 
BRANCH  16  19
HETATM   19  O5  UNL     1     -13.723  47.394 -26.243  1.00  0.00    -0.391 OA
HETATM   20  H17 UNL     1     -13.560  46.446 -26.077  1.00  0.00     0.210 HD
ENDBRANCH  16  19
BRANCH  17  21
HETATM   21  O6  UNL     1     -11.262  49.231 -26.653  1.00  0.00    -0.390 OA
HETATM   22  H19 UNL     1     -11.908  49.417 -25.945  1.00  0.00     0.210 HD
ENDBRANCH  17  21
BRANCH  18  23
HETATM   23  O7  UNL     1     -10.978  48.490 -29.335  1.00  0.00    -0.388 OA
HETATM   24  H21 UNL     1     -10.779  49.368 -28.956  1.00  0.00     0.210 HD
ENDBRANCH  18  23
ENDBRANCH  12  13
ENDBRANCH  10  12
ENDBRANCH   1  10
BRANCH   1  25
HETATM   25  C14 UNL     1      -9.568  44.372 -32.834  1.00  0.00     0.009 C 
HETATM   26  C15 UNL     1     -10.955  43.679 -32.788  1.00  0.00     0.007 C 
HETATM   27  C16 UNL     1     -11.655  43.976 -34.136  1.00  0.00     0.015 C 
HETATM   28  C17 UNL     1     -10.544  44.542 -35.044  1.00  0.00    -0.013 C 
HETATM   29  C18 UNL     1      -9.791  43.313 -35.652  1.00  0.00     0.021 C 
HETATM   30  C19 UNL     1     -10.909  45.407 -36.247  1.00  0.00    -0.068 C 
HETATM   31  C23 UNL     1      -9.728  45.390 -34.003  1.00  0.00    -0.028 C 
HETATM   32  C20 UNL     1     -10.042  46.350 -36.700  1.00  0.00    -0.068 C 
HETATM   33  C35 UNL     1     -12.222  45.093 -36.918  1.00  0.00     0.036 C 
HETATM   34  C21 UNL     1      -8.721  46.634 -35.970  1.00  0.00     0.036 C 
HETATM   35  C25 UNL     1     -10.357  47.221 -37.948  1.00  0.00    -0.015 C 
HETATM   36  C22 UNL     1      -8.430  45.845 -34.675  1.00  0.00     0.015 C 
HETATM   37  C26 UNL     1     -10.914  48.569 -37.438  1.00  0.00     0.020 C 
HETATM   38  C27 UNL     1      -9.087  47.446 -38.798  1.00  0.00     0.021 C 
HETATM   39  C33 UNL     1     -11.361  46.465 -38.881  1.00  0.00     0.013 C 
HETATM   40  C28 UNL     1      -9.295  48.238 -40.076  1.00  0.00     0.080 C 
HETATM   41  C29 UNL     1     -10.711  48.295 -40.597  1.00  0.00     0.135 C 
HETATM   42  O8  UNL     1     -11.017  49.204 -41.374  1.00  0.00    -0.297 OA
HETATM   43  C30 UNL     1     -11.709  47.188 -40.230  1.00  0.00     0.018 C 
HETATM   44  C31 UNL     1     -11.643  46.166 -41.386  1.00  0.00     0.023 C 
HETATM   45  C32 UNL     1     -13.122  47.814 -40.237  1.00  0.00     0.023 C 
HETATM   46  C34 UNL     1     -12.593  46.007 -38.085  1.00  0.00     0.011 C 
HETATM   47  C24 UNL     1     -10.485  46.661 -33.507  1.00  0.00     0.016 C 
ENDBRANCH   1  25
TORSDOF 11
ENDMDL
MODEL 6
REMARK minimizedAffinity -8.67465591
REMARK CNNscore 0.265785813
REMARK CNNaffinity 6.40344048
REMARK  11 active torsions:
REMARK  status: ('A' for Active; 'I' for Inactive)
REMARK    1  A    between atoms: C2_2  and  O1_4 
REMARK    2  A    between atoms: C2_2  and  C4_5 
REMARK    3  A    between atoms: C5_6  and  C6_7 
REMARK    4  A    between atoms: C6_7  and  C7_8 
REMARK    5  A    between atoms: C7_8  and  C8_9 
REMARK    6  A    between atoms: C7_8  and  C14_21 
REMARK    7  A    between atoms: C8_9  and  O3_11 
REMARK    8  A    between atoms: O3_11  and  C9_12 
REMARK    9  A    between atoms: C11_15  and  O5_16 
REMARK   10  A    between atoms: C12_17  and  O6_18 
REMARK   11  A    between atoms: C13_19  and  O7_20 
ROOT
HETATM    1  C7  UNL     1      -6.040  47.434 -21.473  1.00  0.00     0.094 C 
ENDROOT
BRANCH   1   2
HETATM    2  C6  UNL     1      -6.405  46.709 -20.163  1.00  0.00     0.042 C 
BRANCH   2   3
HETATM    3  C5  UNL     1      -7.261  47.558 -19.250  1.00  0.00    -0.027 C 
HETATM    4  C4  UNL     1      -8.471  47.177 -18.802  1.00  0.00     0.006 C 
BRANCH   4   5
HETATM    5  C2  UNL     1      -9.390  47.930 -17.866  1.00  0.00     0.068 C 
HETATM    6  C1  UNL     1      -9.403  47.240 -16.499  1.00  0.00     0.050 C 
HETATM    7  C3  UNL     1      -9.069  49.416 -17.699  1.00  0.00     0.050 C 
BRANCH   5   8
HETATM    8  O1  UNL     1     -10.701  47.822 -18.418  1.00  0.00    -0.387 OA
HETATM    9  H7  UNL     1     -10.660  48.229 -19.299  1.00  0.00     0.211 HD
ENDBRANCH   5   8
ENDBRANCH   4   5
ENDBRANCH   2   3
ENDBRANCH   1   2
BRANCH   1  10
HETATM   10  C8  UNL     1      -7.329  47.761 -22.218  1.00  0.00     0.266 C 
HETATM   11  O2  UNL     1      -8.153  48.576 -21.817  1.00  0.00    -0.265 OA
BRANCH  10  12
HETATM   12  O3  UNL     1      -7.438  47.054 -23.376  1.00  0.00    -0.287 OA
BRANCH  12  13
HETATM   13  C9  UNL     1      -8.774  46.963 -23.884  1.00  0.00     0.300 C 
HETATM   14  O4  UNL     1      -8.945  45.713 -24.588  1.00  0.00    -0.355 OA
HETATM   15  C10 UNL     1      -8.617  45.812 -25.975  1.00  0.00     0.205 C 
HETATM   16  C11 UNL     1      -9.661  46.685 -26.685  1.00  0.00     0.173 C 
HETATM   17  C12 UNL     1     -10.207  47.792 -25.758  1.00  0.00     0.182 C 
HETATM   18  C13 UNL     1      -9.142  48.206 -24.749  1.00  0.00     0.205 C 
BRANCH  16  19
HETATM   19  O5  UNL     1     -10.784  45.891 -27.110  1.00  0.00    -0.391 OA
HETATM   20  H17 UNL     1     -11.021  45.304 -26.367  1.00  0.00     0.210 HD
ENDBRANCH  16  19
BRANCH  17  21
HETATM   21  O6  UNL     1     -10.590  48.931 -26.546  1.00  0.00    -0.390 OA
HETATM   22  H19 UNL     1     -11.199  48.590 -27.229  1.00  0.00     0.210 HD
ENDBRANCH  17  21
BRANCH  18  23
HETATM   23  O7  UNL     1      -8.009  48.714 -25.488  1.00  0.00    -0.388 OA
HETATM   24  H21 UNL     1      -8.363  49.470 -25.995  1.00  0.00     0.210 HD
ENDBRANCH  18  23
ENDBRANCH  12  13
ENDBRANCH  10  12
ENDBRANCH   1  10
BRANCH   1  25
HETATM   25  C14 UNL     1      -5.153  48.706 -21.362  1.00  0.00     0.009 C 
HETATM   26  C15 UNL     1      -4.075  48.727 -20.247  1.00  0.00     0.007 C 
HETATM   27  C16 UNL     1      -2.889  49.565 -20.779  1.00  0.00     0.015 C 
HETATM   28  C17 UNL     1      -3.435  50.276 -22.034  1.00  0.00    -0.013 C 
HETATM   29  C18 UNL     1      -4.179  51.558 -21.536  1.00  0.00     0.021 C 
HETATM   30  C19 UNL     1      -2.472  50.777 -23.106  1.00  0.00    -0.068 C 
HETATM   31  C23 UNL     1      -4.352  49.146 -22.625  1.00  0.00    -0.028 C 
HETATM   32  C20 UNL     1      -2.875  50.865 -24.401  1.00  0.00    -0.068 C 
HETATM   33  C35 UNL     1      -1.115  51.227 -22.625  1.00  0.00     0.036 C 
HETATM   34  C21 UNL     1      -4.267  50.384 -24.836  1.00  0.00     0.036 C 
HETATM   35  C25 UNL     1      -1.940  51.413 -25.515  1.00  0.00    -0.015 C 
HETATM   36  C22 UNL     1      -5.179  49.752 -23.762  1.00  0.00     0.015 C 
HETATM   37  C26 UNL     1      -1.310  50.194 -26.225  1.00  0.00     0.020 C 
HETATM   38  C27 UNL     1      -2.730  52.278 -26.522  1.00  0.00     0.021 C 
HETATM   39  C33 UNL     1      -0.871  52.367 -24.887  1.00  0.00     0.013 C 
HETATM   40  C28 UNL     1      -1.899  52.913 -27.622  1.00  0.00     0.080 C 
HETATM   41  C29 UNL     1      -0.418  53.028 -27.351  1.00  0.00     0.135 C 
HETATM   42  O8  UNL     1       0.348  53.162 -28.310  1.00  0.00    -0.297 OA
HETATM   43  C30 UNL     1       0.097  53.067 -25.906  1.00  0.00     0.018 C 
HETATM   44  C31 UNL     1       0.219  54.564 -25.546  1.00  0.00     0.023 C 
HETATM   45  C32 UNL     1       1.521  52.466 -25.903  1.00  0.00     0.023 C 
HETATM   46  C34 UNL     1      -0.149  51.672 -23.721  1.00  0.00     0.011 C 
HETATM   47  C24 UNL     1      -3.554  47.935 -23.202  1.00  0.00     0.016 C 
ENDBRANCH   1  25
TORSDOF 11
ENDMDL
MODEL 7
REMARK minimizedAffinity -10.5584431
REMARK CNNscore 0.254617751
REMARK CNNaffinity 6.26110697
REMARK  11 active torsions:
REMARK  status: ('A' for Active; 'I' for Inactive)
REMARK    1  A    between atoms: C2_2  and  O1_4 
REMARK    2  A    between atoms: C2_2  and  C4_5 
REMARK    3  A    between atoms: C5_6  and  C6_7 
REMARK    4  A    between atoms: C6_7  and  C7_8 
REMARK    5  A    between atoms: C7_8  and  C8_9 
REMARK    6  A    between atoms: C7_8  and  C14_21 
REMARK    7  A    between atoms: C8_9  and  O3_11 
REMARK    8  A    between atoms: O3_11  and  C9_12 
REMARK    9  A    between atoms: C11_15  and  O5_16 
REMARK   10  A    between atoms: C12_17  and  O6_18 
REMARK   11  A    between atoms: C13_19  and  O7_20 
ROOT
HETATM    1  C7  UNL     1       7.059  66.569 -35.720  1.00  0.00     0.094 C 
ENDROOT
BRANCH   1   2
HETATM    2  C6  UNL     1       6.032  66.381 -34.586  1.00  0.00     0.042 C 
BRANCH   2   3
HETATM    3  C5  UNL     1       5.520  64.961 -34.498  1.00  0.00    -0.027 C 
HETATM    4  C4  UNL     1       4.581  64.564 -33.621  1.00  0.00     0.006 C 
BRANCH   4   5
HETATM    5  C2  UNL     1       3.979  63.185 -33.470  1.00  0.00     0.068 C 
HETATM    6  C1  UNL     1       4.906  62.150 -34.114  1.00  0.00     0.050 C 
HETATM    7  C3  UNL     1       3.652  62.774 -32.033  1.00  0.00     0.050 C 
BRANCH   5   8
HETATM    8  O1  UNL     1       2.761  63.196 -34.213  1.00  0.00    -0.387 OA
HETATM    9  H7  UNL     1       2.204  63.885 -33.814  1.00  0.00     0.211 HD
ENDBRANCH   5   8
ENDBRANCH   4   5
ENDBRANCH   2   3
ENDBRANCH   1   2
BRANCH   1  10
HETATM   10  C8  UNL     1       7.514  65.193 -36.190  1.00  0.00     0.266 C 
HETATM   11  O2  UNL     1       6.990  64.589 -37.119  1.00  0.00    -0.265 OA
BRANCH  10  12
HETATM   12  O3  UNL     1       8.573  64.736 -35.467  1.00  0.00    -0.287 OA
BRANCH  12  13
HETATM   13  C9  UNL     1       8.220  63.813 -34.430  1.00  0.00     0.300 C 
HETATM   14  O4  UNL     1       9.068  64.023 -33.279  1.00  0.00    -0.355 OA
HETATM   15  C10 UNL     1      10.261  63.238 -33.323  1.00  0.00     0.205 C 
HETATM   16  C11 UNL     1       9.902  61.756 -33.148  1.00  0.00     0.173 C 
HETATM   17  C12 UNL     1       8.525  61.424 -33.761  1.00  0.00     0.182 C 
HETATM   18  C13 UNL     1       8.240  62.342 -34.943  1.00  0.00     0.205 C 
BRANCH  16  19
HETATM   19  O5  UNL     1       9.845  61.408 -31.752  1.00  0.00    -0.391 OA
HETATM   20  H17 UNL     1       9.349  62.116 -31.298  1.00  0.00     0.210 HD
ENDBRANCH  16  19
BRANCH  17  21
HETATM   21  O6  UNL     1       8.515  60.056 -34.201  1.00  0.00    -0.390 OA
HETATM   22  H19 UNL     1       8.792  59.525 -33.431  1.00  0.00     0.210 HD
ENDBRANCH  17  21
BRANCH  18  23
HETATM   23  O7  UNL     1       9.271  62.121 -35.931  1.00  0.00    -0.388 OA
HETATM   24  H21 UNL     1       9.195  61.175 -36.161  1.00  0.00     0.210 HD
ENDBRANCH  18  23
ENDBRANCH  12  13
ENDBRANCH  10  12
ENDBRANCH   1  10
BRANCH   1  25
HETATM   25  C14 UNL     1       6.627  67.432 -36.939  1.00  0.00     0.009 C 
HETATM   26  C15 UNL     1       7.295  67.120 -38.304  1.00  0.00     0.007 C 
HETATM   27  C16 UNL     1       6.250  67.433 -39.401  1.00  0.00     0.015 C 
HETATM   28  C17 UNL     1       5.139  68.223 -38.679  1.00  0.00    -0.013 C 
HETATM   29  C18 UNL     1       5.606  69.714 -38.631  1.00  0.00     0.021 C 
HETATM   30  C19 UNL     1       3.733  68.274 -39.270  1.00  0.00    -0.068 C 
HETATM   31  C23 UNL     1       5.110  67.475 -37.297  1.00  0.00    -0.028 C 
HETATM   32  C20 UNL     1       2.655  68.431 -38.458  1.00  0.00    -0.068 C 
HETATM   33  C35 UNL     1       3.641  68.222 -40.774  1.00  0.00     0.036 C 
HETATM   34  C21 UNL     1       2.807  68.469 -36.931  1.00  0.00     0.036 C 
HETATM   35  C25 UNL     1       1.211  68.534 -39.024  1.00  0.00    -0.015 C 
HETATM   36  C22 UNL     1       4.222  68.277 -36.343  1.00  0.00     0.015 C 
HETATM   37  C26 UNL     1       0.574  67.130 -38.913  1.00  0.00     0.020 C 
HETATM   38  C27 UNL     1       0.381  69.570 -38.233  1.00  0.00     0.021 C 
HETATM   39  C33 UNL     1       1.255  69.064 -40.496  1.00  0.00     0.013 C 
HETATM   40  C28 UNL     1      -1.032  69.792 -38.741  1.00  0.00     0.080 C 
HETATM   41  C29 UNL     1      -1.296  69.372 -40.168  1.00  0.00     0.135 C 
HETATM   42  O8  UNL     1      -2.463  69.161 -40.513  1.00  0.00    -0.297 OA
HETATM   43  C30 UNL     1      -0.140  69.302 -41.174  1.00  0.00     0.018 C 
HETATM   44  C31 UNL     1      -0.129  70.668 -41.894  1.00  0.00     0.023 C 
HETATM   45  C32 UNL     1      -0.499  68.222 -42.220  1.00  0.00     0.023 C 
HETATM   46  C34 UNL     1       2.222  68.220 -41.341  1.00  0.00     0.011 C 
HETATM   47  C24 UNL     1       4.539  66.026 -37.386  1.00  0.00     0.016 C 
ENDBRANCH   1  25
TORSDOF 11
ENDMDL
MODEL 8
REMARK minimizedAffinity -8.57877541
REMARK CNNscore 0.246643439
REMARK CNNaffinity 5.72204065
REMARK  11 active torsions:
REMARK  status: ('A' for Active; 'I' for Inactive)
REMARK    1  A    between atoms: C2_2  and  O1_4 
REMARK    2  A    between atoms: C2_2  and  C4_5 
REMARK    3  A    between atoms: C5_6  and  C6_7 
REMARK    4  A    between atoms: C6_7  and  C7_8 
REMARK    5  A    between atoms: C7_8  and  C8_9 
REMARK    6  A    between atoms: C7_8  and  C14_21 
REMARK    7  A    between atoms: C8_9  and  O3_11 
REMARK    8  A    between atoms: O3_11  and  C9_12 
REMARK    9  A    between atoms: C11_15  and  O5_16 
REMARK   10  A    between atoms: C12_17  and  O6_18 
REMARK   11  A    between atoms: C13_19  and  O7_20 
ROOT
HETATM    1  C7  UNL     1       6.374  67.736 -36.237  1.00  0.00     0.094 C 
ENDROOT
BRANCH   1   2
HETATM    2  C6  UNL     1       7.388  68.242 -35.192  1.00  0.00     0.042 C 
BRANCH   2   3
HETATM    3  C5  UNL     1       6.793  69.274 -34.260  1.00  0.00    -0.027 C 
HETATM    4  C4  UNL     1       7.327  69.590 -33.067  1.00  0.00     0.006 C 
BRANCH   4   5
HETATM    5  C2  UNL     1       6.835  70.623 -32.077  1.00  0.00     0.068 C 
HETATM    6  C1  UNL     1       5.751  71.483 -32.733  1.00  0.00     0.050 C 
HETATM    7  C3  UNL     1       6.323  70.057 -30.752  1.00  0.00     0.050 C 
BRANCH   5   8
HETATM    8  O1  UNL     1       7.948  71.470 -31.794  1.00  0.00    -0.387 OA
HETATM    9  H7  UNL     1       8.637  70.898 -31.417  1.00  0.00     0.211 HD
ENDBRANCH   5   8
ENDBRANCH   4   5
ENDBRANCH   2   3
ENDBRANCH   1   2
BRANCH   1  10
HETATM   10  C8  UNL     1       6.228  66.228 -36.075  1.00  0.00     0.266 C 
HETATM   11  O2  UNL     1       6.438  65.428 -36.980  1.00  0.00    -0.265 OA
BRANCH  10  12
HETATM   12  O3  UNL     1       5.858  65.888 -34.810  1.00  0.00    -0.287 OA
BRANCH  12  13
HETATM   13  C9  UNL     1       4.876  64.848 -34.746  1.00  0.00     0.300 C 
HETATM   14  O4  UNL     1       3.956  65.110 -33.663  1.00  0.00    -0.355 OA
HETATM   15  C10 UNL     1       4.383  64.536 -32.427  1.00  0.00     0.205 C 
HETATM   16  C11 UNL     1       4.291  63.006 -32.517  1.00  0.00     0.173 C 
HETATM   17  C12 UNL     1       4.575  62.498 -33.946  1.00  0.00     0.182 C 
HETATM   18  C13 UNL     1       5.539  63.441 -34.658  1.00  0.00     0.205 C 
BRANCH  16  19
HETATM   19  O5  UNL     1       2.973  62.553 -32.156  1.00  0.00    -0.391 OA
HETATM   20  H17 UNL     1       2.334  63.136 -32.608  1.00  0.00     0.210 HD
ENDBRANCH  16  19
BRANCH  17  21
HETATM   21  O6  UNL     1       5.149  61.182 -33.882  1.00  0.00    -0.390 OA
HETATM   22  H19 UNL     1       4.536  60.650 -33.341  1.00  0.00     0.210 HD
ENDBRANCH  17  21
BRANCH  18  23
HETATM   23  O7  UNL     1       6.771  63.462 -33.902  1.00  0.00    -0.388 OA
HETATM   24  H21 UNL     1       7.079  62.536 -33.904  1.00  0.00     0.210 HD
ENDBRANCH  18  23
ENDBRANCH  12  13
ENDBRANCH  10  12
ENDBRANCH   1  10
BRANCH   1  25
HETATM   25  C14 UNL     1       4.971  68.407 -36.254  1.00  0.00     0.009 C 
HETATM   26  C15 UNL     1       4.900  69.917 -35.903  1.00  0.00     0.007 C 
HETATM   27  C16 UNL     1       3.728  70.516 -36.715  1.00  0.00     0.015 C 
HETATM   28  C17 UNL     1       2.951  69.296 -37.252  1.00  0.00    -0.013 C 
HETATM   29  C18 UNL     1       1.987  68.838 -36.109  1.00  0.00     0.021 C 
HETATM   30  C19 UNL     1       2.056  69.442 -38.480  1.00  0.00    -0.068 C 
HETATM   31  C23 UNL     1       4.139  68.319 -37.569  1.00  0.00    -0.028 C 
HETATM   32  C20 UNL     1       1.835  68.378 -39.295  1.00  0.00    -0.068 C 
HETATM   33  C35 UNL     1       1.397  70.785 -38.667  1.00  0.00     0.036 C 
HETATM   34  C21 UNL     1       2.541  67.034 -39.061  1.00  0.00     0.036 C 
HETATM   35  C25 UNL     1       0.895  68.472 -40.529  1.00  0.00    -0.015 C 
HETATM   36  C22 UNL     1       3.549  66.944 -37.894  1.00  0.00     0.015 C 
HETATM   37  C26 UNL     1       1.787  68.712 -41.768  1.00  0.00     0.020 C 
HETATM   38  C27 UNL     1       0.071  67.176 -40.697  1.00  0.00     0.021 C 
HETATM   39  C33 UNL     1      -0.154  69.613 -40.309  1.00  0.00     0.013 C 
HETATM   40  C28 UNL     1      -0.925  67.184 -41.841  1.00  0.00     0.080 C 
HETATM   41  C29 UNL     1      -1.331  68.545 -42.356  1.00  0.00     0.135 C 
HETATM   42  O8  UNL     1      -1.808  68.627 -43.492  1.00  0.00    -0.297 OA
HETATM   43  C30 UNL     1      -1.230  69.772 -41.441  1.00  0.00     0.018 C 
HETATM   44  C31 UNL     1      -2.625  69.931 -40.798  1.00  0.00     0.023 C 
HETATM   45  C32 UNL     1      -0.986  71.005 -42.342  1.00  0.00     0.023 C 
HETATM   46  C34 UNL     1       0.551  70.925 -39.931  1.00  0.00     0.011 C 
HETATM   47  C24 UNL     1       5.008  68.770 -38.785  1.00  0.00     0.016 C 
ENDBRANCH   1  25
TORSDOF 11
ENDMDL
MODEL 9
REMARK minimizedAffinity -9.13641453
REMARK CNNscore 0.240198597
REMARK CNNaffinity 6.91457891
REMARK  11 active torsions:
REMARK  status: ('A' for Active; 'I' for Inactive)
REMARK    1  A    between atoms: C2_2  and  O1_4 
REMARK    2  A    between atoms: C2_2  and  C4_5 
REMARK    3  A    between atoms: C5_6  and  C6_7 
REMARK    4  A    between atoms: C6_7  and  C7_8 
REMARK    5  A    between atoms: C7_8  and  C8_9 
REMARK    6  A    between atoms: C7_8  and  C14_21 
REMARK    7  A    between atoms: C8_9  and  O3_11 
REMARK    8  A    between atoms: O3_11  and  C9_12 
REMARK    9  A    between atoms: C11_15  and  O5_16 
REMARK   10  A    between atoms: C12_17  and  O6_18 
REMARK   11  A    between atoms: C13_19  and  O7_20 
ROOT
HETATM    1  C7  UNL     1      -2.899  49.337 -22.889  1.00  0.00     0.094 C 
ENDROOT
BRANCH   1   2
HETATM    2  C6  UNL     1      -3.526  49.712 -24.247  1.00  0.00     0.042 C 
BRANCH   2   3
HETATM    3  C5  UNL     1      -2.520  50.309 -25.205  1.00  0.00    -0.027 C 
HETATM    4  C4  UNL     1      -2.503  51.609 -25.548  1.00  0.00     0.006 C 
BRANCH   4   5
HETATM    5  C2  UNL     1      -1.528  52.311 -26.466  1.00  0.00     0.068 C 
HETATM    6  C1  UNL     1      -0.500  53.077 -25.629  1.00  0.00     0.050 C 
HETATM    7  C3  UNL     1      -0.814  51.404 -27.470  1.00  0.00     0.050 C 
BRANCH   5   8
HETATM    8  O1  UNL     1      -2.288  53.269 -27.201  1.00  0.00    -0.387 OA
HETATM    9  H7  UNL     1      -2.958  52.766 -27.693  1.00  0.00     0.211 HD
ENDBRANCH   5   8
ENDBRANCH   4   5
ENDBRANCH   2   3
ENDBRANCH   1   2
BRANCH   1  10
HETATM   10  C8  UNL     1      -2.891  50.577 -22.004  1.00  0.00     0.266 C 
HETATM   11  O2  UNL     1      -3.804  51.394 -21.978  1.00  0.00    -0.265 OA
BRANCH  10  12
HETATM   12  O3  UNL     1      -1.764  50.649 -21.243  1.00  0.00    -0.287 OA
BRANCH  12  13
HETATM   13  C9  UNL     1      -1.354  51.984 -20.929  1.00  0.00     0.300 C 
HETATM   14  O4  UNL     1      -0.521  52.503 -21.990  1.00  0.00    -0.355 OA
HETATM   15  C10 UNL     1       0.865  52.222 -21.789  1.00  0.00     0.205 C 
HETATM   16  C11 UNL     1       1.383  53.037 -20.596  1.00  0.00     0.173 C 
HETATM   17  C12 UNL     1       0.291  53.238 -19.523  1.00  0.00     0.182 C 
HETATM   18  C13 UNL     1      -0.675  52.059 -19.528  1.00  0.00     0.205 C 
BRANCH  16  19
HETATM   19  O5  UNL     1       1.812  54.344 -21.019  1.00  0.00    -0.391 OA
HETATM   20  H17 UNL     1       1.127  54.691 -21.623  1.00  0.00     0.210 HD
ENDBRANCH  16  19
BRANCH  17  21
HETATM   21  O6  UNL     1       0.905  53.349 -18.229  1.00  0.00    -0.390 OA
HETATM   22  H19 UNL     1       1.575  54.055 -18.311  1.00  0.00     0.210 HD
ENDBRANCH  17  21
BRANCH  18  23
HETATM   23  O7  UNL     1       0.084  50.867 -19.224  1.00  0.00    -0.388 OA
HETATM   24  H21 UNL     1       0.468  51.036 -18.342  1.00  0.00     0.210 HD
ENDBRANCH  18  23
ENDBRANCH  12  13
ENDBRANCH  10  12
ENDBRANCH   1  10
BRANCH   1  25
HETATM   25  C14 UNL     1      -3.523  48.138 -22.121  1.00  0.00     0.009 C 
HETATM   26  C15 UNL     1      -2.632  47.423 -21.072  1.00  0.00     0.007 C 
HETATM   27  C16 UNL     1      -3.570  46.910 -19.954  1.00  0.00     0.015 C 
HETATM   28  C17 UNL     1      -4.992  47.044 -20.536  1.00  0.00    -0.013 C 
HETATM   29  C18 UNL     1      -5.247  45.767 -21.401  1.00  0.00     0.021 C 
HETATM   30  C19 UNL     1      -6.195  47.126 -19.599  1.00  0.00    -0.068 C 
HETATM   31  C23 UNL     1      -4.847  48.388 -21.337  1.00  0.00    -0.028 C 
HETATM   32  C20 UNL     1      -7.317  47.789 -19.983  1.00  0.00    -0.068 C 
HETATM   33  C35 UNL     1      -6.077  46.373 -18.298  1.00  0.00     0.036 C 
HETATM   34  C21 UNL     1      -7.377  48.547 -21.317  1.00  0.00     0.036 C 
HETATM   35  C25 UNL     1      -8.578  47.857 -19.078  1.00  0.00    -0.015 C 
HETATM   36  C22 UNL     1      -6.105  48.570 -22.191  1.00  0.00     0.015 C 
HETATM   37  C26 UNL     1      -8.533  49.207 -18.327  1.00  0.00     0.020 C 
HETATM   38  C27 UNL     1      -9.869  47.748 -19.920  1.00  0.00     0.021 C 
HETATM   39  C33 UNL     1      -8.602  46.627 -18.110  1.00  0.00     0.013 C 
HETATM   40  C28 UNL     1     -11.162  47.745 -19.127  1.00  0.00     0.080 C 
HETATM   41  C29 UNL     1     -11.043  47.375 -17.668  1.00  0.00     0.135 C 
HETATM   42  O8  UNL     1     -11.945  47.718 -16.897  1.00  0.00    -0.297 OA
HETATM   43  C30 UNL     1      -9.868  46.514 -17.188  1.00  0.00     0.018 C 
HETATM   44  C31 UNL     1     -10.381  45.057 -17.207  1.00  0.00     0.023 C 
HETATM   45  C32 UNL     1      -9.584  46.892 -15.717  1.00  0.00     0.023 C 
HETATM   46  C34 UNL     1      -7.269  46.513 -17.353  1.00  0.00     0.011 C 
HETATM   47  C24 UNL     1      -4.699  49.645 -20.423  1.00  0.00     0.016 C 
ENDBRANCH   1  25
TORSDOF 11
ENDMDL
