MODEL 1
REMARK minimizedAffinity -8.2447691
REMARK CNNscore 0.657262266
REMARK CNNaffinity 4.48064137
REMARK  12 active torsions:
REMARK  status: ('A' for Active; 'I' for Inactive)
REMARK    1  A    between atoms: C2_2  and  O1_3 
REMARK    2  A    between atoms: C2_2  and  C3_4 
REMARK    3  A    between atoms: C4_5  and  C5_6 
REMARK    4  A    between atoms: C5_6  and  O2_7 
REMARK    5  A    between atoms: C8_10  and  O3_11 
REMARK    6  A    between atoms: O3_11  and  C9_12 
REMARK    7  A    between atoms: C10_14  and  C11_15 
REMARK    8  A    between atoms: C11_15  and  O5_16 
REMARK    9  A    between atoms: C12_17  and  O6_18 
REMARK   10  A    between atoms: C13_19  and  O7_20 
REMARK   11  A    between atoms: C14_21  and  O8_22 
REMARK   12  A    between atoms: C15_23  and  O9_24 
ROOT
HETATM    1  C5  UNL     1       2.222   6.549   9.690  1.00  0.00     0.088 C 
HETATM    2  C6  UNL     1       2.174   7.309  11.054  1.00  0.00     0.052 C 
HETATM    3  C7  UNL     1       3.527   7.819  11.583  1.00  0.00     0.016 C 
HETATM    4  C8  UNL     1       1.154   8.482  11.078  1.00  0.00     0.160 C 
HETATM    5  C15 UNL     1       0.031   8.304  10.037  1.00  0.00     0.148 C 
HETATM    6  C16 UNL     1       0.561   8.156   8.600  1.00  0.00     0.046 C 
HETATM    7  C17 UNL     1       1.960   7.485   8.456  1.00  0.00    -0.010 C 
HETATM    8  C18 UNL     1       1.955   6.688   7.125  1.00  0.00     0.018 C 
HETATM    9  C19 UNL     1       3.027   8.592   8.294  1.00  0.00     0.018 C 
ENDROOT
BRANCH   4  10
HETATM   10  O3  UNL     1       0.648   8.520  12.429  1.00  0.00    -0.350 OA
BRANCH  10  11
HETATM   11  C9  UNL     1      -0.119   7.383  12.819  1.00  0.00     0.292 C 
HETATM   12  O4  UNL     1      -1.473   7.784  13.026  1.00  0.00    -0.348 OA
HETATM   13  C10 UNL     1      -1.692   8.667  14.131  1.00  0.00     0.179 C 
HETATM   14  C12 UNL     1      -0.740   8.468  15.328  1.00  0.00     0.180 C 
HETATM   15  C13 UNL     1      -0.272   7.014  15.350  1.00  0.00     0.183 C 
HETATM   16  C14 UNL     1       0.515   6.726  14.069  1.00  0.00     0.204 C 
BRANCH  13  17
HETATM   17  C11 UNL     1      -1.714  10.134  13.677  1.00  0.00     0.198 C 
BRANCH  17  18
HETATM   18  O5  UNL     1      -0.522  10.804  14.096  1.00  0.00    -0.398 OA
HETATM   19  H18 UNL     1      -0.774  11.399  14.826  1.00  0.00     0.209 HD
ENDBRANCH  17  18
ENDBRANCH  13  17
BRANCH  14  20
HETATM   20  O6  UNL     1      -1.427   8.819  16.538  1.00  0.00    -0.390 OA
HETATM   21  H20 UNL     1      -1.643   9.769  16.449  1.00  0.00     0.210 HD
ENDBRANCH  14  20
BRANCH  15  22
HETATM   22  O7  UNL     1       0.595   6.762  16.469  1.00  0.00    -0.390 OA
HETATM   23  H22 UNL     1       0.794   5.806  16.429  1.00  0.00     0.210 HD
ENDBRANCH  15  22
BRANCH  16  24
HETATM   24  O8  UNL     1       0.632   5.297  13.917  1.00  0.00    -0.388 OA
HETATM   25  H24 UNL     1       1.159   5.180  13.098  1.00  0.00     0.210 HD
ENDBRANCH  16  24
ENDBRANCH  10  11
ENDBRANCH   4  10
BRANCH   5  26
HETATM   26  O9  UNL     1      -0.872   9.428  10.040  1.00  0.00    -0.393 OA
HETATM   27  H26 UNL     1      -1.532   9.243   9.343  1.00  0.00     0.210 HD
ENDBRANCH   5  26
BRANCH   1  28
HETATM   28  C4  UNL     1       3.460   5.673   9.575  1.00  0.00     0.010 C 
HETATM   29  C3  UNL     1       3.445   4.347   9.340  1.00  0.00     0.003 C 
BRANCH  29  30
HETATM   30  C2  UNL     1       4.665   3.483   9.233  1.00  0.00     0.136 C 
HETATM   31  C1  UNL     1       4.941   3.079   7.793  1.00  0.00     0.043 C 
BRANCH  30  32
HETATM   32  O1  UNL     1       5.766   4.235   9.732  1.00  0.00    -0.392 OA
HETATM   33  H5  UNL     1       5.935   4.963   9.110  1.00  0.00     0.210 HD
ENDBRANCH  30  32
ENDBRANCH  29  30
ENDBRANCH   1  28
BRANCH   1  34
HETATM   34  O2  UNL     1       1.094   5.641   9.730  1.00  0.00    -0.385 OA
HETATM   35  H8  UNL     1       1.262   4.937   9.080  1.00  0.00     0.211 HD
ENDBRANCH   1  34
TORSDOF 12
ENDMDL
MODEL 2
REMARK minimizedAffinity -7.22492599
REMARK CNNscore 0.578775287
REMARK CNNaffinity 4.10629606
REMARK  12 active torsions:
REMARK  status: ('A' for Active; 'I' for Inactive)
REMARK    1  A    between atoms: C2_2  and  O1_3 
REMARK    2  A    between atoms: C2_2  and  C3_4 
REMARK    3  A    between atoms: C4_5  and  C5_6 
REMARK    4  A    between atoms: C5_6  and  O2_7 
REMARK    5  A    between atoms: C8_10  and  O3_11 
REMARK    6  A    between atoms: O3_11  and  C9_12 
REMARK    7  A    between atoms: C10_14  and  C11_15 
REMARK    8  A    between atoms: C11_15  and  O5_16 
REMARK    9  A    between atoms: C12_17  and  O6_18 
REMARK   10  A    between atoms: C13_19  and  O7_20 
REMARK   11  A    between atoms: C14_21  and  O8_22 
REMARK   12  A    between atoms: C15_23  and  O9_24 
ROOT
HETATM    1  C5  UNL     1       2.303   6.437   9.662  1.00  0.00     0.088 C 
HETATM    2  C6  UNL     1       2.305   7.002  11.118  1.00  0.00     0.052 C 
HETATM    3  C7  UNL     1       3.686   7.378  11.686  1.00  0.00     0.016 C 
HETATM    4  C8  UNL     1       1.336   8.200  11.323  1.00  0.00     0.160 C 
HETATM    5  C15 UNL     1       0.193   8.214  10.289  1.00  0.00     0.148 C 
HETATM    6  C16 UNL     1       0.698   8.246   8.836  1.00  0.00     0.046 C 
HETATM    7  C17 UNL     1       2.065   7.545   8.574  1.00  0.00    -0.010 C 
HETATM    8  C18 UNL     1       2.008   6.942   7.145  1.00  0.00     0.018 C 
HETATM    9  C19 UNL     1       3.175   8.620   8.547  1.00  0.00     0.018 C 
ENDROOT
BRANCH   4  10
HETATM   10  O3  UNL     1       0.851   8.070  12.676  1.00  0.00    -0.350 OA
BRANCH  10  11
HETATM   11  C9  UNL     1       0.659   9.302  13.369  1.00  0.00     0.292 C 
HETATM   12  O4  UNL     1       1.463   9.303  14.549  1.00  0.00    -0.348 OA
HETATM   13  C10 UNL     1       1.088   8.352  15.551  1.00  0.00     0.179 C 
HETATM   14  C12 UNL     1      -0.422   8.042  15.628  1.00  0.00     0.180 C 
HETATM   15  C13 UNL     1      -1.201   9.258  15.131  1.00  0.00     0.183 C 
HETATM   16  C14 UNL     1      -0.847   9.510  13.663  1.00  0.00     0.204 C 
BRANCH  13  17
HETATM   17  C11 UNL     1       1.913   7.062  15.432  1.00  0.00     0.198 C 
BRANCH  17  18
HETATM   18  O5  UNL     1       3.300   7.370  15.268  1.00  0.00    -0.398 OA
HETATM   19  H18 UNL     1       3.525   7.176  14.340  1.00  0.00     0.209 HD
ENDBRANCH  17  18
ENDBRANCH  13  17
BRANCH  14  20
HETATM   20  O6  UNL     1      -0.765   7.715  16.982  1.00  0.00    -0.390 OA
HETATM   21  H20 UNL     1      -0.256   6.905  17.191  1.00  0.00     0.210 HD
ENDBRANCH  14  20
BRANCH  15  22
HETATM   22  O7  UNL     1      -2.620   9.038  15.212  1.00  0.00    -0.390 OA
HETATM   23  H22 UNL     1      -3.027   9.880  14.929  1.00  0.00     0.210 HD
ENDBRANCH  15  22
BRANCH  16  24
HETATM   24  O8  UNL     1      -1.279  10.839  13.310  1.00  0.00    -0.388 OA
HETATM   25  H24 UNL     1      -1.044  10.930  12.362  1.00  0.00     0.210 HD
ENDBRANCH  16  24
ENDBRANCH  10  11
ENDBRANCH   4  10
BRANCH   5  26
HETATM   26  O9  UNL     1      -0.660   9.361  10.465  1.00  0.00    -0.393 OA
HETATM   27  H26 UNL     1      -1.337   9.303   9.762  1.00  0.00     0.210 HD
ENDBRANCH   5  26
BRANCH   1  28
HETATM   28  C4  UNL     1       3.501   5.536   9.402  1.00  0.00     0.010 C 
HETATM   29  C3  UNL     1       3.448   4.193   9.310  1.00  0.00     0.003 C 
BRANCH  29  30
HETATM   30  C2  UNL     1       4.630   3.306   9.061  1.00  0.00     0.136 C 
HETATM   31  C1  UNL     1       4.880   3.109   7.574  1.00  0.00     0.043 C 
BRANCH  30  32
HETATM   32  O1  UNL     1       5.765   3.930   9.652  1.00  0.00    -0.392 OA
HETATM   33  H5  UNL     1       5.960   4.735   9.142  1.00  0.00     0.210 HD
ENDBRANCH  30  32
ENDBRANCH  29  30
ENDBRANCH   1  28
BRANCH   1  34
HETATM   34  O2  UNL     1       1.138   5.579   9.597  1.00  0.00    -0.385 OA
HETATM   35  H8  UNL     1       1.267   4.965   8.852  1.00  0.00     0.211 HD
ENDBRANCH   1  34
TORSDOF 12
ENDMDL
MODEL 3
REMARK minimizedAffinity -6.72741413
REMARK CNNscore 0.526246786
REMARK CNNaffinity 4.35468864
REMARK  12 active torsions:
REMARK  status: ('A' for Active; 'I' for Inactive)
REMARK    1  A    between atoms: C2_2  and  O1_3 
REMARK    2  A    between atoms: C2_2  and  C3_4 
REMARK    3  A    between atoms: C4_5  and  C5_6 
REMARK    4  A    between atoms: C5_6  and  O2_7 
REMARK    5  A    between atoms: C8_10  and  O3_11 
REMARK    6  A    between atoms: O3_11  and  C9_12 
REMARK    7  A    between atoms: C10_14  and  C11_15 
REMARK    8  A    between atoms: C11_15  and  O5_16 
REMARK    9  A    between atoms: C12_17  and  O6_18 
REMARK   10  A    between atoms: C13_19  and  O7_20 
REMARK   11  A    between atoms: C14_21  and  O8_22 
REMARK   12  A    between atoms: C15_23  and  O9_24 
ROOT
HETATM    1  C5  UNL     1     -14.246  -3.714  12.375  1.00  0.00     0.088 C 
HETATM    2  C6  UNL     1     -15.601  -2.954  12.533  1.00  0.00     0.052 C 
HETATM    3  C7  UNL     1     -16.827  -3.633  11.897  1.00  0.00     0.016 C 
HETATM    4  C8  UNL     1     -15.940  -2.586  14.005  1.00  0.00     0.160 C 
HETATM    5  C15 UNL     1     -14.684  -2.508  14.895  1.00  0.00     0.148 C 
HETATM    6  C16 UNL     1     -13.868  -3.812  14.900  1.00  0.00     0.046 C 
HETATM    7  C17 UNL     1     -13.924  -4.655  13.591  1.00  0.00    -0.010 C 
HETATM    8  C18 UNL     1     -12.545  -5.349  13.429  1.00  0.00     0.018 C 
HETATM    9  C19 UNL     1     -14.960  -5.788  13.775  1.00  0.00     0.018 C 
ENDROOT
BRANCH   4  10
HETATM   10  O3  UNL     1     -16.641  -1.327  13.932  1.00  0.00    -0.350 OA
BRANCH  10  11
HETATM   11  C9  UNL     1     -16.315  -0.520  12.802  1.00  0.00     0.292 C 
HETATM   12  O4  UNL     1     -15.393   0.494  13.204  1.00  0.00    -0.348 OA
HETATM   13  C10 UNL     1     -15.911   1.472  14.112  1.00  0.00     0.179 C 
HETATM   14  C12 UNL     1     -17.410   1.795  13.944  1.00  0.00     0.180 C 
HETATM   15  C13 UNL     1     -17.811   1.538  12.492  1.00  0.00     0.183 C 
HETATM   16  C14 UNL     1     -17.610   0.054  12.176  1.00  0.00     0.204 C 
BRANCH  13  17
HETATM   17  C11 UNL     1     -15.581   1.111  15.568  1.00  0.00     0.198 C 
BRANCH  17  18
HETATM   18  O5  UNL     1     -14.192   0.797  15.702  1.00  0.00    -0.398 OA
HETATM   19  H18 UNL     1     -14.130  -0.168  15.824  1.00  0.00     0.209 HD
ENDBRANCH  17  18
ENDBRANCH  13  17
BRANCH  14  20
HETATM   20  O6  UNL     1     -17.641   3.160  14.321  1.00  0.00    -0.390 OA
HETATM   21  H20 UNL     1     -17.402   3.212  15.268  1.00  0.00     0.210 HD
ENDBRANCH  14  20
BRANCH  15  22
HETATM   22  O7  UNL     1     -19.195   1.855  12.269  1.00  0.00    -0.390 OA
HETATM   23  H22 UNL     1     -19.340   1.713  11.313  1.00  0.00     0.210 HD
ENDBRANCH  15  22
BRANCH  16  24
HETATM   24  O8  UNL     1     -17.628  -0.115  10.745  1.00  0.00    -0.388 OA
HETATM   25  H24 UNL     1     -17.517  -1.080  10.610  1.00  0.00     0.210 HD
ENDBRANCH  16  24
ENDBRANCH  10  11
ENDBRANCH   4  10
BRANCH   5  26
HETATM   26  O9  UNL     1     -15.027  -2.219  16.265  1.00  0.00    -0.393 OA
HETATM   27  H26 UNL     1     -14.183  -2.209  16.757  1.00  0.00     0.210 HD
ENDBRANCH   5  26
BRANCH   1  28
HETATM   28  C4  UNL     1     -14.124  -4.374  11.009  1.00  0.00     0.010 C 
HETATM   29  C3  UNL     1     -14.004  -3.711   9.843  1.00  0.00     0.003 C 
BRANCH  29  30
HETATM   30  C2  UNL     1     -13.891  -4.360   8.497  1.00  0.00     0.136 C 
HETATM   31  C1  UNL     1     -15.043  -3.965   7.586  1.00  0.00     0.043 C 
BRANCH  30  32
HETATM   32  O1  UNL     1     -12.663  -3.933   7.918  1.00  0.00    -0.392 OA
HETATM   33  H5  UNL     1     -12.742  -2.985   7.718  1.00  0.00     0.210 HD
ENDBRANCH  30  32
ENDBRANCH  29  30
ENDBRANCH   1  28
BRANCH   1  34
HETATM   34  O2  UNL     1     -13.232  -2.681  12.410  1.00  0.00    -0.385 OA
HETATM   35  H8  UNL     1     -12.428  -3.045  11.998  1.00  0.00     0.211 HD
ENDBRANCH   1  34
TORSDOF 12
ENDMDL
MODEL 4
REMARK minimizedAffinity -6.4575963
REMARK CNNscore 0.481410205
REMARK CNNaffinity 4.38499641
REMARK  12 active torsions:
REMARK  status: ('A' for Active; 'I' for Inactive)
REMARK    1  A    between atoms: C2_2  and  O1_3 
REMARK    2  A    between atoms: C2_2  and  C3_4 
REMARK    3  A    between atoms: C4_5  and  C5_6 
REMARK    4  A    between atoms: C5_6  and  O2_7 
REMARK    5  A    between atoms: C8_10  and  O3_11 
REMARK    6  A    between atoms: O3_11  and  C9_12 
REMARK    7  A    between atoms: C10_14  and  C11_15 
REMARK    8  A    between atoms: C11_15  and  O5_16 
REMARK    9  A    between atoms: C12_17  and  O6_18 
REMARK   10  A    between atoms: C13_19  and  O7_20 
REMARK   11  A    between atoms: C14_21  and  O8_22 
REMARK   12  A    between atoms: C15_23  and  O9_24 
ROOT
HETATM    1  C5  UNL     1     -11.587  -8.478   8.136  1.00  0.00     0.088 C 
HETATM    2  C6  UNL     1     -11.027  -8.976   9.507  1.00  0.00     0.052 C 
HETATM    3  C7  UNL     1     -12.081  -9.321  10.574  1.00  0.00     0.016 C 
HETATM    4  C8  UNL     1     -10.037 -10.168   9.378  1.00  0.00     0.160 C 
HETATM    5  C15 UNL     1      -9.375 -10.234   7.988  1.00  0.00     0.148 C 
HETATM    6  C16 UNL     1     -10.395 -10.329   6.840  1.00  0.00     0.046 C 
HETATM    7  C17 UNL     1     -11.767  -9.635   7.089  1.00  0.00    -0.010 C 
HETATM    8  C18 UNL     1     -12.268  -9.097   5.722  1.00  0.00     0.018 C 
HETATM    9  C19 UNL     1     -12.790 -10.706   7.534  1.00  0.00     0.018 C 
ENDROOT
BRANCH   4  10
HETATM   10  O3  UNL     1      -9.074  -9.980  10.437  1.00  0.00    -0.350 OA
BRANCH  10  11
HETATM   11  C9  UNL     1      -7.780  -9.562  10.008  1.00  0.00     0.292 C 
HETATM   12  O4  UNL     1      -6.793 -10.356  10.666  1.00  0.00    -0.348 OA
HETATM   13  C10 UNL     1      -6.697 -10.170  12.082  1.00  0.00     0.179 C 
HETATM   14  C12 UNL     1      -7.021  -8.746  12.580  1.00  0.00     0.180 C 
HETATM   15  C13 UNL     1      -6.705  -7.749  11.466  1.00  0.00     0.183 C 
HETATM   16  C14 UNL     1      -7.606  -8.045  10.265  1.00  0.00     0.204 C 
BRANCH  13  17
HETATM   17  C11 UNL     1      -7.518 -11.223  12.839  1.00  0.00     0.198 C 
BRANCH  17  18
HETATM   18  O5  UNL     1      -6.676 -12.291  13.282  1.00  0.00    -0.398 OA
HETATM   19  H18 UNL     1      -6.874 -13.060  12.718  1.00  0.00     0.209 HD
ENDBRANCH  17  18
ENDBRANCH  13  17
BRANCH  14  20
HETATM   20  O6  UNL     1      -6.253  -8.476  13.762  1.00  0.00    -0.390 OA
HETATM   21  H20 UNL     1      -6.556  -9.129  14.424  1.00  0.00     0.210 HD
ENDBRANCH  14  20
BRANCH  15  22
HETATM   22  O7  UNL     1      -6.958  -6.399  11.888  1.00  0.00    -0.390 OA
HETATM   23  H22 UNL     1      -6.677  -5.839  11.137  1.00  0.00     0.210 HD
ENDBRANCH  15  22
BRANCH  16  24
HETATM   24  O8  UNL     1      -7.067  -7.369   9.112  1.00  0.00    -0.388 OA
HETATM   25  H24 UNL     1      -7.695  -7.579   8.388  1.00  0.00     0.210 HD
ENDBRANCH  16  24
ENDBRANCH  10  11
ENDBRANCH   4  10
BRANCH   5  26
HETATM   26  O9  UNL     1      -8.503 -11.376   7.875  1.00  0.00    -0.393 OA
HETATM   27  H26 UNL     1      -8.146 -11.352   6.965  1.00  0.00     0.210 HD
ENDBRANCH   5  26
BRANCH   1  28
HETATM   28  C4  UNL     1     -12.805  -7.585   8.315  1.00  0.00     0.010 C 
HETATM   29  C3  UNL     1     -13.116  -6.540   7.523  1.00  0.00     0.003 C 
BRANCH  29  30
HETATM   30  C2  UNL     1     -14.312  -5.656   7.704  1.00  0.00     0.136 C 
HETATM   31  C1  UNL     1     -13.908  -4.224   8.020  1.00  0.00     0.043 C 
BRANCH  30  32
HETATM   32  O1  UNL     1     -15.049  -5.679   6.485  1.00  0.00    -0.392 OA
HETATM   33  H5  UNL     1     -14.519  -5.226   5.808  1.00  0.00     0.210 HD
ENDBRANCH  30  32
ENDBRANCH  29  30
ENDBRANCH   1  28
BRANCH   1  34
HETATM   34  O2  UNL     1     -10.547  -7.629   7.595  1.00  0.00    -0.385 OA
HETATM   35  H8  UNL     1     -10.958  -7.049   6.930  1.00  0.00     0.211 HD
ENDBRANCH   1  34
TORSDOF 12
ENDMDL
MODEL 5
REMARK minimizedAffinity -7.30767298
REMARK CNNscore 0.44859159
REMARK CNNaffinity 5.18466806
REMARK  12 active torsions:
REMARK  status: ('A' for Active; 'I' for Inactive)
REMARK    1  A    between atoms: C2_2  and  O1_3 
REMARK    2  A    between atoms: C2_2  and  C3_4 
REMARK    3  A    between atoms: C4_5  and  C5_6 
REMARK    4  A    between atoms: C5_6  and  O2_7 
REMARK    5  A    between atoms: C8_10  and  O3_11 
REMARK    6  A    between atoms: O3_11  and  C9_12 
REMARK    7  A    between atoms: C10_14  and  C11_15 
REMARK    8  A    between atoms: C11_15  and  O5_16 
REMARK    9  A    between atoms: C12_17  and  O6_18 
REMARK   10  A    between atoms: C13_19  and  O7_20 
REMARK   11  A    between atoms: C14_21  and  O8_22 
REMARK   12  A    between atoms: C15_23  and  O9_24 
ROOT
HETATM    1  C5  UNL     1      -3.050   6.475  13.796  1.00  0.00     0.088 C 
HETATM    2  C6  UNL     1      -1.773   7.349  13.579  1.00  0.00     0.052 C 
HETATM    3  C7  UNL     1      -1.536   7.841  12.140  1.00  0.00     0.016 C 
HETATM    4  C8  UNL     1      -1.678   8.563  14.545  1.00  0.00     0.160 C 
HETATM    5  C15 UNL     1      -2.487   8.348  15.839  1.00  0.00     0.148 C 
HETATM    6  C16 UNL     1      -3.975   8.057  15.577  1.00  0.00     0.046 C 
HETATM    7  C17 UNL     1      -4.299   7.314  14.245  1.00  0.00    -0.010 C 
HETATM    8  C18 UNL     1      -5.532   6.410  14.509  1.00  0.00     0.018 C 
HETATM    9  C19 UNL     1      -4.743   8.356  13.193  1.00  0.00     0.018 C 
ENDROOT
BRANCH   4  10
HETATM   10  O3  UNL     1      -0.268   8.737  14.802  1.00  0.00    -0.350 OA
BRANCH  10  11
HETATM   11  C9  UNL     1       0.408   7.571  15.270  1.00  0.00     0.292 C 
HETATM   12  O4  UNL     1       0.894   7.814  16.590  1.00  0.00    -0.348 OA
HETATM   13  C10 UNL     1       1.924   8.803  16.696  1.00  0.00     0.179 C 
HETATM   14  C12 UNL     1       2.870   8.896  15.481  1.00  0.00     0.180 C 
HETATM   15  C13 UNL     1       2.925   7.534  14.792  1.00  0.00     0.183 C 
HETATM   16  C14 UNL     1       1.529   7.181  14.276  1.00  0.00     0.204 C 
BRANCH  13  17
HETATM   17  C11 UNL     1       1.342  10.178  17.054  1.00  0.00     0.198 C 
BRANCH  17  18
HETATM   18  O5  UNL     1       1.190  10.303  18.470  1.00  0.00    -0.398 OA
HETATM   19  H18 UNL     1       0.236  10.247  18.659  1.00  0.00     0.209 HD
ENDBRANCH  17  18
ENDBRANCH  13  17
BRANCH  14  20
HETATM   20  O6  UNL     1       4.168   9.314  15.927  1.00  0.00    -0.390 OA
HETATM   21  H20 UNL     1       4.038  10.206  16.307  1.00  0.00     0.210 HD
ENDBRANCH  14  20
BRANCH  15  22
HETATM   22  O7  UNL     1       3.821   7.554  13.668  1.00  0.00    -0.390 OA
HETATM   23  H22 UNL     1       3.831   6.636  13.332  1.00  0.00     0.210 HD
ENDBRANCH  15  22
BRANCH  16  24
HETATM   24  O8  UNL     1       1.498   5.773  13.967  1.00  0.00    -0.388 OA
HETATM   25  H24 UNL     1       0.592   5.616  13.625  1.00  0.00     0.210 HD
ENDBRANCH  16  24
ENDBRANCH  10  11
ENDBRANCH   4  10
BRANCH   5  26
HETATM   26  O9  UNL     1      -2.429   9.507  16.695  1.00  0.00    -0.393 OA
HETATM   27  H26 UNL     1      -2.981   9.294  17.473  1.00  0.00     0.210 HD
ENDBRANCH   5  26
BRANCH   1  28
HETATM   28  C4  UNL     1      -3.299   5.539  12.623  1.00  0.00     0.010 C 
HETATM   29  C3  UNL     1      -3.349   4.195  12.709  1.00  0.00     0.003 C 
BRANCH  29  30
HETATM   30  C2  UNL     1      -3.588   3.273  11.552  1.00  0.00     0.136 C 
HETATM   31  C1  UNL     1      -2.700   3.619  10.366  1.00  0.00     0.043 C 
BRANCH  30  32
HETATM   32  O1  UNL     1      -3.293   1.951  11.991  1.00  0.00    -0.392 OA
HETATM   33  H5  UNL     1      -2.335   1.896  12.146  1.00  0.00     0.210 HD
ENDBRANCH  30  32
ENDBRANCH  29  30
ENDBRANCH   1  28
BRANCH   1  34
HETATM   34  O2  UNL     1      -2.732   5.625  14.924  1.00  0.00    -0.385 OA
HETATM   35  H8  UNL     1      -3.336   4.861  14.895  1.00  0.00     0.211 HD
ENDBRANCH   1  34
TORSDOF 12
ENDMDL
MODEL 6
REMARK minimizedAffinity -6.78651571
REMARK CNNscore 0.437313706
REMARK CNNaffinity 4.45690536
REMARK  12 active torsions:
REMARK  status: ('A' for Active; 'I' for Inactive)
REMARK    1  A    between atoms: C2_2  and  O1_3 
REMARK    2  A    between atoms: C2_2  and  C3_4 
REMARK    3  A    between atoms: C4_5  and  C5_6 
REMARK    4  A    between atoms: C5_6  and  O2_7 
REMARK    5  A    between atoms: C8_10  and  O3_11 
REMARK    6  A    between atoms: O3_11  and  C9_12 
REMARK    7  A    between atoms: C10_14  and  C11_15 
REMARK    8  A    between atoms: C11_15  and  O5_16 
REMARK    9  A    between atoms: C12_17  and  O6_18 
REMARK   10  A    between atoms: C13_19  and  O7_20 
REMARK   11  A    between atoms: C14_21  and  O8_22 
REMARK   12  A    between atoms: C15_23  and  O9_24 
ROOT
HETATM    1  C5  UNL     1      -4.620 -10.656   4.424  1.00  0.00     0.088 C 
HETATM    2  C6  UNL     1      -5.277 -10.839   5.830  1.00  0.00     0.052 C 
HETATM    3  C7  UNL     1      -5.708 -12.274   6.184  1.00  0.00     0.016 C 
HETATM    4  C8  UNL     1      -4.419 -10.272   6.996  1.00  0.00     0.160 C 
HETATM    5  C15 UNL     1      -3.442  -9.176   6.527  1.00  0.00     0.148 C 
HETATM    6  C16 UNL     1      -2.490  -9.655   5.417  1.00  0.00     0.046 C 
HETATM    7  C17 UNL     1      -3.053 -10.749   4.462  1.00  0.00    -0.010 C 
HETATM    8  C18 UNL     1      -2.431 -10.504   3.061  1.00  0.00     0.018 C 
HETATM    9  C19 UNL     1      -2.535 -12.129   4.929  1.00  0.00     0.018 C 
ENDROOT
BRANCH   4  10
HETATM   10  O3  UNL     1      -5.370  -9.782   7.965  1.00  0.00    -0.350 OA
BRANCH  10  11
HETATM   11  C9  UNL     1      -5.339 -10.443   9.229  1.00  0.00     0.292 C 
HETATM   12  O4  UNL     1      -6.587 -11.104   9.439  1.00  0.00    -0.348 OA
HETATM   13  C10 UNL     1      -7.721 -10.243   9.595  1.00  0.00     0.179 C 
HETATM   14  C12 UNL     1      -7.426  -8.887  10.268  1.00  0.00     0.180 C 
HETATM   15  C13 UNL     1      -6.216  -9.043  11.187  1.00  0.00     0.183 C 
HETATM   16  C14 UNL     1      -4.998  -9.425  10.345  1.00  0.00     0.204 C 
BRANCH  13  17
HETATM   17  C11 UNL     1      -8.464 -10.054   8.265  1.00  0.00     0.198 C 
BRANCH  17  18
HETATM   18  O5  UNL     1      -8.289  -8.720   7.780  1.00  0.00    -0.398 OA
HETATM   19  H18 UNL     1      -9.137  -8.258   7.909  1.00  0.00     0.209 HD
ENDBRANCH  17  18
ENDBRANCH  13  17
BRANCH  14  20
HETATM   20  O6  UNL     1      -8.588  -8.461  10.994  1.00  0.00    -0.390 OA
HETATM   21  H20 UNL     1      -9.288  -8.344  10.320  1.00  0.00     0.210 HD
ENDBRANCH  14  20
BRANCH  15  22
HETATM   22  O7  UNL     1      -5.916  -7.813  11.868  1.00  0.00    -0.390 OA
HETATM   23  H22 UNL     1      -5.173  -8.026  12.467  1.00  0.00     0.210 HD
ENDBRANCH  15  22
BRANCH  16  24
HETATM   24  O8  UNL     1      -3.972  -9.926  11.225  1.00  0.00    -0.388 OA
HETATM   25  H24 UNL     1      -3.218 -10.132  10.632  1.00  0.00     0.210 HD
ENDBRANCH  16  24
ENDBRANCH  10  11
ENDBRANCH   4  10
BRANCH   5  26
HETATM   26  O9  UNL     1      -2.621  -8.704   7.613  1.00  0.00    -0.393 OA
HETATM   27  H26 UNL     1      -2.023  -8.034   7.226  1.00  0.00     0.210 HD
ENDBRANCH   5  26
BRANCH   1  28
HETATM   28  C4  UNL     1      -5.285 -11.530   3.371  1.00  0.00     0.010 C 
HETATM   29  C3  UNL     1      -5.905 -11.068   2.268  1.00  0.00     0.003 C 
BRANCH  29  30
HETATM   30  C2  UNL     1      -6.566 -11.929   1.235  1.00  0.00     0.136 C 
HETATM   31  C1  UNL     1      -5.923 -11.758  -0.133  1.00  0.00     0.043 C 
BRANCH  30  32
HETATM   32  O1  UNL     1      -6.428 -13.283   1.654  1.00  0.00    -0.392 OA
HETATM   33  H5  UNL     1      -5.487 -13.519   1.593  1.00  0.00     0.210 HD
ENDBRANCH  30  32
ENDBRANCH  29  30
ENDBRANCH   1  28
BRANCH   1  34
HETATM   34  O2  UNL     1      -4.915  -9.289   4.051  1.00  0.00    -0.385 OA
HETATM   35  H8  UNL     1      -4.824  -9.223   3.084  1.00  0.00     0.211 HD
ENDBRANCH   1  34
TORSDOF 12
ENDMDL
MODEL 7
REMARK minimizedAffinity -6.61545944
REMARK CNNscore 0.426222891
REMARK CNNaffinity 4.63351393
REMARK  12 active torsions:
REMARK  status: ('A' for Active; 'I' for Inactive)
REMARK    1  A    between atoms: C2_2  and  O1_3 
REMARK    2  A    between atoms: C2_2  and  C3_4 
REMARK    3  A    between atoms: C4_5  and  C5_6 
REMARK    4  A    between atoms: C5_6  and  O2_7 
REMARK    5  A    between atoms: C8_10  and  O3_11 
REMARK    6  A    between atoms: O3_11  and  C9_12 
REMARK    7  A    between atoms: C10_14  and  C11_15 
REMARK    8  A    between atoms: C11_15  and  O5_16 
REMARK    9  A    between atoms: C12_17  and  O6_18 
REMARK   10  A    between atoms: C13_19  and  O7_20 
REMARK   11  A    between atoms: C14_21  and  O8_22 
REMARK   12  A    between atoms: C15_23  and  O9_24 
ROOT
HETATM    1  C5  UNL     1      -0.211   6.620  11.837  1.00  0.00     0.088 C 
HETATM    2  C6  UNL     1      -0.281   6.893  13.373  1.00  0.00     0.052 C 
HETATM    3  C7  UNL     1       0.026   5.688  14.281  1.00  0.00     0.016 C 
HETATM    4  C8  UNL     1       0.586   8.099  13.831  1.00  0.00     0.160 C 
HETATM    5  C15 UNL     1       0.853   9.098  12.689  1.00  0.00     0.148 C 
HETATM    6  C16 UNL     1       1.533   8.451  11.470  1.00  0.00     0.046 C 
HETATM    7  C17 UNL     1       1.194   6.951  11.218  1.00  0.00    -0.010 C 
HETATM    8  C18 UNL     1       1.211   6.726   9.682  1.00  0.00     0.018 C 
HETATM    9  C19 UNL     1       2.335   6.082  11.796  1.00  0.00     0.018 C 
ENDROOT
BRANCH   4  10
HETATM   10  O3  UNL     1      -0.140   8.697  14.926  1.00  0.00    -0.350 OA
BRANCH  10  11
HETATM   11  C9  UNL     1      -1.550   8.485  14.902  1.00  0.00     0.292 C 
HETATM   12  O4  UNL     1      -2.179   9.613  14.293  1.00  0.00    -0.348 OA
HETATM   13  C10 UNL     1      -2.088  10.840  15.026  1.00  0.00     0.179 C 
HETATM   14  C12 UNL     1      -2.065  10.685  16.561  1.00  0.00     0.180 C 
HETATM   15  C13 UNL     1      -2.803   9.402  16.940  1.00  0.00     0.183 C 
HETATM   16  C14 UNL     1      -2.064   8.207  16.335  1.00  0.00     0.204 C 
BRANCH  13  17
HETATM   17  C11 UNL     1      -0.911  11.696  14.537  1.00  0.00     0.198 C 
BRANCH  17  18
HETATM   18  O5  UNL     1      -1.385  12.803  13.766  1.00  0.00    -0.398 OA
HETATM   19  H18 UNL     1      -1.170  12.612  12.834  1.00  0.00     0.209 HD
ENDBRANCH  17  18
ENDBRANCH  13  17
BRANCH  14  20
HETATM   20  O6  UNL     1      -2.673  11.839  17.158  1.00  0.00    -0.390 OA
HETATM   21  H20 UNL     1      -2.109  12.595  16.899  1.00  0.00     0.210 HD
ENDBRANCH  14  20
BRANCH  15  22
HETATM   22  O7  UNL     1      -2.841   9.225  18.366  1.00  0.00    -0.390 OA
HETATM   23  H22 UNL     1      -3.375   8.418  18.509  1.00  0.00     0.210 HD
ENDBRANCH  15  22
BRANCH  16  24
HETATM   24  O8  UNL     1      -2.939   7.062  16.373  1.00  0.00    -0.388 OA
HETATM   25  H24 UNL     1      -2.405   6.332  15.994  1.00  0.00     0.210 HD
ENDBRANCH  16  24
ENDBRANCH  10  11
ENDBRANCH   4  10
BRANCH   5  26
HETATM   26  O9  UNL     1       1.702  10.179  13.122  1.00  0.00    -0.393 OA
HETATM   27  H26 UNL     1       1.835  10.747  12.338  1.00  0.00     0.210 HD
ENDBRANCH   5  26
BRANCH   1  28
HETATM   28  C4  UNL     1      -0.756   5.245  11.482  1.00  0.00     0.010 C 
HETATM   29  C3  UNL     1      -2.024   4.842  11.691  1.00  0.00     0.003 C 
BRANCH  29  30
HETATM   30  C2  UNL     1      -2.558   3.484  11.348  1.00  0.00     0.136 C 
HETATM   31  C1  UNL     1      -4.006   3.551  10.889  1.00  0.00     0.043 C 
BRANCH  30  32
HETATM   32  O1  UNL     1      -1.753   2.962  10.295  1.00  0.00    -0.392 OA
HETATM   33  H5  UNL     1      -1.924   3.493   9.499  1.00  0.00     0.210 HD
ENDBRANCH  30  32
ENDBRANCH  29  30
ENDBRANCH   1  28
BRANCH   1  34
HETATM   34  O2  UNL     1      -1.126   7.575  11.246  1.00  0.00    -0.385 OA
HETATM   35  H8  UNL     1      -1.366   7.244  10.363  1.00  0.00     0.211 HD
ENDBRANCH   1  34
TORSDOF 12
ENDMDL
MODEL 8
REMARK minimizedAffinity -6.7068181
REMARK CNNscore 0.400327981
REMARK CNNaffinity 4.40482044
REMARK  12 active torsions:
REMARK  status: ('A' for Active; 'I' for Inactive)
REMARK    1  A    between atoms: C2_2  and  O1_3 
REMARK    2  A    between atoms: C2_2  and  C3_4 
REMARK    3  A    between atoms: C4_5  and  C5_6 
REMARK    4  A    between atoms: C5_6  and  O2_7 
REMARK    5  A    between atoms: C8_10  and  O3_11 
REMARK    6  A    between atoms: O3_11  and  C9_12 
REMARK    7  A    between atoms: C10_14  and  C11_15 
REMARK    8  A    between atoms: C11_15  and  O5_16 
REMARK    9  A    between atoms: C12_17  and  O6_18 
REMARK   10  A    between atoms: C13_19  and  O7_20 
REMARK   11  A    between atoms: C14_21  and  O8_22 
REMARK   12  A    between atoms: C15_23  and  O9_24 
ROOT
HETATM    1  C5  UNL     1      -0.628  14.752   1.916  1.00  0.00     0.088 C 
HETATM    2  C6  UNL     1       0.342  15.108   0.744  1.00  0.00     0.052 C 
HETATM    3  C7  UNL     1       0.254  16.552   0.219  1.00  0.00     0.016 C 
HETATM    4  C8  UNL     1       1.830  14.775   1.045  1.00  0.00     0.160 C 
HETATM    5  C15 UNL     1       1.981  13.679   2.119  1.00  0.00     0.148 C 
HETATM    6  C16 UNL     1       1.289  14.038   3.446  1.00  0.00     0.046 C 
HETATM    7  C17 UNL     1       0.024  14.940   3.332  1.00  0.00    -0.010 C 
HETATM    8  C18 UNL     1      -0.946  14.521   4.469  1.00  0.00     0.018 C 
HETATM    9  C19 UNL     1       0.430  16.402   3.626  1.00  0.00     0.018 C 
ENDROOT
BRANCH   4  10
HETATM   10  O3  UNL     1       2.398  14.383  -0.222  1.00  0.00    -0.350 OA
BRANCH  10  11
HETATM   11  C9  UNL     1       3.592  15.073  -0.588  1.00  0.00     0.292 C 
HETATM   12  O4  UNL     1       3.618  15.236  -2.006  1.00  0.00    -0.348 OA
HETATM   13  C10 UNL     1       3.745  14.027  -2.763  1.00  0.00     0.179 C 
HETATM   14  C12 UNL     1       4.566  12.912  -2.084  1.00  0.00     0.180 C 
HETATM   15  C13 UNL     1       5.579  13.551  -1.136  1.00  0.00     0.183 C 
HETATM   16  C14 UNL     1       4.825  14.312  -0.044  1.00  0.00     0.204 C 
BRANCH  13  17
HETATM   17  C11 UNL     1       2.373  13.509  -3.218  1.00  0.00     0.198 C 
BRANCH  17  18
HETATM   18  O5  UNL     1       2.468  12.145  -3.637  1.00  0.00    -0.398 OA
HETATM   19  H18 UNL     1       2.394  12.140  -4.608  1.00  0.00     0.209 HD
ENDBRANCH  17  18
ENDBRANCH  13  17
BRANCH  14  20
HETATM   20  O6  UNL     1       5.213  12.125  -3.095  1.00  0.00    -0.390 OA
HETATM   21  H20 UNL     1       4.489  11.724  -3.616  1.00  0.00     0.210 HD
ENDBRANCH  14  20
BRANCH  15  22
HETATM   22  O7  UNL     1       6.397  12.555  -0.499  1.00  0.00    -0.390 OA
HETATM   23  H22 UNL     1       7.041  13.058   0.037  1.00  0.00     0.210 HD
ENDBRANCH  15  22
BRANCH  16  24
HETATM   24  O8  UNL     1       5.749  15.201   0.615  1.00  0.00    -0.388 OA
HETATM   25  H24 UNL     1       5.215  15.640   1.311  1.00  0.00     0.210 HD
ENDBRANCH  16  24
ENDBRANCH  10  11
ENDBRANCH   4  10
BRANCH   5  26
HETATM   26  O9  UNL     1       3.367  13.425   2.420  1.00  0.00    -0.393 OA
HETATM   27  H26 UNL     1       3.369  12.740   3.118  1.00  0.00     0.210 HD
ENDBRANCH   5  26
BRANCH   1  28
HETATM   28  C4  UNL     1      -1.986  15.416   1.746  1.00  0.00     0.010 C 
HETATM   29  C3  UNL     1      -3.163  14.761   1.707  1.00  0.00     0.003 C 
BRANCH  29  30
HETATM   30  C2  UNL     1      -4.500  15.415   1.533  1.00  0.00     0.136 C 
HETATM   31  C1  UNL     1      -4.366  16.827   0.983  1.00  0.00     0.043 C 
BRANCH  30  32
HETATM   32  O1  UNL     1      -5.248  14.622   0.617  1.00  0.00    -0.392 OA
HETATM   33  H5  UNL     1      -4.829  14.701  -0.257  1.00  0.00     0.210 HD
ENDBRANCH  30  32
ENDBRANCH  29  30
ENDBRANCH   1  28
BRANCH   1  34
HETATM   34  O2  UNL     1      -0.862  13.329   1.786  1.00  0.00    -0.385 OA
HETATM   35  H8  UNL     1      -1.685  13.122   2.263  1.00  0.00     0.211 HD
ENDBRANCH   1  34
TORSDOF 12
ENDMDL
MODEL 9
REMARK minimizedAffinity -6.96990013
REMARK CNNscore 0.371162534
REMARK CNNaffinity 4.34986019
REMARK  12 active torsions:
REMARK  status: ('A' for Active; 'I' for Inactive)
REMARK    1  A    between atoms: C2_2  and  O1_3 
REMARK    2  A    between atoms: C2_2  and  C3_4 
REMARK    3  A    between atoms: C4_5  and  C5_6 
REMARK    4  A    between atoms: C5_6  and  O2_7 
REMARK    5  A    between atoms: C8_10  and  O3_11 
REMARK    6  A    between atoms: O3_11  and  C9_12 
REMARK    7  A    between atoms: C10_14  and  C11_15 
REMARK    8  A    between atoms: C11_15  and  O5_16 
REMARK    9  A    between atoms: C12_17  and  O6_18 
REMARK   10  A    between atoms: C13_19  and  O7_20 
REMARK   11  A    between atoms: C14_21  and  O8_22 
REMARK   12  A    between atoms: C15_23  and  O9_24 
ROOT
HETATM    1  C5  UNL     1       0.343   8.613  13.502  1.00  0.00     0.088 C 
HETATM    2  C6  UNL     1       1.638   7.774  13.749  1.00  0.00     0.052 C 
HETATM    3  C7  UNL     1       1.481   6.563  14.686  1.00  0.00     0.016 C 
HETATM    4  C8  UNL     1       2.335   7.307  12.441  1.00  0.00     0.160 C 
HETATM    5  C15 UNL     1       1.986   8.203  11.236  1.00  0.00     0.148 C 
HETATM    6  C16 UNL     1       0.473   8.290  10.971  1.00  0.00     0.046 C 
HETATM    7  C17 UNL     1      -0.447   8.161  12.222  1.00  0.00    -0.010 C 
HETATM    8  C18 UNL     1      -1.693   9.051  11.974  1.00  0.00     0.018 C 
HETATM    9  C19 UNL     1      -0.965   6.706  12.308  1.00  0.00     0.018 C 
ENDROOT
BRANCH   4  10
HETATM   10  O3  UNL     1       3.748   7.313  12.738  1.00  0.00    -0.350 OA
BRANCH  10  11
HETATM   11  C9  UNL     1       4.224   8.497  13.377  1.00  0.00     0.292 C 
HETATM   12  O4  UNL     1       4.996   9.251  12.441  1.00  0.00    -0.348 OA
HETATM   13  C10 UNL     1       6.221   8.642  12.020  1.00  0.00     0.179 C 
HETATM   14  C12 UNL     1       6.913   7.760  13.081  1.00  0.00     0.180 C 
HETATM   15  C13 UNL     1       6.530   8.265  14.470  1.00  0.00     0.183 C 
HETATM   16  C14 UNL     1       5.017   8.122  14.652  1.00  0.00     0.204 C 
BRANCH  13  17
HETATM   17  C11 UNL     1       6.040   7.882  10.698  1.00  0.00     0.198 C 
BRANCH  17  18
HETATM   18  O5  UNL     1       7.125   6.974  10.491  1.00  0.00    -0.398 OA
HETATM   19  H18 UNL     1       7.680   7.352   9.785  1.00  0.00     0.209 HD
ENDBRANCH  17  18
ENDBRANCH  13  17
BRANCH  14  20
HETATM   20  O6  UNL     1       8.332   7.806  12.876  1.00  0.00    -0.390 OA
HETATM   21  H20 UNL     1       8.479   7.422  11.988  1.00  0.00     0.210 HD
ENDBRANCH  14  20
BRANCH  15  22
HETATM   22  O7  UNL     1       7.175   7.498  15.501  1.00  0.00    -0.390 OA
HETATM   23  H22 UNL     1       6.916   7.927  16.340  1.00  0.00     0.210 HD
ENDBRANCH  15  22
BRANCH  16  24
HETATM   24  O8  UNL     1       4.615   8.921  15.782  1.00  0.00    -0.388 OA
HETATM   25  H24 UNL     1       3.648   8.771  15.858  1.00  0.00     0.210 HD
ENDBRANCH  16  24
ENDBRANCH  10  11
ENDBRANCH   4  10
BRANCH   5  26
HETATM   26  O9  UNL     1       2.600   7.720  10.025  1.00  0.00    -0.393 OA
HETATM   27  H26 UNL     1       2.311   8.328   9.316  1.00  0.00     0.210 HD
ENDBRANCH   5  26
BRANCH   1  28
HETATM   28  C4  UNL     1      -0.501   8.733  14.762  1.00  0.00     0.010 C 
HETATM   29  C3  UNL     1      -1.364   7.798  15.202  1.00  0.00     0.003 C 
BRANCH  29  30
HETATM   30  C2  UNL     1      -2.201   7.921  16.440  1.00  0.00     0.136 C 
HETATM   31  C1  UNL     1      -2.994   9.218  16.453  1.00  0.00     0.043 C 
BRANCH  30  32
HETATM   32  O1  UNL     1      -3.101   6.817  16.459  1.00  0.00    -0.392 OA
HETATM   33  H5  UNL     1      -3.734   6.937  15.731  1.00  0.00     0.210 HD
ENDBRANCH  30  32
ENDBRANCH  29  30
ENDBRANCH   1  28
BRANCH   1  34
HETATM   34  O2  UNL     1       0.815   9.950  13.209  1.00  0.00    -0.385 OA
HETATM   35  H8  UNL     1       0.077  10.563  13.370  1.00  0.00     0.211 HD
ENDBRANCH   1  34
TORSDOF 12
ENDMDL
