MODEL 1
REMARK minimizedAffinity -7.99968815
REMARK  3 active torsions:
REMARK  status: ('A' for Active; 'I' for Inactive)
REMARK    1  A    between atoms: C2_2  and  C3_3 
REMARK    2  A    between atoms: C3_3  and  C4_4 
REMARK    3  A    between atoms: C4_4  and  O1_5 
ROOT
HETATM    1  C3  UNL     1      -3.292  51.061 -24.938  1.00  0.00     0.017 C 
HETATM    2  C5  UNL     1      -3.809  49.953 -25.937  1.00  0.00     0.016 C 
HETATM    3  C6  UNL     1      -3.555  48.509 -25.499  1.00  0.00     0.031 C 
HETATM    4  C7  UNL     1      -3.567  48.352 -23.989  1.00  0.00     0.273 C 
HETATM    5  N1  UNL     1      -2.552  49.174 -23.332  1.00  0.00     0.100 N 
HETATM    6  C8  UNL     1      -2.910  49.423 -21.916  1.00  0.00     0.278 C 
HETATM    7  C9  UNL     1      -1.792  50.076 -21.079  1.00  0.00     0.072 C 
HETATM    8  C10 UNL     1      -1.114  51.145 -21.850  1.00  0.00    -0.019 A 
HETATM    9  C11 UNL     1      -1.283  51.263 -23.216  1.00  0.00     0.051 A 
HETATM   10  N2  UNL     1      -0.405  52.224 -23.646  1.00  0.00    -0.357 N 
HETATM   11  C12 UNL     1       0.240  52.802 -22.574  1.00  0.00     0.043 A 
HETATM   12  C13 UNL     1       1.174  53.844 -22.539  1.00  0.00     0.030 A 
HETATM   13  C14 UNL     1       1.690  54.210 -21.292  1.00  0.00     0.002 A 
HETATM   14  C15 UNL     1       1.291  53.553 -20.130  1.00  0.00     0.001 A 
HETATM   15  C16 UNL     1       0.358  52.511 -20.183  1.00  0.00     0.014 A 
HETATM   16  C17 UNL     1      -0.186  52.133 -21.426  1.00  0.00    -0.001 A 
HETATM   17  C18 UNL     1      -2.138  50.390 -24.095  1.00  0.00     0.283 C 
HETATM   18  H19 UNL     1      -0.257  52.495 -24.606  1.00  0.00     0.166 HD
ENDROOT
BRANCH   1  19
HETATM   19  C2  UNL     1      -2.782  52.233 -25.856  1.00  0.00     0.010 C 
HETATM   20  C1  UNL     1      -2.536  51.954 -27.336  1.00  0.00     0.006 C 
ENDBRANCH   1  19
BRANCH   1  21
HETATM   21  C4  UNL     1      -4.512  51.533 -24.102  1.00  0.00     0.176 C 
BRANCH  21  22
HETATM   22  O1  UNL     1      -5.732  50.934 -24.504  1.00  0.00    -0.400 OA
HETATM   23  H8  UNL     1      -6.440  51.303 -23.951  1.00  0.00     0.209 HD
ENDBRANCH  21  22
ENDBRANCH   1  21
TORSDOF 3
ENDMDL
MODEL 2
REMARK minimizedAffinity -7.71743774
REMARK  3 active torsions:
REMARK  status: ('A' for Active; 'I' for Inactive)
REMARK    1  A    between atoms: C2_2  and  C3_3 
REMARK    2  A    between atoms: C3_3  and  C4_4 
REMARK    3  A    between atoms: C4_4  and  O1_5 
ROOT
HETATM    1  C3  UNL     1      -2.316  50.288 -22.435  1.00  0.00     0.017 C 
HETATM    2  C5  UNL     1      -3.239  50.687 -21.218  1.00  0.00     0.016 C 
HETATM    3  C6  UNL     1      -4.249  51.801 -21.504  1.00  0.00     0.031 C 
HETATM    4  C7  UNL     1      -4.714  51.804 -22.949  1.00  0.00     0.273 C 
HETATM    5  N1  UNL     1      -3.611  51.987 -23.892  1.00  0.00     0.100 N 
HETATM    6  C8  UNL     1      -3.972  51.469 -25.232  1.00  0.00     0.278 C 
HETATM    7  C9  UNL     1      -2.971  51.829 -26.348  1.00  0.00     0.072 C 
HETATM    8  C10 UNL     1      -1.575  51.682 -25.869  1.00  0.00    -0.019 A 
HETATM    9  C11 UNL     1      -1.286  51.560 -24.524  1.00  0.00     0.051 A 
HETATM   10  N2  UNL     1       0.078  51.615 -24.402  1.00  0.00    -0.357 N 
HETATM   11  C12 UNL     1       0.672  51.654 -25.645  1.00  0.00     0.043 A 
HETATM   12  C13 UNL     1       2.027  51.669 -25.996  1.00  0.00     0.030 A 
HETATM   13  C14 UNL     1       2.342  51.741 -27.356  1.00  0.00     0.002 A 
HETATM   14  C15 UNL     1       1.341  51.803 -28.323  1.00  0.00     0.001 A 
HETATM   15  C16 UNL     1      -0.009  51.790 -27.954  1.00  0.00     0.014 A 
HETATM   16  C17 UNL     1      -0.352  51.704 -26.591  1.00  0.00    -0.001 A 
HETATM   17  C18 UNL     1      -2.275  51.544 -23.389  1.00  0.00     0.283 C 
HETATM   18  H19 UNL     1       0.589  51.606 -23.533  1.00  0.00     0.166 HD
ENDROOT
BRANCH   1  19
HETATM   19  C2  UNL     1      -0.917  49.956 -21.795  1.00  0.00     0.010 C 
HETATM   20  C1  UNL     1      -0.841  48.892 -20.705  1.00  0.00     0.006 C 
ENDBRANCH   1  19
BRANCH   1  21
HETATM   21  C4  UNL     1      -2.924  49.010 -23.075  1.00  0.00     0.176 C 
BRANCH  21  22
HETATM   22  O1  UNL     1      -3.934  48.413 -22.280  1.00  0.00    -0.400 OA
HETATM   23  H8  UNL     1      -4.237  47.612 -22.738  1.00  0.00     0.209 HD
ENDBRANCH  21  22
ENDBRANCH   1  21
TORSDOF 3
ENDMDL
MODEL 3
REMARK minimizedAffinity -7.59432983
REMARK  3 active torsions:
REMARK  status: ('A' for Active; 'I' for Inactive)
REMARK    1  A    between atoms: C2_2  and  C3_3 
REMARK    2  A    between atoms: C3_3  and  C4_4 
REMARK    3  A    between atoms: C4_4  and  O1_5 
ROOT
HETATM    1  C3  UNL     1      -0.546  51.847 -24.597  1.00  0.00     0.017 C 
HETATM    2  C5  UNL     1       0.941  52.124 -25.050  1.00  0.00     0.016 C 
HETATM    3  C6  UNL     1       1.355  51.468 -26.369  1.00  0.00     0.031 C 
HETATM    4  C7  UNL     1       0.193  51.331 -27.337  1.00  0.00     0.273 C 
HETATM    5  N1  UNL     1      -0.898  50.525 -26.791  1.00  0.00     0.100 N 
HETATM    6  C8  UNL     1      -2.176  50.834 -27.474  1.00  0.00     0.278 C 
HETATM    7  C9  UNL     1      -3.331  49.871 -27.136  1.00  0.00     0.072 C 
HETATM    8  C10 UNL     1      -3.346  49.555 -25.688  1.00  0.00    -0.019 A 
HETATM    9  C11 UNL     1      -2.265  49.846 -24.878  1.00  0.00     0.051 A 
HETATM   10  N2  UNL     1      -2.520  49.284 -23.655  1.00  0.00    -0.357 N 
HETATM   11  C12 UNL     1      -3.786  48.740 -23.628  1.00  0.00     0.043 A 
HETATM   12  C13 UNL     1      -4.476  48.113 -22.583  1.00  0.00     0.030 A 
HETATM   13  C14 UNL     1      -5.758  47.625 -22.856  1.00  0.00     0.002 A 
HETATM   14  C15 UNL     1      -6.320  47.753 -24.124  1.00  0.00     0.001 A 
HETATM   15  C16 UNL     1      -5.615  48.380 -25.158  1.00  0.00     0.014 A 
HETATM   16  C17 UNL     1      -4.328  48.892 -24.904  1.00  0.00    -0.001 A 
HETATM   17  C18 UNL     1      -0.977  50.501 -25.299  1.00  0.00     0.283 C 
HETATM   18  H19 UNL     1      -1.889  49.281 -22.868  1.00  0.00     0.166 HD
ENDROOT
BRANCH   1  19
HETATM   19  C2  UNL     1      -0.480  51.730 -23.029  1.00  0.00     0.010 C 
HETATM   20  C1  UNL     1       0.551  52.561 -22.272  1.00  0.00     0.006 C 
ENDBRANCH   1  19
BRANCH   1  21
HETATM   21  C4  UNL     1      -1.389  53.086 -25.003  1.00  0.00     0.176 C 
BRANCH  21  22
HETATM   22  O1  UNL     1      -0.601  54.217 -25.330  1.00  0.00    -0.400 OA
HETATM   23  H8  UNL     1      -1.204  54.948 -25.544  1.00  0.00     0.209 HD
ENDBRANCH  21  22
ENDBRANCH   1  21
TORSDOF 3
ENDMDL
MODEL 4
REMARK minimizedAffinity -7.59274769
REMARK  3 active torsions:
REMARK  status: ('A' for Active; 'I' for Inactive)
REMARK    1  A    between atoms: C2_2  and  C3_3 
REMARK    2  A    between atoms: C3_3  and  C4_4 
REMARK    3  A    between atoms: C4_4  and  O1_5 
ROOT
HETATM    1  C3  UNL     1       0.340  51.881 -26.000  1.00  0.00     0.017 C 
HETATM    2  C5  UNL     1       0.203  53.040 -27.063  1.00  0.00     0.016 C 
HETATM    3  C6  UNL     1      -0.071  54.430 -26.482  1.00  0.00     0.031 C 
HETATM    4  C7  UNL     1       0.551  54.616 -25.110  1.00  0.00     0.273 C 
HETATM    5  N1  UNL     1       0.054  53.648 -24.133  1.00  0.00     0.100 N 
HETATM    6  C8  UNL     1       1.010  53.490 -23.013  1.00  0.00     0.278 C 
HETATM    7  C9  UNL     1       0.469  52.675 -21.821  1.00  0.00     0.072 C 
HETATM    8  C10 UNL     1      -0.290  51.493 -22.293  1.00  0.00    -0.019 A 
HETATM    9  C11 UNL     1      -0.695  51.378 -23.609  1.00  0.00     0.051 A 
HETATM   10  N2  UNL     1      -1.506  50.276 -23.682  1.00  0.00    -0.357 N 
HETATM   11  C12 UNL     1      -1.537  49.618 -22.471  1.00  0.00     0.043 A 
HETATM   12  C13 UNL     1      -2.190  48.435 -22.104  1.00  0.00     0.030 A 
HETATM   13  C14 UNL     1      -2.066  48.013 -20.777  1.00  0.00     0.002 A 
HETATM   14  C15 UNL     1      -1.326  48.750 -19.855  1.00  0.00     0.001 A 
HETATM   15  C16 UNL     1      -0.682  49.932 -20.239  1.00  0.00     0.014 A 
HETATM   16  C17 UNL     1      -0.781  50.371 -21.573  1.00  0.00    -0.001 A 
HETATM   17  C18 UNL     1      -0.442  52.365 -24.717  1.00  0.00     0.283 C 
HETATM   18  H19 UNL     1      -2.000  49.965 -24.505  1.00  0.00     0.166 HD
ENDROOT
BRANCH   1  19
HETATM   19  C2  UNL     1      -0.315  50.623 -26.681  1.00  0.00     0.010 C 
HETATM   20  C1  UNL     1      -1.727  50.742 -27.245  1.00  0.00     0.006 C 
ENDBRANCH   1  19
BRANCH   1  21
HETATM   21  C4  UNL     1       1.857  51.637 -25.777  1.00  0.00     0.176 C 
BRANCH  21  22
HETATM   22  O1  UNL     1       2.668  52.177 -26.806  1.00  0.00    -0.400 OA
HETATM   23  H8  UNL     1       3.591  51.957 -26.603  1.00  0.00     0.209 HD
ENDBRANCH  21  22
ENDBRANCH   1  21
TORSDOF 3
ENDMDL
MODEL 5
REMARK minimizedAffinity -7.46527672
REMARK  3 active torsions:
REMARK  status: ('A' for Active; 'I' for Inactive)
REMARK    1  A    between atoms: C2_2  and  C3_3 
REMARK    2  A    between atoms: C3_3  and  C4_4 
REMARK    3  A    between atoms: C4_4  and  O1_5 
ROOT
HETATM    1  C3  UNL     1      -0.978  51.133 -20.486  1.00  0.00     0.017 C 
HETATM    2  C5  UNL     1      -1.866  51.442 -19.218  1.00  0.00     0.016 C 
HETATM    3  C6  UNL     1      -3.378  51.369 -19.446  1.00  0.00     0.031 C 
HETATM    4  C7  UNL     1      -3.755  50.354 -20.510  1.00  0.00     0.273 C 
HETATM    5  N1  UNL     1      -3.148  50.650 -21.807  1.00  0.00     0.100 N 
HETATM    6  C8  UNL     1      -3.075  49.431 -22.646  1.00  0.00     0.278 C 
HETATM    7  C9  UNL     1      -2.673  49.687 -24.112  1.00  0.00     0.072 C 
HETATM    8  C10 UNL     1      -1.578  50.683 -24.191  1.00  0.00    -0.019 A 
HETATM    9  C11 UNL     1      -1.242  51.469 -23.105  1.00  0.00     0.051 A 
HETATM   10  N2  UNL     1      -0.326  52.387 -23.545  1.00  0.00    -0.357 N 
HETATM   11  C12 UNL     1       0.018  52.136 -24.856  1.00  0.00     0.043 A 
HETATM   12  C13 UNL     1       0.941  52.784 -25.686  1.00  0.00     0.030 A 
HETATM   13  C14 UNL     1       1.063  52.325 -27.001  1.00  0.00     0.002 A 
HETATM   14  C15 UNL     1       0.286  51.265 -27.466  1.00  0.00     0.001 A 
HETATM   15  C16 UNL     1      -0.634  50.631 -26.623  1.00  0.00     0.014 A 
HETATM   16  C17 UNL     1      -0.765  51.067 -25.291  1.00  0.00    -0.001 A 
HETATM   17  C18 UNL     1      -1.882  51.441 -21.743  1.00  0.00     0.283 C 
HETATM   18  H19 UNL     1       0.068  53.134 -22.993  1.00  0.00     0.166 HD
ENDROOT
BRANCH   1  19
HETATM   19  C2  UNL     1       0.257  52.100 -20.365  1.00  0.00     0.010 C 
HETATM   20  C1  UNL     1       0.160  53.303 -19.432  1.00  0.00     0.006 C 
ENDBRANCH   1  19
BRANCH   1  21
HETATM   21  C4  UNL     1      -0.511  49.657 -20.373  1.00  0.00     0.176 C 
BRANCH  21  22
HETATM   22  O1  UNL     1      -0.742  49.093 -19.094  1.00  0.00    -0.400 OA
HETATM   23  H8  UNL     1      -0.398  48.185 -19.103  1.00  0.00     0.209 HD
ENDBRANCH  21  22
ENDBRANCH   1  21
TORSDOF 3
ENDMDL
MODEL 6
REMARK minimizedAffinity -7.44214106
REMARK  3 active torsions:
REMARK  status: ('A' for Active; 'I' for Inactive)
REMARK    1  A    between atoms: C2_2  and  C3_3 
REMARK    2  A    between atoms: C3_3  and  C4_4 
REMARK    3  A    between atoms: C4_4  and  O1_5 
ROOT
HETATM    1  C3  UNL     1      -4.130  49.650 -23.242  1.00  0.00     0.017 C 
HETATM    2  C5  UNL     1      -4.920  48.302 -23.472  1.00  0.00     0.016 C 
HETATM    3  C6  UNL     1      -5.111  47.436 -22.224  1.00  0.00     0.031 C 
HETATM    4  C7  UNL     1      -5.211  48.264 -20.955  1.00  0.00     0.273 C 
HETATM    5  N1  UNL     1      -4.019  49.079 -20.722  1.00  0.00     0.100 N 
HETATM    6  C8  UNL     1      -4.329  50.226 -19.838  1.00  0.00     0.278 C 
HETATM    7  C9  UNL     1      -3.093  51.004 -19.343  1.00  0.00     0.072 C 
HETATM    8  C10 UNL     1      -2.111  51.183 -20.439  1.00  0.00    -0.019 A 
HETATM    9  C11 UNL     1      -2.200  50.454 -21.609  1.00  0.00     0.051 A 
HETATM   10  N2  UNL     1      -1.067  50.722 -22.333  1.00  0.00    -0.357 N 
HETATM   11  C12 UNL     1      -0.312  51.690 -21.708  1.00  0.00     0.043 A 
HETATM   12  C13 UNL     1       0.885  52.298 -22.106  1.00  0.00     0.030 A 
HETATM   13  C14 UNL     1       1.449  53.244 -21.244  1.00  0.00     0.002 A 
HETATM   14  C15 UNL     1       0.843  53.560 -20.030  1.00  0.00     0.001 A 
HETATM   15  C16 UNL     1      -0.352  52.940 -19.646  1.00  0.00     0.014 A 
HETATM   16  C17 UNL     1      -0.947  51.995 -20.503  1.00  0.00    -0.001 A 
HETATM   17  C18 UNL     1      -3.247  49.429 -21.953  1.00  0.00     0.283 C 
HETATM   18  H19 UNL     1      -0.819  50.295 -23.213  1.00  0.00     0.166 HD
ENDROOT
BRANCH   1  19
HETATM   19  C2  UNL     1      -3.275  49.849 -24.548  1.00  0.00     0.010 C 
HETATM   20  C1  UNL     1      -3.085  48.666 -25.491  1.00  0.00     0.006 C 
ENDBRANCH   1  19
BRANCH   1  21
HETATM   21  C4  UNL     1      -5.182  50.785 -23.117  1.00  0.00     0.176 C 
BRANCH  21  22
HETATM   22  O1  UNL     1      -5.494  51.398 -24.356  1.00  0.00    -0.400 OA
HETATM   23  H8  UNL     1      -6.133  52.108 -24.184  1.00  0.00     0.209 HD
ENDBRANCH  21  22
ENDBRANCH   1  21
TORSDOF 3
ENDMDL
MODEL 7
REMARK minimizedAffinity -7.31484127
REMARK  3 active torsions:
REMARK  status: ('A' for Active; 'I' for Inactive)
REMARK    1  A    between atoms: C2_2  and  C3_3 
REMARK    2  A    between atoms: C3_3  and  C4_4 
REMARK    3  A    between atoms: C4_4  and  O1_5 
ROOT
HETATM    1  C3  UNL     1      -3.139  49.242 -22.202  1.00  0.00     0.017 C 
HETATM    2  C5  UNL     1      -3.524  47.712 -22.162  1.00  0.00     0.016 C 
HETATM    3  C6  UNL     1      -2.654  46.844 -21.250  1.00  0.00     0.031 C 
HETATM    4  C7  UNL     1      -2.130  47.611 -20.049  1.00  0.00     0.273 C 
HETATM    5  N1  UNL     1      -1.315  48.764 -20.433  1.00  0.00     0.100 N 
HETATM    6  C8  UNL     1      -1.268  49.764 -19.341  1.00  0.00     0.278 C 
HETATM    7  C9  UNL     1      -0.247  50.898 -19.556  1.00  0.00     0.072 C 
HETATM    8  C10 UNL     1      -0.270  51.367 -20.962  1.00  0.00    -0.019 A 
HETATM    9  C11 UNL     1      -0.894  50.634 -21.953  1.00  0.00     0.051 A 
HETATM   10  N2  UNL     1      -0.594  51.239 -23.146  1.00  0.00    -0.357 N 
HETATM   11  C12 UNL     1       0.111  52.404 -22.932  1.00  0.00     0.043 A 
HETATM   12  C13 UNL     1       0.580  53.354 -23.847  1.00  0.00     0.030 A 
HETATM   13  C14 UNL     1       1.302  54.439 -23.340  1.00  0.00     0.002 A 
HETATM   14  C15 UNL     1       1.551  54.561 -21.974  1.00  0.00     0.001 A 
HETATM   15  C16 UNL     1       1.077  53.599 -21.074  1.00  0.00     0.014 A 
HETATM   16  C17 UNL     1       0.336  52.505 -21.559  1.00  0.00    -0.001 A 
HETATM   17  C18 UNL     1      -1.620  49.327 -21.783  1.00  0.00     0.283 C 
HETATM   18  H19 UNL     1      -0.863  50.903 -24.058  1.00  0.00     0.166 HD
ENDROOT
BRANCH   1  19
HETATM   19  C2  UNL     1      -3.393  49.688 -23.690  1.00  0.00     0.010 C 
HETATM   20  C1  UNL     1      -3.577  48.615 -24.758  1.00  0.00     0.006 C 
ENDBRANCH   1  19
BRANCH   1  21
HETATM   21  C4  UNL     1      -4.114  49.987 -21.250  1.00  0.00     0.176 C 
BRANCH  21  22
HETATM   22  O1  UNL     1      -4.092  51.395 -21.415  1.00  0.00    -0.400 OA
HETATM   23  H8  UNL     1      -4.705  51.779 -20.768  1.00  0.00     0.209 HD
ENDBRANCH  21  22
ENDBRANCH   1  21
TORSDOF 3
ENDMDL
MODEL 8
REMARK minimizedAffinity -7.27863932
REMARK  3 active torsions:
REMARK  status: ('A' for Active; 'I' for Inactive)
REMARK    1  A    between atoms: C2_2  and  C3_3 
REMARK    2  A    between atoms: C3_3  and  C4_4 
REMARK    3  A    between atoms: C4_4  and  O1_5 
ROOT
HETATM    1  C3  UNL     1      -4.401  49.139 -23.742  1.00  0.00     0.017 C 
HETATM    2  C5  UNL     1      -4.770  47.937 -22.787  1.00  0.00     0.016 C 
HETATM    3  C6  UNL     1      -3.866  47.776 -21.562  1.00  0.00     0.031 C 
HETATM    4  C7  UNL     1      -3.316  49.104 -21.071  1.00  0.00     0.273 C 
HETATM    5  N1  UNL     1      -2.524  49.793 -22.088  1.00  0.00     0.100 N 
HETATM    6  C8  UNL     1      -2.456  51.246 -21.809  1.00  0.00     0.278 C 
HETATM    7  C9  UNL     1      -1.452  52.020 -22.686  1.00  0.00     0.072 C 
HETATM    8  C10 UNL     1      -1.518  51.558 -24.093  1.00  0.00    -0.019 A 
HETATM    9  C11 UNL     1      -2.163  50.385 -24.435  1.00  0.00     0.051 A 
HETATM   10  N2  UNL     1      -1.902  50.158 -25.761  1.00  0.00    -0.357 N 
HETATM   11  C12 UNL     1      -1.202  51.213 -26.303  1.00  0.00     0.043 A 
HETATM   12  C13 UNL     1      -0.767  51.428 -27.617  1.00  0.00     0.030 A 
HETATM   13  C14 UNL     1      -0.042  52.595 -27.876  1.00  0.00     0.002 A 
HETATM   14  C15 UNL     1       0.243  53.504 -26.860  1.00  0.00     0.001 A 
HETATM   15  C16 UNL     1      -0.196  53.272 -25.551  1.00  0.00     0.014 A 
HETATM   16  C17 UNL     1      -0.940  52.111 -25.267  1.00  0.00    -0.001 A 
HETATM   17  C18 UNL     1      -2.872  49.443 -23.499  1.00  0.00     0.283 C 
HETATM   18  H19 UNL     1      -2.193  49.347 -26.285  1.00  0.00     0.166 HD
ENDROOT
BRANCH   1  19
HETATM   19  C2  UNL     1      -4.700  48.613 -25.195  1.00  0.00     0.010 C 
HETATM   20  C1  UNL     1      -6.052  47.965 -25.479  1.00  0.00     0.006 C 
ENDBRANCH   1  19
BRANCH   1  21
HETATM   21  C4  UNL     1      -5.356  50.313 -23.395  1.00  0.00     0.176 C 
BRANCH  21  22
HETATM   22  O1  UNL     1      -5.503  51.246 -24.451  1.00  0.00    -0.400 OA
HETATM   23  H8  UNL     1      -6.090  51.955 -24.142  1.00  0.00     0.209 HD
ENDBRANCH  21  22
ENDBRANCH   1  21
TORSDOF 3
ENDMDL
MODEL 9
REMARK minimizedAffinity -7.1279459
REMARK  3 active torsions:
REMARK  status: ('A' for Active; 'I' for Inactive)
REMARK    1  A    between atoms: C2_2  and  C3_3 
REMARK    2  A    between atoms: C3_3  and  C4_4 
REMARK    3  A    between atoms: C4_4  and  O1_5 
ROOT
HETATM    1  C3  UNL     1      -0.446  52.151 -25.710  1.00  0.00     0.017 C 
HETATM    2  C5  UNL     1      -0.436  51.733 -27.232  1.00  0.00     0.016 C 
HETATM    3  C6  UNL     1      -1.703  51.028 -27.723  1.00  0.00     0.031 C 
HETATM    4  C7  UNL     1      -2.946  51.494 -26.986  1.00  0.00     0.273 C 
HETATM    5  N1  UNL     1      -2.866  51.256 -25.546  1.00  0.00     0.100 N 
HETATM    6  C8  UNL     1      -3.785  52.156 -24.811  1.00  0.00     0.278 C 
HETATM    7  C9  UNL     1      -3.948  51.821 -23.315  1.00  0.00     0.072 C 
HETATM    8  C10 UNL     1      -2.640  51.473 -22.708  1.00  0.00    -0.019 A 
HETATM    9  C11 UNL     1      -1.539  51.189 -23.492  1.00  0.00     0.051 A 
HETATM   10  N2  UNL     1      -0.553  50.747 -22.648  1.00  0.00    -0.357 N 
HETATM   11  C12 UNL     1      -0.959  50.849 -21.335  1.00  0.00     0.043 A 
HETATM   12  C13 UNL     1      -0.269  50.559 -20.152  1.00  0.00     0.030 A 
HETATM   13  C14 UNL     1      -0.952  50.734 -18.945  1.00  0.00     0.002 A 
HETATM   14  C15 UNL     1      -2.274  51.172 -18.925  1.00  0.00     0.001 A 
HETATM   15  C16 UNL     1      -2.951  51.455 -20.117  1.00  0.00     0.014 A 
HETATM   16  C17 UNL     1      -2.280  51.300 -21.345  1.00  0.00    -0.001 A 
HETATM   17  C18 UNL     1      -1.478  51.195 -24.996  1.00  0.00     0.283 C 
HETATM   18  H19 UNL     1       0.355  50.412 -22.932  1.00  0.00     0.166 HD
ENDROOT
BRANCH   1  19
HETATM   19  C2  UNL     1       1.034  51.937 -25.218  1.00  0.00     0.010 C 
HETATM   20  C1  UNL     1       2.077  51.447 -26.217  1.00  0.00     0.006 C 
ENDBRANCH   1  19
BRANCH   1  21
HETATM   21  C4  UNL     1      -0.813  53.659 -25.649  1.00  0.00     0.176 C 
BRANCH  21  22
HETATM   22  O1  UNL     1       0.295  54.514 -25.869  1.00  0.00    -0.400 OA
HETATM   23  H8  UNL     1      -0.016  55.430 -25.788  1.00  0.00     0.209 HD
ENDBRANCH  21  22
ENDBRANCH   1  21
TORSDOF 3
ENDMDL
