MODEL 1
REMARK minimizedAffinity -7.98863459
REMARK CNNscore 0.801006198
REMARK CNNaffinity 7.22217798
REMARK  6 active torsions:
REMARK  status: ('A' for Active; 'I' for Inactive)
REMARK    1  A    between atoms: C2_2  and  C3_3 
REMARK    2  A    between atoms: C4_5  and  C5_6 
REMARK    3  A    between atoms: C5_6  and  C6_7 
REMARK    4  A    between atoms: C6_7  and  C7_8 
REMARK    5  A    between atoms: C7_8  and  C9_10 
REMARK    6  A    between atoms: C30_32  and  O3_33 
ROOT
HETATM    1  C9  UNL     1       5.719  55.998  -8.328  1.00  0.00    -0.002 C 
HETATM    2  C10 UNL     1       6.450  54.843  -9.070  1.00  0.00     0.007 C 
HETATM    3  C11 UNL     1       5.378  53.992  -9.776  1.00  0.00     0.015 C 
HETATM    4  C12 UNL     1       4.101  54.851  -9.745  1.00  0.00    -0.010 C 
HETATM    5  C13 UNL     1       4.197  55.860 -10.934  1.00  0.00     0.021 C 
HETATM    6  C14 UNL     1       2.739  54.169  -9.885  1.00  0.00    -0.039 C 
HETATM    7  C15 UNL     1       1.638  54.755  -9.338  1.00  0.00    -0.066 C 
HETATM    8  C16 UNL     1       1.752  56.046  -8.516  1.00  0.00     0.036 C 
HETATM    9  C17 UNL     1       3.162  56.600  -8.218  1.00  0.00     0.015 C 
HETATM   10  C18 UNL     1       4.236  55.510  -8.317  1.00  0.00    -0.029 C 
HETATM   11  C19 UNL     1       4.030  54.499  -7.149  1.00  0.00     0.016 C 
HETATM   12  C20 UNL     1       0.212  54.154  -9.493  1.00  0.00    -0.015 C 
HETATM   13  C21 UNL     1      -0.170  53.533  -8.128  1.00  0.00     0.020 C 
HETATM   14  C22 UNL     1      -0.800  55.268  -9.863  1.00  0.00     0.021 C 
HETATM   15  C23 UNL     1      -2.163  54.799 -10.362  1.00  0.00     0.080 C 
HETATM   16  C24 UNL     1      -2.361  53.302 -10.387  1.00  0.00     0.135 C 
HETATM   17  O2  UNL     1      -3.463  52.829 -10.096  1.00  0.00    -0.297 OA
HETATM   18  C25 UNL     1      -1.213  52.413 -10.877  1.00  0.00     0.018 C 
HETATM   19  C26 UNL     1      -1.323  51.045 -10.169  1.00  0.00     0.023 C 
HETATM   20  C27 UNL     1      -1.451  52.177 -12.382  1.00  0.00     0.023 C 
HETATM   21  C28 UNL     1       0.169  53.119 -10.669  1.00  0.00     0.016 C 
HETATM   22  C29 UNL     1       1.351  52.141 -10.575  1.00  0.00     0.043 C 
HETATM   23  C30 UNL     1       2.687  52.876 -10.664  1.00  0.00     0.148 C 
ENDROOT
BRANCH   1  24
HETATM   24  C7  UNL     1       6.416  56.375  -6.989  1.00  0.00    -0.014 C 
HETATM   25  C8  UNL     1       6.725  55.154  -6.116  1.00  0.00     0.010 C 
BRANCH  24  26
HETATM   26  C6  UNL     1       5.615  57.414  -6.159  1.00  0.00     0.008 C 
BRANCH  26  27
HETATM   27  C5  UNL     1       6.312  57.928  -4.893  1.00  0.00     0.028 C 
BRANCH  27  28
HETATM   28  C4  UNL     1       7.618  58.592  -5.240  1.00  0.00    -0.017 C 
HETATM   29  C2  UNL     1       8.070  59.791  -4.826  1.00  0.00    -0.028 C 
HETATM   30  C1  UNL     1       7.385  60.758  -3.911  1.00  0.00     0.051 C 
BRANCH  29  31
HETATM   31  C3  UNL     1       9.417  60.231  -5.308  1.00  0.00     0.265 C 
HETATM   32  O1  UNL     1      10.389  59.489  -5.404  1.00  0.00    -0.302 OA
ENDBRANCH  29  31
ENDBRANCH  27  28
ENDBRANCH  26  27
ENDBRANCH  24  26
ENDBRANCH   1  24
BRANCH  23  33
HETATM   33  O3  UNL     1       2.952  53.175 -12.031  1.00  0.00    -0.391 OA
HETATM   34  H46 UNL     1       3.038  52.330 -12.501  1.00  0.00     0.210 HD
ENDBRANCH  23  33
TORSDOF 6
ENDMDL
MODEL 2
REMARK minimizedAffinity -6.8471632
REMARK CNNscore 0.65593195
REMARK CNNaffinity 7.10908079
REMARK  6 active torsions:
REMARK  status: ('A' for Active; 'I' for Inactive)
REMARK    1  A    between atoms: C2_2  and  C3_3 
REMARK    2  A    between atoms: C4_5  and  C5_6 
REMARK    3  A    between atoms: C5_6  and  C6_7 
REMARK    4  A    between atoms: C6_7  and  C7_8 
REMARK    5  A    between atoms: C7_8  and  C9_10 
REMARK    6  A    between atoms: C30_32  and  O3_33 
ROOT
HETATM    1  C9  UNL     1       3.959  56.128  -8.200  1.00  0.00    -0.002 C 
HETATM    2  C10 UNL     1       4.892  55.140  -8.957  1.00  0.00     0.007 C 
HETATM    3  C11 UNL     1       3.997  54.189  -9.774  1.00  0.00     0.015 C 
HETATM    4  C12 UNL     1       2.607  54.851  -9.774  1.00  0.00    -0.010 C 
HETATM    5  C13 UNL     1       2.616  55.937 -10.899  1.00  0.00     0.021 C 
HETATM    6  C14 UNL     1       1.371  53.989 -10.037  1.00  0.00    -0.039 C 
HETATM    7  C15 UNL     1       0.167  54.373  -9.528  1.00  0.00    -0.066 C 
HETATM    8  C16 UNL     1       0.045  55.613  -8.630  1.00  0.00     0.036 C 
HETATM    9  C17 UNL     1       1.339  56.345  -8.216  1.00  0.00     0.015 C 
HETATM   10  C18 UNL     1       2.566  55.431  -8.307  1.00  0.00    -0.029 C 
HETATM   11  C19 UNL     1       2.451  54.328  -7.211  1.00  0.00     0.016 C 
HETATM   12  C20 UNL     1      -1.143  53.583  -9.803  1.00  0.00    -0.015 C 
HETATM   13  C21 UNL     1      -1.501  52.828  -8.501  1.00  0.00     0.020 C 
HETATM   14  C22 UNL     1      -2.288  54.560 -10.174  1.00  0.00     0.021 C 
HETATM   15  C23 UNL     1      -3.538  53.931 -10.781  1.00  0.00     0.080 C 
HETATM   16  C24 UNL     1      -3.510  52.426 -10.901  1.00  0.00     0.135 C 
HETATM   17  O2  UNL     1      -4.544  51.780 -10.705  1.00  0.00    -0.297 OA
HETATM   18  C25 UNL     1      -2.219  51.745 -11.366  1.00  0.00     0.018 C 
HETATM   19  C26 UNL     1      -2.163  50.334 -10.742  1.00  0.00     0.023 C 
HETATM   20  C27 UNL     1      -2.339  51.574 -12.893  1.00  0.00     0.023 C 
HETATM   21  C28 UNL     1      -0.969  52.629 -11.034  1.00  0.00     0.016 C 
HETATM   22  C29 UNL     1       0.338  51.829 -10.921  1.00  0.00     0.043 C 
HETATM   23  C30 UNL     1       1.553  52.754 -10.886  1.00  0.00     0.148 C 
ENDROOT
BRANCH   1  24
HETATM   24  C7  UNL     1       4.521  56.517  -6.801  1.00  0.00    -0.014 C 
HETATM   25  C8  UNL     1       3.825  57.743  -6.203  1.00  0.00     0.010 C 
BRANCH  24  26
HETATM   26  C6  UNL     1       6.056  56.744  -6.806  1.00  0.00     0.008 C 
BRANCH  26  27
HETATM   27  C5  UNL     1       6.845  55.951  -5.756  1.00  0.00     0.028 C 
BRANCH  27  28
HETATM   28  C4  UNL     1       7.159  54.569  -6.262  1.00  0.00    -0.017 C 
HETATM   29  C2  UNL     1       6.497  53.425  -6.002  1.00  0.00    -0.028 C 
HETATM   30  C1  UNL     1       5.281  53.248  -5.148  1.00  0.00     0.051 C 
BRANCH  29  31
HETATM   31  C3  UNL     1       7.005  52.168  -6.637  1.00  0.00     0.265 C 
HETATM   32  O1  UNL     1       7.766  51.379  -6.087  1.00  0.00    -0.302 OA
ENDBRANCH  29  31
ENDBRANCH  27  28
ENDBRANCH  26  27
ENDBRANCH  24  26
ENDBRANCH   1  24
BRANCH  23  33
HETATM   33  O3  UNL     1       1.843  53.175 -12.216  1.00  0.00    -0.391 OA
HETATM   34  H46 UNL     1       2.078  52.382 -12.726  1.00  0.00     0.210 HD
ENDBRANCH  23  33
TORSDOF 6
ENDMDL
MODEL 3
REMARK minimizedAffinity -8.72524548
REMARK CNNscore 0.636730254
REMARK CNNaffinity 7.2852993
REMARK  6 active torsions:
REMARK  status: ('A' for Active; 'I' for Inactive)
REMARK    1  A    between atoms: C2_2  and  C3_3 
REMARK    2  A    between atoms: C4_5  and  C5_6 
REMARK    3  A    between atoms: C5_6  and  C6_7 
REMARK    4  A    between atoms: C6_7  and  C7_8 
REMARK    5  A    between atoms: C7_8  and  C9_10 
REMARK    6  A    between atoms: C30_32  and  O3_33 
ROOT
HETATM    1  C9  UNL     1      -0.067  51.235 -20.187  1.00  0.00    -0.002 C 
HETATM    2  C10 UNL     1      -0.821  52.169 -19.198  1.00  0.00     0.007 C 
HETATM    3  C11 UNL     1      -2.139  51.471 -18.814  1.00  0.00     0.015 C 
HETATM    4  C12 UNL     1      -1.970  50.014 -19.279  1.00  0.00    -0.010 C 
HETATM    5  C13 UNL     1      -1.159  49.268 -18.171  1.00  0.00     0.021 C 
HETATM    6  C14 UNL     1      -3.215  49.161 -19.529  1.00  0.00    -0.039 C 
HETATM    7  C15 UNL     1      -3.153  48.130 -20.417  1.00  0.00    -0.066 C 
HETATM    8  C16 UNL     1      -1.879  47.858 -21.230  1.00  0.00     0.036 C 
HETATM    9  C17 UNL     1      -0.708  48.857 -21.108  1.00  0.00     0.015 C 
HETATM   10  C18 UNL     1      -1.181  50.235 -20.628  1.00  0.00    -0.029 C 
HETATM   11  C19 UNL     1      -2.048  50.884 -21.750  1.00  0.00     0.016 C 
HETATM   12  C20 UNL     1      -4.358  47.182 -20.677  1.00  0.00    -0.015 C 
HETATM   13  C21 UNL     1      -4.942  47.559 -22.060  1.00  0.00     0.020 C 
HETATM   14  C22 UNL     1      -3.883  45.707 -20.694  1.00  0.00     0.021 C 
HETATM   15  C23 UNL     1      -4.978  44.648 -20.614  1.00  0.00     0.080 C 
HETATM   16  C24 UNL     1      -6.390  45.181 -20.574  1.00  0.00     0.135 C 
HETATM   17  O2  UNL     1      -7.288  44.573 -21.165  1.00  0.00    -0.297 OA
HETATM   18  C25 UNL     1      -6.692  46.410 -19.711  1.00  0.00     0.018 C 
HETATM   19  C26 UNL     1      -7.875  47.171 -20.348  1.00  0.00     0.023 C 
HETATM   20  C27 UNL     1      -7.163  45.881 -18.342  1.00  0.00     0.023 C 
HETATM   21  C28 UNL     1      -5.409  47.288 -19.520  1.00  0.00     0.016 C 
HETATM   22  C29 UNL     1      -5.714  48.759 -19.197  1.00  0.00     0.043 C 
HETATM   23  C30 UNL     1      -4.457  49.498 -18.739  1.00  0.00     0.148 C 
ENDROOT
BRANCH   1  24
HETATM   24  C7  UNL     1       0.725  52.031 -21.265  1.00  0.00    -0.014 C 
HETATM   25  C8  UNL     1       1.170  53.412 -20.774  1.00  0.00     0.010 C 
BRANCH  24  26
HETATM   26  C6  UNL     1      -0.053  52.183 -22.600  1.00  0.00     0.008 C 
BRANCH  26  27
HETATM   27  C5  UNL     1       0.737  52.807 -23.758  1.00  0.00     0.028 C 
BRANCH  27  28
HETATM   28  C4  UNL     1       0.162  52.380 -25.082  1.00  0.00    -0.017 C 
HETATM   29  C2  UNL     1       0.809  51.815 -26.119  1.00  0.00    -0.028 C 
HETATM   30  C1  UNL     1       2.262  51.466 -26.207  1.00  0.00     0.051 C 
BRANCH  29  31
HETATM   31  C3  UNL     1       0.007  51.472 -27.336  1.00  0.00     0.265 C 
HETATM   32  O1  UNL     1       0.425  51.571 -28.484  1.00  0.00    -0.302 OA
ENDBRANCH  29  31
ENDBRANCH  27  28
ENDBRANCH  26  27
ENDBRANCH  24  26
ENDBRANCH   1  24
BRANCH  23  33
HETATM   33  O3  UNL     1      -4.211  49.175 -17.374  1.00  0.00    -0.391 OA
HETATM   34  H46 UNL     1      -4.964  49.507 -16.858  1.00  0.00     0.210 HD
ENDBRANCH  23  33
TORSDOF 6
ENDMDL
MODEL 4
REMARK minimizedAffinity -7.28566074
REMARK CNNscore 0.542617202
REMARK CNNaffinity 6.12640572
REMARK  6 active torsions:
REMARK  status: ('A' for Active; 'I' for Inactive)
REMARK    1  A    between atoms: C2_2  and  C3_3 
REMARK    2  A    between atoms: C4_5  and  C5_6 
REMARK    3  A    between atoms: C5_6  and  C6_7 
REMARK    4  A    between atoms: C6_7  and  C7_8 
REMARK    5  A    between atoms: C7_8  and  C9_10 
REMARK    6  A    between atoms: C30_32  and  O3_33 
ROOT
HETATM    1  C9  UNL     1     -13.240  45.369 -28.454  1.00  0.00    -0.002 C 
HETATM    2  C10 UNL     1     -13.359  46.771 -27.790  1.00  0.00     0.007 C 
HETATM    3  C11 UNL     1     -12.061  47.542 -28.097  1.00  0.00     0.015 C 
HETATM    4  C12 UNL     1     -11.375  46.740 -29.218  1.00  0.00    -0.010 C 
HETATM    5  C13 UNL     1     -12.042  47.169 -30.564  1.00  0.00     0.021 C 
HETATM    6  C14 UNL     1      -9.868  46.894 -29.431  1.00  0.00    -0.039 C 
HETATM    7  C15 UNL     1      -9.162  45.870 -29.985  1.00  0.00    -0.066 C 
HETATM    8  C16 UNL     1      -9.838  44.534 -30.326  1.00  0.00     0.036 C 
HETATM    9  C17 UNL     1     -11.312  44.334 -29.912  1.00  0.00     0.015 C 
HETATM   10  C18 UNL     1     -11.713  45.267 -28.763  1.00  0.00    -0.029 C 
HETATM   11  C19 UNL     1     -10.951  44.829 -27.475  1.00  0.00     0.016 C 
HETATM   12  C20 UNL     1      -7.641  45.976 -30.289  1.00  0.00    -0.015 C 
HETATM   13  C21 UNL     1      -6.904  45.125 -29.227  1.00  0.00     0.020 C 
HETATM   14  C22 UNL     1      -7.340  45.422 -31.705  1.00  0.00     0.021 C 
HETATM   15  C23 UNL     1      -5.963  45.748 -32.275  1.00  0.00     0.080 C 
HETATM   16  C24 UNL     1      -5.055  46.535 -31.360  1.00  0.00     0.135 C 
HETATM   17  O2  UNL     1      -3.845  46.292 -31.347  1.00  0.00    -0.297 OA
HETATM   18  C25 UNL     1      -5.648  47.690 -30.547  1.00  0.00     0.018 C 
HETATM   19  C26 UNL     1      -4.826  47.839 -29.248  1.00  0.00     0.023 C 
HETATM   20  C27 UNL     1      -5.435  48.969 -31.380  1.00  0.00     0.023 C 
HETATM   21  C28 UNL     1      -7.179  47.473 -30.301  1.00  0.00     0.016 C 
HETATM   22  C29 UNL     1      -7.715  48.216 -29.067  1.00  0.00     0.043 C 
HETATM   23  C30 UNL     1      -9.242  48.211 -29.036  1.00  0.00     0.148 C 
ENDROOT
BRANCH   1  24
HETATM   24  C7  UNL     1     -13.933  44.257 -27.615  1.00  0.00    -0.014 C 
HETATM   25  C8  UNL     1     -13.928  42.895 -28.316  1.00  0.00     0.010 C 
BRANCH  24  26
HETATM   26  C6  UNL     1     -15.385  44.622 -27.206  1.00  0.00     0.008 C 
BRANCH  26  27
HETATM   27  C5  UNL     1     -15.757  44.322 -25.748  1.00  0.00     0.028 C 
BRANCH  27  28
HETATM   28  C4  UNL     1     -17.080  44.947 -25.398  1.00  0.00    -0.017 C 
HETATM   29  C2  UNL     1     -17.302  46.158 -24.852  1.00  0.00    -0.028 C 
HETATM   30  C1  UNL     1     -16.284  47.184 -24.463  1.00  0.00     0.051 C 
BRANCH  29  31
HETATM   31  C3  UNL     1     -18.723  46.560 -24.605  1.00  0.00     0.265 C 
HETATM   32  O1  UNL     1     -19.151  47.699 -24.755  1.00  0.00    -0.302 OA
ENDBRANCH  29  31
ENDBRANCH  27  28
ENDBRANCH  26  27
ENDBRANCH  24  26
ENDBRANCH   1  24
BRANCH  23  33
HETATM   33  O3  UNL     1      -9.719  49.210 -29.932  1.00  0.00    -0.391 OA
HETATM   34  H46 UNL     1      -9.410  50.069 -29.599  1.00  0.00     0.210 HD
ENDBRANCH  23  33
TORSDOF 6
ENDMDL
MODEL 5
REMARK minimizedAffinity -7.93918943
REMARK CNNscore 0.452474266
REMARK CNNaffinity 5.77163935
REMARK  6 active torsions:
REMARK  status: ('A' for Active; 'I' for Inactive)
REMARK    1  A    between atoms: C2_2  and  C3_3 
REMARK    2  A    between atoms: C4_5  and  C5_6 
REMARK    3  A    between atoms: C5_6  and  C6_7 
REMARK    4  A    between atoms: C6_7  and  C7_8 
REMARK    5  A    between atoms: C7_8  and  C9_10 
REMARK    6  A    between atoms: C30_32  and  O3_33 
ROOT
HETATM    1  C9  UNL     1       7.070  66.721 -36.288  1.00  0.00    -0.002 C 
HETATM    2  C10 UNL     1       7.897  66.888 -37.594  1.00  0.00     0.007 C 
HETATM    3  C11 UNL     1       6.939  67.393 -38.689  1.00  0.00     0.015 C 
HETATM    4  C12 UNL     1       5.679  67.857 -37.936  1.00  0.00    -0.010 C 
HETATM    5  C13 UNL     1       5.965  69.300 -37.408  1.00  0.00     0.021 C 
HETATM    6  C14 UNL     1       4.349  67.943 -38.686  1.00  0.00    -0.039 C 
HETATM    7  C15 UNL     1       3.182  67.808 -37.998  1.00  0.00    -0.066 C 
HETATM    8  C16 UNL     1       3.180  67.492 -36.495  1.00  0.00     0.036 C 
HETATM    9  C17 UNL     1       4.531  67.208 -35.806  1.00  0.00     0.015 C 
HETATM   10  C18 UNL     1       5.599  66.754 -36.809  1.00  0.00    -0.029 C 
HETATM   11  C19 UNL     1       5.208  65.346 -37.351  1.00  0.00     0.016 C 
HETATM   12  C20 UNL     1       1.792  67.944 -38.681  1.00  0.00    -0.015 C 
HETATM   13  C21 UNL     1       1.200  66.520 -38.797  1.00  0.00     0.020 C 
HETATM   14  C22 UNL     1       0.858  68.831 -37.818  1.00  0.00     0.021 C 
HETATM   15  C23 UNL     1      -0.416  69.323 -38.497  1.00  0.00     0.080 C 
HETATM   16  C24 UNL     1      -0.620  68.842 -39.913  1.00  0.00     0.135 C 
HETATM   17  O2  UNL     1      -1.758  68.566 -40.305  1.00  0.00    -0.297 OA
HETATM   18  C25 UNL     1       0.581  68.810 -40.863  1.00  0.00     0.018 C 
HETATM   19  C26 UNL     1       0.352  67.685 -41.896  1.00  0.00     0.023 C 
HETATM   20  C27 UNL     1       0.575  70.149 -41.626  1.00  0.00     0.023 C 
HETATM   21  C28 UNL     1       1.921  68.667 -40.065  1.00  0.00     0.016 C 
HETATM   22  C29 UNL     1       3.066  68.059 -40.890  1.00  0.00     0.043 C 
HETATM   23  C30 UNL     1       4.407  68.208 -40.172  1.00  0.00     0.148 C 
ENDROOT
BRANCH   1  24
HETATM   24  C7  UNL     1       7.557  65.518 -35.429  1.00  0.00    -0.014 C 
HETATM   25  C8  UNL     1       7.007  64.176 -35.923  1.00  0.00     0.010 C 
BRANCH  24  26
HETATM   26  C6  UNL     1       7.239  65.682 -33.919  1.00  0.00     0.008 C 
BRANCH  26  27
HETATM   27  C5  UNL     1       5.749  65.762 -33.562  1.00  0.00     0.028 C 
BRANCH  27  28
HETATM   28  C4  UNL     1       5.155  64.384 -33.454  1.00  0.00    -0.017 C 
HETATM   29  C2  UNL     1       4.323  63.916 -32.505  1.00  0.00    -0.028 C 
HETATM   30  C1  UNL     1       3.777  64.657 -31.324  1.00  0.00     0.051 C 
BRANCH  29  31
HETATM   31  C3  UNL     1       3.859  62.497 -32.624  1.00  0.00     0.265 C 
HETATM   32  O1  UNL     1       4.095  61.776 -33.587  1.00  0.00    -0.302 OA
ENDBRANCH  29  31
ENDBRANCH  27  28
ENDBRANCH  26  27
ENDBRANCH  24  26
ENDBRANCH   1  24
BRANCH  23  33
HETATM   33  O3  UNL     1       4.881  69.538 -40.363  1.00  0.00    -0.391 OA
HETATM   34  H46 UNL     1       5.030  69.658 -41.315  1.00  0.00     0.210 HD
ENDBRANCH  23  33
TORSDOF 6
ENDMDL
MODEL 6
REMARK minimizedAffinity -7.54010296
REMARK CNNscore 0.420131713
REMARK CNNaffinity 6.52884245
REMARK  6 active torsions:
REMARK  status: ('A' for Active; 'I' for Inactive)
REMARK    1  A    between atoms: C2_2  and  C3_3 
REMARK    2  A    between atoms: C4_5  and  C5_6 
REMARK    3  A    between atoms: C5_6  and  C6_7 
REMARK    4  A    between atoms: C6_7  and  C7_8 
REMARK    5  A    between atoms: C7_8  and  C9_10 
REMARK    6  A    between atoms: C30_32  and  O3_33 
ROOT
HETATM    1  C9  UNL     1      -3.632  49.588 -22.337  1.00  0.00    -0.002 C 
HETATM    2  C10 UNL     1      -2.752  48.361 -21.962  1.00  0.00     0.007 C 
HETATM    3  C11 UNL     1      -3.610  47.422 -21.094  1.00  0.00     0.015 C 
HETATM    4  C12 UNL     1      -5.056  47.919 -21.275  1.00  0.00    -0.010 C 
HETATM    5  C13 UNL     1      -5.589  47.303 -22.609  1.00  0.00     0.021 C 
HETATM    6  C14 UNL     1      -6.101  47.579 -20.212  1.00  0.00    -0.039 C 
HETATM    7  C15 UNL     1      -7.172  48.401 -20.039  1.00  0.00    -0.066 C 
HETATM    8  C16 UNL     1      -7.308  49.705 -20.839  1.00  0.00     0.036 C 
HETATM    9  C17 UNL     1      -6.139  50.125 -21.756  1.00  0.00     0.015 C 
HETATM   10  C18 UNL     1      -4.817  49.478 -21.326  1.00  0.00    -0.029 C 
HETATM   11  C19 UNL     1      -4.388  50.081 -19.955  1.00  0.00     0.016 C 
HETATM   12  C20 UNL     1      -8.306  48.089 -19.022  1.00  0.00    -0.015 C 
HETATM   13  C21 UNL     1      -8.123  49.054 -17.826  1.00  0.00     0.020 C 
HETATM   14  C22 UNL     1      -9.691  48.325 -19.677  1.00  0.00     0.021 C 
HETATM   15  C23 UNL     1     -10.894  47.761 -18.927  1.00  0.00     0.080 C 
HETATM   16  C24 UNL     1     -10.576  47.082 -17.616  1.00  0.00     0.135 C 
HETATM   17  O2  UNL     1     -11.353  47.203 -16.664  1.00  0.00    -0.297 OA
HETATM   18  C25 UNL     1      -9.347  46.171 -17.534  1.00  0.00     0.018 C 
HETATM   19  C26 UNL     1      -8.820  46.198 -16.083  1.00  0.00     0.023 C 
HETATM   20  C27 UNL     1      -9.841  44.739 -17.822  1.00  0.00     0.023 C 
HETATM   21  C28 UNL     1      -8.275  46.580 -18.600  1.00  0.00     0.016 C 
HETATM   22  C29 UNL     1      -6.847  46.149 -18.233  1.00  0.00     0.043 C 
HETATM   23  C30 UNL     1      -5.897  46.310 -19.419  1.00  0.00     0.148 C 
ENDROOT
BRANCH   1  24
HETATM   24  C7  UNL     1      -2.806  50.905 -22.416  1.00  0.00    -0.014 C 
HETATM   25  C8  UNL     1      -3.321  51.863 -23.495  1.00  0.00     0.010 C 
BRANCH  24  26
HETATM   26  C6  UNL     1      -1.288  50.657 -22.627  1.00  0.00     0.008 C 
BRANCH  26  27
HETATM   27  C5  UNL     1      -0.428  50.710 -21.358  1.00  0.00     0.028 C 
BRANCH  27  28
HETATM   28  C4  UNL     1       0.357  51.993 -21.303  1.00  0.00    -0.017 C 
HETATM   29  C2  UNL     1       0.477  52.844 -20.266  1.00  0.00    -0.028 C 
HETATM   30  C1  UNL     1      -0.138  52.718 -18.907  1.00  0.00     0.051 C 
BRANCH  29  31
HETATM   31  C3  UNL     1       1.329  54.060 -20.459  1.00  0.00     0.265 C 
HETATM   32  O1  UNL     1       1.683  54.485 -21.553  1.00  0.00    -0.302 OA
ENDBRANCH  29  31
ENDBRANCH  27  28
ENDBRANCH  26  27
ENDBRANCH  24  26
ENDBRANCH   1  24
BRANCH  23  33
HETATM   33  O3  UNL     1      -6.080  45.206 -20.302  1.00  0.00    -0.391 OA
HETATM   34  H46 UNL     1      -5.829  44.403 -19.816  1.00  0.00     0.210 HD
ENDBRANCH  23  33
TORSDOF 6
ENDMDL
MODEL 7
REMARK minimizedAffinity -7.66800213
REMARK CNNscore 0.417381763
REMARK CNNaffinity 6.81388235
REMARK  6 active torsions:
REMARK  status: ('A' for Active; 'I' for Inactive)
REMARK    1  A    between atoms: C2_2  and  C3_3 
REMARK    2  A    between atoms: C4_5  and  C5_6 
REMARK    3  A    between atoms: C5_6  and  C6_7 
REMARK    4  A    between atoms: C6_7  and  C7_8 
REMARK    5  A    between atoms: C7_8  and  C9_10 
REMARK    6  A    between atoms: C30_32  and  O3_33 
ROOT
HETATM    1  C9  UNL     1      -3.624  48.900 -20.761  1.00  0.00    -0.002 C 
HETATM    2  C10 UNL     1      -4.928  48.840 -19.915  1.00  0.00     0.007 C 
HETATM    3  C11 UNL     1      -4.573  49.283 -18.483  1.00  0.00     0.015 C 
HETATM    4  C12 UNL     1      -3.183  49.933 -18.599  1.00  0.00    -0.010 C 
HETATM    5  C13 UNL     1      -3.403  51.403 -19.084  1.00  0.00     0.021 C 
HETATM    6  C14 UNL     1      -2.300  50.033 -17.353  1.00  0.00    -0.039 C 
HETATM    7  C15 UNL     1      -0.947  50.076 -17.495  1.00  0.00    -0.066 C 
HETATM    8  C16 UNL     1      -0.289  49.947 -18.876  1.00  0.00     0.036 C 
HETATM    9  C17 UNL     1      -1.192  49.642 -20.090  1.00  0.00     0.015 C 
HETATM   10  C18 UNL     1      -2.512  48.986 -19.668  1.00  0.00    -0.029 C 
HETATM   11  C19 UNL     1      -2.208  47.558 -19.122  1.00  0.00     0.016 C 
HETATM   12  C20 UNL     1       0.012  50.239 -16.282  1.00  0.00    -0.015 C 
HETATM   13  C21 UNL     1       0.675  48.863 -16.037  1.00  0.00     0.020 C 
HETATM   14  C22 UNL     1       1.101  51.296 -16.600  1.00  0.00     0.021 C 
HETATM   15  C23 UNL     1       1.913  51.802 -15.412  1.00  0.00     0.080 C 
HETATM   16  C24 UNL     1       1.575  51.170 -14.083  1.00  0.00     0.135 C 
HETATM   17  O2  UNL     1       2.477  50.940 -13.271  1.00  0.00    -0.297 OA
HETATM   18  C25 UNL     1       0.104  50.927 -13.733  1.00  0.00     0.018 C 
HETATM   19  C26 UNL     1       0.025  49.707 -12.790  1.00  0.00     0.023 C 
HETATM   20  C27 UNL     1      -0.369  52.160 -12.937  1.00  0.00     0.023 C 
HETATM   21  C28 UNL     1      -0.762  50.776 -15.029  1.00  0.00     0.016 C 
HETATM   22  C29 UNL     1      -2.060  49.983 -14.813  1.00  0.00     0.043 C 
HETATM   23  C30 UNL     1      -2.995  50.110 -16.015  1.00  0.00     0.148 C 
ENDROOT
BRANCH   1  24
HETATM   24  C7  UNL     1      -3.563  47.774 -21.835  1.00  0.00    -0.014 C 
HETATM   25  C8  UNL     1      -2.593  46.649 -21.460  1.00  0.00     0.010 C 
BRANCH  24  26
HETATM   26  C6  UNL     1      -3.216  48.306 -23.251  1.00  0.00     0.008 C 
BRANCH  26  27
HETATM   27  C5  UNL     1      -4.328  49.097 -23.951  1.00  0.00     0.028 C 
BRANCH  27  28
HETATM   28  C4  UNL     1      -4.492  48.635 -25.374  1.00  0.00    -0.017 C 
HETATM   29  C2  UNL     1      -3.661  48.847 -26.412  1.00  0.00    -0.028 C 
HETATM   30  C1  UNL     1      -2.363  49.593 -26.404  1.00  0.00     0.051 C 
BRANCH  29  31
HETATM   31  C3  UNL     1      -4.045  48.272 -27.740  1.00  0.00     0.265 C 
HETATM   32  O1  UNL     1      -5.185  47.930 -28.037  1.00  0.00    -0.302 OA
ENDBRANCH  29  31
ENDBRANCH  27  28
ENDBRANCH  26  27
ENDBRANCH  24  26
ENDBRANCH   1  24
BRANCH  23  33
HETATM   33  O3  UNL     1      -3.665  51.365 -15.939  1.00  0.00    -0.391 OA
HETATM   34  H46 UNL     1      -4.206  51.356 -15.132  1.00  0.00     0.210 HD
ENDBRANCH  23  33
TORSDOF 6
ENDMDL
MODEL 8
REMARK minimizedAffinity -6.99296474
REMARK CNNscore 0.408924341
REMARK CNNaffinity 6.53914213
REMARK  6 active torsions:
REMARK  status: ('A' for Active; 'I' for Inactive)
REMARK    1  A    between atoms: C2_2  and  C3_3 
REMARK    2  A    between atoms: C4_5  and  C5_6 
REMARK    3  A    between atoms: C5_6  and  C6_7 
REMARK    4  A    between atoms: C6_7  and  C7_8 
REMARK    5  A    between atoms: C7_8  and  C9_10 
REMARK    6  A    between atoms: C30_32  and  O3_33 
ROOT
HETATM    1  C9  UNL     1      -3.700  50.429 -23.531  1.00  0.00    -0.002 C 
HETATM    2  C10 UNL     1      -4.565  50.002 -24.751  1.00  0.00     0.007 C 
HETATM    3  C11 UNL     1      -5.424  48.801 -24.314  1.00  0.00     0.015 C 
HETATM    4  C12 UNL     1      -5.326  48.777 -22.778  1.00  0.00    -0.010 C 
HETATM    5  C13 UNL     1      -6.359  49.817 -22.235  1.00  0.00     0.021 C 
HETATM    6  C14 UNL     1      -5.614  47.473 -22.031  1.00  0.00    -0.039 C 
HETATM    7  C15 UNL     1      -5.036  47.255 -20.818  1.00  0.00    -0.066 C 
HETATM    8  C16 UNL     1      -4.039  48.260 -20.222  1.00  0.00     0.036 C 
HETATM    9  C17 UNL     1      -3.611  49.464 -21.087  1.00  0.00     0.015 C 
HETATM   10  C18 UNL     1      -3.816  49.195 -22.582  1.00  0.00    -0.029 C 
HETATM   11  C19 UNL     1      -2.808  48.095 -23.035  1.00  0.00     0.016 C 
HETATM   12  C20 UNL     1      -5.330  45.984 -19.973  1.00  0.00    -0.015 C 
HETATM   13  C21 UNL     1      -4.081  45.075 -20.069  1.00  0.00     0.020 C 
HETATM   14  C22 UNL     1      -5.583  46.372 -18.493  1.00  0.00     0.021 C 
HETATM   15  C23 UNL     1      -6.196  45.290 -17.611  1.00  0.00     0.080 C 
HETATM   16  C24 UNL     1      -6.436  43.962 -18.289  1.00  0.00     0.135 C 
HETATM   17  O2  UNL     1      -6.259  42.916 -17.659  1.00  0.00    -0.297 OA
HETATM   18  C25 UNL     1      -6.998  43.952 -19.714  1.00  0.00     0.018 C 
HETATM   19  C26 UNL     1      -6.491  42.678 -20.425  1.00  0.00     0.023 C 
HETATM   20  C27 UNL     1      -8.529  43.832 -19.583  1.00  0.00     0.023 C 
HETATM   21  C28 UNL     1      -6.639  45.277 -20.467  1.00  0.00     0.016 C 
HETATM   22  C29 UNL     1      -6.633  45.134 -21.997  1.00  0.00     0.043 C 
HETATM   23  C30 UNL     1      -6.565  46.497 -22.682  1.00  0.00     0.148 C 
ENDROOT
BRANCH   1  24
HETATM   24  C7  UNL     1      -2.294  50.946 -23.955  1.00  0.00    -0.014 C 
HETATM   25  C8  UNL     1      -1.755  50.242 -25.203  1.00  0.00     0.010 C 
BRANCH  24  26
HETATM   26  C6  UNL     1      -1.245  50.852 -22.814  1.00  0.00     0.008 C 
BRANCH  26  27
HETATM   27  C5  UNL     1      -1.418  51.862 -21.672  1.00  0.00     0.028 C 
BRANCH  27  28
HETATM   28  C4  UNL     1      -0.232  52.785 -21.596  1.00  0.00    -0.017 C 
HETATM   29  C2  UNL     1       0.506  53.093 -20.512  1.00  0.00    -0.028 C 
HETATM   30  C1  UNL     1       0.329  52.587 -19.114  1.00  0.00     0.051 C 
BRANCH  29  31
HETATM   31  C3  UNL     1       1.651  54.039 -20.696  1.00  0.00     0.265 C 
HETATM   32  O1  UNL     1       1.879  54.648 -21.736  1.00  0.00    -0.302 OA
ENDBRANCH  29  31
ENDBRANCH  27  28
ENDBRANCH  26  27
ENDBRANCH  24  26
ENDBRANCH   1  24
BRANCH  23  33
HETATM   33  O3  UNL     1      -7.866  47.078 -22.670  1.00  0.00    -0.391 OA
HETATM   34  H46 UNL     1      -8.445  46.501 -23.196  1.00  0.00     0.210 HD
ENDBRANCH  23  33
TORSDOF 6
ENDMDL
MODEL 9
REMARK minimizedAffinity -7.46871805
REMARK CNNscore 0.359694928
REMARK CNNaffinity 6.19827414
REMARK  6 active torsions:
REMARK  status: ('A' for Active; 'I' for Inactive)
REMARK    1  A    between atoms: C2_2  and  C3_3 
REMARK    2  A    between atoms: C4_5  and  C5_6 
REMARK    3  A    between atoms: C5_6  and  C6_7 
REMARK    4  A    between atoms: C6_7  and  C7_8 
REMARK    5  A    between atoms: C7_8  and  C9_10 
REMARK    6  A    between atoms: C30_32  and  O3_33 
ROOT
HETATM    1  C9  UNL     1      -4.243  49.797 -21.595  1.00  0.00    -0.002 C 
HETATM    2  C10 UNL     1      -4.919  49.546 -20.217  1.00  0.00     0.007 C 
HETATM    3  C11 UNL     1      -6.149  48.651 -20.460  1.00  0.00     0.015 C 
HETATM    4  C12 UNL     1      -5.968  48.101 -21.886  1.00  0.00    -0.010 C 
HETATM    5  C13 UNL     1      -4.999  46.879 -21.788  1.00  0.00     0.021 C 
HETATM    6  C14 UNL     1      -7.193  47.602 -22.655  1.00  0.00    -0.039 C 
HETATM    7  C15 UNL     1      -7.187  47.632 -24.016  1.00  0.00    -0.066 C 
HETATM    8  C16 UNL     1      -6.005  48.232 -24.791  1.00  0.00     0.036 C 
HETATM    9  C17 UNL     1      -4.876  48.913 -23.989  1.00  0.00     0.015 C 
HETATM   10  C18 UNL     1      -5.353  49.366 -22.604  1.00  0.00    -0.029 C 
HETATM   11  C19 UNL     1      -6.374  50.530 -22.782  1.00  0.00     0.016 C 
HETATM   12  C20 UNL     1      -8.368  47.085 -24.866  1.00  0.00    -0.015 C 
HETATM   13  C21 UNL     1      -9.127  48.309 -25.432  1.00  0.00     0.020 C 
HETATM   14  C22 UNL     1      -7.830  46.217 -26.033  1.00  0.00     0.021 C 
HETATM   15  C23 UNL     1      -8.858  45.353 -26.757  1.00  0.00     0.080 C 
HETATM   16  C24 UNL     1     -10.279  45.493 -26.266  1.00  0.00     0.135 C 
HETATM   17  O2  UNL     1     -11.210  45.450 -27.076  1.00  0.00    -0.297 OA
HETATM   18  C25 UNL     1     -10.535  45.578 -24.758  1.00  0.00     0.018 C 
HETATM   19  C26 UNL     1     -11.819  46.406 -24.530  1.00  0.00     0.023 C 
HETATM   20  C27 UNL     1     -10.819  44.141 -24.278  1.00  0.00     0.023 C 
HETATM   21  C28 UNL     1      -9.282  46.144 -24.009  1.00  0.00     0.016 C 
HETATM   22  C29 UNL     1      -9.614  46.795 -22.657  1.00  0.00     0.043 C 
HETATM   23  C30 UNL     1      -8.349  47.065 -21.845  1.00  0.00     0.148 C 
ENDROOT
BRANCH   1  24
HETATM   24  C7  UNL     1      -3.620  51.220 -21.696  1.00  0.00    -0.014 C 
HETATM   25  C8  UNL     1      -4.253  52.067 -22.805  1.00  0.00     0.010 C 
BRANCH  24  26
HETATM   26  C6  UNL     1      -2.079  51.196 -21.880  1.00  0.00     0.008 C 
BRANCH  26  27
HETATM   27  C5  UNL     1      -1.262  51.043 -20.590  1.00  0.00     0.028 C 
BRANCH  27  28
HETATM   28  C4  UNL     1      -0.409  52.261 -20.356  1.00  0.00    -0.017 C 
HETATM   29  C2  UNL     1       0.494  52.809 -21.190  1.00  0.00    -0.028 C 
HETATM   30  C1  UNL     1       0.869  52.343 -22.562  1.00  0.00     0.051 C 
BRANCH  29  31
HETATM   31  C3  UNL     1       1.216  54.036 -20.725  1.00  0.00     0.265 C 
HETATM   32  O1  UNL     1       1.816  54.803 -21.470  1.00  0.00    -0.302 OA
ENDBRANCH  29  31
ENDBRANCH  27  28
ENDBRANCH  26  27
ENDBRANCH  24  26
ENDBRANCH   1  24
BRANCH  23  33
HETATM   33  O3  UNL     1      -7.930  45.847 -21.236  1.00  0.00    -0.391 OA
HETATM   34  H46 UNL     1      -8.633  45.573 -20.623  1.00  0.00     0.210 HD
ENDBRANCH  23  33
TORSDOF 6
ENDMDL
