MODEL 1
REMARK minimizedAffinity -7.11163187
REMARK CNNscore 0.63791573
REMARK CNNaffinity 6.9871192
REMARK  7 active torsions:
REMARK  status: ('A' for Active; 'I' for Inactive)
REMARK    1  A    between atoms: C4_4  and  C5_5 
REMARK    2  A    between atoms: C5_5  and  C6_6 
REMARK    3  A    between atoms: C6_6  and  C7_7 
REMARK    4  A    between atoms: C7_7  and  C9_9 
REMARK    5  A    between atoms: C23_23  and  O1_24 
REMARK    6  A    between atoms: C24_25  and  C26_27 
REMARK    7  A    between atoms: C26_27  and  O2_28 
ROOT
HETATM    1  C9  UNL     1       4.637  55.302  -9.423  1.00  0.00    -0.002 C 
HETATM    2  C10 UNL     1       4.046  55.283 -10.843  1.00  0.00     0.006 C 
HETATM    3  C11 UNL     1       3.622  53.846 -11.068  1.00  0.00     0.010 C 
HETATM    4  C12 UNL     1       3.163  53.329  -9.695  1.00  0.00     0.023 C 
HETATM    5  C13 UNL     1       1.694  52.955  -9.726  1.00  0.00    -0.072 C 
HETATM    6  C14 UNL     1       0.724  53.849  -9.439  1.00  0.00    -0.068 C 
HETATM    7  C15 UNL     1       1.115  55.245  -9.017  1.00  0.00     0.036 C 
HETATM    8  C16 UNL     1       2.380  55.282  -8.165  1.00  0.00     0.014 C 
HETATM    9  C17 UNL     1       3.582  54.411  -8.648  1.00  0.00    -0.032 C 
HETATM   10  C18 UNL     1       4.112  53.700  -7.388  1.00  0.00     0.016 C 
HETATM   11  C19 UNL     1      -0.781  53.501  -9.542  1.00  0.00    -0.016 C 
HETATM   12  C20 UNL     1      -1.210  53.146  -8.100  1.00  0.00     0.020 C 
HETATM   13  C21 UNL     1      -1.616  54.708 -10.043  1.00  0.00     0.016 C 
HETATM   14  C22 UNL     1      -3.069  54.361 -10.340  1.00  0.00     0.034 C 
HETATM   15  C23 UNL     1      -3.189  53.248 -11.376  1.00  0.00     0.128 C 
HETATM   16  C24 UNL     1      -2.424  51.947 -10.995  1.00  0.00     0.008 C 
HETATM   17  C25 UNL     1      -3.190  51.157  -9.909  1.00  0.00     0.020 C 
HETATM   18  C27 UNL     1      -0.952  52.331 -10.584  1.00  0.00     0.011 C 
HETATM   19  C28 UNL     1      -0.062  51.139 -10.190  1.00  0.00     0.011 C 
HETATM   20  C29 UNL     1       1.413  51.541 -10.175  1.00  0.00     0.035 C 
ENDROOT
BRANCH   1  21
HETATM   21  C7  UNL     1       6.135  54.836  -9.356  1.00  0.00    -0.014 C 
HETATM   22  C8  UNL     1       6.252  53.299  -9.308  1.00  0.00     0.010 C 
BRANCH  21  23
HETATM   23  C6  UNL     1       6.978  55.437  -8.197  1.00  0.00     0.008 C 
BRANCH  23  24
HETATM   24  C5  UNL     1       6.282  56.381  -7.206  1.00  0.00     0.028 C 
BRANCH  24  25
HETATM   25  C4  UNL     1       7.026  56.668  -5.934  1.00  0.00    -0.025 C 
HETATM   26  C2  UNL     1       6.622  57.453  -4.913  1.00  0.00    -0.091 C 
HETATM   27  C1  UNL     1       7.466  57.585  -3.674  1.00  0.00     0.042 C 
HETATM   28  C3  UNL     1       5.340  58.239  -4.891  1.00  0.00     0.042 C 
ENDBRANCH  24  25
ENDBRANCH  23  24
ENDBRANCH  21  23
ENDBRANCH   1  21
BRANCH  16  29
HETATM   29  C26 UNL     1      -2.370  51.032 -12.263  1.00  0.00     0.176 C 
BRANCH  29  30
HETATM   30  O2  UNL     1      -1.650  51.653 -13.328  1.00  0.00    -0.400 OA
HETATM   31  H43 UNL     1      -1.726  51.065 -14.101  1.00  0.00     0.209 HD
ENDBRANCH  29  30
ENDBRANCH  16  29
BRANCH  15  32
HETATM   32  O1  UNL     1      -4.579  53.010 -11.573  1.00  0.00    -0.395 OA
HETATM   33  H37 UNL     1      -4.644  52.252 -12.195  1.00  0.00     0.210 HD
ENDBRANCH  15  32
TORSDOF 7
ENDMDL
MODEL 2
REMARK minimizedAffinity -6.8212409
REMARK CNNscore 0.575015306
REMARK CNNaffinity 6.2169528
REMARK  7 active torsions:
REMARK  status: ('A' for Active; 'I' for Inactive)
REMARK    1  A    between atoms: C4_4  and  C5_5 
REMARK    2  A    between atoms: C5_5  and  C6_6 
REMARK    3  A    between atoms: C6_6  and  C7_7 
REMARK    4  A    between atoms: C7_7  and  C9_9 
REMARK    5  A    between atoms: C23_23  and  O1_24 
REMARK    6  A    between atoms: C24_25  and  C26_27 
REMARK    7  A    between atoms: C26_27  and  O2_28 
ROOT
HETATM    1  C9  UNL     1      -6.958  45.628 -31.946  1.00  0.00    -0.002 C 
HETATM    2  C10 UNL     1      -7.117  44.567 -30.844  1.00  0.00     0.006 C 
HETATM    3  C11 UNL     1      -7.240  45.357 -29.558  1.00  0.00     0.010 C 
HETATM    4  C12 UNL     1      -7.983  46.651 -29.934  1.00  0.00     0.023 C 
HETATM    5  C13 UNL     1      -9.309  46.738 -29.207  1.00  0.00    -0.072 C 
HETATM    6  C14 UNL     1     -10.444  46.225 -29.729  1.00  0.00    -0.068 C 
HETATM    7  C15 UNL     1     -10.402  45.600 -31.102  1.00  0.00     0.036 C 
HETATM    8  C16 UNL     1      -9.448  46.311 -32.056  1.00  0.00     0.014 C 
HETATM    9  C17 UNL     1      -8.042  46.691 -31.495  1.00  0.00    -0.032 C 
HETATM   10  C18 UNL     1      -7.786  48.138 -31.961  1.00  0.00     0.016 C 
HETATM   11  C19 UNL     1     -11.789  46.239 -28.963  1.00  0.00    -0.016 C 
HETATM   12  C20 UNL     1     -12.547  47.473 -29.507  1.00  0.00     0.020 C 
HETATM   13  C21 UNL     1     -12.622  44.962 -29.241  1.00  0.00     0.016 C 
HETATM   14  C22 UNL     1     -13.864  44.842 -28.367  1.00  0.00     0.034 C 
HETATM   15  C23 UNL     1     -13.519  44.861 -26.882  1.00  0.00     0.128 C 
HETATM   16  C24 UNL     1     -12.705  46.112 -26.439  1.00  0.00     0.008 C 
HETATM   17  C25 UNL     1     -13.616  47.356 -26.346  1.00  0.00     0.020 C 
HETATM   18  C27 UNL     1     -11.483  46.288 -27.417  1.00  0.00     0.011 C 
HETATM   19  C28 UNL     1     -10.570  47.485 -27.098  1.00  0.00     0.011 C 
HETATM   20  C29 UNL     1      -9.237  47.368 -27.837  1.00  0.00     0.035 C 
ENDROOT
BRANCH   1  21
HETATM   21  C7  UNL     1      -5.487  46.150 -32.113  1.00  0.00    -0.014 C 
HETATM   22  C8  UNL     1      -5.347  47.075 -33.340  1.00  0.00     0.010 C 
BRANCH  21  23
HETATM   23  C6  UNL     1      -4.386  45.057 -32.183  1.00  0.00     0.008 C 
BRANCH  23  24
HETATM   24  C5  UNL     1      -4.694  43.763 -32.950  1.00  0.00     0.028 C 
BRANCH  24  25
HETATM   25  C4  UNL     1      -3.725  42.633 -32.756  1.00  0.00    -0.025 C 
HETATM   26  C2  UNL     1      -3.300  41.755 -33.687  1.00  0.00    -0.091 C 
HETATM   27  C1  UNL     1      -2.271  40.713 -33.339  1.00  0.00     0.042 C 
HETATM   28  C3  UNL     1      -3.773  41.723 -35.115  1.00  0.00     0.042 C 
ENDBRANCH  24  25
ENDBRANCH  23  24
ENDBRANCH  21  23
ENDBRANCH   1  21
BRANCH  16  29
HETATM   29  C26 UNL     1     -12.160  45.844 -24.997  1.00  0.00     0.176 C 
BRANCH  29  30
HETATM   30  O2  UNL     1     -12.377  46.964 -24.137  1.00  0.00    -0.400 OA
HETATM   31  H43 UNL     1     -11.945  46.757 -23.289  1.00  0.00     0.209 HD
ENDBRANCH  29  30
ENDBRANCH  16  29
BRANCH  15  32
HETATM   32  O1  UNL     1     -14.746  44.744 -26.167  1.00  0.00    -0.395 OA
HETATM   33  H37 UNL     1     -14.518  44.818 -25.215  1.00  0.00     0.210 HD
ENDBRANCH  15  32
TORSDOF 7
ENDMDL
MODEL 3
REMARK minimizedAffinity -7.69268274
REMARK CNNscore 0.486942291
REMARK CNNaffinity 5.8929081
REMARK  7 active torsions:
REMARK  status: ('A' for Active; 'I' for Inactive)
REMARK    1  A    between atoms: C4_4  and  C5_5 
REMARK    2  A    between atoms: C5_5  and  C6_6 
REMARK    3  A    between atoms: C6_6  and  C7_7 
REMARK    4  A    between atoms: C7_7  and  C9_9 
REMARK    5  A    between atoms: C23_23  and  O1_24 
REMARK    6  A    between atoms: C24_25  and  C26_27 
REMARK    7  A    between atoms: C26_27  and  O2_28 
ROOT
HETATM    1  C9  UNL     1       7.197  65.621 -35.770  1.00  0.00    -0.002 C 
HETATM    2  C10 UNL     1       6.783  64.800 -37.003  1.00  0.00     0.006 C 
HETATM    3  C11 UNL     1       5.271  64.748 -36.947  1.00  0.00     0.010 C 
HETATM    4  C12 UNL     1       4.831  66.091 -36.340  1.00  0.00     0.023 C 
HETATM    5  C13 UNL     1       3.995  66.878 -37.330  1.00  0.00    -0.072 C 
HETATM    6  C14 UNL     1       4.552  67.738 -38.209  1.00  0.00    -0.068 C 
HETATM    7  C15 UNL     1       6.043  67.966 -38.167  1.00  0.00     0.036 C 
HETATM    8  C16 UNL     1       6.614  67.939 -36.752  1.00  0.00     0.014 C 
HETATM    9  C17 UNL     1       6.127  66.789 -35.817  1.00  0.00    -0.032 C 
HETATM   10  C18 UNL     1       5.816  67.457 -34.463  1.00  0.00     0.016 C 
HETATM   11  C19 UNL     1       3.718  68.488 -39.276  1.00  0.00    -0.016 C 
HETATM   12  C20 UNL     1       3.449  69.883 -38.665  1.00  0.00     0.020 C 
HETATM   13  C21 UNL     1       4.499  68.653 -40.604  1.00  0.00     0.016 C 
HETATM   14  C22 UNL     1       3.656  69.216 -41.741  1.00  0.00     0.034 C 
HETATM   15  C23 UNL     1       2.431  68.353 -42.023  1.00  0.00     0.128 C 
HETATM   16  C24 UNL     1       1.520  68.124 -40.781  1.00  0.00     0.008 C 
HETATM   17  C25 UNL     1       0.685  69.386 -40.471  1.00  0.00     0.020 C 
HETATM   18  C27 UNL     1       2.421  67.645 -39.580  1.00  0.00     0.011 C 
HETATM   19  C28 UNL     1       1.657  67.364 -38.274  1.00  0.00     0.011 C 
HETATM   20  C29 UNL     1       2.519  66.562 -37.299  1.00  0.00     0.035 C 
ENDROOT
BRANCH   1  21
HETATM   21  C7  UNL     1       7.263  64.781 -34.445  1.00  0.00    -0.014 C 
HETATM   22  C8  UNL     1       7.121  65.675 -33.196  1.00  0.00     0.010 C 
BRANCH  21  23
HETATM   23  C6  UNL     1       8.521  63.885 -34.276  1.00  0.00     0.008 C 
BRANCH  23  24
HETATM   24  C5  UNL     1       8.320  62.366 -34.155  1.00  0.00     0.028 C 
BRANCH  24  25
HETATM   25  C4  UNL     1       9.041  61.693 -33.024  1.00  0.00    -0.025 C 
HETATM   26  C2  UNL     1      10.300  61.931 -32.603  1.00  0.00    -0.091 C 
HETATM   27  C1  UNL     1      10.853  61.206 -31.406  1.00  0.00     0.042 C 
HETATM   28  C3  UNL     1      11.247  62.909 -33.242  1.00  0.00     0.042 C 
ENDBRANCH  24  25
ENDBRANCH  23  24
ENDBRANCH  21  23
ENDBRANCH   1  21
BRANCH  16  29
HETATM   29  C26 UNL     1       0.505  66.987 -41.132  1.00  0.00     0.176 C 
BRANCH  29  30
HETATM   30  O2  UNL     1      -0.767  67.211 -40.521  1.00  0.00    -0.400 OA
HETATM   31  H43 UNL     1      -1.316  66.430 -40.717  1.00  0.00     0.209 HD
ENDBRANCH  29  30
ENDBRANCH  16  29
BRANCH  15  32
HETATM   32  O1  UNL     1       1.723  68.970 -43.094  1.00  0.00    -0.395 OA
HETATM   33  H37 UNL     1       0.907  68.441 -43.227  1.00  0.00     0.210 HD
ENDBRANCH  15  32
TORSDOF 7
ENDMDL
MODEL 4
REMARK minimizedAffinity -7.4306035
REMARK CNNscore 0.433840543
REMARK CNNaffinity 5.97525549
REMARK  7 active torsions:
REMARK  status: ('A' for Active; 'I' for Inactive)
REMARK    1  A    between atoms: C4_4  and  C5_5 
REMARK    2  A    between atoms: C5_5  and  C6_6 
REMARK    3  A    between atoms: C6_6  and  C7_7 
REMARK    4  A    between atoms: C7_7  and  C9_9 
REMARK    5  A    between atoms: C23_23  and  O1_24 
REMARK    6  A    between atoms: C24_25  and  C26_27 
REMARK    7  A    between atoms: C26_27  and  O2_28 
ROOT
HETATM    1  C9  UNL     1      -9.362  46.859 -29.801  1.00  0.00    -0.002 C 
HETATM    2  C10 UNL     1      -9.916  48.124 -30.480  1.00  0.00     0.006 C 
HETATM    3  C11 UNL     1      -8.897  48.471 -31.546  1.00  0.00     0.010 C 
HETATM    4  C12 UNL     1      -8.343  47.126 -32.045  1.00  0.00     0.023 C 
HETATM    5  C13 UNL     1      -8.664  46.925 -33.512  1.00  0.00    -0.072 C 
HETATM    6  C14 UNL     1      -9.804  46.326 -33.918  1.00  0.00    -0.068 C 
HETATM    7  C15 UNL     1     -10.758  45.787 -32.880  1.00  0.00     0.036 C 
HETATM    8  C16 UNL     1     -10.051  45.202 -31.661  1.00  0.00     0.014 C 
HETATM    9  C17 UNL     1      -8.874  46.033 -31.062  1.00  0.00    -0.032 C 
HETATM   10  C18 UNL     1      -7.744  45.019 -30.794  1.00  0.00     0.016 C 
HETATM   11  C19 UNL     1     -10.179  46.184 -35.413  1.00  0.00    -0.016 C 
HETATM   12  C20 UNL     1      -9.738  44.755 -35.803  1.00  0.00     0.020 C 
HETATM   13  C21 UNL     1     -11.706  46.329 -35.638  1.00  0.00     0.016 C 
HETATM   14  C22 UNL     1     -12.102  46.385 -37.108  1.00  0.00     0.034 C 
HETATM   15  C23 UNL     1     -11.412  47.530 -37.841  1.00  0.00     0.128 C 
HETATM   16  C24 UNL     1      -9.859  47.502 -37.734  1.00  0.00     0.008 C 
HETATM   17  C25 UNL     1      -9.264  46.417 -38.660  1.00  0.00     0.020 C 
HETATM   18  C27 UNL     1      -9.462  47.334 -36.218  1.00  0.00     0.011 C 
HETATM   19  C28 UNL     1      -7.947  47.300 -35.950  1.00  0.00     0.011 C 
HETATM   20  C29 UNL     1      -7.651  47.514 -34.465  1.00  0.00     0.035 C 
ENDROOT
BRANCH   1  21
HETATM   21  C7  UNL     1      -8.288  47.154 -28.695  1.00  0.00    -0.014 C 
HETATM   22  C8  UNL     1      -8.886  47.954 -27.519  1.00  0.00     0.010 C 
BRANCH  21  23
HETATM   23  C6  UNL     1      -6.998  47.870 -29.180  1.00  0.00     0.008 C 
BRANCH  23  24
HETATM   24  C5  UNL     1      -5.669  47.519 -28.494  1.00  0.00     0.028 C 
BRANCH  24  25
HETATM   25  C4  UNL     1      -4.650  48.618 -28.425  1.00  0.00    -0.025 C 
HETATM   26  C2  UNL     1      -3.916  48.983 -27.353  1.00  0.00    -0.091 C 
HETATM   27  C1  UNL     1      -2.886  50.074 -27.470  1.00  0.00     0.042 C 
HETATM   28  C3  UNL     1      -4.028  48.365 -25.987  1.00  0.00     0.042 C 
ENDBRANCH  24  25
ENDBRANCH  23  24
ENDBRANCH  21  23
ENDBRANCH   1  21
BRANCH  16  29
HETATM   29  C26 UNL     1      -9.316  48.876 -38.247  1.00  0.00     0.176 C 
BRANCH  29  30
HETATM   30  O2  UNL     1      -9.724  49.951 -37.398  1.00  0.00    -0.400 OA
HETATM   31  H43 UNL     1      -9.420  50.775 -37.820  1.00  0.00     0.209 HD
ENDBRANCH  29  30
ENDBRANCH  16  29
BRANCH  15  32
HETATM   32  O1  UNL     1     -11.853  47.486 -39.194  1.00  0.00    -0.395 OA
HETATM   33  H37 UNL     1     -11.357  48.187 -39.669  1.00  0.00     0.210 HD
ENDBRANCH  15  32
TORSDOF 7
ENDMDL
MODEL 5
REMARK minimizedAffinity -8.43673515
REMARK CNNscore 0.379812628
REMARK CNNaffinity 6.70657301
REMARK  7 active torsions:
REMARK  status: ('A' for Active; 'I' for Inactive)
REMARK    1  A    between atoms: C4_4  and  C5_5 
REMARK    2  A    between atoms: C5_5  and  C6_6 
REMARK    3  A    between atoms: C6_6  and  C7_7 
REMARK    4  A    between atoms: C7_7  and  C9_9 
REMARK    5  A    between atoms: C23_23  and  O1_24 
REMARK    6  A    between atoms: C24_25  and  C26_27 
REMARK    7  A    between atoms: C26_27  and  O2_28 
ROOT
HETATM    1  C9  UNL     1      -1.066  52.018 -21.689  1.00  0.00    -0.002 C 
HETATM    2  C10 UNL     1      -1.991  51.549 -22.825  1.00  0.00     0.006 C 
HETATM    3  C11 UNL     1      -1.841  50.042 -22.853  1.00  0.00     0.010 C 
HETATM    4  C12 UNL     1      -1.617  49.619 -21.392  1.00  0.00     0.023 C 
HETATM    5  C13 UNL     1      -2.743  48.723 -20.915  1.00  0.00    -0.072 C 
HETATM    6  C14 UNL     1      -3.859  49.223 -20.342  1.00  0.00    -0.068 C 
HETATM    7  C15 UNL     1      -3.964  50.712 -20.117  1.00  0.00     0.036 C 
HETATM    8  C16 UNL     1      -2.633  51.357 -19.743  1.00  0.00     0.014 C 
HETATM    9  C17 UNL     1      -1.384  50.934 -20.579  1.00  0.00    -0.032 C 
HETATM   10  C18 UNL     1      -0.261  50.686 -19.552  1.00  0.00     0.016 C 
HETATM   11  C19 UNL     1      -5.048  48.325 -19.922  1.00  0.00    -0.016 C 
HETATM   12  C20 UNL     1      -4.844  48.072 -18.410  1.00  0.00     0.020 C 
HETATM   13  C21 UNL     1      -6.409  49.033 -20.145  1.00  0.00     0.016 C 
HETATM   14  C22 UNL     1      -7.611  48.124 -19.924  1.00  0.00     0.034 C 
HETATM   15  C23 UNL     1      -7.570  46.896 -20.827  1.00  0.00     0.128 C 
HETATM   16  C24 UNL     1      -6.267  46.055 -20.690  1.00  0.00     0.008 C 
HETATM   17  C25 UNL     1      -6.283  45.223 -19.389  1.00  0.00     0.020 C 
HETATM   18  C27 UNL     1      -5.029  47.024 -20.812  1.00  0.00     0.011 C 
HETATM   19  C28 UNL     1      -3.659  46.333 -20.708  1.00  0.00     0.011 C 
HETATM   20  C29 UNL     1      -2.544  47.255 -21.203  1.00  0.00     0.035 C 
ENDROOT
BRANCH   1  21
HETATM   21  C7  UNL     1       0.437  52.164 -22.119  1.00  0.00    -0.014 C 
HETATM   22  C8  UNL     1       1.019  53.529 -21.698  1.00  0.00     0.010 C 
BRANCH  21  23
HETATM   23  C6  UNL     1       0.734  51.939 -23.626  1.00  0.00     0.008 C 
BRANCH  23  24
HETATM   24  C5  UNL     1       0.761  53.163 -24.554  1.00  0.00     0.028 C 
BRANCH  24  25
HETATM   25  C4  UNL     1       0.415  52.911 -25.992  1.00  0.00    -0.025 C 
HETATM   26  C2  UNL     1       1.119  52.185 -26.885  1.00  0.00    -0.091 C 
HETATM   27  C1  UNL     1       0.595  51.979 -28.281  1.00  0.00     0.042 C 
HETATM   28  C3  UNL     1       2.437  51.520 -26.600  1.00  0.00     0.042 C 
ENDBRANCH  24  25
ENDBRANCH  23  24
ENDBRANCH  21  23
ENDBRANCH   1  21
BRANCH  16  29
HETATM   29  C26 UNL     1      -6.225  45.036 -21.876  1.00  0.00     0.176 C 
BRANCH  29  30
HETATM   30  O2  UNL     1      -5.681  43.779 -21.470  1.00  0.00    -0.400 OA
HETATM   31  H43 UNL     1      -5.614  43.228 -22.271  1.00  0.00     0.209 HD
ENDBRANCH  29  30
ENDBRANCH  16  29
BRANCH  15  32
HETATM   32  O1  UNL     1      -8.733  46.125 -20.537  1.00  0.00    -0.395 OA
HETATM   33  H37 UNL     1      -8.665  45.309 -21.078  1.00  0.00     0.210 HD
ENDBRANCH  15  32
TORSDOF 7
ENDMDL
MODEL 6
REMARK minimizedAffinity -7.1829586
REMARK CNNscore 0.373482555
REMARK CNNaffinity 6.80688334
REMARK  7 active torsions:
REMARK  status: ('A' for Active; 'I' for Inactive)
REMARK    1  A    between atoms: C4_4  and  C5_5 
REMARK    2  A    between atoms: C5_5  and  C6_6 
REMARK    3  A    between atoms: C6_6  and  C7_7 
REMARK    4  A    between atoms: C7_7  and  C9_9 
REMARK    5  A    between atoms: C23_23  and  O1_24 
REMARK    6  A    between atoms: C24_25  and  C26_27 
REMARK    7  A    between atoms: C26_27  and  O2_28 
ROOT
HETATM    1  C9  UNL     1      -0.740  54.558  -8.659  1.00  0.00    -0.002 C 
HETATM    2  C10 UNL     1      -0.794  55.331  -9.988  1.00  0.00     0.006 C 
HETATM    3  C11 UNL     1       0.450  54.902 -10.738  1.00  0.00     0.010 C 
HETATM    4  C12 UNL     1       0.687  53.433 -10.346  1.00  0.00     0.023 C 
HETATM    5  C13 UNL     1       0.582  52.531 -11.558  1.00  0.00    -0.072 C 
HETATM    6  C14 UNL     1      -0.591  51.982 -11.941  1.00  0.00    -0.068 C 
HETATM    7  C15 UNL     1      -1.822  52.228 -11.104  1.00  0.00     0.036 C 
HETATM    8  C16 UNL     1      -1.529  52.287  -9.608  1.00  0.00     0.014 C 
HETATM    9  C17 UNL     1      -0.290  53.126  -9.165  1.00  0.00    -0.032 C 
HETATM   10  C18 UNL     1       0.450  52.258  -8.127  1.00  0.00     0.016 C 
HETATM   11  C19 UNL     1      -0.725  51.122 -13.221  1.00  0.00    -0.016 C 
HETATM   12  C20 UNL     1      -0.638  49.658 -12.731  1.00  0.00     0.020 C 
HETATM   13  C21 UNL     1      -2.089  51.347 -13.924  1.00  0.00     0.016 C 
HETATM   14  C22 UNL     1      -2.192  50.668 -15.283  1.00  0.00     0.034 C 
HETATM   15  C23 UNL     1      -1.094  51.129 -16.236  1.00  0.00     0.128 C 
HETATM   16  C24 UNL     1       0.347  50.934 -15.679  1.00  0.00     0.008 C 
HETATM   17  C25 UNL     1       0.768  49.450 -15.752  1.00  0.00     0.020 C 
HETATM   18  C27 UNL     1       0.412  51.545 -14.228  1.00  0.00     0.011 C 
HETATM   19  C28 UNL     1       1.787  51.438 -13.546  1.00  0.00     0.011 C 
HETATM   20  C29 UNL     1       1.868  52.364 -12.332  1.00  0.00     0.035 C 
ENDROOT
BRANCH   1  21
HETATM   21  C7  UNL     1       0.165  55.236  -7.570  1.00  0.00    -0.014 C 
HETATM   22  C8  UNL     1      -0.024  56.767  -7.546  1.00  0.00     0.010 C 
BRANCH  21  23
HETATM   23  C6  UNL     1       1.683  54.921  -7.662  1.00  0.00     0.008 C 
BRANCH  23  24
HETATM   24  C5  UNL     1       2.632  56.042  -8.112  1.00  0.00     0.028 C 
BRANCH  24  25
HETATM   25  C4  UNL     1       4.048  55.635  -8.396  1.00  0.00    -0.025 C 
HETATM   26  C2  UNL     1       4.641  55.534  -9.604  1.00  0.00    -0.091 C 
HETATM   27  C1  UNL     1       6.097  55.170  -9.710  1.00  0.00     0.042 C 
HETATM   28  C3  UNL     1       3.952  55.773 -10.919  1.00  0.00     0.042 C 
ENDBRANCH  24  25
ENDBRANCH  23  24
ENDBRANCH  21  23
ENDBRANCH   1  21
BRANCH  16  29
HETATM   29  C26 UNL     1       1.330  51.727 -16.603  1.00  0.00     0.176 C 
BRANCH  29  30
HETATM   30  O2  UNL     1       1.295  53.128 -16.327  1.00  0.00    -0.400 OA
HETATM   31  H43 UNL     1       1.867  53.560 -16.987  1.00  0.00     0.209 HD
ENDBRANCH  29  30
ENDBRANCH  16  29
BRANCH  15  32
HETATM   32  O1  UNL     1      -1.289  50.435 -17.464  1.00  0.00    -0.395 OA
HETATM   33  H37 UNL     1      -0.542  50.694 -18.048  1.00  0.00     0.210 HD
ENDBRANCH  15  32
TORSDOF 7
ENDMDL
MODEL 7
REMARK minimizedAffinity -7.11775923
REMARK CNNscore 0.366255194
REMARK CNNaffinity 6.04648209
REMARK  7 active torsions:
REMARK  status: ('A' for Active; 'I' for Inactive)
REMARK    1  A    between atoms: C4_4  and  C5_5 
REMARK    2  A    between atoms: C5_5  and  C6_6 
REMARK    3  A    between atoms: C6_6  and  C7_7 
REMARK    4  A    between atoms: C7_7  and  C9_9 
REMARK    5  A    between atoms: C23_23  and  O1_24 
REMARK    6  A    between atoms: C24_25  and  C26_27 
REMARK    7  A    between atoms: C26_27  and  O2_28 
ROOT
HETATM    1  C9  UNL     1      -6.708  47.789 -28.408  1.00  0.00    -0.002 C 
HETATM    2  C10 UNL     1      -6.291  47.890 -29.886  1.00  0.00     0.006 C 
HETATM    3  C11 UNL     1      -6.083  46.457 -30.329  1.00  0.00     0.010 C 
HETATM    4  C12 UNL     1      -7.113  45.625 -29.547  1.00  0.00     0.023 C 
HETATM    5  C13 UNL     1      -8.094  44.960 -30.491  1.00  0.00    -0.072 C 
HETATM    6  C14 UNL     1      -9.239  45.566 -30.873  1.00  0.00    -0.068 C 
HETATM    7  C15 UNL     1      -9.580  46.919 -30.297  1.00  0.00     0.036 C 
HETATM    8  C16 UNL     1      -9.154  47.075 -28.841  1.00  0.00     0.014 C 
HETATM    9  C17 UNL     1      -7.724  46.575 -28.466  1.00  0.00    -0.032 C 
HETATM   10  C18 UNL     1      -7.890  45.786 -27.153  1.00  0.00     0.016 C 
HETATM   11  C19 UNL     1     -10.211  44.931 -31.897  1.00  0.00    -0.016 C 
HETATM   12  C20 UNL     1     -11.304  44.250 -31.042  1.00  0.00     0.020 C 
HETATM   13  C21 UNL     1     -10.865  46.001 -32.808  1.00  0.00     0.016 C 
HETATM   14  C22 UNL     1     -11.682  45.411 -33.950  1.00  0.00     0.034 C 
HETATM   15  C23 UNL     1     -10.846  44.494 -34.835  1.00  0.00     0.128 C 
HETATM   16  C24 UNL     1     -10.146  43.337 -34.061  1.00  0.00     0.008 C 
HETATM   17  C25 UNL     1     -11.158  42.229 -33.696  1.00  0.00     0.020 C 
HETATM   18  C27 UNL     1      -9.393  43.948 -32.819  1.00  0.00     0.011 C 
HETATM   19  C28 UNL     1      -8.638  42.922 -31.956  1.00  0.00     0.011 C 
HETATM   20  C29 UNL     1      -7.649  43.618 -31.020  1.00  0.00     0.035 C 
ENDROOT
BRANCH   1  21
HETATM   21  C7  UNL     1      -5.497  47.646 -27.419  1.00  0.00    -0.014 C 
HETATM   22  C8  UNL     1      -5.845  48.177 -26.013  1.00  0.00     0.010 C 
BRANCH  21  23
HETATM   23  C6  UNL     1      -4.165  48.297 -27.882  1.00  0.00     0.008 C 
BRANCH  23  24
HETATM   24  C5  UNL     1      -3.338  49.076 -26.848  1.00  0.00     0.028 C 
BRANCH  24  25
HETATM   25  C4  UNL     1      -3.078  50.520 -27.162  1.00  0.00    -0.025 C 
HETATM   26  C2  UNL     1      -1.933  51.205 -26.962  1.00  0.00    -0.091 C 
HETATM   27  C1  UNL     1      -1.820  52.642 -27.393  1.00  0.00     0.042 C 
HETATM   28  C3  UNL     1      -0.694  50.636 -26.328  1.00  0.00     0.042 C 
ENDBRANCH  24  25
ENDBRANCH  23  24
ENDBRANCH  21  23
ENDBRANCH   1  21
BRANCH  16  29
HETATM   29  C26 UNL     1      -9.093  42.687 -35.018  1.00  0.00     0.176 C 
BRANCH  29  30
HETATM   30  O2  UNL     1      -8.942  43.440 -36.222  1.00  0.00    -0.400 OA
HETATM   31  H43 UNL     1      -8.336  42.936 -36.796  1.00  0.00     0.209 HD
ENDBRANCH  29  30
ENDBRANCH  16  29
BRANCH  15  32
HETATM   32  O1  UNL     1     -11.705  44.004 -35.860  1.00  0.00    -0.395 OA
HETATM   33  H37 UNL     1     -11.172  43.368 -36.386  1.00  0.00     0.210 HD
ENDBRANCH  15  32
TORSDOF 7
ENDMDL
MODEL 8
REMARK minimizedAffinity -7.48563433
REMARK CNNscore 0.308031082
REMARK CNNaffinity 5.67210245
REMARK  7 active torsions:
REMARK  status: ('A' for Active; 'I' for Inactive)
REMARK    1  A    between atoms: C4_4  and  C5_5 
REMARK    2  A    between atoms: C5_5  and  C6_6 
REMARK    3  A    between atoms: C6_6  and  C7_7 
REMARK    4  A    between atoms: C7_7  and  C9_9 
REMARK    5  A    between atoms: C23_23  and  O1_24 
REMARK    6  A    between atoms: C24_25  and  C26_27 
REMARK    7  A    between atoms: C26_27  and  O2_28 
ROOT
HETATM    1  C9  UNL     1       7.688  65.432 -35.115  1.00  0.00    -0.002 C 
HETATM    2  C10 UNL     1       7.474  64.982 -36.570  1.00  0.00     0.006 C 
HETATM    3  C11 UNL     1       6.012  64.594 -36.646  1.00  0.00     0.010 C 
HETATM    4  C12 UNL     1       5.279  65.545 -35.685  1.00  0.00     0.023 C 
HETATM    5  C13 UNL     1       4.290  66.412 -36.439  1.00  0.00    -0.072 C 
HETATM    6  C14 UNL     1       4.641  67.606 -36.961  1.00  0.00    -0.068 C 
HETATM    7  C15 UNL     1       6.042  68.121 -36.738  1.00  0.00     0.036 C 
HETATM    8  C16 UNL     1       6.600  67.763 -35.364  1.00  0.00     0.014 C 
HETATM    9  C17 UNL     1       6.383  66.297 -34.874  1.00  0.00    -0.032 C 
HETATM   10  C18 UNL     1       5.925  66.413 -33.407  1.00  0.00     0.016 C 
HETATM   11  C19 UNL     1       3.662  68.464 -37.799  1.00  0.00    -0.016 C 
HETATM   12  C20 UNL     1       3.084  69.498 -36.805  1.00  0.00     0.020 C 
HETATM   13  C21 UNL     1       4.390  69.209 -38.948  1.00  0.00     0.016 C 
HETATM   14  C22 UNL     1       3.444  69.915 -39.911  1.00  0.00     0.034 C 
HETATM   15  C23 UNL     1       2.446  68.949 -40.540  1.00  0.00     0.128 C 
HETATM   16  C24 UNL     1       1.607  68.144 -39.503  1.00  0.00     0.008 C 
HETATM   17  C25 UNL     1       0.508  69.032 -38.878  1.00  0.00     0.020 C 
HETATM   18  C27 UNL     1       2.589  67.508 -38.448  1.00  0.00     0.011 C 
HETATM   19  C28 UNL     1       1.905  66.667 -37.356  1.00  0.00     0.011 C 
HETATM   20  C29 UNL     1       2.922  65.797 -36.618  1.00  0.00     0.035 C 
ENDROOT
BRANCH   1  21
HETATM   21  C7  UNL     1       7.939  64.245 -34.117  1.00  0.00    -0.014 C 
HETATM   22  C8  UNL     1       9.333  64.335 -33.464  1.00  0.00     0.010 C 
BRANCH  21  23
HETATM   23  C6  UNL     1       7.754  62.819 -34.704  1.00  0.00     0.008 C 
BRANCH  23  24
HETATM   24  C5  UNL     1       8.528  61.660 -34.057  1.00  0.00     0.028 C 
BRANCH  24  25
HETATM   25  C4  UNL     1       8.266  60.294 -34.621  1.00  0.00    -0.025 C 
HETATM   26  C2  UNL     1       7.078  59.785 -35.004  1.00  0.00    -0.091 C 
HETATM   27  C1  UNL     1       6.998  58.410 -35.611  1.00  0.00     0.042 C 
HETATM   28  C3  UNL     1       5.760  60.500 -34.886  1.00  0.00     0.042 C 
ENDBRANCH  24  25
ENDBRANCH  23  24
ENDBRANCH  21  23
ENDBRANCH   1  21
BRANCH  16  29
HETATM   29  C26 UNL     1       0.875  66.992 -40.266  1.00  0.00     0.176 C 
BRANCH  29  30
HETATM   30  O2  UNL     1       1.594  66.596 -41.435  1.00  0.00    -0.400 OA
HETATM   31  H43 UNL     1       1.043  65.938 -41.897  1.00  0.00     0.209 HD
ENDBRANCH  29  30
ENDBRANCH  16  29
BRANCH  15  32
HETATM   32  O1  UNL     1       1.620  69.712 -41.414  1.00  0.00    -0.395 OA
HETATM   33  H37 UNL     1       0.944  69.092 -41.766  1.00  0.00     0.210 HD
ENDBRANCH  15  32
TORSDOF 7
ENDMDL
MODEL 9
REMARK minimizedAffinity -8.74722862
REMARK CNNscore 0.266964793
REMARK CNNaffinity 6.45861959
REMARK  7 active torsions:
REMARK  status: ('A' for Active; 'I' for Inactive)
REMARK    1  A    between atoms: C4_4  and  C5_5 
REMARK    2  A    between atoms: C5_5  and  C6_6 
REMARK    3  A    between atoms: C6_6  and  C7_7 
REMARK    4  A    between atoms: C7_7  and  C9_9 
REMARK    5  A    between atoms: C23_23  and  O1_24 
REMARK    6  A    between atoms: C24_25  and  C26_27 
REMARK    7  A    between atoms: C26_27  and  O2_28 
ROOT
HETATM    1  C9  UNL     1      -3.408  50.593 -22.705  1.00  0.00    -0.002 C 
HETATM    2  C10 UNL     1      -4.243  51.470 -23.653  1.00  0.00     0.006 C 
HETATM    3  C11 UNL     1      -4.115  50.809 -25.009  1.00  0.00     0.010 C 
HETATM    4  C12 UNL     1      -4.020  49.300 -24.729  1.00  0.00     0.023 C 
HETATM    5  C13 UNL     1      -5.196  48.566 -25.342  1.00  0.00    -0.072 C 
HETATM    6  C14 UNL     1      -6.347  48.370 -24.665  1.00  0.00    -0.068 C 
HETATM    7  C15 UNL     1      -6.446  48.843 -23.235  1.00  0.00     0.036 C 
HETATM    8  C16 UNL     1      -5.141  48.691 -22.461  1.00  0.00     0.014 C 
HETATM    9  C17 UNL     1      -3.834  49.145 -23.185  1.00  0.00    -0.032 C 
HETATM   10  C18 UNL     1      -2.804  48.028 -22.921  1.00  0.00     0.016 C 
HETATM   11  C19 UNL     1      -7.581  47.691 -25.307  1.00  0.00    -0.016 C 
HETATM   12  C20 UNL     1      -7.507  46.215 -24.853  1.00  0.00     0.020 C 
HETATM   13  C21 UNL     1      -8.907  48.317 -24.805  1.00  0.00     0.016 C 
HETATM   14  C22 UNL     1     -10.138  47.811 -25.546  1.00  0.00     0.034 C 
HETATM   15  C23 UNL     1     -10.043  48.063 -27.047  1.00  0.00     0.128 C 
HETATM   16  C24 UNL     1      -8.769  47.459 -27.708  1.00  0.00     0.008 C 
HETATM   17  C25 UNL     1      -8.906  45.929 -27.871  1.00  0.00     0.020 C 
HETATM   18  C27 UNL     1      -7.510  47.900 -26.868  1.00  0.00     0.011 C 
HETATM   19  C28 UNL     1      -6.164  47.386 -27.408  1.00  0.00     0.011 C 
HETATM   20  C29 UNL     1      -4.997  48.149 -26.780  1.00  0.00     0.035 C 
ENDROOT
BRANCH   1  21
HETATM   21  C7  UNL     1      -1.872  50.918 -22.732  1.00  0.00    -0.014 C 
HETATM   22  C8  UNL     1      -1.292  50.815 -24.157  1.00  0.00     0.010 C 
BRANCH  21  23
HETATM   23  C6  UNL     1      -0.986  50.078 -21.771  1.00  0.00     0.008 C 
BRANCH  23  24
HETATM   24  C5  UNL     1      -0.039  50.822 -20.817  1.00  0.00     0.028 C 
BRANCH  24  25
HETATM   25  C4  UNL     1       0.665  52.019 -21.385  1.00  0.00    -0.025 C 
HETATM   26  C2  UNL     1       0.814  53.228 -20.806  1.00  0.00    -0.091 C 
HETATM   27  C1  UNL     1       1.608  54.308 -21.490  1.00  0.00     0.042 C 
HETATM   28  C3  UNL     1       0.243  53.614 -19.469  1.00  0.00     0.042 C 
ENDBRANCH  24  25
ENDBRANCH  23  24
ENDBRANCH  21  23
ENDBRANCH   1  21
BRANCH  16  29
HETATM   29  C26 UNL     1      -8.646  48.056 -29.149  1.00  0.00     0.176 C 
BRANCH  29  30
HETATM   30  O2  UNL     1      -8.662  49.484 -29.129  1.00  0.00    -0.400 OA
HETATM   31  H43 UNL     1      -8.662  49.779 -30.058  1.00  0.00     0.209 HD
ENDBRANCH  29  30
ENDBRANCH  16  29
BRANCH  15  32
HETATM   32  O1  UNL     1     -11.237  47.554 -27.633  1.00  0.00    -0.395 OA
HETATM   33  H37 UNL     1     -11.138  47.666 -28.603  1.00  0.00     0.210 HD
ENDBRANCH  15  32
TORSDOF 7
ENDMDL
