MODEL 1
REMARK minimizedAffinity -9.59136868
REMARK  7 active torsions:
REMARK  status: ('A' for Active; 'I' for Inactive)
REMARK    1  A    between atoms: C2_2  and  C30_32 
REMARK    2  A    between atoms: C3_3  and  C4_4 
REMARK    3  A    between atoms: C4_4  and  O1_5 
REMARK    4  A    between atoms: C4_4  and  C5_6 
REMARK    5  A    between atoms: C5_6  and  C6_7 
REMARK    6  A    between atoms: C6_7  and  C8_9 
REMARK    7  A    between atoms: C30_32  and  O4_34 
ROOT
HETATM    1  C8  UNL     1       0.852   8.214  12.961  1.00  0.00    -0.002 C 
HETATM    2  C9  UNL     1       0.948   9.044  14.261  1.00  0.00     0.006 C 
HETATM    3  C10 UNL     1      -0.375   8.826  15.028  1.00  0.00     0.011 C 
HETATM    4  C11 UNL     1      -1.058   7.627  14.335  1.00  0.00    -0.032 C 
HETATM    5  C12 UNL     1      -0.448   6.333  14.960  1.00  0.00     0.016 C 
HETATM    6  C13 UNL     1      -2.606   7.589  14.464  1.00  0.00     0.004 C 
HETATM    7  C14 UNL     1      -3.115   7.185  15.856  1.00  0.00     0.007 C 
HETATM    8  C15 UNL     1      -4.638   7.285  15.907  1.00  0.00     0.007 C 
HETATM    9  C16 UNL     1      -5.280   6.199  15.034  1.00  0.00     0.010 C 
HETATM   10  C17 UNL     1      -6.840   6.265  14.949  1.00  0.00     0.018 C 
HETATM   11  C18 UNL     1      -7.468   5.688  16.231  1.00  0.00     0.023 C 
HETATM   12  C19 UNL     1      -7.389   7.686  14.743  1.00  0.00     0.023 C 
HETATM   13  C20 UNL     1      -7.322   5.386  13.782  1.00  0.00     0.135 C 
HETATM   14  O2  UNL     1      -8.442   5.508  13.286  1.00  0.00    -0.297 OA
HETATM   15  C21 UNL     1      -6.408   4.272  13.333  1.00  0.00     0.080 C 
HETATM   16  C22 UNL     1      -5.028   4.790  12.947  1.00  0.00     0.018 C 
HETATM   17  C23 UNL     1      -4.658   6.095  13.640  1.00  0.00    -0.026 A 
HETATM   18  C24 UNL     1      -4.550   7.321  12.770  1.00  0.00     0.021 A 
HETATM   19  C25 UNL     1      -3.271   6.734  13.352  1.00  0.00    -0.027 A 
HETATM   20  C26 UNL     1      -2.350   5.998  12.368  1.00  0.00     0.011 C 
HETATM   21  C27 UNL     1      -0.993   6.637  12.023  1.00  0.00     0.011 C 
HETATM   22  C28 UNL     1      -0.668   7.893  12.834  1.00  0.00    -0.032 C 
HETATM   23  C29 UNL     1      -1.432   9.082  12.196  1.00  0.00     0.016 C 
ENDROOT
BRANCH   1  24
HETATM   24  C6  UNL     1       1.715   8.655  11.746  1.00  0.00    -0.011 C 
HETATM   25  C7  UNL     1       0.980   8.290  10.440  1.00  0.00     0.010 C 
BRANCH  24  26
HETATM   26  C5  UNL     1       3.218   8.302  11.624  1.00  0.00     0.040 C 
BRANCH  26  27
HETATM   27  C4  UNL     1       3.808   7.923  10.261  1.00  0.00     0.142 C 
BRANCH  27  28
HETATM   28  C3  UNL     1       3.962   6.429  10.164  1.00  0.00     0.018 C 
HETATM   29  C2  UNL     1       3.480   5.595   9.219  1.00  0.00     0.010 C 
HETATM   30  C1  UNL     1       2.653   5.987   8.027  1.00  0.00     0.055 C 
BRANCH  29  31
HETATM   31  C30 UNL     1       3.747   4.131   9.294  1.00  0.00     0.171 C 
HETATM   32  O3  UNL     1       4.634   3.549   8.694  1.00  0.00    -0.646 OA
BRANCH  31  33
HETATM   33  O4  UNL     1       2.915   3.464  10.108  1.00  0.00    -0.773 OA
HETATM   34  H46 UNL     1       3.226   2.537  10.051  1.00  0.00     0.167 HD
ENDBRANCH  31  33
ENDBRANCH  29  31
ENDBRANCH  27  28
BRANCH  27  35
HETATM   35  O1  UNL     1       5.110   8.476  10.116  1.00  0.00    -0.392 OA
HETATM   36  H6  UNL     1       5.509   8.082   9.322  1.00  0.00     0.210 HD
ENDBRANCH  27  35
ENDBRANCH  26  27
ENDBRANCH  24  26
ENDBRANCH   1  24
TORSDOF 7
ENDMDL
MODEL 2
REMARK minimizedAffinity -9.55111217
REMARK  7 active torsions:
REMARK  status: ('A' for Active; 'I' for Inactive)
REMARK    1  A    between atoms: C2_2  and  C30_32 
REMARK    2  A    between atoms: C3_3  and  C4_4 
REMARK    3  A    between atoms: C4_4  and  O1_5 
REMARK    4  A    between atoms: C4_4  and  C5_6 
REMARK    5  A    between atoms: C5_6  and  C6_7 
REMARK    6  A    between atoms: C6_7  and  C8_9 
REMARK    7  A    between atoms: C30_32  and  O4_34 
ROOT
HETATM    1  C8  UNL     1      -3.386   8.548  14.535  1.00  0.00    -0.002 C 
HETATM    2  C9  UNL     1      -2.753   7.920  15.797  1.00  0.00     0.006 C 
HETATM    3  C10 UNL     1      -1.353   7.411  15.389  1.00  0.00     0.011 C 
HETATM    4  C11 UNL     1      -1.071   8.049  14.011  1.00  0.00    -0.032 C 
HETATM    5  C12 UNL     1      -0.507   9.479  14.280  1.00  0.00     0.016 C 
HETATM    6  C13 UNL     1      -0.082   7.257  13.112  1.00  0.00     0.004 C 
HETATM    7  C14 UNL     1       1.387   7.352  13.552  1.00  0.00     0.007 C 
HETATM    8  C15 UNL     1       2.256   6.455  12.673  1.00  0.00     0.007 C 
HETATM    9  C16 UNL     1       2.341   7.017  11.247  1.00  0.00     0.010 C 
HETATM   10  C17 UNL     1       3.142   6.126  10.240  1.00  0.00     0.018 C 
HETATM   11  C18 UNL     1       4.656   6.301  10.463  1.00  0.00     0.023 C 
HETATM   12  C19 UNL     1       2.812   4.628  10.341  1.00  0.00     0.023 C 
HETATM   13  C20 UNL     1       2.846   6.593   8.805  1.00  0.00     0.135 C 
HETATM   14  O2  UNL     1       3.069   5.883   7.824  1.00  0.00    -0.297 OA
HETATM   15  C21 UNL     1       2.373   8.014   8.624  1.00  0.00     0.080 C 
HETATM   16  C22 UNL     1       1.121   8.306   9.444  1.00  0.00     0.018 C 
HETATM   17  C23 UNL     1       0.982   7.412  10.669  1.00  0.00    -0.026 A 
HETATM   18  C24 UNL     1      -0.152   6.418  10.659  1.00  0.00     0.021 A 
HETATM   19  C25 UNL     1      -0.242   7.606  11.608  1.00  0.00    -0.027 A 
HETATM   20  C26 UNL     1      -1.248   8.704  11.230  1.00  0.00     0.011 C 
HETATM   21  C27 UNL     1      -2.497   8.881  12.113  1.00  0.00     0.011 C 
HETATM   22  C28 UNL     1      -2.507   8.007  13.367  1.00  0.00    -0.032 C 
HETATM   23  C29 UNL     1      -2.957   6.582  12.952  1.00  0.00     0.016 C 
ENDROOT
BRANCH   1  24
HETATM   24  C6  UNL     1      -4.936   8.614  14.449  1.00  0.00    -0.011 C 
HETATM   25  C7  UNL     1      -5.490   9.265  15.733  1.00  0.00     0.010 C 
BRANCH  24  26
HETATM   26  C5  UNL     1      -5.799   7.387  14.063  1.00  0.00     0.040 C 
BRANCH  26  27
HETATM   27  C4  UNL     1      -5.731   6.107  14.902  1.00  0.00     0.142 C 
BRANCH  27  28
HETATM   28  C3  UNL     1      -6.763   5.121  14.423  1.00  0.00     0.018 C 
HETATM   29  C2  UNL     1      -6.626   4.144  13.501  1.00  0.00     0.010 C 
HETATM   30  C1  UNL     1      -5.381   3.825  12.724  1.00  0.00     0.055 C 
BRANCH  29  31
HETATM   31  C30 UNL     1      -7.774   3.257  13.164  1.00  0.00     0.171 C 
HETATM   32  O3  UNL     1      -7.690   2.068  12.907  1.00  0.00    -0.646 OA
BRANCH  31  33
HETATM   33  O4  UNL     1      -8.965   3.876  13.169  1.00  0.00    -0.773 OA
HETATM   34  H46 UNL     1      -9.598   3.165  12.941  1.00  0.00     0.167 HD
ENDBRANCH  31  33
ENDBRANCH  29  31
ENDBRANCH  27  28
BRANCH  27  35
HETATM   35  O1  UNL     1      -6.040   6.390  16.261  1.00  0.00    -0.392 OA
HETATM   36  H6  UNL     1      -6.146   5.540  16.720  1.00  0.00     0.210 HD
ENDBRANCH  27  35
ENDBRANCH  26  27
ENDBRANCH  24  26
ENDBRANCH   1  24
TORSDOF 7
ENDMDL
MODEL 3
REMARK minimizedAffinity -9.48022556
REMARK  7 active torsions:
REMARK  status: ('A' for Active; 'I' for Inactive)
REMARK    1  A    between atoms: C2_2  and  C30_32 
REMARK    2  A    between atoms: C3_3  and  C4_4 
REMARK    3  A    between atoms: C4_4  and  O1_5 
REMARK    4  A    between atoms: C4_4  and  C5_6 
REMARK    5  A    between atoms: C5_6  and  C6_7 
REMARK    6  A    between atoms: C6_7  and  C8_9 
REMARK    7  A    between atoms: C30_32  and  O4_34 
ROOT
HETATM    1  C8  UNL     1      -4.004   7.683  14.526  1.00  0.00    -0.002 C 
HETATM    2  C9  UNL     1      -4.698   6.521  13.781  1.00  0.00     0.006 C 
HETATM    3  C10 UNL     1      -3.628   5.869  12.877  1.00  0.00     0.011 C 
HETATM    4  C11 UNL     1      -2.277   6.438  13.363  1.00  0.00    -0.032 C 
HETATM    5  C12 UNL     1      -1.828   5.566  14.577  1.00  0.00     0.016 C 
HETATM    6  C13 UNL     1      -1.152   6.463  12.292  1.00  0.00     0.004 C 
HETATM    7  C14 UNL     1      -0.553   5.085  11.972  1.00  0.00     0.007 C 
HETATM    8  C15 UNL     1       0.460   5.206  10.835  1.00  0.00     0.007 C 
HETATM    9  C16 UNL     1       1.708   5.966  11.304  1.00  0.00     0.010 C 
HETATM   10  C17 UNL     1       2.777   6.219  10.190  1.00  0.00     0.018 C 
HETATM   11  C18 UNL     1       3.585   4.935   9.927  1.00  0.00     0.023 C 
HETATM   12  C19 UNL     1       2.179   6.692   8.855  1.00  0.00     0.023 C 
HETATM   13  C20 UNL     1       3.776   7.281  10.679  1.00  0.00     0.135 C 
HETATM   14  O2  UNL     1       4.505   7.903   9.905  1.00  0.00    -0.297 OA
HETATM   15  C21 UNL     1       3.920   7.462  12.170  1.00  0.00     0.080 C 
HETATM   16  C22 UNL     1       2.587   7.779  12.836  1.00  0.00     0.018 C 
HETATM   17  C23 UNL     1       1.385   7.257  12.058  1.00  0.00    -0.026 A 
HETATM   18  C24 UNL     1       0.479   8.287  11.434  1.00  0.00     0.021 A 
HETATM   19  C25 UNL     1      -0.042   7.495  12.627  1.00  0.00    -0.027 A 
HETATM   20  C26 UNL     1      -0.149   8.257  13.956  1.00  0.00     0.011 C 
HETATM   21  C27 UNL     1      -1.552   8.555  14.514  1.00  0.00     0.011 C 
HETATM   22  C28 UNL     1      -2.691   7.915  13.718  1.00  0.00    -0.032 C 
HETATM   23  C29 UNL     1      -2.958   8.799  12.473  1.00  0.00     0.016 C 
ENDROOT
BRANCH   1  24
HETATM   24  C6  UNL     1      -4.886   8.857  15.035  1.00  0.00    -0.011 C 
HETATM   25  C7  UNL     1      -4.201   9.521  16.247  1.00  0.00     0.010 C 
BRANCH  24  26
HETATM   26  C5  UNL     1      -6.403   8.697  15.306  1.00  0.00     0.040 C 
BRANCH  26  27
HETATM   27  C4  UNL     1      -6.997   7.304  15.546  1.00  0.00     0.142 C 
BRANCH  27  28
HETATM   28  C3  UNL     1      -8.448   7.287  15.145  1.00  0.00     0.018 C 
HETATM   29  C2  UNL     1      -9.015   6.701  14.069  1.00  0.00     0.010 C 
HETATM   30  C1  UNL     1      -8.300   5.923  13.002  1.00  0.00     0.055 C 
BRANCH  29  31
HETATM   31  C30 UNL     1     -10.485   6.791  13.847  1.00  0.00     0.171 C 
HETATM   32  O3  UNL     1     -11.018   7.083  12.790  1.00  0.00    -0.646 OA
BRANCH  31  33
HETATM   33  O4  UNL     1     -11.222   6.508  14.933  1.00  0.00    -0.773 OA
HETATM   34  H46 UNL     1     -12.145   6.603  14.619  1.00  0.00     0.167 HD
ENDBRANCH  31  33
ENDBRANCH  29  31
ENDBRANCH  27  28
BRANCH  27  35
HETATM   35  O1  UNL     1      -6.954   6.980  16.929  1.00  0.00    -0.392 OA
HETATM   36  H6  UNL     1      -7.480   6.174  17.058  1.00  0.00     0.210 HD
ENDBRANCH  27  35
ENDBRANCH  26  27
ENDBRANCH  24  26
ENDBRANCH   1  24
TORSDOF 7
ENDMDL
MODEL 4
REMARK minimizedAffinity -9.45061111
REMARK  7 active torsions:
REMARK  status: ('A' for Active; 'I' for Inactive)
REMARK    1  A    between atoms: C2_2  and  C30_32 
REMARK    2  A    between atoms: C3_3  and  C4_4 
REMARK    3  A    between atoms: C4_4  and  O1_5 
REMARK    4  A    between atoms: C4_4  and  C5_6 
REMARK    5  A    between atoms: C5_6  and  C6_7 
REMARK    6  A    between atoms: C6_7  and  C8_9 
REMARK    7  A    between atoms: C30_32  and  O4_34 
ROOT
HETATM    1  C8  UNL     1      -5.898   6.486  14.750  1.00  0.00    -0.002 C 
HETATM    2  C9  UNL     1      -6.360   5.430  13.720  1.00  0.00     0.006 C 
HETATM    3  C10 UNL     1      -5.131   5.091  12.848  1.00  0.00     0.011 C 
HETATM    4  C11 UNL     1      -3.920   5.691  13.594  1.00  0.00    -0.032 C 
HETATM    5  C12 UNL     1      -3.484   4.645  14.667  1.00  0.00     0.016 C 
HETATM    6  C13 UNL     1      -2.707   6.051  12.692  1.00  0.00     0.004 C 
HETATM    7  C14 UNL     1      -1.907   4.837  12.194  1.00  0.00     0.007 C 
HETATM    8  C15 UNL     1      -0.810   5.291  11.233  1.00  0.00     0.007 C 
HETATM    9  C16 UNL     1       0.278   6.070  11.985  1.00  0.00     0.010 C 
HETATM   10  C17 UNL     1       1.410   6.654  11.078  1.00  0.00     0.018 C 
HETATM   11  C18 UNL     1       2.399   5.543  10.678  1.00  0.00     0.023 C 
HETATM   12  C19 UNL     1       0.891   7.320   9.793  1.00  0.00     0.023 C 
HETATM   13  C20 UNL     1       2.211   7.697  11.875  1.00  0.00     0.135 C 
HETATM   14  O2  UNL     1       2.927   8.536  11.327  1.00  0.00    -0.297 OA
HETATM   15  C21 UNL     1       2.183   7.588  13.380  1.00  0.00     0.080 C 
HETATM   16  C22 UNL     1       0.760   7.621  13.926  1.00  0.00     0.018 C 
HETATM   17  C23 UNL     1      -0.281   7.141  12.923  1.00  0.00    -0.026 A 
HETATM   18  C24 UNL     1      -1.246   8.173  12.398  1.00  0.00     0.021 A 
HETATM   19  C25 UNL     1      -1.777   7.107  13.347  1.00  0.00    -0.027 A 
HETATM   20  C26 UNL     1      -2.112   7.570  14.773  1.00  0.00     0.011 C 
HETATM   21  C27 UNL     1      -3.590   7.598  15.201  1.00  0.00     0.011 C 
HETATM   22  C28 UNL     1      -4.553   7.014  14.167  1.00  0.00    -0.032 C 
HETATM   23  C29 UNL     1      -4.806   8.097  13.086  1.00  0.00     0.016 C 
ENDROOT
BRANCH   1  24
HETATM   24  C6  UNL     1      -6.970   7.432  15.358  1.00  0.00    -0.011 C 
HETATM   25  C7  UNL     1      -7.321   6.954  16.783  1.00  0.00     0.010 C 
BRANCH  24  26
HETATM   26  C5  UNL     1      -8.262   7.821  14.597  1.00  0.00     0.040 C 
BRANCH  26  27
HETATM   27  C4  UNL     1      -9.424   6.826  14.500  1.00  0.00     0.142 C 
BRANCH  27  28
HETATM   28  C3  UNL     1     -10.456   7.333  13.528  1.00  0.00     0.018 C 
HETATM   29  C2  UNL     1     -11.169   8.478  13.582  1.00  0.00     0.010 C 
HETATM   30  C1  UNL     1     -11.090   9.523  14.657  1.00  0.00     0.055 C 
BRANCH  29  31
HETATM   31  C30 UNL     1     -12.149   8.809  12.510  1.00  0.00     0.171 C 
HETATM   32  O3  UNL     1     -13.327   8.496  12.516  1.00  0.00    -0.646 OA
BRANCH  31  33
HETATM   33  O4  UNL     1     -11.631   9.514  11.492  1.00  0.00    -0.773 OA
HETATM   34  H46 UNL     1     -12.393   9.652  10.892  1.00  0.00     0.167 HD
ENDBRANCH  31  33
ENDBRANCH  29  31
ENDBRANCH  27  28
BRANCH  27  35
HETATM   35  O1  UNL     1     -10.076   6.704  15.757  1.00  0.00    -0.392 OA
HETATM   36  H6  UNL     1     -10.894   6.200  15.615  1.00  0.00     0.210 HD
ENDBRANCH  27  35
ENDBRANCH  26  27
ENDBRANCH  24  26
ENDBRANCH   1  24
TORSDOF 7
ENDMDL
MODEL 5
REMARK minimizedAffinity -9.43086815
REMARK  7 active torsions:
REMARK  status: ('A' for Active; 'I' for Inactive)
REMARK    1  A    between atoms: C2_2  and  C30_32 
REMARK    2  A    between atoms: C3_3  and  C4_4 
REMARK    3  A    between atoms: C4_4  and  O1_5 
REMARK    4  A    between atoms: C4_4  and  C5_6 
REMARK    5  A    between atoms: C5_6  and  C6_7 
REMARK    6  A    between atoms: C6_7  and  C8_9 
REMARK    7  A    between atoms: C30_32  and  O4_34 
ROOT
HETATM    1  C8  UNL     1       1.365   6.939  12.511  1.00  0.00    -0.002 C 
HETATM    2  C9  UNL     1       0.673   8.128  13.213  1.00  0.00     0.006 C 
HETATM    3  C10 UNL     1      -0.803   7.724  13.422  1.00  0.00     0.011 C 
HETATM    4  C11 UNL     1      -0.856   6.205  13.151  1.00  0.00    -0.032 C 
HETATM    5  C12 UNL     1      -0.442   5.493  14.477  1.00  0.00     0.016 C 
HETATM    6  C13 UNL     1      -2.236   5.670  12.679  1.00  0.00     0.004 C 
HETATM    7  C14 UNL     1      -3.298   5.595  13.787  1.00  0.00     0.007 C 
HETATM    8  C15 UNL     1      -4.639   5.164  13.198  1.00  0.00     0.007 C 
HETATM    9  C16 UNL     1      -4.584   3.698  12.747  1.00  0.00     0.010 C 
HETATM   10  C17 UNL     1      -5.885   3.179  12.050  1.00  0.00     0.018 C 
HETATM   11  C18 UNL     1      -6.967   2.875  13.103  1.00  0.00     0.023 C 
HETATM   12  C19 UNL     1      -6.474   4.163  11.026  1.00  0.00     0.023 C 
HETATM   13  C20 UNL     1      -5.580   1.854  11.330  1.00  0.00     0.135 C 
HETATM   14  O2  UNL     1      -6.309   1.403  10.446  1.00  0.00    -0.297 OA
HETATM   15  C21 UNL     1      -4.402   1.052  11.827  1.00  0.00     0.080 C 
HETATM   16  C22 UNL     1      -3.113   1.864  11.810  1.00  0.00     0.018 C 
HETATM   17  C23 UNL     1      -3.345   3.366  11.913  1.00  0.00    -0.026 A 
HETATM   18  C24 UNL     1      -3.013   4.191  10.696  1.00  0.00     0.021 A 
HETATM   19  C25 UNL     1      -2.118   4.320  11.921  1.00  0.00    -0.027 A 
HETATM   20  C26 UNL     1      -0.727   3.675  11.820  1.00  0.00     0.011 C 
HETATM   21  C27 UNL     1       0.502   4.599  11.772  1.00  0.00     0.011 C 
HETATM   22  C28 UNL     1       0.181   6.080  11.974  1.00  0.00    -0.032 C 
HETATM   23  C29 UNL     1      -0.341   6.643  10.626  1.00  0.00     0.016 C 
ENDROOT
BRANCH   1  24
HETATM   24  C6  UNL     1       2.636   7.228  11.665  1.00  0.00    -0.011 C 
HETATM   25  C7  UNL     1       3.852   7.369  12.604  1.00  0.00     0.010 C 
BRANCH  24  26
HETATM   26  C5  UNL     1       2.676   8.331  10.578  1.00  0.00     0.040 C 
BRANCH  26  27
HETATM   27  C4  UNL     1       2.558   7.952   9.097  1.00  0.00     0.142 C 
BRANCH  27  28
HETATM   28  C3  UNL     1       3.015   6.533   8.890  1.00  0.00     0.018 C 
HETATM   29  C2  UNL     1       2.901   5.768   7.784  1.00  0.00     0.010 C 
HETATM   30  C1  UNL     1       2.268   6.174   6.484  1.00  0.00     0.055 C 
BRANCH  29  31
HETATM   31  C30 UNL     1       3.427   4.373   7.772  1.00  0.00     0.171 C 
HETATM   32  O3  UNL     1       4.003   3.833   8.700  1.00  0.00    -0.646 OA
BRANCH  31  33
HETATM   33  O4  UNL     1       3.208   3.715   6.623  1.00  0.00    -0.773 OA
HETATM   34  H46 UNL     1       3.600   2.832   6.782  1.00  0.00     0.167 HD
ENDBRANCH  31  33
ENDBRANCH  29  31
ENDBRANCH  27  28
BRANCH  27  35
HETATM   35  O1  UNL     1       3.410   8.772   8.308  1.00  0.00    -0.392 OA
HETATM   36  H6  UNL     1       3.430   8.397   7.412  1.00  0.00     0.210 HD
ENDBRANCH  27  35
ENDBRANCH  26  27
ENDBRANCH  24  26
ENDBRANCH   1  24
TORSDOF 7
ENDMDL
MODEL 6
REMARK minimizedAffinity -9.29996777
REMARK  7 active torsions:
REMARK  status: ('A' for Active; 'I' for Inactive)
REMARK    1  A    between atoms: C2_2  and  C30_32 
REMARK    2  A    between atoms: C3_3  and  C4_4 
REMARK    3  A    between atoms: C4_4  and  O1_5 
REMARK    4  A    between atoms: C4_4  and  C5_6 
REMARK    5  A    between atoms: C5_6  and  C6_7 
REMARK    6  A    between atoms: C6_7  and  C8_9 
REMARK    7  A    between atoms: C30_32  and  O4_34 
ROOT
HETATM    1  C8  UNL     1      -2.326   6.064  13.418  1.00  0.00    -0.002 C 
HETATM    2  C9  UNL     1      -2.458   5.270  12.098  1.00  0.00     0.006 C 
HETATM    3  C10 UNL     1      -1.076   5.318  11.410  1.00  0.00     0.011 C 
HETATM    4  C11 UNL     1      -0.098   5.837  12.486  1.00  0.00    -0.032 C 
HETATM    5  C12 UNL     1       0.335   4.603  13.338  1.00  0.00     0.016 C 
HETATM    6  C13 UNL     1       1.162   6.560  11.935  1.00  0.00     0.004 C 
HETATM    7  C14 UNL     1       2.208   5.622  11.315  1.00  0.00     0.007 C 
HETATM    8  C15 UNL     1       3.348   6.437  10.708  1.00  0.00     0.007 C 
HETATM    9  C16 UNL     1       4.176   7.110  11.812  1.00  0.00     0.010 C 
HETATM   10  C17 UNL     1       5.323   8.041  11.294  1.00  0.00     0.018 C 
HETATM   11  C18 UNL     1       6.523   7.196  10.827  1.00  0.00     0.023 C 
HETATM   12  C19 UNL     1       4.900   8.957  10.134  1.00  0.00     0.023 C 
HETATM   13  C20 UNL     1       5.821   8.922  12.452  1.00  0.00     0.135 C 
HETATM   14  O2  UNL     1       6.469   9.952  12.261  1.00  0.00    -0.297 OA
HETATM   15  C21 UNL     1       5.590   8.417  13.854  1.00  0.00     0.080 C 
HETATM   16  C22 UNL     1       4.115   8.140  14.123  1.00  0.00     0.018 C 
HETATM   17  C23 UNL     1       3.322   7.824  12.861  1.00  0.00    -0.026 A 
HETATM   18  C24 UNL     1       2.294   8.839  12.432  1.00  0.00     0.021 A 
HETATM   19  C25 UNL     1       1.806   7.506  12.984  1.00  0.00    -0.027 A 
HETATM   20  C26 UNL     1       1.195   7.535  14.393  1.00  0.00     0.011 C 
HETATM   21  C27 UNL     1      -0.316   7.277  14.537  1.00  0.00     0.011 C 
HETATM   22  C28 UNL     1      -1.011   6.879  13.235  1.00  0.00    -0.032 C 
HETATM   23  C29 UNL     1      -1.271   8.172  12.419  1.00  0.00     0.016 C 
ENDROOT
BRANCH   1  24
HETATM   24  C6  UNL     1      -3.613   6.685  14.029  1.00  0.00    -0.011 C 
HETATM   25  C7  UNL     1      -3.780   6.184  15.479  1.00  0.00     0.010 C 
BRANCH  24  26
HETATM   26  C5  UNL     1      -4.978   6.655  13.298  1.00  0.00     0.040 C 
BRANCH  26  27
HETATM   27  C4  UNL     1      -5.935   5.477  13.510  1.00  0.00     0.142 C 
BRANCH  27  28
HETATM   28  C3  UNL     1      -5.622   4.376  12.533  1.00  0.00     0.018 C 
HETATM   29  C2  UNL     1      -6.283   3.215  12.337  1.00  0.00     0.010 C 
HETATM   30  C1  UNL     1      -7.505   2.752  13.078  1.00  0.00     0.055 C 
BRANCH  29  31
HETATM   31  C30 UNL     1      -5.817   2.244  11.307  1.00  0.00     0.171 C 
HETATM   32  O3  UNL     1      -5.877   1.031  11.408  1.00  0.00    -0.646 OA
BRANCH  31  33
HETATM   33  O4  UNL     1      -5.310   2.818  10.204  1.00  0.00    -0.773 OA
HETATM   34  H46 UNL     1      -5.065   2.057   9.638  1.00  0.00     0.167 HD
ENDBRANCH  31  33
ENDBRANCH  29  31
ENDBRANCH  27  28
BRANCH  27  35
HETATM   35  O1  UNL     1      -7.275   5.878  13.253  1.00  0.00    -0.392 OA
HETATM   36  H6  UNL     1      -7.823   5.076  13.238  1.00  0.00     0.210 HD
ENDBRANCH  27  35
ENDBRANCH  26  27
ENDBRANCH  24  26
ENDBRANCH   1  24
TORSDOF 7
ENDMDL
MODEL 7
REMARK minimizedAffinity -9.28314495
REMARK  7 active torsions:
REMARK  status: ('A' for Active; 'I' for Inactive)
REMARK    1  A    between atoms: C2_2  and  C30_32 
REMARK    2  A    between atoms: C3_3  and  C4_4 
REMARK    3  A    between atoms: C4_4  and  O1_5 
REMARK    4  A    between atoms: C4_4  and  C5_6 
REMARK    5  A    between atoms: C5_6  and  C6_7 
REMARK    6  A    between atoms: C6_7  and  C8_9 
REMARK    7  A    between atoms: C30_32  and  O4_34 
ROOT
HETATM    1  C8  UNL     1      -1.952   5.265  12.307  1.00  0.00    -0.002 C 
HETATM    2  C9  UNL     1      -2.322   5.898  13.667  1.00  0.00     0.006 C 
HETATM    3  C10 UNL     1      -1.206   6.911  14.005  1.00  0.00     0.011 C 
HETATM    4  C11 UNL     1      -0.405   7.091  12.697  1.00  0.00    -0.032 C 
HETATM    5  C12 UNL     1      -1.160   8.160  11.846  1.00  0.00     0.016 C 
HETATM    6  C13 UNL     1       1.075   7.524  12.888  1.00  0.00     0.004 C 
HETATM    7  C14 UNL     1       1.255   8.993  13.301  1.00  0.00     0.007 C 
HETATM    8  C15 UNL     1       2.730   9.285  13.568  1.00  0.00     0.007 C 
HETATM    9  C16 UNL     1       3.532   9.248  12.260  1.00  0.00     0.010 C 
HETATM   10  C17 UNL     1       5.074   9.451  12.432  1.00  0.00     0.018 C 
HETATM   11  C18 UNL     1       5.392  10.942  12.654  1.00  0.00     0.023 C 
HETATM   12  C19 UNL     1       5.677   8.653  13.599  1.00  0.00     0.023 C 
HETATM   13  C20 UNL     1       5.788   9.032  11.136  1.00  0.00     0.135 C 
HETATM   14  O2  UNL     1       6.993   8.777  11.103  1.00  0.00    -0.297 OA
HETATM   15  C21 UNL     1       4.980   9.053   9.863  1.00  0.00     0.080 C 
HETATM   16  C22 UNL     1       3.728   8.191   9.969  1.00  0.00     0.018 C 
HETATM   17  C23 UNL     1       3.235   8.018  11.400  1.00  0.00    -0.026 A 
HETATM   18  C24 UNL     1       3.342   6.638  11.995  1.00  0.00     0.021 A 
HETATM   19  C25 UNL     1       1.956   7.173  11.659  1.00  0.00    -0.027 A 
HETATM   20  C26 UNL     1       1.265   6.553  10.435  1.00  0.00     0.011 C 
HETATM   21  C27 UNL     1       0.029   5.667  10.669  1.00  0.00     0.011 C 
HETATM   22  C28 UNL     1      -0.448   5.626  12.121  1.00  0.00    -0.032 C 
HETATM   23  C29 UNL     1       0.458   4.631  12.893  1.00  0.00     0.016 C 
ENDROOT
BRANCH   1  24
HETATM   24  C6  UNL     1      -2.517   3.854  11.979  1.00  0.00    -0.011 C 
HETATM   25  C7  UNL     1      -2.362   3.582  10.468  1.00  0.00     0.010 C 
BRANCH  24  26
HETATM   26  C5  UNL     1      -3.913   3.386  12.461  1.00  0.00     0.040 C 
BRANCH  26  27
HETATM   27  C4  UNL     1      -4.935   2.856  11.449  1.00  0.00     0.142 C 
BRANCH  27  28
HETATM   28  C3  UNL     1      -6.331   3.196  11.900  1.00  0.00     0.018 C 
HETATM   29  C2  UNL     1      -6.746   4.268  12.608  1.00  0.00     0.010 C 
HETATM   30  C1  UNL     1      -5.881   5.383  13.121  1.00  0.00     0.055 C 
BRANCH  29  31
HETATM   31  C30 UNL     1      -8.186   4.432  12.956  1.00  0.00     0.171 C 
HETATM   32  O3  UNL     1      -8.774   5.497  13.022  1.00  0.00    -0.646 OA
BRANCH  31  33
HETATM   33  O4  UNL     1      -8.826   3.277  13.195  1.00  0.00    -0.773 OA
HETATM   34  H46 UNL     1      -9.743   3.557  13.395  1.00  0.00     0.167 HD
ENDBRANCH  31  33
ENDBRANCH  29  31
ENDBRANCH  27  28
BRANCH  27  35
HETATM   35  O1  UNL     1      -4.867   1.438  11.375  1.00  0.00    -0.392 OA
HETATM   36  H6  UNL     1      -5.629   1.135  10.855  1.00  0.00     0.210 HD
ENDBRANCH  27  35
ENDBRANCH  26  27
ENDBRANCH  24  26
ENDBRANCH   1  24
TORSDOF 7
ENDMDL
MODEL 8
REMARK minimizedAffinity -9.2239666
REMARK  7 active torsions:
REMARK  status: ('A' for Active; 'I' for Inactive)
REMARK    1  A    between atoms: C2_2  and  C30_32 
REMARK    2  A    between atoms: C3_3  and  C4_4 
REMARK    3  A    between atoms: C4_4  and  O1_5 
REMARK    4  A    between atoms: C4_4  and  C5_6 
REMARK    5  A    between atoms: C5_6  and  C6_7 
REMARK    6  A    between atoms: C6_7  and  C8_9 
REMARK    7  A    between atoms: C30_32  and  O4_34 
ROOT
HETATM    1  C8  UNL     1      -1.914   7.813  13.686  1.00  0.00    -0.002 C 
HETATM    2  C9  UNL     1      -1.667   7.606  15.197  1.00  0.00     0.006 C 
HETATM    3  C10 UNL     1      -0.139   7.668  15.411  1.00  0.00     0.011 C 
HETATM    4  C11 UNL     1       0.437   8.240  14.098  1.00  0.00    -0.032 C 
HETATM    5  C12 UNL     1       0.331   9.794  14.194  1.00  0.00     0.016 C 
HETATM    6  C13 UNL     1       1.906   7.834  13.794  1.00  0.00     0.004 C 
HETATM    7  C14 UNL     1       2.952   8.548  14.663  1.00  0.00     0.007 C 
HETATM    8  C15 UNL     1       4.346   8.000  14.362  1.00  0.00     0.007 C 
HETATM    9  C16 UNL     1       4.798   8.420  12.957  1.00  0.00     0.010 C 
HETATM   10  C17 UNL     1       6.182   7.839  12.515  1.00  0.00     0.018 C 
HETATM   11  C18 UNL     1       7.326   8.625  13.182  1.00  0.00     0.023 C 
HETATM   12  C19 UNL     1       6.363   6.349  12.849  1.00  0.00     0.023 C 
HETATM   13  C20 UNL     1       6.344   8.018  10.996  1.00  0.00     0.135 C 
HETATM   14  O2  UNL     1       7.165   7.373  10.342  1.00  0.00    -0.297 OA
HETATM   15  C21 UNL     1       5.535   9.109  10.338  1.00  0.00     0.080 C 
HETATM   16  C22 UNL     1       4.043   8.947  10.600  1.00  0.00     0.018 C 
HETATM   17  C23 UNL     1       3.736   8.184  11.882  1.00  0.00    -0.026 A 
HETATM   18  C24 UNL     1       3.106   6.822  11.730  1.00  0.00     0.021 A 
HETATM   19  C25 UNL     1       2.252   7.954  12.285  1.00  0.00    -0.027 A 
HETATM   20  C26 UNL     1       1.175   8.518  11.346  1.00  0.00     0.011 C 
HETATM   21  C27 UNL     1      -0.302   8.258  11.693  1.00  0.00     0.011 C 
HETATM   22  C28 UNL     1      -0.517   7.569  13.041  1.00  0.00    -0.032 C 
HETATM   23  C29 UNL     1      -0.257   6.052  12.847  1.00  0.00     0.016 C 
ENDROOT
BRANCH   1  24
HETATM   24  C6  UNL     1      -3.225   7.245  13.075  1.00  0.00    -0.011 C 
HETATM   25  C7  UNL     1      -4.270   8.376  12.968  1.00  0.00     0.010 C 
BRANCH  24  26
HETATM   26  C5  UNL     1      -3.896   5.953  13.604  1.00  0.00     0.040 C 
BRANCH  26  27
HETATM   27  C4  UNL     1      -4.197   4.797  12.643  1.00  0.00     0.142 C 
BRANCH  27  28
HETATM   28  C3  UNL     1      -5.563   4.233  12.928  1.00  0.00     0.018 C 
HETATM   29  C2  UNL     1      -6.170   3.173  12.352  1.00  0.00     0.010 C 
HETATM   30  C1  UNL     1      -5.601   2.306  11.266  1.00  0.00     0.055 C 
BRANCH  29  31
HETATM   31  C30 UNL     1      -7.537   2.762  12.778  1.00  0.00     0.171 C 
HETATM   32  O3  UNL     1      -8.380   3.508  13.246  1.00  0.00    -0.646 OA
BRANCH  31  33
HETATM   33  O4  UNL     1      -7.797   1.458  12.598  1.00  0.00    -0.773 OA
HETATM   34  H46 UNL     1      -8.719   1.358  12.914  1.00  0.00     0.167 HD
ENDBRANCH  31  33
ENDBRANCH  29  31
ENDBRANCH  27  28
BRANCH  27  35
HETATM   35  O1  UNL     1      -3.271   3.736  12.841  1.00  0.00    -0.392 OA
HETATM   36  H6  UNL     1      -3.591   2.970  12.337  1.00  0.00     0.210 HD
ENDBRANCH  27  35
ENDBRANCH  26  27
ENDBRANCH  24  26
ENDBRANCH   1  24
TORSDOF 7
ENDMDL
MODEL 9
REMARK minimizedAffinity -9.21728516
REMARK  7 active torsions:
REMARK  status: ('A' for Active; 'I' for Inactive)
REMARK    1  A    between atoms: C2_2  and  C30_32 
REMARK    2  A    between atoms: C3_3  and  C4_4 
REMARK    3  A    between atoms: C4_4  and  O1_5 
REMARK    4  A    between atoms: C4_4  and  C5_6 
REMARK    5  A    between atoms: C5_6  and  C6_7 
REMARK    6  A    between atoms: C6_7  and  C8_9 
REMARK    7  A    between atoms: C30_32  and  O4_34 
ROOT
HETATM    1  C8  UNL     1      -3.452   6.748  13.689  1.00  0.00    -0.002 C 
HETATM    2  C9  UNL     1      -3.363   7.852  14.767  1.00  0.00     0.006 C 
HETATM    3  C10 UNL     1      -1.966   8.496  14.631  1.00  0.00     0.011 C 
HETATM    4  C11 UNL     1      -1.411   7.994  13.281  1.00  0.00    -0.032 C 
HETATM    5  C12 UNL     1      -1.986   8.936  12.176  1.00  0.00     0.016 C 
HETATM    6  C13 UNL     1       0.139   7.956  13.181  1.00  0.00     0.004 C 
HETATM    7  C14 UNL     1       0.797   9.337  13.036  1.00  0.00     0.007 C 
HETATM    8  C15 UNL     1       2.317   9.197  13.057  1.00  0.00     0.007 C 
HETATM    9  C16 UNL     1       2.813   8.501  11.783  1.00  0.00     0.010 C 
HETATM   10  C17 UNL     1       4.354   8.231  11.741  1.00  0.00     0.018 C 
HETATM   11  C18 UNL     1       5.111   9.528  11.398  1.00  0.00     0.023 C 
HETATM   12  C19 UNL     1       4.921   7.678  13.059  1.00  0.00     0.023 C 
HETATM   13  C20 UNL     1       4.662   7.225  10.620  1.00  0.00     0.135 C 
HETATM   14  O2  UNL     1       5.718   6.593  10.576  1.00  0.00    -0.297 OA
HETATM   15  C21 UNL     1       3.665   7.118   9.493  1.00  0.00     0.080 C 
HETATM   16  C22 UNL     1       2.266   6.789  10.001  1.00  0.00     0.018 C 
HETATM   17  C23 UNL     1       2.026   7.235  11.437  1.00  0.00    -0.026 A 
HETATM   18  C24 UNL     1       1.855   6.149  12.468  1.00  0.00     0.021 A 
HETATM   19  C25 UNL     1       0.636   6.977  12.084  1.00  0.00    -0.027 A 
HETATM   20  C26 UNL     1      -0.421   6.274  11.219  1.00  0.00     0.011 C 
HETATM   21  C27 UNL     1      -1.787   5.957  11.853  1.00  0.00     0.011 C 
HETATM   22  C28 UNL     1      -1.970   6.522  13.262  1.00  0.00    -0.032 C 
HETATM   23  C29 UNL     1      -1.248   5.574  14.254  1.00  0.00     0.016 C 
ENDROOT
BRANCH   1  24
HETATM   24  C6  UNL     1      -4.439   5.572  13.926  1.00  0.00    -0.011 C 
HETATM   25  C7  UNL     1      -4.022   4.372  13.050  1.00  0.00     0.010 C 
BRANCH  24  26
HETATM   26  C5  UNL     1      -5.976   5.755  13.876  1.00  0.00     0.040 C 
BRANCH  26  27
HETATM   27  C4  UNL     1      -6.805   5.636  15.159  1.00  0.00     0.142 C 
BRANCH  27  28
HETATM   28  C3  UNL     1      -8.172   6.229  14.947  1.00  0.00     0.018 C 
HETATM   29  C2  UNL     1      -8.943   6.185  13.839  1.00  0.00     0.010 C 
HETATM   30  C1  UNL     1      -8.591   5.524  12.538  1.00  0.00     0.055 C 
BRANCH  29  31
HETATM   31  C30 UNL     1     -10.285   6.833  13.826  1.00  0.00     0.171 C 
HETATM   32  O3  UNL     1     -10.785   7.389  12.863  1.00  0.00    -0.646 OA
BRANCH  31  33
HETATM   33  O4  UNL     1     -10.942   6.756  14.994  1.00  0.00    -0.773 OA
HETATM   34  H46 UNL     1     -11.789   7.213  14.815  1.00  0.00     0.167 HD
ENDBRANCH  31  33
ENDBRANCH  29  31
ENDBRANCH  27  28
BRANCH  27  35
HETATM   35  O1  UNL     1      -6.199   6.380  16.209  1.00  0.00    -0.392 OA
HETATM   36  H6  UNL     1      -6.831   6.413  16.946  1.00  0.00     0.210 HD
ENDBRANCH  27  35
ENDBRANCH  26  27
ENDBRANCH  24  26
ENDBRANCH   1  24
TORSDOF 7
ENDMDL
