MODEL 1
REMARK minimizedAffinity -9.13911724
REMARK  6 active torsions:
REMARK  status: ('A' for Active; 'I' for Inactive)
REMARK    1  A    between atoms: C3_3  and  C4_4 
REMARK    2  A    between atoms: C4_4  and  O1_5 
REMARK    3  A    between atoms: C6_9  and  C7_10 
REMARK    4  A    between atoms: C7_10  and  C9_12 
REMARK    5  A    between atoms: C15_18  and  O4_19 
REMARK    6  A    between atoms: C16_20  and  C17_21 
ROOT
HETATM    1  C9  UNL     1       0.817   6.204  11.631  1.00  0.00     0.000 C 
HETATM    2  C10 UNL     1       1.104   6.327  10.104  1.00  0.00     0.006 C 
HETATM    3  C11 UNL     1       2.419   7.098   9.938  1.00  0.00     0.006 C 
HETATM    4  C12 UNL     1       2.969   7.182  11.350  1.00  0.00    -0.001 C 
HETATM    5  C13 UNL     1       4.072   8.212  11.639  1.00  0.00    -0.002 C 
HETATM    6  C14 UNL     1       5.269   8.023  10.695  1.00  0.00     0.038 C 
HETATM    7  C15 UNL     1       6.399   9.002  11.003  1.00  0.00     0.135 C 
HETATM    8  C16 UNL     1       6.864   8.971  12.472  1.00  0.00     0.053 C 
HETATM    9  C18 UNL     1       7.597   7.658  12.824  1.00  0.00     0.028 C 
HETATM   10  C19 UNL     1       7.586   7.583  14.349  1.00  0.00     0.080 C 
HETATM   11  C20 UNL     1       6.388   8.423  14.722  1.00  0.00     0.137 C 
HETATM   12  O6  UNL     1       6.037   8.591  15.883  1.00  0.00    -0.297 OA
HETATM   13  C21 UNL     1       5.688   9.031  13.504  1.00  0.00     0.037 C 
HETATM   14  C22 UNL     1       5.203  10.456  13.804  1.00  0.00     0.025 C 
HETATM   15  C23 UNL     1       4.515   8.058  13.118  1.00  0.00     0.007 C 
HETATM   16  C24 UNL     1       3.296   8.128  14.072  1.00  0.00     0.007 C 
HETATM   17  C25 UNL     1       2.166   7.154  13.689  1.00  0.00     0.010 C 
HETATM   18  C26 UNL     1       1.701   7.349  12.232  1.00  0.00    -0.036 C 
HETATM   19  C27 UNL     1       1.009   8.724  12.062  1.00  0.00     0.016 C 
ENDROOT
BRANCH   1  20
HETATM   20  C7  UNL     1      -0.718   6.134  11.952  1.00  0.00     0.016 C 
HETATM   21  C8  UNL     1      -1.261   7.483  12.439  1.00  0.00     0.013 C 
BRANCH  20  22
HETATM   22  C6  UNL     1      -1.024   5.015  13.014  1.00  0.00     0.140 C 
HETATM   23  O3  UNL     1      -0.918   3.701  12.424  1.00  0.00    -0.311 OA
HETATM   24  C5  UNL     1      -1.946   3.170  11.711  1.00  0.00     0.292 C 
HETATM   25  C3  UNL     1      -3.252   3.892  11.764  1.00  0.00     0.042 C 
HETATM   26  O2  UNL     1      -1.806   2.129  11.083  1.00  0.00    -0.260 OA
HETATM   27  C2  UNL     1      -3.483   4.765  12.769  1.00  0.00    -0.067 C 
HETATM   28  C1  UNL     1      -4.777   5.482  13.024  1.00  0.00     0.044 C 
HETATM   29  C28 UNL     1      -2.373   5.075  13.737  1.00  0.00     0.067 C 
BRANCH  25  30
HETATM   30  C4  UNL     1      -4.243   3.490  10.711  1.00  0.00     0.209 C 
BRANCH  30  31
HETATM   31  O1  UNL     1      -3.605   3.489   9.438  1.00  0.00    -0.396 OA
HETATM   32  H6  UNL     1      -3.375   4.408   9.222  1.00  0.00     0.209 HD
ENDBRANCH  30  31
ENDBRANCH  25  30
ENDBRANCH  20  22
ENDBRANCH   1  20
BRANCH   7  33
HETATM   33  O4  UNL     1       5.911  10.305  10.669  1.00  0.00    -0.394 OA
HETATM   34  H22 UNL     1       6.699  10.883  10.584  1.00  0.00     0.210 HD
ENDBRANCH   7  33
BRANCH   8  35
HETATM   35  C17 UNL     1       7.890  10.101  12.672  1.00  0.00     0.244 C 
HETATM   36  O5  UNL     1       9.099   9.968  12.491  1.00  0.00    -0.306 OA
ENDBRANCH   8  35
TORSDOF 6
ENDMDL
MODEL 2
REMARK minimizedAffinity -8.77199364
REMARK  6 active torsions:
REMARK  status: ('A' for Active; 'I' for Inactive)
REMARK    1  A    between atoms: C3_3  and  C4_4 
REMARK    2  A    between atoms: C4_4  and  O1_5 
REMARK    3  A    between atoms: C6_9  and  C7_10 
REMARK    4  A    between atoms: C7_10  and  C9_12 
REMARK    5  A    between atoms: C15_18  and  O4_19 
REMARK    6  A    between atoms: C16_20  and  C17_21 
ROOT
HETATM    1  C9  UNL     1      -0.790   6.035  12.624  1.00  0.00     0.000 C 
HETATM    2  C10 UNL     1      -0.634   5.534  11.155  1.00  0.00     0.006 C 
HETATM    3  C11 UNL     1       0.743   5.986  10.652  1.00  0.00     0.006 C 
HETATM    4  C12 UNL     1       1.428   6.511  11.901  1.00  0.00    -0.001 C 
HETATM    5  C13 UNL     1       2.669   7.401  11.727  1.00  0.00    -0.002 C 
HETATM    6  C14 UNL     1       3.741   6.699  10.880  1.00  0.00     0.038 C 
HETATM    7  C15 UNL     1       5.004   7.546  10.743  1.00  0.00     0.135 C 
HETATM    8  C16 UNL     1       5.598   7.999  12.091  1.00  0.00     0.053 C 
HETATM    9  C18 UNL     1       6.198   6.820  12.889  1.00  0.00     0.028 C 
HETATM   10  C19 UNL     1       6.320   7.323  14.325  1.00  0.00     0.080 C 
HETATM   11  C20 UNL     1       5.272   8.407  14.396  1.00  0.00     0.137 C 
HETATM   12  O6  UNL     1       5.054   9.046  15.418  1.00  0.00    -0.297 OA
HETATM   13  C21 UNL     1       4.538   8.612  13.068  1.00  0.00     0.037 C 
HETATM   14  C22 UNL     1       4.258  10.100  12.819  1.00  0.00     0.025 C 
HETATM   15  C23 UNL     1       3.227   7.748  13.133  1.00  0.00     0.007 C 
HETATM   16  C24 UNL     1       2.119   8.346  14.037  1.00  0.00     0.007 C 
HETATM   17  C25 UNL     1       0.850   7.477  14.103  1.00  0.00     0.010 C 
HETATM   18  C26 UNL     1       0.277   7.179  12.703  1.00  0.00    -0.036 C 
HETATM   19  C27 UNL     1      -0.257   8.476  12.048  1.00  0.00     0.016 C 
ENDROOT
BRANCH   1  20
HETATM   20  C7  UNL     1      -2.285   6.316  13.009  1.00  0.00     0.016 C 
HETATM   21  C8  UNL     1      -2.486   7.751  13.509  1.00  0.00     0.013 C 
BRANCH  20  22
HETATM   22  C6  UNL     1      -2.792   5.292  14.090  1.00  0.00     0.140 C 
HETATM   23  O3  UNL     1      -3.533   4.215  13.475  1.00  0.00    -0.311 OA
HETATM   24  C5  UNL     1      -4.843   4.369  13.146  1.00  0.00     0.292 C 
HETATM   25  C3  UNL     1      -5.532   5.592  13.655  1.00  0.00     0.042 C 
HETATM   26  O2  UNL     1      -5.431   3.520  12.488  1.00  0.00    -0.260 OA
HETATM   27  C2  UNL     1      -4.995   6.267  14.695  1.00  0.00    -0.067 C 
HETATM   28  C1  UNL     1      -5.619   7.443  15.390  1.00  0.00     0.044 C 
HETATM   29  C28 UNL     1      -3.656   5.838  15.231  1.00  0.00     0.067 C 
BRANCH  25  30
HETATM   30  C4  UNL     1      -6.845   5.902  12.996  1.00  0.00     0.209 C 
BRANCH  30  31
HETATM   31  O1  UNL     1      -7.830   4.981  13.451  1.00  0.00    -0.396 OA
HETATM   32  H6  UNL     1      -7.588   4.101  13.117  1.00  0.00     0.209 HD
ENDBRANCH  30  31
ENDBRANCH  25  30
ENDBRANCH  20  22
ENDBRANCH   1  20
BRANCH   7  33
HETATM   33  O4  UNL     1       4.647   8.686   9.955  1.00  0.00    -0.394 OA
HETATM   34  H22 UNL     1       5.486   9.068   9.623  1.00  0.00     0.210 HD
ENDBRANCH   7  33
BRANCH   8  35
HETATM   35  C17 UNL     1       6.766   8.958  11.801  1.00  0.00     0.244 C 
HETATM   36  O5  UNL     1       7.214   9.171  10.676  1.00  0.00    -0.306 OA
ENDBRANCH   8  35
TORSDOF 6
ENDMDL
MODEL 3
REMARK minimizedAffinity -8.56642914
REMARK  6 active torsions:
REMARK  status: ('A' for Active; 'I' for Inactive)
REMARK    1  A    between atoms: C3_3  and  C4_4 
REMARK    2  A    between atoms: C4_4  and  O1_5 
REMARK    3  A    between atoms: C6_9  and  C7_10 
REMARK    4  A    between atoms: C7_10  and  C9_12 
REMARK    5  A    between atoms: C15_18  and  O4_19 
REMARK    6  A    between atoms: C16_20  and  C17_21 
ROOT
HETATM    1  C9  UNL     1      -0.577   6.564  14.354  1.00  0.00     0.000 C 
HETATM    2  C10 UNL     1      -0.629   7.760  15.353  1.00  0.00     0.006 C 
HETATM    3  C11 UNL     1      -2.104   8.098  15.600  1.00  0.00     0.006 C 
HETATM    4  C12 UNL     1      -2.852   6.953  14.942  1.00  0.00    -0.001 C 
HETATM    5  C13 UNL     1      -4.348   7.139  14.646  1.00  0.00    -0.002 C 
HETATM    6  C14 UNL     1      -5.123   7.517  15.917  1.00  0.00     0.038 C 
HETATM    7  C15 UNL     1      -6.621   7.652  15.653  1.00  0.00     0.135 C 
HETATM    8  C16 UNL     1      -7.249   6.410  14.992  1.00  0.00     0.053 C 
HETATM    9  C18 UNL     1      -7.293   5.199  15.950  1.00  0.00     0.028 C 
HETATM   10  C19 UNL     1      -7.501   3.980  15.054  1.00  0.00     0.080 C 
HETATM   11  C20 UNL     1      -6.949   4.437  13.725  1.00  0.00     0.137 C 
HETATM   12  O6  UNL     1      -6.924   3.712  12.738  1.00  0.00    -0.297 OA
HETATM   13  C21 UNL     1      -6.443   5.881  13.757  1.00  0.00     0.037 C 
HETATM   14  C22 UNL     1      -6.775   6.609  12.447  1.00  0.00     0.025 C 
HETATM   15  C23 UNL     1      -4.899   5.818  14.045  1.00  0.00     0.007 C 
HETATM   16  C24 UNL     1      -4.048   5.364  12.832  1.00  0.00     0.007 C 
HETATM   17  C25 UNL     1      -2.541   5.290  13.137  1.00  0.00     0.010 C 
HETATM   18  C26 UNL     1      -1.995   6.622  13.689  1.00  0.00    -0.036 C 
HETATM   19  C27 UNL     1      -2.047   7.722  12.600  1.00  0.00     0.016 C 
ENDROOT
BRANCH   1  20
HETATM   20  C7  UNL     1       0.717   6.576  13.467  1.00  0.00     0.016 C 
HETATM   21  C8  UNL     1       1.926   7.133  14.228  1.00  0.00     0.013 C 
BRANCH  20  22
HETATM   22  C6  UNL     1       0.488   7.396  12.144  1.00  0.00     0.140 C 
HETATM   23  O3  UNL     1       0.605   6.546  10.982  1.00  0.00    -0.311 OA
HETATM   24  C5  UNL     1       1.823   6.236  10.465  1.00  0.00     0.292 C 
HETATM   25  C3  UNL     1       2.999   6.988  10.995  1.00  0.00     0.042 C 
HETATM   26  O2  UNL     1       1.936   5.397   9.580  1.00  0.00    -0.260 OA
HETATM   27  C2  UNL     1       2.796   8.161  11.635  1.00  0.00    -0.067 C 
HETATM   28  C1  UNL     1       3.872   9.086  12.126  1.00  0.00     0.044 C 
HETATM   29  C28 UNL     1       1.386   8.614  11.903  1.00  0.00     0.067 C 
BRANCH  25  30
HETATM   30  C4  UNL     1       4.336   6.390  10.668  1.00  0.00     0.209 C 
BRANCH  30  31
HETATM   31  O1  UNL     1       5.051   6.146  11.875  1.00  0.00    -0.396 OA
HETATM   32  H6  UNL     1       5.257   7.007  12.276  1.00  0.00     0.209 HD
ENDBRANCH  30  31
ENDBRANCH  25  30
ENDBRANCH  20  22
ENDBRANCH   1  20
BRANCH   7  33
HETATM   33  O4  UNL     1      -6.784   8.795  14.808  1.00  0.00    -0.394 OA
HETATM   34  H22 UNL     1      -7.727   9.056  14.875  1.00  0.00     0.210 HD
ENDBRANCH   7  33
BRANCH   8  35
HETATM   35  C17 UNL     1      -8.713   6.739  14.651  1.00  0.00     0.244 C 
HETATM   36  O5  UNL     1      -9.334   7.682  15.137  1.00  0.00    -0.306 OA
ENDBRANCH   8  35
TORSDOF 6
ENDMDL
MODEL 4
REMARK minimizedAffinity -8.56060886
REMARK  6 active torsions:
REMARK  status: ('A' for Active; 'I' for Inactive)
REMARK    1  A    between atoms: C3_3  and  C4_4 
REMARK    2  A    between atoms: C4_4  and  O1_5 
REMARK    3  A    between atoms: C6_9  and  C7_10 
REMARK    4  A    between atoms: C7_10  and  C9_12 
REMARK    5  A    between atoms: C15_18  and  O4_19 
REMARK    6  A    between atoms: C16_20  and  C17_21 
ROOT
HETATM    1  C9  UNL     1      -2.414   8.186  12.950  1.00  0.00     0.000 C 
HETATM    2  C10 UNL     1      -1.791   8.877  14.201  1.00  0.00     0.006 C 
HETATM    3  C11 UNL     1      -0.266   8.787  14.073  1.00  0.00     0.006 C 
HETATM    4  C12 UNL     1      -0.052   8.275  12.660  1.00  0.00    -0.001 C 
HETATM    5  C13 UNL     1       1.324   7.693  12.299  1.00  0.00    -0.002 C 
HETATM    6  C14 UNL     1       2.446   8.699  12.594  1.00  0.00     0.038 C 
HETATM    7  C15 UNL     1       3.816   8.159  12.190  1.00  0.00     0.135 C 
HETATM    8  C16 UNL     1       3.891   7.686  10.725  1.00  0.00     0.053 C 
HETATM    9  C18 UNL     1       3.805   8.862   9.728  1.00  0.00     0.028 C 
HETATM   10  C19 UNL     1       3.441   8.231   8.386  1.00  0.00     0.080 C 
HETATM   11  C20 UNL     1       2.751   6.950   8.789  1.00  0.00     0.137 C 
HETATM   12  O6  UNL     1       2.292   6.163   7.970  1.00  0.00    -0.297 OA
HETATM   13  C21 UNL     1       2.704   6.753  10.307  1.00  0.00     0.037 C 
HETATM   14  C22 UNL     1       2.919   5.279  10.676  1.00  0.00     0.025 C 
HETATM   15  C23 UNL     1       1.317   7.308  10.796  1.00  0.00     0.007 C 
HETATM   16  C24 UNL     1       0.115   6.388  10.465  1.00  0.00     0.007 C 
HETATM   17  C25 UNL     1      -1.236   6.957  10.934  1.00  0.00     0.010 C 
HETATM   18  C26 UNL     1      -1.234   7.290  12.440  1.00  0.00    -0.036 C 
HETATM   19  C27 UNL     1      -1.121   5.996  13.282  1.00  0.00     0.016 C 
ENDROOT
BRANCH   1  20
HETATM   20  C7  UNL     1      -3.819   7.553  13.247  1.00  0.00     0.016 C 
HETATM   21  C8  UNL     1      -4.808   8.591  13.792  1.00  0.00     0.013 C 
BRANCH  20  22
HETATM   22  C6  UNL     1      -3.695   6.348  14.251  1.00  0.00     0.140 C 
HETATM   23  O3  UNL     1      -3.912   5.090  13.576  1.00  0.00    -0.311 OA
HETATM   24  C5  UNL     1      -5.170   4.634  13.336  1.00  0.00     0.292 C 
HETATM   25  C3  UNL     1      -6.293   5.362  13.997  1.00  0.00     0.042 C 
HETATM   26  O2  UNL     1      -5.359   3.651  12.632  1.00  0.00    -0.260 OA
HETATM   27  C2  UNL     1      -6.033   6.146  15.066  1.00  0.00    -0.067 C 
HETATM   28  C1  UNL     1      -7.059   6.851  15.904  1.00  0.00     0.044 C 
HETATM   29  C28 UNL     1      -4.602   6.359  15.485  1.00  0.00     0.067 C 
BRANCH  25  30
HETATM   30  C4  UNL     1      -7.656   5.064  13.443  1.00  0.00     0.209 C 
BRANCH  30  31
HETATM   31  O1  UNL     1      -8.090   3.794  13.918  1.00  0.00    -0.396 OA
HETATM   32  H6  UNL     1      -7.512   3.119  13.527  1.00  0.00     0.209 HD
ENDBRANCH  30  31
ENDBRANCH  25  30
ENDBRANCH  20  22
ENDBRANCH   1  20
BRANCH   7  33
HETATM   33  O4  UNL     1       4.102   7.070  13.074  1.00  0.00    -0.394 OA
HETATM   34  H22 UNL     1       5.068   6.915  13.020  1.00  0.00     0.210 HD
ENDBRANCH   7  33
BRANCH   8  35
HETATM   35  C17 UNL     1       5.267   7.035  10.503  1.00  0.00     0.244 C 
HETATM   36  O5  UNL     1       6.307   7.437  11.022  1.00  0.00    -0.306 OA
ENDBRANCH   8  35
TORSDOF 6
ENDMDL
MODEL 5
REMARK minimizedAffinity -8.42406082
REMARK  6 active torsions:
REMARK  status: ('A' for Active; 'I' for Inactive)
REMARK    1  A    between atoms: C3_3  and  C4_4 
REMARK    2  A    between atoms: C4_4  and  O1_5 
REMARK    3  A    between atoms: C6_9  and  C7_10 
REMARK    4  A    between atoms: C7_10  and  C9_12 
REMARK    5  A    between atoms: C15_18  and  O4_19 
REMARK    6  A    between atoms: C16_20  and  C17_21 
ROOT
HETATM    1  C9  UNL     1      -0.463   7.633  13.592  1.00  0.00     0.000 C 
HETATM    2  C10 UNL     1      -0.192   7.343  15.100  1.00  0.00     0.006 C 
HETATM    3  C11 UNL     1       1.323   7.419  15.324  1.00  0.00     0.006 C 
HETATM    4  C12 UNL     1       1.854   7.982  14.019  1.00  0.00    -0.001 C 
HETATM    5  C13 UNL     1       3.355   7.839  13.723  1.00  0.00    -0.002 C 
HETATM    6  C14 UNL     1       4.203   8.438  14.855  1.00  0.00     0.038 C 
HETATM    7  C15 UNL     1       5.697   8.354  14.554  1.00  0.00     0.135 C 
HETATM    8  C16 UNL     1       6.094   8.975  13.201  1.00  0.00     0.053 C 
HETATM    9  C18 UNL     1       5.946  10.512  13.199  1.00  0.00     0.028 C 
HETATM   10  C19 UNL     1       5.929  10.917  11.727  1.00  0.00     0.080 C 
HETATM   11  C20 UNL     1       5.441   9.666  11.036  1.00  0.00     0.137 C 
HETATM   12  O6  UNL     1       5.277   9.604   9.824  1.00  0.00    -0.297 OA
HETATM   13  C21 UNL     1       5.190   8.511  12.009  1.00  0.00     0.037 C 
HETATM   14  C22 UNL     1       5.621   7.172  11.394  1.00  0.00     0.025 C 
HETATM   15  C23 UNL     1       3.662   8.548  12.378  1.00  0.00     0.007 C 
HETATM   16  C24 UNL     1       2.728   8.035  11.254  1.00  0.00     0.007 C 
HETATM   17  C25 UNL     1       1.235   8.097  11.627  1.00  0.00     0.010 C 
HETATM   18  C26 UNL     1       0.933   7.347  12.940  1.00  0.00    -0.036 C 
HETATM   19  C27 UNL     1       1.155   5.825  12.760  1.00  0.00     0.016 C 
ENDROOT
BRANCH   1  20
HETATM   20  C7  UNL     1      -1.750   6.910  13.061  1.00  0.00     0.016 C 
HETATM   21  C8  UNL     1      -2.967   7.843  13.052  1.00  0.00     0.013 C 
BRANCH  20  22
HETATM   22  C6  UNL     1      -2.065   5.622  13.908  1.00  0.00     0.140 C 
HETATM   23  O3  UNL     1      -1.460   4.453  13.315  1.00  0.00    -0.311 OA
HETATM   24  C5  UNL     1      -2.061   3.803  12.284  1.00  0.00     0.292 C 
HETATM   25  C3  UNL     1      -3.461   4.202  11.953  1.00  0.00     0.042 C 
HETATM   26  O2  UNL     1      -1.481   2.910  11.679  1.00  0.00    -0.260 OA
HETATM   27  C2  UNL     1      -4.193   4.863  12.876  1.00  0.00    -0.067 C 
HETATM   28  C1  UNL     1      -5.641   5.235  12.741  1.00  0.00     0.044 C 
HETATM   29  C28 UNL     1      -3.537   5.286  14.164  1.00  0.00     0.067 C 
BRANCH  25  30
HETATM   30  C4  UNL     1      -3.959   3.729  10.619  1.00  0.00     0.209 C 
BRANCH  30  31
HETATM   31  O1  UNL     1      -4.331   2.358  10.714  1.00  0.00    -0.396 OA
HETATM   32  H6  UNL     1      -3.523   1.842  10.873  1.00  0.00     0.209 HD
ENDBRANCH  30  31
ENDBRANCH  25  30
ENDBRANCH  20  22
ENDBRANCH   1  20
BRANCH   7  33
HETATM   33  O4  UNL     1       6.040   6.965  14.577  1.00  0.00    -0.394 OA
HETATM   34  H22 UNL     1       7.015   6.921  14.678  1.00  0.00     0.210 HD
ENDBRANCH   7  33
BRANCH   8  35
HETATM   35  C17 UNL     1       7.587   8.689  12.963  1.00  0.00     0.244 C 
HETATM   36  O5  UNL     1       8.049   7.563  12.790  1.00  0.00    -0.306 OA
ENDBRANCH   8  35
TORSDOF 6
ENDMDL
MODEL 6
REMARK minimizedAffinity -8.37849522
REMARK  6 active torsions:
REMARK  status: ('A' for Active; 'I' for Inactive)
REMARK    1  A    between atoms: C3_3  and  C4_4 
REMARK    2  A    between atoms: C4_4  and  O1_5 
REMARK    3  A    between atoms: C6_9  and  C7_10 
REMARK    4  A    between atoms: C7_10  and  C9_12 
REMARK    5  A    between atoms: C15_18  and  O4_19 
REMARK    6  A    between atoms: C16_20  and  C17_21 
ROOT
HETATM    1  C9  UNL     1       0.959   6.897  11.846  1.00  0.00     0.000 C 
HETATM    2  C10 UNL     1       0.616   5.727  10.874  1.00  0.00     0.006 C 
HETATM    3  C11 UNL     1      -0.784   5.215  11.236  1.00  0.00     0.006 C 
HETATM    4  C12 UNL     1      -1.300   6.245  12.225  1.00  0.00    -0.001 C 
HETATM    5  C13 UNL     1      -2.507   5.870  13.099  1.00  0.00    -0.002 C 
HETATM    6  C14 UNL     1      -3.699   5.428  12.238  1.00  0.00     0.038 C 
HETATM    7  C15 UNL     1      -4.927   5.104  13.087  1.00  0.00     0.135 C 
HETATM    8  C16 UNL     1      -5.344   6.244  14.036  1.00  0.00     0.053 C 
HETATM    9  C18 UNL     1      -5.908   7.462  13.273  1.00  0.00     0.028 C 
HETATM   10  C19 UNL     1      -5.846   8.625  14.259  1.00  0.00     0.080 C 
HETATM   11  C20 UNL     1      -4.744   8.210  15.204  1.00  0.00     0.137 C 
HETATM   12  O6  UNL     1      -4.382   8.910  16.142  1.00  0.00    -0.297 OA
HETATM   13  C21 UNL     1      -4.153   6.840  14.862  1.00  0.00     0.037 C 
HETATM   14  C22 UNL     1      -3.829   6.048  16.136  1.00  0.00     0.025 C 
HETATM   15  C23 UNL     1      -2.887   7.098  13.967  1.00  0.00     0.007 C 
HETATM   16  C24 UNL     1      -1.658   7.626  14.749  1.00  0.00     0.007 C 
HETATM   17  C25 UNL     1      -0.433   7.892  13.854  1.00  0.00     0.010 C 
HETATM   18  C26 UNL     1      -0.035   6.650  13.032  1.00  0.00    -0.036 C 
HETATM   19  C27 UNL     1       0.487   5.528  13.962  1.00  0.00     0.016 C 
ENDROOT
BRANCH   1  20
HETATM   20  C7  UNL     1       2.500   7.025  12.115  1.00  0.00     0.016 C 
HETATM   21  C8  UNL     1       2.791   7.779  13.418  1.00  0.00     0.013 C 
BRANCH  20  22
HETATM   22  C6  UNL     1       3.227   7.728  10.911  1.00  0.00     0.140 C 
HETATM   23  O3  UNL     1       2.709   7.257   9.648  1.00  0.00    -0.311 OA
HETATM   24  C5  UNL     1       3.148   6.090   9.106  1.00  0.00     0.292 C 
HETATM   25  C3  UNL     1       4.336   5.449   9.743  1.00  0.00     0.042 C 
HETATM   26  O2  UNL     1       2.604   5.611   8.119  1.00  0.00    -0.260 OA
HETATM   27  C2  UNL     1       5.143   6.193  10.531  1.00  0.00    -0.067 C 
HETATM   28  C1  UNL     1       6.429   5.729  11.151  1.00  0.00     0.044 C 
HETATM   29  C28 UNL     1       4.753   7.613  10.842  1.00  0.00     0.067 C 
BRANCH  25  30
HETATM   30  C4  UNL     1       4.572   4.019   9.353  1.00  0.00     0.209 C 
BRANCH  30  31
HETATM   31  O1  UNL     1       3.416   3.248   9.664  1.00  0.00    -0.396 OA
HETATM   32  H6  UNL     1       3.325   3.229  10.631  1.00  0.00     0.209 HD
ENDBRANCH  30  31
ENDBRANCH  25  30
ENDBRANCH  20  22
ENDBRANCH   1  20
BRANCH   7  33
HETATM   33  O4  UNL     1      -4.603   3.930  13.840  1.00  0.00    -0.394 OA
HETATM   34  H22 UNL     1      -5.455   3.557  14.150  1.00  0.00     0.210 HD
ENDBRANCH   7  33
BRANCH   8  35
HETATM   35  C17 UNL     1      -6.488   5.729  14.928  1.00  0.00     0.244 C 
HETATM   36  O5  UNL     1      -7.667   5.708  14.583  1.00  0.00    -0.306 OA
ENDBRANCH   8  35
TORSDOF 6
ENDMDL
MODEL 7
REMARK minimizedAffinity -8.3346405
REMARK  6 active torsions:
REMARK  status: ('A' for Active; 'I' for Inactive)
REMARK    1  A    between atoms: C3_3  and  C4_4 
REMARK    2  A    between atoms: C4_4  and  O1_5 
REMARK    3  A    between atoms: C6_9  and  C7_10 
REMARK    4  A    between atoms: C7_10  and  C9_12 
REMARK    5  A    between atoms: C15_18  and  O4_19 
REMARK    6  A    between atoms: C16_20  and  C17_21 
ROOT
HETATM    1  C9  UNL     1      -0.352   8.033  13.978  1.00  0.00     0.000 C 
HETATM    2  C10 UNL     1      -0.038   7.623  15.449  1.00  0.00     0.006 C 
HETATM    3  C11 UNL     1       1.486   7.539  15.594  1.00  0.00     0.006 C 
HETATM    4  C12 UNL     1       2.005   8.130  14.297  1.00  0.00    -0.001 C 
HETATM    5  C13 UNL     1       3.469   7.862  13.912  1.00  0.00    -0.002 C 
HETATM    6  C14 UNL     1       4.426   8.303  15.029  1.00  0.00     0.038 C 
HETATM    7  C15 UNL     1       5.888   8.095  14.642  1.00  0.00     0.135 C 
HETATM    8  C16 UNL     1       6.278   8.761  13.307  1.00  0.00     0.053 C 
HETATM    9  C18 UNL     1       6.284  10.302  13.403  1.00  0.00     0.028 C 
HETATM   10  C19 UNL     1       6.235  10.799  11.961  1.00  0.00     0.080 C 
HETATM   11  C20 UNL     1       5.592   9.647  11.226  1.00  0.00     0.137 C 
HETATM   12  O6  UNL     1       5.364   9.679  10.023  1.00  0.00    -0.297 OA
HETATM   13  C21 UNL     1       5.276   8.462  12.142  1.00  0.00     0.037 C 
HETATM   14  C22 UNL     1       5.541   7.130  11.427  1.00  0.00     0.025 C 
HETATM   15  C23 UNL     1       3.779   8.622  12.596  1.00  0.00     0.007 C 
HETATM   16  C24 UNL     1       2.744   8.274  11.496  1.00  0.00     0.007 C 
HETATM   17  C25 UNL     1       1.285   8.455  11.953  1.00  0.00     0.010 C 
HETATM   18  C26 UNL     1       0.975   7.656  13.235  1.00  0.00    -0.036 C 
HETATM   19  C27 UNL     1       1.035   6.135  12.954  1.00  0.00     0.016 C 
ENDROOT
BRANCH   1  20
HETATM   20  C7  UNL     1      -1.729   7.472  13.477  1.00  0.00     0.016 C 
HETATM   21  C8  UNL     1      -1.550   6.278  12.532  1.00  0.00     0.013 C 
BRANCH  20  22
HETATM   22  C6  UNL     1      -2.575   8.595  12.771  1.00  0.00     0.140 C 
HETATM   23  O3  UNL     1      -2.130   9.908  13.177  1.00  0.00    -0.311 OA
HETATM   24  C5  UNL     1      -2.553  10.458  14.346  1.00  0.00     0.292 C 
HETATM   25  C3  UNL     1      -3.661   9.760  15.063  1.00  0.00     0.042 C 
HETATM   26  O2  UNL     1      -2.061  11.497  14.766  1.00  0.00    -0.260 OA
HETATM   27  C2  UNL     1      -4.441   8.891  14.384  1.00  0.00    -0.067 C 
HETATM   28  C1  UNL     1      -5.656   8.197  14.929  1.00  0.00     0.044 C 
HETATM   29  C28 UNL     1      -4.095   8.559  12.957  1.00  0.00     0.067 C 
BRANCH  25  30
HETATM   30  C4  UNL     1      -3.859  10.182  16.490  1.00  0.00     0.209 C 
BRANCH  30  31
HETATM   31  O1  UNL     1      -3.135   9.305  17.346  1.00  0.00    -0.396 OA
HETATM   32  H6  UNL     1      -3.549   8.428  17.288  1.00  0.00     0.209 HD
ENDBRANCH  30  31
ENDBRANCH  25  30
ENDBRANCH  20  22
ENDBRANCH   1  20
BRANCH   7  33
HETATM   33  O4  UNL     1       6.093   6.681  14.565  1.00  0.00    -0.394 OA
HETATM   34  H22 UNL     1       7.061   6.538  14.609  1.00  0.00     0.210 HD
ENDBRANCH   7  33
BRANCH   8  35
HETATM   35  C17 UNL     1       7.722   8.348  12.972  1.00  0.00     0.244 C 
HETATM   36  O5  UNL     1       8.678   9.121  12.991  1.00  0.00    -0.306 OA
ENDBRANCH   8  35
TORSDOF 6
ENDMDL
MODEL 8
REMARK minimizedAffinity -8.28390789
REMARK  6 active torsions:
REMARK  status: ('A' for Active; 'I' for Inactive)
REMARK    1  A    between atoms: C3_3  and  C4_4 
REMARK    2  A    between atoms: C4_4  and  O1_5 
REMARK    3  A    between atoms: C6_9  and  C7_10 
REMARK    4  A    between atoms: C7_10  and  C9_12 
REMARK    5  A    between atoms: C15_18  and  O4_19 
REMARK    6  A    between atoms: C16_20  and  C17_21 
ROOT
HETATM    1  C9  UNL     1       1.536   7.607  11.432  1.00  0.00     0.000 C 
HETATM    2  C10 UNL     1       1.258   6.389  10.498  1.00  0.00     0.006 C 
HETATM    3  C11 UNL     1      -0.069   5.759  10.936  1.00  0.00     0.006 C 
HETATM    4  C12 UNL     1      -0.632   6.757  11.931  1.00  0.00    -0.001 C 
HETATM    5  C13 UNL     1      -1.756   6.291  12.870  1.00  0.00    -0.002 C 
HETATM    6  C14 UNL     1      -2.941   5.722  12.075  1.00  0.00     0.038 C 
HETATM    7  C15 UNL     1      -4.092   5.305  12.989  1.00  0.00     0.135 C 
HETATM    8  C16 UNL     1      -4.568   6.422  13.937  1.00  0.00     0.053 C 
HETATM    9  C18 UNL     1      -5.280   7.565  13.181  1.00  0.00     0.028 C 
HETATM   10  C19 UNL     1      -5.279   8.750  14.144  1.00  0.00     0.080 C 
HETATM   11  C20 UNL     1      -4.100   8.460  15.040  1.00  0.00     0.137 C 
HETATM   12  O6  UNL     1      -3.762   9.210  15.948  1.00  0.00    -0.297 OA
HETATM   13  C21 UNL     1      -3.401   7.143  14.694  1.00  0.00     0.037 C 
HETATM   14  C22 UNL     1      -2.945   6.412  15.964  1.00  0.00     0.025 C 
HETATM   15  C23 UNL     1      -2.208   7.498  13.734  1.00  0.00     0.007 C 
HETATM   16  C24 UNL     1      -0.998   8.154  14.446  1.00  0.00     0.007 C 
HETATM   17  C25 UNL     1       0.153   8.512  13.487  1.00  0.00     0.010 C 
HETATM   18  C26 UNL     1       0.626   7.295  12.668  1.00  0.00    -0.036 C 
HETATM   19  C27 UNL     1       1.294   6.246  13.592  1.00  0.00     0.016 C 
ENDROOT
BRANCH   1  20
HETATM   20  C7  UNL     1       3.069   7.882  11.623  1.00  0.00     0.016 C 
HETATM   21  C8  UNL     1       3.326   9.231  12.305  1.00  0.00     0.013 C 
BRANCH  20  22
HETATM   22  C6  UNL     1       3.830   7.819  10.248  1.00  0.00     0.140 C 
HETATM   23  O3  UNL     1       4.525   6.561  10.099  1.00  0.00    -0.311 OA
HETATM   24  C5  UNL     1       5.741   6.364  10.672  1.00  0.00     0.292 C 
HETATM   25  C3  UNL     1       6.422   7.560  11.251  1.00  0.00     0.042 C 
HETATM   26  O2  UNL     1       6.261   5.255  10.679  1.00  0.00    -0.260 OA
HETATM   27  C2  UNL     1       6.032   8.794  10.861  1.00  0.00    -0.067 C 
HETATM   28  C1  UNL     1       6.684  10.084  11.263  1.00  0.00     0.044 C 
HETATM   29  C28 UNL     1       4.842   8.930   9.949  1.00  0.00     0.067 C 
BRANCH  25  30
HETATM   30  C4  UNL     1       7.571   7.256  12.167  1.00  0.00     0.209 C 
BRANCH  30  31
HETATM   31  O1  UNL     1       7.925   8.432  12.886  1.00  0.00    -0.396 OA
HETATM   32  H6  UNL     1       8.281   9.073  12.248  1.00  0.00     0.209 HD
ENDBRANCH  30  31
ENDBRANCH  25  30
ENDBRANCH  20  22
ENDBRANCH   1  20
BRANCH   7  33
HETATM   33  O4  UNL     1      -3.625   4.183  13.745  1.00  0.00    -0.394 OA
HETATM   34  H22 UNL     1      -4.423   3.739  14.103  1.00  0.00     0.210 HD
ENDBRANCH   7  33
BRANCH   8  35
HETATM   35  C17 UNL     1      -5.616   5.823  14.892  1.00  0.00     0.244 C 
HETATM   36  O5  UNL     1      -6.144   6.449  15.809  1.00  0.00    -0.306 OA
ENDBRANCH   8  35
TORSDOF 6
ENDMDL
MODEL 9
REMARK minimizedAffinity -8.17452049
REMARK  6 active torsions:
REMARK  status: ('A' for Active; 'I' for Inactive)
REMARK    1  A    between atoms: C3_3  and  C4_4 
REMARK    2  A    between atoms: C4_4  and  O1_5 
REMARK    3  A    between atoms: C6_9  and  C7_10 
REMARK    4  A    between atoms: C7_10  and  C9_12 
REMARK    5  A    between atoms: C15_18  and  O4_19 
REMARK    6  A    between atoms: C16_20  and  C17_21 
ROOT
HETATM    1  C9  UNL     1       0.744  11.182  19.041  1.00  0.00     0.000 C 
HETATM    2  C10 UNL     1      -0.526  11.934  19.545  1.00  0.00     0.006 C 
HETATM    3  C11 UNL     1      -1.684  11.571  18.608  1.00  0.00     0.006 C 
HETATM    4  C12 UNL     1      -1.120  10.450  17.754  1.00  0.00    -0.001 C 
HETATM    5  C13 UNL     1      -1.851  10.094  16.450  1.00  0.00    -0.002 C 
HETATM    6  C14 UNL     1      -3.328   9.766  16.713  1.00  0.00     0.038 C 
HETATM    7  C15 UNL     1      -4.058   9.356  15.436  1.00  0.00     0.135 C 
HETATM    8  C16 UNL     1      -3.379   8.199  14.677  1.00  0.00     0.053 C 
HETATM    9  C18 UNL     1      -3.483   6.861  15.440  1.00  0.00     0.028 C 
HETATM   10  C19 UNL     1      -2.419   5.957  14.822  1.00  0.00     0.080 C 
HETATM   11  C20 UNL     1      -1.421   6.941  14.262  1.00  0.00     0.137 C 
HETATM   12  O6  UNL     1      -0.396   6.587  13.692  1.00  0.00    -0.297 OA
HETATM   13  C21 UNL     1      -1.838   8.398  14.479  1.00  0.00     0.037 C 
HETATM   14  C22 UNL     1      -1.478   9.259  13.261  1.00  0.00     0.025 C 
HETATM   15  C23 UNL     1      -1.132   8.883  15.797  1.00  0.00     0.007 C 
HETATM   16  C24 UNL     1       0.384   9.159  15.638  1.00  0.00     0.007 C 
HETATM   17  C25 UNL     1       1.062   9.614  16.944  1.00  0.00     0.010 C 
HETATM   18  C26 UNL     1       0.369  10.847  17.557  1.00  0.00    -0.036 C 
HETATM   19  C27 UNL     1       0.561  12.086  16.648  1.00  0.00     0.016 C 
ENDROOT
BRANCH   1  20
HETATM   20  C7  UNL     1       2.071  11.954  19.370  1.00  0.00     0.016 C 
HETATM   21  C8  UNL     1       2.367  13.046  18.335  1.00  0.00     0.013 C 
BRANCH  20  22
HETATM   22  C6  UNL     1       3.289  10.964  19.473  1.00  0.00     0.140 C 
HETATM   23  O3  UNL     1       2.886   9.706  20.056  1.00  0.00    -0.311 OA
HETATM   24  C5  UNL     1       2.780   9.564  21.404  1.00  0.00     0.292 C 
HETATM   25  C3  UNL     1       3.318  10.672  22.248  1.00  0.00     0.042 C 
HETATM   26  O2  UNL     1       2.292   8.554  21.893  1.00  0.00    -0.260 OA
HETATM   27  C2  UNL     1       4.202  11.541  21.710  1.00  0.00    -0.067 C 
HETATM   28  C1  UNL     1       4.914  12.634  22.452  1.00  0.00     0.044 C 
HETATM   29  C28 UNL     1       4.525  11.441  20.243  1.00  0.00     0.067 C 
BRANCH  25  30
HETATM   30  C4  UNL     1       2.878  10.648  23.683  1.00  0.00     0.209 C 
BRANCH  30  31
HETATM   31  O1  UNL     1       3.318   9.438  24.291  1.00  0.00    -0.396 OA
HETATM   32  H6  UNL     1       2.837   8.705  23.873  1.00  0.00     0.209 HD
ENDBRANCH  30  31
ENDBRANCH  25  30
ENDBRANCH  20  22
ENDBRANCH   1  20
BRANCH   7  33
HETATM   33  O4  UNL     1      -4.115  10.522  14.607  1.00  0.00    -0.394 OA
HETATM   34  H22 UNL     1      -4.814  10.354  13.941  1.00  0.00     0.210 HD
ENDBRANCH   7  33
BRANCH   8  35
HETATM   35  C17 UNL     1      -4.128   7.994  13.349  1.00  0.00     0.244 C 
HETATM   36  O5  UNL     1      -5.161   8.588  13.046  1.00  0.00    -0.306 OA
ENDBRANCH   8  35
TORSDOF 6
ENDMDL
