MODEL 1
REMARK minimizedAffinity -7.80545902
REMARK CNNscore 0.208758369
REMARK CNNaffinity 7.04676008
REMARK  10 active torsions:
REMARK  status: ('A' for Active; 'I' for Inactive)
REMARK    1  A    between atoms: C2_2  and  C3_3 
REMARK    2  A    between atoms: C5_5  and  S1_6 
REMARK    3  A    between atoms: C14_18  and  C15_19 
REMARK    4  A    between atoms: C15_19  and  O4_20 
REMARK    5  A    between atoms: C21_26  and  O5_27 
REMARK    6  A    between atoms: C33_40  and  C34_41 
REMARK    7  A    between atoms: C33_40  and  N1_49 
REMARK    8  A    between atoms: C34_41  and  C35_42 
REMARK    9  A    between atoms: C35_42  and  C36_43 
REMARK   10  A    between atoms: C36_43  and  O7_44 
REMARK       I    between atoms: C41_51  and  N2_52 
REMARK       I    between atoms: C41_51  and  N3_53 
ROOT
HETATM    1  C3  UNL     1       0.833  13.507  17.359  1.00  0.00     0.019 C 
HETATM    2  C4  UNL     1      -0.213  14.280  16.513  1.00  0.00     0.034 C 
HETATM    3  C5  UNL     1      -1.239  15.113  17.310  1.00  0.00     0.157 C 
HETATM    4  C6  UNL     1      -2.317  14.292  18.114  1.00  0.00     0.121 A 
HETATM    5  C7  UNL     1      -2.901  15.157  19.230  1.00  0.00     0.005 C 
HETATM    6  C8  UNL     1      -4.039  14.801  19.852  1.00  0.00    -0.048 C 
HETATM    7  C9  UNL     1      -4.594  13.436  19.585  1.00  0.00     0.044 C 
HETATM    8  C10 UNL     1      -4.827  13.344  18.079  1.00  0.00     0.019 C 
HETATM    9  C11 UNL     1      -6.015  14.248  17.604  1.00  0.00     0.039 C 
HETATM   10  C12 UNL     1      -6.148  15.664  18.216  1.00  0.00     0.123 C 
HETATM   11  C13 UNL     1      -7.430  16.391  17.735  1.00  0.00     0.039 C 
HETATM   12  C14 UNL     1      -8.765  15.938  18.407  1.00  0.00     0.023 C 
HETATM   13  C16 UNL     1      -9.255  16.915  19.515  1.00  0.00     0.101 C 
HETATM   14  C17 UNL     1      -8.428  16.854  20.724  1.00  0.00    -0.101 C 
HETATM   15  C18 UNL     1      -7.615  16.666  21.591  1.00  0.00    -0.066 C 
HETATM   16  C19 UNL     1      -6.503  16.295  22.421  1.00  0.00     0.029 A 
HETATM   17  C20 UNL     1      -6.669  16.360  23.809  1.00  0.00     0.057 A 
HETATM   18  C21 UNL     1      -5.616  16.024  24.649  1.00  0.00     0.067 A 
HETATM   19  C22 UNL     1      -4.397  15.611  24.129  1.00  0.00     0.037 A 
HETATM   20  C23 UNL     1      -4.226  15.533  22.744  1.00  0.00     0.014 A 
HETATM   21  C24 UNL     1      -5.275  15.854  21.858  1.00  0.00    -0.006 A 
HETATM   22  C25 UNL     1      -5.018  15.839  20.348  1.00  0.00     0.185 C 
HETATM   23  O6  UNL     1      -6.233  15.559  19.638  1.00  0.00    -0.371 OA
HETATM   24  C26 UNL     1      -3.481  13.590  17.275  1.00  0.00     0.115 A 
HETATM   25  C27 UNL     1      -3.030  12.242  16.687  1.00  0.00    -0.035 A 
HETATM   26  C28 UNL     1      -2.825  11.115  17.494  1.00  0.00     0.010 A 
HETATM   27  C29 UNL     1      -2.396   9.901  16.948  1.00  0.00     0.012 A 
HETATM   28  C30 UNL     1      -2.094   9.776  15.579  1.00  0.00    -0.003 A 
HETATM   29  C31 UNL     1      -2.336  10.902  14.770  1.00  0.00     0.012 A 
HETATM   30  C32 UNL     1      -2.815  12.106  15.310  1.00  0.00     0.010 A 
HETATM   31  C33 UNL     1      -1.394   8.477  15.062  1.00  0.00     0.170 C 
HETATM   32  O8  UNL     1       0.090   8.545  15.015  1.00  0.00    -0.316 OA
HETATM   33  C42 UNL     1       0.651   9.648  15.602  1.00  0.00     0.072 C 
HETATM   34  C43 UNL     1       0.761   9.738  16.989  1.00  0.00     0.037 C 
HETATM   35  C44 UNL     1       0.965  10.989  17.568  1.00  0.00     0.010 C 
HETATM   36  C45 UNL     1       1.078  12.127  16.756  1.00  0.00    -0.054 C 
HETATM   37  C46 UNL     1       1.221  11.958  15.367  1.00  0.00     0.010 C 
HETATM   38  C47 UNL     1       1.007  10.713  14.785  1.00  0.00     0.037 C 
HETATM   39 NA1  UNL     1      -3.284  12.475  16.860  1.00  0.00    -0.404 Na
ATOM     40  HA1 UNL     1      -3.412  11.575  16.398  1.00  0.00     0.154 HD
ENDROOT
BRANCH  31  41
HETATM   41  C34 UNL     1      -1.766   8.194  13.566  1.00  0.00     0.070 C 
BRANCH  41  42
HETATM   42  C35 UNL     1      -1.127   9.150  12.541  1.00  0.00     0.043 C 
BRANCH  42  43
HETATM   43  C36 UNL     1      -0.050   8.482  11.679  1.00  0.00     0.058 C 
HETATM   44  C37 UNL     1      -0.276   8.623  10.173  1.00  0.00     0.038 C 
HETATM   45  C38 UNL     1       0.554   7.502   9.550  1.00  0.00     0.003 C 
HETATM   46  C39 UNL     1       0.717   6.439  10.635  1.00  0.00     0.003 C 
HETATM   47  C40 UNL     1      -0.028   6.962  11.862  1.00  0.00     0.038 C 
BRANCH  43  48
HETATM   48  O7  UNL     1       1.239   9.010  12.004  1.00  0.00    -0.390 OA
HETATM   49  H40 UNL     1       1.346   8.938  12.967  1.00  0.00     0.210 HD
ENDBRANCH  43  48
ENDBRANCH  42  43
ENDBRANCH  41  42
ENDBRANCH  31  41
BRANCH  31  50
HETATM   50  N1  UNL     1      -1.953   7.312  15.794  1.00  0.00    -0.336 N 
HETATM   51  C41 UNL     1      -3.163   6.934  15.681  1.00  0.00     0.124 C 
HETATM   52  N2  UNL     1      -4.175   7.408  14.931  1.00  0.00    -0.279 NA
HETATM   53  N3  UNL     1      -3.584   5.857  16.380  1.00  0.00    -0.279 NA
HETATM   54  H49 UNL     1      -3.961   8.316  14.516  1.00  0.00     0.126 HD
HETATM   55  H50 UNL     1      -5.053   7.447  15.435  1.00  0.00     0.126 HD
HETATM   56  H51 UNL     1      -2.782   5.378  16.784  1.00  0.00     0.126 HD
HETATM   57  H52 UNL     1      -4.127   5.224  15.806  1.00  0.00     0.126 HD
ATOM     58  H1  UNL     1      -1.337   6.790  16.417  1.00  0.00     0.165 HD
ENDBRANCH  31  50
BRANCH   1  59
HETATM   59  C2  UNL     1       2.130  14.297  17.641  1.00  0.00     0.005 C 
HETATM   60  C1  UNL     1       3.326  13.484  18.126  1.00  0.00     0.006 C 
ENDBRANCH   1  59
BRANCH   3  61
HETATM   61  S1  UNL     1      -1.939  16.376  16.197  1.00  0.00     0.108 S 
HETATM   62  O1  UNL     1      -0.841  17.341  16.078  1.00  0.00    -0.595 OA
HETATM   63  O2  UNL     1      -3.102  16.904  16.899  1.00  0.00    -0.595 OA
HETATM   64  O3  UNL     1      -2.252  15.649  14.970  1.00  0.00    -0.595 OA
ENDBRANCH   3  61
BRANCH  12  65
HETATM   65  C15 UNL     1      -9.880  15.818  17.354  1.00  0.00     0.169 C 
BRANCH  65  66
HETATM   66  O4  UNL     1     -10.084  17.033  16.639  1.00  0.00    -0.400 OA
HETATM   67  H23 UNL     1      -9.251  17.529  16.634  1.00  0.00     0.209 HD
ENDBRANCH  65  66
ENDBRANCH  12  65
BRANCH  18  68
HETATM   68  O5  UNL     1      -5.813  16.124  25.995  1.00  0.00    -0.361 OA
HETATM   69  H27 UNL     1      -4.942  16.094  26.433  1.00  0.00     0.217 HD
ENDBRANCH  18  68
TORSDOF 10
ENDMDL
MODEL 2
REMARK minimizedAffinity -9.00978947
REMARK CNNscore 0.179952323
REMARK CNNaffinity 7.27966833
REMARK  10 active torsions:
REMARK  status: ('A' for Active; 'I' for Inactive)
REMARK    1  A    between atoms: C2_2  and  C3_3 
REMARK    2  A    between atoms: C5_5  and  S1_6 
REMARK    3  A    between atoms: C14_18  and  C15_19 
REMARK    4  A    between atoms: C15_19  and  O4_20 
REMARK    5  A    between atoms: C21_26  and  O5_27 
REMARK    6  A    between atoms: C33_40  and  C34_41 
REMARK    7  A    between atoms: C33_40  and  N1_49 
REMARK    8  A    between atoms: C34_41  and  C35_42 
REMARK    9  A    between atoms: C35_42  and  C36_43 
REMARK   10  A    between atoms: C36_43  and  O7_44 
REMARK       I    between atoms: C41_51  and  N2_52 
REMARK       I    between atoms: C41_51  and  N3_53 
ROOT
HETATM    1  C3  UNL     1       1.345  13.194  18.322  1.00  0.00     0.019 C 
HETATM    2  C4  UNL     1       0.506  13.941  17.251  1.00  0.00     0.034 C 
HETATM    3  C5  UNL     1      -0.891  14.415  17.702  1.00  0.00     0.157 C 
HETATM    4  C6  UNL     1      -1.963  13.281  17.927  1.00  0.00     0.121 A 
HETATM    5  C7  UNL     1      -3.075  13.795  18.841  1.00  0.00     0.005 C 
HETATM    6  C8  UNL     1      -4.245  13.138  18.936  1.00  0.00    -0.048 C 
HETATM    7  C9  UNL     1      -4.348  11.783  18.307  1.00  0.00     0.044 C 
HETATM    8  C10 UNL     1      -4.023  11.962  16.826  1.00  0.00     0.019 C 
HETATM    9  C11 UNL     1      -5.148  12.736  16.058  1.00  0.00     0.039 C 
HETATM   10  C12 UNL     1      -5.801  13.956  16.751  1.00  0.00     0.123 C 
HETATM   11  C13 UNL     1      -6.970  14.545  15.919  1.00  0.00     0.039 C 
HETATM   12  C14 UNL     1      -8.314  13.752  15.974  1.00  0.00     0.023 C 
HETATM   13  C16 UNL     1      -9.363  14.390  16.929  1.00  0.00     0.101 C 
HETATM   14  C17 UNL     1      -9.011  14.222  18.343  1.00  0.00    -0.101 C 
HETATM   15  C18 UNL     1      -8.524  13.998  19.421  1.00  0.00    -0.066 C 
HETATM   16  C19 UNL     1      -7.712  13.654  20.554  1.00  0.00     0.029 A 
HETATM   17  C20 UNL     1      -8.354  13.408  21.773  1.00  0.00     0.057 A 
HETATM   18  C21 UNL     1      -7.606  13.086  22.897  1.00  0.00     0.067 A 
HETATM   19  C22 UNL     1      -6.223  12.993  22.827  1.00  0.00     0.037 A 
HETATM   20  C23 UNL     1      -5.574  13.227  21.611  1.00  0.00     0.014 A 
HETATM   21  C24 UNL     1      -6.299  13.544  20.445  1.00  0.00    -0.006 A 
HETATM   22  C25 UNL     1      -5.543  13.878  19.155  1.00  0.00     0.185 C 
HETATM   23  O6  UNL     1      -6.342  13.552  18.009  1.00  0.00    -0.371 OA
HETATM   24  C26 UNL     1      -2.576  12.583  16.628  1.00  0.00     0.115 A 
HETATM   25  C27 UNL     1      -1.658  11.475  16.086  1.00  0.00    -0.035 A 
HETATM   26  C28 UNL     1      -1.492  10.258  16.758  1.00  0.00     0.010 A 
HETATM   27  C29 UNL     1      -0.637   9.267  16.263  1.00  0.00     0.012 A 
HETATM   28  C30 UNL     1       0.137   9.474  15.106  1.00  0.00    -0.003 A 
HETATM   29  C31 UNL     1      -0.062  10.685  14.417  1.00  0.00     0.012 A 
HETATM   30  C32 UNL     1      -0.957  11.659  14.887  1.00  0.00     0.010 A 
HETATM   31  C33 UNL     1       1.247   8.440  14.729  1.00  0.00     0.170 C 
HETATM   32  O8  UNL     1       2.601   8.758  15.255  1.00  0.00    -0.316 OA
HETATM   33  C42 UNL     1       2.659   9.796  16.146  1.00  0.00     0.072 C 
HETATM   34  C43 UNL     1       2.263   9.619  17.471  1.00  0.00     0.037 C 
HETATM   35  C44 UNL     1       1.966  10.743  18.241  1.00  0.00     0.010 C 
HETATM   36  C45 UNL     1       2.090  12.025  17.685  1.00  0.00    -0.054 C 
HETATM   37  C46 UNL     1       2.735  12.168  16.443  1.00  0.00     0.010 C 
HETATM   38  C47 UNL     1       3.023  11.049  15.669  1.00  0.00     0.037 C 
HETATM   39 NA1  UNL     1      -2.001  11.623  16.178  1.00  0.00    -0.404 Na
ATOM     40  HA1 UNL     1      -1.754  10.828  15.591  1.00  0.00     0.154 HD
ENDROOT
BRANCH  31  41
HETATM   41  C34 UNL     1       1.486   8.409  13.180  1.00  0.00     0.070 C 
BRANCH  41  42
HETATM   42  C35 UNL     1       0.266   7.988  12.339  1.00  0.00     0.043 C 
BRANCH  42  43
HETATM   43  C36 UNL     1       0.634   7.532  10.923  1.00  0.00     0.058 C 
HETATM   44  C37 UNL     1       2.130   7.605  10.610  1.00  0.00     0.038 C 
HETATM   45  C38 UNL     1       2.206   7.624   9.085  1.00  0.00     0.003 C 
HETATM   46  C39 UNL     1       0.861   8.159   8.598  1.00  0.00     0.003 C 
HETATM   47  C40 UNL     1       0.035   8.446   9.850  1.00  0.00     0.038 C 
BRANCH  43  48
HETATM   48  O7  UNL     1       0.180   6.194  10.702  1.00  0.00    -0.390 OA
HETATM   49  H40 UNL     1      -0.762   6.167  10.937  1.00  0.00     0.210 HD
ENDBRANCH  43  48
ENDBRANCH  42  43
ENDBRANCH  41  42
ENDBRANCH  31  41
BRANCH  31  50
HETATM   50  N1  UNL     1       0.751   7.074  15.039  1.00  0.00    -0.336 N 
HETATM   51  C41 UNL     1      -0.444   6.700  14.815  1.00  0.00     0.124 C 
HETATM   52  N2  UNL     1      -1.490   7.348  14.268  1.00  0.00    -0.279 NA
HETATM   53  N3  UNL     1      -0.807   5.435  15.122  1.00  0.00    -0.279 NA
HETATM   54  H49 UNL     1      -1.321   8.351  14.175  1.00  0.00     0.126 HD
HETATM   55  H50 UNL     1      -2.358   7.179  14.761  1.00  0.00     0.126 HD
HETATM   56  H51 UNL     1       0.022   4.887  15.342  1.00  0.00     0.126 HD
HETATM   57  H52 UNL     1      -1.334   5.002  14.374  1.00  0.00     0.126 HD
ATOM     58  H1  UNL     1       1.400   6.405  15.452  1.00  0.00     0.165 HD
ENDBRANCH  31  50
BRANCH   1  59
HETATM   59  C2  UNL     1       2.251  14.113  19.173  1.00  0.00     0.005 C 
HETATM   60  C1  UNL     1       3.382  13.431  19.935  1.00  0.00     0.006 C 
ENDBRANCH   1  59
BRANCH   3  61
HETATM   61  S1  UNL     1      -1.434  15.744  16.580  1.00  0.00     0.108 S 
HETATM   62  O1  UNL     1      -0.621  16.884  17.018  1.00  0.00    -0.595 OA
HETATM   63  O2  UNL     1      -2.858  15.912  16.842  1.00  0.00    -0.595 OA
HETATM   64  O3  UNL     1      -1.120  15.247  15.244  1.00  0.00    -0.595 OA
ENDBRANCH   3  61
BRANCH  12  65
HETATM   65  C15 UNL     1      -8.941  13.667  14.571  1.00  0.00     0.169 C 
BRANCH  65  66
HETATM   66  O4  UNL     1      -9.604  12.427  14.347  1.00  0.00    -0.400 OA
HETATM   67  H23 UNL     1      -9.902  12.081  15.202  1.00  0.00     0.209 HD
ENDBRANCH  65  66
ENDBRANCH  12  65
BRANCH  18  68
HETATM   68  O5  UNL     1      -8.271  12.877  24.070  1.00  0.00    -0.361 OA
HETATM   69  H27 UNL     1      -7.620  12.902  24.796  1.00  0.00     0.217 HD
ENDBRANCH  18  68
TORSDOF 10
ENDMDL
MODEL 3
REMARK minimizedAffinity -7.28955126
REMARK CNNscore 0.163806096
REMARK CNNaffinity 6.53285646
REMARK  10 active torsions:
REMARK  status: ('A' for Active; 'I' for Inactive)
REMARK    1  A    between atoms: C2_2  and  C3_3 
REMARK    2  A    between atoms: C5_5  and  S1_6 
REMARK    3  A    between atoms: C14_18  and  C15_19 
REMARK    4  A    between atoms: C15_19  and  O4_20 
REMARK    5  A    between atoms: C21_26  and  O5_27 
REMARK    6  A    between atoms: C33_40  and  C34_41 
REMARK    7  A    between atoms: C33_40  and  N1_49 
REMARK    8  A    between atoms: C34_41  and  C35_42 
REMARK    9  A    between atoms: C35_42  and  C36_43 
REMARK   10  A    between atoms: C36_43  and  O7_44 
REMARK       I    between atoms: C41_51  and  N2_52 
REMARK       I    between atoms: C41_51  and  N3_53 
ROOT
HETATM    1  C3  UNL     1      -7.255  17.642  22.106  1.00  0.00     0.019 C 
HETATM    2  C4  UNL     1      -5.986  16.842  22.503  1.00  0.00     0.034 C 
HETATM    3  C5  UNL     1      -4.861  16.799  21.448  1.00  0.00     0.157 C 
HETATM    4  C6  UNL     1      -5.153  15.933  20.165  1.00  0.00     0.121 A 
HETATM    5  C7  UNL     1      -4.246  16.382  19.019  1.00  0.00     0.005 C 
HETATM    6  C8  UNL     1      -4.084  15.611  17.929  1.00  0.00    -0.048 C 
HETATM    7  C9  UNL     1      -4.979  14.422  17.763  1.00  0.00     0.044 C 
HETATM    8  C10 UNL     1      -4.777  13.547  18.997  1.00  0.00     0.019 C 
HETATM    9  C11 UNL     1      -3.368  12.861  19.018  1.00  0.00     0.039 C 
HETATM   10  C12 UNL     1      -2.141  13.698  18.584  1.00  0.00     0.123 C 
HETATM   11  C13 UNL     1      -0.841  12.853  18.548  1.00  0.00     0.039 C 
HETATM   12  C14 UNL     1      -0.674  11.908  17.316  1.00  0.00     0.023 C 
HETATM   13  C16 UNL     1       0.286  12.478  16.232  1.00  0.00     0.101 C 
HETATM   14  C17 UNL     1      -0.298  13.607  15.501  1.00  0.00    -0.101 C 
HETATM   15  C18 UNL     1      -0.948  14.516  15.055  1.00  0.00    -0.066 C 
HETATM   16  C19 UNL     1      -1.896  15.551  14.749  1.00  0.00     0.029 A 
HETATM   17  C20 UNL     1      -1.917  16.057  13.444  1.00  0.00     0.057 A 
HETATM   18  C21 UNL     1      -2.808  17.068  13.108  1.00  0.00     0.067 A 
HETATM   19  C22 UNL     1      -3.690  17.579  14.050  1.00  0.00     0.037 A 
HETATM   20  C23 UNL     1      -3.683  17.071  15.352  1.00  0.00     0.014 A 
HETATM   21  C24 UNL     1      -2.803  16.037  15.729  1.00  0.00    -0.006 A 
HETATM   22  C25 UNL     1      -2.768  15.571  17.188  1.00  0.00     0.185 C 
HETATM   23  O6  UNL     1      -2.353  14.200  17.264  1.00  0.00    -0.371 OA
HETATM   24  C26 UNL     1      -5.114  14.345  20.327  1.00  0.00     0.115 A 
HETATM   25  C27 UNL     1      -6.438  13.793  20.884  1.00  0.00    -0.035 A 
HETATM   26  C28 UNL     1      -7.608  13.765  20.116  1.00  0.00     0.010 A 
HETATM   27  C29 UNL     1      -8.810  13.279  20.643  1.00  0.00     0.012 A 
HETATM   28  C30 UNL     1      -8.908  12.857  21.983  1.00  0.00    -0.003 A 
HETATM   29  C31 UNL     1      -7.720  12.856  22.737  1.00  0.00     0.012 A 
HETATM   30  C32 UNL     1      -6.503  13.296  22.193  1.00  0.00     0.010 A 
HETATM   31  C33 UNL     1     -10.316  12.551  22.590  1.00  0.00     0.170 C 
HETATM   32  O8  UNL     1     -10.960  13.698  23.281  1.00  0.00    -0.316 OA
HETATM   33  C42 UNL     1     -10.333  14.906  23.132  1.00  0.00     0.072 C 
HETATM   34  C43 UNL     1     -10.463  15.635  21.951  1.00  0.00     0.037 C 
HETATM   35  C44 UNL     1      -9.536  16.638  21.672  1.00  0.00     0.010 C 
HETATM   36  C45 UNL     1      -8.506  16.913  22.585  1.00  0.00    -0.054 C 
HETATM   37  C46 UNL     1      -8.565  16.339  23.867  1.00  0.00     0.010 C 
HETATM   38  C47 UNL     1      -9.482  15.331  24.145  1.00  0.00     0.037 C 
HETATM   39 NA1  UNL     1      -6.133  13.785  20.648  1.00  0.00    -0.404 Na
ATOM     40  HA1 UNL     1      -6.804  13.059  20.898  1.00  0.00     0.154 HD
ENDROOT
BRANCH  31  41
HETATM   41  C34 UNL     1     -10.216  11.482  23.732  1.00  0.00     0.070 C 
BRANCH  41  42
HETATM   42  C35 UNL     1     -11.554  11.108  24.396  1.00  0.00     0.043 C 
BRANCH  42  43
HETATM   43  C36 UNL     1     -11.697   9.606  24.669  1.00  0.00     0.058 C 
HETATM   44  C37 UNL     1     -11.403   8.719  23.458  1.00  0.00     0.038 C 
HETATM   45  C38 UNL     1     -12.084   7.390  23.777  1.00  0.00     0.003 C 
HETATM   46  C39 UNL     1     -13.194   7.709  24.777  1.00  0.00     0.003 C 
HETATM   47  C40 UNL     1     -13.137   9.218  25.012  1.00  0.00     0.038 C 
BRANCH  43  48
HETATM   48  O7  UNL     1     -10.839   9.217  25.745  1.00  0.00    -0.390 OA
HETATM   49  H40 UNL     1     -11.022   9.814  26.490  1.00  0.00     0.210 HD
ENDBRANCH  43  48
ENDBRANCH  42  43
ENDBRANCH  41  42
ENDBRANCH  31  41
BRANCH  31  50
HETATM   50  N1  UNL     1     -11.147  11.886  21.554  1.00  0.00    -0.336 N 
HETATM   51  C41 UNL     1     -12.347  12.225  21.301  1.00  0.00     0.124 C 
HETATM   52  N2  UNL     1     -13.126  13.192  21.821  1.00  0.00    -0.279 NA
HETATM   53  N3  UNL     1     -13.027  11.569  20.335  1.00  0.00    -0.279 NA
HETATM   54  H49 UNL     1     -12.724  13.603  22.666  1.00  0.00     0.126 HD
HETATM   55  H50 UNL     1     -14.074  12.882  21.995  1.00  0.00     0.126 HD
HETATM   56  H51 UNL     1     -12.386  10.982  19.805  1.00  0.00     0.126 HD
HETATM   57  H52 UNL     1     -13.519  12.207  19.721  1.00  0.00     0.126 HD
ATOM     58  H1  UNL     1     -10.735  11.122  21.018  1.00  0.00     0.165 HD
ENDBRANCH  31  50
BRANCH   1  59
HETATM   59  C2  UNL     1      -7.218  19.133  22.509  1.00  0.00     0.005 C 
HETATM   60  C1  UNL     1      -8.150  20.066  21.744  1.00  0.00     0.006 C 
ENDBRANCH   1  59
BRANCH   3  61
HETATM   61  S1  UNL     1      -3.300  16.381  22.293  1.00  0.00     0.108 S 
HETATM   62  O1  UNL     1      -2.400  16.086  21.173  1.00  0.00    -0.595 OA
HETATM   63  O2  UNL     1      -3.608  15.216  23.113  1.00  0.00    -0.595 OA
HETATM   64  O3  UNL     1      -2.961  17.581  23.051  1.00  0.00    -0.595 OA
ENDBRANCH   3  61
BRANCH  12  65
HETATM   65  C15 UNL     1      -0.128  10.541  17.761  1.00  0.00     0.169 C 
BRANCH  65  66
HETATM   66  O4  UNL     1      -0.695   9.463  17.024  1.00  0.00    -0.400 OA
HETATM   67  H23 UNL     1      -0.954   9.793  16.150  1.00  0.00     0.209 HD
ENDBRANCH  65  66
ENDBRANCH  12  65
BRANCH  18  68
HETATM   68  O5  UNL     1      -2.778  17.549  11.832  1.00  0.00    -0.361 OA
HETATM   69  H27 UNL     1      -3.270  18.391  11.813  1.00  0.00     0.217 HD
ENDBRANCH  18  68
TORSDOF 10
ENDMDL
MODEL 4
REMARK minimizedAffinity -7.38925219
REMARK CNNscore 0.127601743
REMARK CNNaffinity 6.26066446
REMARK  10 active torsions:
REMARK  status: ('A' for Active; 'I' for Inactive)
REMARK    1  A    between atoms: C2_2  and  C3_3 
REMARK    2  A    between atoms: C5_5  and  S1_6 
REMARK    3  A    between atoms: C14_18  and  C15_19 
REMARK    4  A    between atoms: C15_19  and  O4_20 
REMARK    5  A    between atoms: C21_26  and  O5_27 
REMARK    6  A    between atoms: C33_40  and  C34_41 
REMARK    7  A    between atoms: C33_40  and  N1_49 
REMARK    8  A    between atoms: C34_41  and  C35_42 
REMARK    9  A    between atoms: C35_42  and  C36_43 
REMARK   10  A    between atoms: C36_43  and  O7_44 
REMARK       I    between atoms: C41_51  and  N2_52 
REMARK       I    between atoms: C41_51  and  N3_53 
ROOT
HETATM    1  C3  UNL     1     -12.919  10.599  22.428  1.00  0.00     0.019 C 
HETATM    2  C4  UNL     1     -12.298   9.904  21.187  1.00  0.00     0.034 C 
HETATM    3  C5  UNL     1     -12.707  10.485  19.817  1.00  0.00     0.157 C 
HETATM    4  C6  UNL     1     -14.195  10.219  19.372  1.00  0.00     0.121 A 
HETATM    5  C7  UNL     1     -14.612  11.245  18.318  1.00  0.00     0.005 C 
HETATM    6  C8  UNL     1     -15.709  11.049  17.565  1.00  0.00    -0.048 C 
HETATM    7  C9  UNL     1     -16.630   9.927  17.935  1.00  0.00     0.044 C 
HETATM    8  C10 UNL     1     -15.797   8.648  17.902  1.00  0.00     0.019 C 
HETATM    9  C11 UNL     1     -15.394   8.237  16.444  1.00  0.00     0.039 C 
HETATM   10  C12 UNL     1     -14.947   9.352  15.467  1.00  0.00     0.123 C 
HETATM   11  C13 UNL     1     -14.690   8.808  14.038  1.00  0.00     0.039 C 
HETATM   12  C14 UNL     1     -15.962   8.518  13.179  1.00  0.00     0.023 C 
HETATM   13  C16 UNL     1     -16.264   9.632  12.136  1.00  0.00     0.101 C 
HETATM   14  C17 UNL     1     -16.758  10.865  12.758  1.00  0.00    -0.101 C 
HETATM   15  C18 UNL     1     -17.114  11.770  13.467  1.00  0.00    -0.066 C 
HETATM   16  C19 UNL     1     -17.442  12.682  14.527  1.00  0.00     0.029 A 
HETATM   17  C20 UNL     1     -18.377  13.690  14.261  1.00  0.00     0.057 A 
HETATM   18  C21 UNL     1     -18.712  14.602  15.252  1.00  0.00     0.067 A 
HETATM   19  C22 UNL     1     -18.138  14.523  16.513  1.00  0.00     0.037 A 
HETATM   20  C23 UNL     1     -17.212  13.513  16.791  1.00  0.00     0.014 A 
HETATM   21  C24 UNL     1     -16.855  12.561  15.815  1.00  0.00    -0.006 A 
HETATM   22  C25 UNL     1     -15.771  11.526  16.133  1.00  0.00     0.185 C 
HETATM   23  O6  UNL     1     -15.979  10.333  15.364  1.00  0.00    -0.371 OA
HETATM   24  C26 UNL     1     -14.567   8.740  18.900  1.00  0.00     0.115 A 
HETATM   25  C27 UNL     1     -14.857   7.813  20.092  1.00  0.00    -0.035 A 
HETATM   26  C28 UNL     1     -16.020   7.943  20.863  1.00  0.00     0.010 A 
HETATM   27  C29 UNL     1     -16.261   7.105  21.957  1.00  0.00     0.012 A 
HETATM   28  C30 UNL     1     -15.321   6.141  22.367  1.00  0.00    -0.003 A 
HETATM   29  C31 UNL     1     -14.173   5.993  21.566  1.00  0.00     0.012 A 
HETATM   30  C32 UNL     1     -13.954   6.800  20.439  1.00  0.00     0.010 A 
HETATM   31  C33 UNL     1     -15.526   5.399  23.728  1.00  0.00     0.170 C 
HETATM   32  O8  UNL     1     -14.848   6.030  24.891  1.00  0.00    -0.316 OA
HETATM   33  C42 UNL     1     -14.302   7.263  24.658  1.00  0.00     0.072 C 
HETATM   34  C43 UNL     1     -15.107   8.400  24.601  1.00  0.00     0.037 C 
HETATM   35  C44 UNL     1     -14.607   9.551  23.994  1.00  0.00     0.010 C 
HETATM   36  C45 UNL     1     -13.303   9.558  23.474  1.00  0.00    -0.054 C 
HETATM   37  C46 UNL     1     -12.444   8.489  23.782  1.00  0.00     0.010 C 
HETATM   38  C47 UNL     1     -12.943   7.335  24.378  1.00  0.00     0.037 C 
HETATM   39 NA1  UNL     1     -14.925   7.952  19.739  1.00  0.00    -0.404 Na
ATOM     40  HA1 UNL     1     -15.248   7.098  20.194  1.00  0.00     0.154 HD
ENDROOT
BRANCH  31  41
HETATM   41  C34 UNL     1     -14.878   3.972  23.694  1.00  0.00     0.070 C 
BRANCH  41  42
HETATM   42  C35 UNL     1     -13.403   3.913  24.132  1.00  0.00     0.043 C 
BRANCH  42  43
HETATM   43  C36 UNL     1     -12.999   2.556  24.721  1.00  0.00     0.058 C 
HETATM   44  C37 UNL     1     -12.838   2.556  26.242  1.00  0.00     0.038 C 
HETATM   45  C38 UNL     1     -11.967   1.337  26.538  1.00  0.00     0.003 C 
HETATM   46  C39 UNL     1     -11.184   1.050  25.259  1.00  0.00     0.003 C 
HETATM   47  C40 UNL     1     -11.612   2.114  24.248  1.00  0.00     0.038 C 
BRANCH  43  48
HETATM   48  O7  UNL     1     -13.957   1.557  24.358  1.00  0.00    -0.390 OA
HETATM   49  H40 UNL     1     -14.065   1.598  23.393  1.00  0.00     0.210 HD
ENDBRANCH  43  48
ENDBRANCH  42  43
ENDBRANCH  41  42
ENDBRANCH  31  41
BRANCH  31  50
HETATM   50  N1  UNL     1     -16.975   5.127  23.908  1.00  0.00    -0.336 N 
HETATM   51  C41 UNL     1     -17.548   5.131  25.044  1.00  0.00     0.124 C 
HETATM   52  N2  UNL     1     -17.071   5.378  26.279  1.00  0.00    -0.279 NA
HETATM   53  N3  UNL     1     -18.874   4.879  25.114  1.00  0.00    -0.279 NA
HETATM   54  H49 UNL     1     -16.051   5.406  26.304  1.00  0.00     0.126 HD
HETATM   55  H50 UNL     1     -17.426   4.732  26.974  1.00  0.00     0.126 HD
HETATM   56  H51 UNL     1     -19.273   4.895  24.178  1.00  0.00     0.126 HD
HETATM   57  H52 UNL     1     -19.351   5.539  25.717  1.00  0.00     0.126 HD
ATOM     58  H1  UNL     1     -17.537   4.928  23.081  1.00  0.00     0.165 HD
ENDBRANCH  31  50
BRANCH   1  59
HETATM   59  C2  UNL     1     -12.073  11.761  22.995  1.00  0.00     0.005 C 
HETATM   60  C1  UNL     1     -10.609  11.452  23.290  1.00  0.00     0.006 C 
ENDBRANCH   1  59
BRANCH   3  61
HETATM   61  S1  UNL     1     -11.459   9.982  18.587  1.00  0.00     0.108 S 
HETATM   62  O1  UNL     1     -10.811   8.839  19.239  1.00  0.00    -0.595 OA
HETATM   63  O2  UNL     1     -10.582  11.137  18.435  1.00  0.00    -0.595 OA
HETATM   64  O3  UNL     1     -12.233   9.649  17.395  1.00  0.00    -0.595 OA
ENDBRANCH   3  61
BRANCH  12  65
HETATM   65  C15 UNL     1     -15.802   7.189  12.420  1.00  0.00     0.169 C 
BRANCH  65  66
HETATM   66  O4  UNL     1     -15.687   7.378  11.013  1.00  0.00    -0.400 OA
HETATM   67  H23 UNL     1     -15.306   8.256  10.852  1.00  0.00     0.209 HD
ENDBRANCH  65  66
ENDBRANCH  12  65
BRANCH  18  68
HETATM   68  O5  UNL     1     -19.610  15.582  14.943  1.00  0.00    -0.361 OA
HETATM   69  H27 UNL     1     -19.561  16.267  15.635  1.00  0.00     0.217 HD
ENDBRANCH  18  68
TORSDOF 10
ENDMDL
MODEL 5
REMARK minimizedAffinity -6.87531567
REMARK CNNscore 0.125680998
REMARK CNNaffinity 6.56691504
REMARK  10 active torsions:
REMARK  status: ('A' for Active; 'I' for Inactive)
REMARK    1  A    between atoms: C2_2  and  C3_3 
REMARK    2  A    between atoms: C5_5  and  S1_6 
REMARK    3  A    between atoms: C14_18  and  C15_19 
REMARK    4  A    between atoms: C15_19  and  O4_20 
REMARK    5  A    between atoms: C21_26  and  O5_27 
REMARK    6  A    between atoms: C33_40  and  C34_41 
REMARK    7  A    between atoms: C33_40  and  N1_49 
REMARK    8  A    between atoms: C34_41  and  C35_42 
REMARK    9  A    between atoms: C35_42  and  C36_43 
REMARK   10  A    between atoms: C36_43  and  O7_44 
REMARK       I    between atoms: C41_51  and  N2_52 
REMARK       I    between atoms: C41_51  and  N3_53 
ROOT
HETATM    1  C3  UNL     1      -0.986  16.105   5.477  1.00  0.00     0.019 C 
HETATM    2  C4  UNL     1      -1.376  17.551   5.071  1.00  0.00     0.034 C 
HETATM    3  C5  UNL     1      -2.867  17.917   5.236  1.00  0.00     0.157 C 
HETATM    4  C6  UNL     1      -3.860  17.234   4.221  1.00  0.00     0.121 A 
HETATM    5  C7  UNL     1      -5.276  17.246   4.796  1.00  0.00     0.005 C 
HETATM    6  C8  UNL     1      -6.339  17.007   4.007  1.00  0.00    -0.048 C 
HETATM    7  C9  UNL     1      -6.092  16.509   2.617  1.00  0.00     0.044 C 
HETATM    8  C10 UNL     1      -5.216  17.553   1.928  1.00  0.00     0.019 C 
HETATM    9  C11 UNL     1      -5.991  18.883   1.638  1.00  0.00     0.039 C 
HETATM   10  C12 UNL     1      -6.947  19.427   2.728  1.00  0.00     0.123 C 
HETATM   11  C13 UNL     1      -7.723  20.681   2.251  1.00  0.00     0.039 C 
HETATM   12  C14 UNL     1      -8.921  20.417   1.285  1.00  0.00     0.023 C 
HETATM   13  C16 UNL     1     -10.304  20.473   1.994  1.00  0.00     0.101 C 
HETATM   14  C17 UNL     1     -10.535  19.318   2.868  1.00  0.00    -0.101 C 
HETATM   15  C18 UNL     1     -10.505  18.318   3.537  1.00  0.00    -0.066 C 
HETATM   16  C19 UNL     1     -10.190  17.117   4.260  1.00  0.00     0.029 A 
HETATM   17  C20 UNL     1     -11.247  16.280   4.634  1.00  0.00     0.057 A 
HETATM   18  C21 UNL     1     -10.990  15.117   5.347  1.00  0.00     0.067 A 
HETATM   19  C22 UNL     1      -9.691  14.764   5.685  1.00  0.00     0.037 A 
HETATM   20  C23 UNL     1      -8.628  15.588   5.305  1.00  0.00     0.014 A 
HETATM   21  C24 UNL     1      -8.848  16.771   4.571  1.00  0.00    -0.006 A 
HETATM   22  C25 UNL     1      -7.664  17.690   4.251  1.00  0.00     0.185 C 
HETATM   23  O6  UNL     1      -7.916  18.428   3.047  1.00  0.00    -0.371 OA
HETATM   24  C26 UNL     1      -3.856  17.769   2.717  1.00  0.00     0.115 A 
HETATM   25  C27 UNL     1      -2.725  17.139   1.887  1.00  0.00    -0.035 A 
HETATM   26  C28 UNL     1      -2.759  15.795   1.492  1.00  0.00     0.010 A 
HETATM   27  C29 UNL     1      -1.713  15.230   0.754  1.00  0.00     0.012 A 
HETATM   28  C30 UNL     1      -0.558  15.967   0.432  1.00  0.00    -0.003 A 
HETATM   29  C31 UNL     1      -0.547  17.325   0.803  1.00  0.00     0.012 A 
HETATM   30  C32 UNL     1      -1.618  17.905   1.499  1.00  0.00     0.010 A 
HETATM   31  C33 UNL     1       0.678  15.229  -0.179  1.00  0.00     0.170 C 
HETATM   32  O8  UNL     1       1.684  14.769   0.813  1.00  0.00    -0.316 OA
HETATM   33  C42 UNL     1       1.312  14.879   2.126  1.00  0.00     0.072 C 
HETATM   34  C43 UNL     1       0.433  13.960   2.697  1.00  0.00     0.037 C 
HETATM   35  C44 UNL     1      -0.221  14.298   3.880  1.00  0.00     0.010 C 
HETATM   36  C45 UNL     1       0.028  15.538   4.488  1.00  0.00    -0.054 C 
HETATM   37  C46 UNL     1       1.103  16.317   4.026  1.00  0.00     0.010 C 
HETATM   38  C47 UNL     1       1.751  15.988   2.840  1.00  0.00     0.037 C 
HETATM   39 NA1  UNL     1      -3.086  17.263   1.939  1.00  0.00    -0.404 Na
ATOM     40  HA1 UNL     1      -2.572  17.043   1.086  1.00  0.00     0.154 HD
ENDROOT
BRANCH  31  41
HETATM   41  C34 UNL     1       1.515  16.193  -1.088  1.00  0.00     0.070 C 
BRANCH  41  42
HETATM   42  C35 UNL     1       3.019  16.261  -0.758  1.00  0.00     0.043 C 
BRANCH  42  43
HETATM   43  C36 UNL     1       3.892  15.474  -1.743  1.00  0.00     0.058 C 
HETATM   44  C37 UNL     1       3.158  15.020  -3.005  1.00  0.00     0.038 C 
HETATM   45  C38 UNL     1       4.004  13.872  -3.552  1.00  0.00     0.003 C 
HETATM   46  C39 UNL     1       4.786  13.315  -2.365  1.00  0.00     0.003 C 
HETATM   47  C40 UNL     1       4.372  14.146  -1.151  1.00  0.00     0.038 C 
BRANCH  43  48
HETATM   48  O7  UNL     1       5.029  16.254  -2.125  1.00  0.00    -0.390 OA
HETATM   49  H40 UNL     1       5.458  16.556  -1.307  1.00  0.00     0.210 HD
ENDBRANCH  43  48
ENDBRANCH  42  43
ENDBRANCH  41  42
ENDBRANCH  31  41
BRANCH  31  50
HETATM   50  N1  UNL     1       0.192  14.187  -1.120  1.00  0.00    -0.336 N 
HETATM   51  C41 UNL     1      -0.423  14.457  -2.200  1.00  0.00     0.124 C 
HETATM   52  N2  UNL     1      -0.758  15.633  -2.762  1.00  0.00    -0.279 NA
HETATM   53  N3  UNL     1      -0.823  13.444  -3.001  1.00  0.00    -0.279 NA
HETATM   54  H49 UNL     1      -0.632  16.420  -2.123  1.00  0.00     0.126 HD
HETATM   55  H50 UNL     1      -1.696  15.633  -3.144  1.00  0.00     0.126 HD
HETATM   56  H51 UNL     1      -0.398  12.574  -2.688  1.00  0.00     0.126 HD
HETATM   57  H52 UNL     1      -0.600  13.621  -3.973  1.00  0.00     0.126 HD
ATOM     58  H1  UNL     1       0.361  13.208  -0.888  1.00  0.00     0.165 HD
ENDBRANCH  31  50
BRANCH   1  59
HETATM   59  C2  UNL     1      -0.559  15.954   6.954  1.00  0.00     0.005 C 
HETATM   60  C1  UNL     1       0.097  17.171   7.597  1.00  0.00     0.006 C 
ENDBRANCH   1  59
BRANCH   3  61
HETATM   61  S1  UNL     1      -3.005  19.733   5.310  1.00  0.00     0.108 S 
HETATM   62  O1  UNL     1      -3.335  20.084   3.925  1.00  0.00    -0.595 OA
HETATM   63  O2  UNL     1      -1.690  20.202   5.730  1.00  0.00    -0.595 OA
HETATM   64  O3  UNL     1      -4.072  19.980   6.275  1.00  0.00    -0.595 OA
ENDBRANCH   3  61
BRANCH  12  65
HETATM   65  C15 UNL     1      -8.929  21.454   0.148  1.00  0.00     0.169 C 
BRANCH  65  66
HETATM   66  O4  UNL     1      -7.622  21.733  -0.342  1.00  0.00    -0.400 OA
HETATM   67  H23 UNL     1      -7.067  20.951  -0.195  1.00  0.00     0.209 HD
ENDBRANCH  65  66
ENDBRANCH  12  65
BRANCH  18  68
HETATM   68  O5  UNL     1     -12.052  14.341   5.713  1.00  0.00    -0.361 OA
HETATM   69  H27 UNL     1     -11.748  13.712   6.393  1.00  0.00     0.217 HD
ENDBRANCH  18  68
TORSDOF 10
ENDMDL
MODEL 6
REMARK minimizedAffinity -7.42734003
REMARK CNNscore 0.121876262
REMARK CNNaffinity 6.4631896
REMARK  10 active torsions:
REMARK  status: ('A' for Active; 'I' for Inactive)
REMARK    1  A    between atoms: C2_2  and  C3_3 
REMARK    2  A    between atoms: C5_5  and  S1_6 
REMARK    3  A    between atoms: C14_18  and  C15_19 
REMARK    4  A    between atoms: C15_19  and  O4_20 
REMARK    5  A    between atoms: C21_26  and  O5_27 
REMARK    6  A    between atoms: C33_40  and  C34_41 
REMARK    7  A    between atoms: C33_40  and  N1_49 
REMARK    8  A    between atoms: C34_41  and  C35_42 
REMARK    9  A    between atoms: C35_42  and  C36_43 
REMARK   10  A    between atoms: C36_43  and  O7_44 
REMARK       I    between atoms: C41_51  and  N2_52 
REMARK       I    between atoms: C41_51  and  N3_53 
ROOT
HETATM    1  C3  UNL     1     -11.495 -10.405   1.186  1.00  0.00     0.019 C 
HETATM    2  C4  UNL     1     -10.698 -11.636   0.677  1.00  0.00     0.034 C 
HETATM    3  C5  UNL     1      -9.513 -12.081   1.560  1.00  0.00     0.157 C 
HETATM    4  C6  UNL     1      -8.263 -11.121   1.569  1.00  0.00     0.121 A 
HETATM    5  C7  UNL     1      -7.427 -11.372   2.824  1.00  0.00     0.005 C 
HETATM    6  C8  UNL     1      -6.167 -10.909   2.914  1.00  0.00    -0.048 C 
HETATM    7  C9  UNL     1      -5.685  -9.958   1.862  1.00  0.00     0.044 C 
HETATM    8  C10 UNL     1      -5.833 -10.676   0.523  1.00  0.00     0.019 C 
HETATM    9  C11 UNL     1      -4.806 -11.849   0.359  1.00  0.00     0.039 C 
HETATM   10  C12 UNL     1      -4.537 -12.762   1.581  1.00  0.00     0.123 C 
HETATM   11  C13 UNL     1      -3.421 -13.800   1.300  1.00  0.00     0.039 C 
HETATM   12  C14 UNL     1      -1.957 -13.257   1.340  1.00  0.00     0.023 C 
HETATM   13  C16 UNL     1      -1.215 -13.593   2.666  1.00  0.00     0.101 C 
HETATM   14  C17 UNL     1      -1.715 -12.815   3.803  1.00  0.00    -0.101 C 
HETATM   15  C18 UNL     1      -2.287 -12.104   4.588  1.00  0.00    -0.066 C 
HETATM   16  C19 UNL     1      -3.155 -11.215   5.309  1.00  0.00     0.029 A 
HETATM   17  C20 UNL     1      -2.650 -10.588   6.454  1.00  0.00     0.057 A 
HETATM   18  C21 UNL     1      -3.459  -9.733   7.189  1.00  0.00     0.067 A 
HETATM   19  C22 UNL     1      -4.765  -9.478   6.795  1.00  0.00     0.037 A 
HETATM   20  C23 UNL     1      -5.274 -10.091   5.646  1.00  0.00     0.014 A 
HETATM   21  C24 UNL     1      -4.480 -10.957   4.867  1.00  0.00    -0.006 A 
HETATM   22  C25 UNL     1      -5.104 -11.675   3.666  1.00  0.00     0.185 C 
HETATM   23  O6  UNL     1      -4.101 -11.963   2.681  1.00  0.00    -0.371 OA
HETATM   24  C26 UNL     1      -7.338 -11.109   0.267  1.00  0.00     0.115 A 
HETATM   25  C27 UNL     1      -7.909 -10.199  -0.833  1.00  0.00    -0.035 A 
HETATM   26  C28 UNL     1      -7.899  -8.803  -0.716  1.00  0.00     0.010 A 
HETATM   27  C29 UNL     1      -8.441  -7.988  -1.716  1.00  0.00     0.012 A 
HETATM   28  C30 UNL     1      -9.072  -8.535  -2.849  1.00  0.00    -0.003 A 
HETATM   29  C31 UNL     1      -9.047  -9.937  -2.976  1.00  0.00     0.012 A 
HETATM   30  C32 UNL     1      -8.459 -10.753  -1.996  1.00  0.00     0.010 A 
HETATM   31  C33 UNL     1      -9.868  -7.596  -3.813  1.00  0.00     0.170 C 
HETATM   32  O8  UNL     1     -11.318  -7.474  -3.509  1.00  0.00    -0.316 OA
HETATM   33  C42 UNL     1     -11.724  -8.038  -2.329  1.00  0.00     0.072 C 
HETATM   34  C43 UNL     1     -11.487  -7.396  -1.115  1.00  0.00     0.037 C 
HETATM   35  C44 UNL     1     -11.551  -8.138   0.063  1.00  0.00     0.010 C 
HETATM   36  C45 UNL     1     -11.872  -9.504   0.014  1.00  0.00    -0.054 C 
HETATM   37  C46 UNL     1     -12.353 -10.045  -1.191  1.00  0.00     0.010 C 
HETATM   38  C47 UNL     1     -12.281  -9.310  -2.370  1.00  0.00     0.037 C 
HETATM   39 NA1  UNL     1      -7.623 -10.344  -0.621  1.00  0.00    -0.404 Na
ATOM     40  HA1 UNL     1      -7.607  -9.830  -1.501  1.00  0.00     0.154 HD
ENDROOT
BRANCH  31  41
HETATM   41  C34 UNL     1      -9.877  -8.165  -5.273  1.00  0.00     0.070 C 
BRANCH  41  42
HETATM   42  C35 UNL     1      -8.506  -8.179  -5.977  1.00  0.00     0.043 C 
BRANCH  42  43
HETATM   43  C36 UNL     1      -8.265  -9.444  -6.809  1.00  0.00     0.058 C 
HETATM   44  C37 UNL     1      -9.122  -9.537  -8.072  1.00  0.00     0.038 C 
HETATM   45  C38 UNL     1      -9.117 -11.020  -8.435  1.00  0.00     0.003 C 
HETATM   46  C39 UNL     1      -8.821 -11.775  -7.141  1.00  0.00     0.003 C 
HETATM   47  C40 UNL     1      -8.666 -10.714  -6.052  1.00  0.00     0.038 C 
BRANCH  43  48
HETATM   48  O7  UNL     1      -6.886  -9.536  -7.178  1.00  0.00    -0.390 OA
HETATM   49  H40 UNL     1      -6.363  -9.443  -6.364  1.00  0.00     0.210 HD
ENDBRANCH  43  48
ENDBRANCH  42  43
ENDBRANCH  41  42
ENDBRANCH  31  41
BRANCH  31  50
HETATM   50  N1  UNL     1      -9.135  -6.310  -3.937  1.00  0.00    -0.336 N 
HETATM   51  C41 UNL     1      -9.677  -5.237  -4.353  1.00  0.00     0.124 C 
HETATM   52  N2  UNL     1     -10.940  -4.970  -4.738  1.00  0.00    -0.279 NA
HETATM   53  N3  UNL     1      -8.935  -4.110  -4.427  1.00  0.00    -0.279 NA
HETATM   54  H49 UNL     1     -11.496  -5.817  -4.862  1.00  0.00     0.126 HD
HETATM   55  H50 UNL     1     -10.984  -4.391  -5.567  1.00  0.00     0.126 HD
HETATM   56  H51 UNL     1      -8.048  -4.254  -3.950  1.00  0.00     0.126 HD
HETATM   57  H52 UNL     1      -9.423  -3.311  -4.040  1.00  0.00     0.126 HD
ATOM     58  H1  UNL     1      -8.150  -6.286  -3.676  1.00  0.00     0.165 HD
ENDBRANCH  31  50
BRANCH   1  59
HETATM   59  C2  UNL     1     -12.688 -10.756   2.103  1.00  0.00     0.005 C 
HETATM   60  C1  UNL     1     -13.542  -9.587   2.581  1.00  0.00     0.006 C 
ENDBRANCH   1  59
BRANCH   3  61
HETATM   61  S1  UNL     1      -9.121 -13.815   1.160  1.00  0.00     0.108 S 
HETATM   62  O1  UNL     1     -10.223 -14.546   1.795  1.00  0.00    -0.595 OA
HETATM   63  O2  UNL     1      -7.825 -14.069   1.777  1.00  0.00    -0.595 OA
HETATM   64  O3  UNL     1      -9.116 -13.862  -0.299  1.00  0.00    -0.595 OA
ENDBRANCH   3  61
BRANCH  12  65
HETATM   65  C15 UNL     1      -1.138 -13.842   0.177  1.00  0.00     0.169 C 
BRANCH  65  66
HETATM   66  O4  UNL     1      -0.196 -12.911  -0.346  1.00  0.00    -0.400 OA
HETATM   67  H23 UNL     1       0.049 -12.293   0.361  1.00  0.00     0.209 HD
ENDBRANCH  65  66
ENDBRANCH  12  65
BRANCH  18  68
HETATM   68  O5  UNL     1      -2.935  -9.162   8.312  1.00  0.00    -0.361 OA
HETATM   69  H27 UNL     1      -3.669  -8.795   8.837  1.00  0.00     0.217 HD
ENDBRANCH  18  68
TORSDOF 10
ENDMDL
MODEL 7
REMARK minimizedAffinity -7.03890038
REMARK CNNscore 0.119516172
REMARK CNNaffinity 5.21143293
REMARK  10 active torsions:
REMARK  status: ('A' for Active; 'I' for Inactive)
REMARK    1  A    between atoms: C2_2  and  C3_3 
REMARK    2  A    between atoms: C5_5  and  S1_6 
REMARK    3  A    between atoms: C14_18  and  C15_19 
REMARK    4  A    between atoms: C15_19  and  O4_20 
REMARK    5  A    between atoms: C21_26  and  O5_27 
REMARK    6  A    between atoms: C33_40  and  C34_41 
REMARK    7  A    between atoms: C33_40  and  N1_49 
REMARK    8  A    between atoms: C34_41  and  C35_42 
REMARK    9  A    between atoms: C35_42  and  C36_43 
REMARK   10  A    between atoms: C36_43  and  O7_44 
REMARK       I    between atoms: C41_51  and  N2_52 
REMARK       I    between atoms: C41_51  and  N3_53 
ROOT
HETATM    1  C3  UNL     1      -0.291  11.928  18.061  1.00  0.00     0.019 C 
HETATM    2  C4  UNL     1       0.586  11.201  17.008  1.00  0.00     0.034 C 
HETATM    3  C5  UNL     1       2.007  10.812  17.469  1.00  0.00     0.157 C 
HETATM    4  C6  UNL     1       3.017  12.005  17.666  1.00  0.00     0.121 A 
HETATM    5  C7  UNL     1       4.155  11.572  18.591  1.00  0.00     0.005 C 
HETATM    6  C8  UNL     1       5.288  12.292  18.669  1.00  0.00    -0.048 C 
HETATM    7  C9  UNL     1       5.321  13.635  18.008  1.00  0.00     0.044 C 
HETATM    8  C10 UNL     1       5.006  13.404  16.532  1.00  0.00     0.019 C 
HETATM    9  C11 UNL     1       6.171  12.672  15.782  1.00  0.00     0.039 C 
HETATM   10  C12 UNL     1       6.886  11.504  16.504  1.00  0.00     0.123 C 
HETATM   11  C13 UNL     1       8.084  10.957  15.685  1.00  0.00     0.039 C 
HETATM   12  C14 UNL     1       9.385  11.820  15.720  1.00  0.00     0.023 C 
HETATM   13  C16 UNL     1      10.466  11.261  16.690  1.00  0.00     0.101 C 
HETATM   14  C17 UNL     1      10.105  11.444  18.099  1.00  0.00    -0.101 C 
HETATM   15  C18 UNL     1       9.607  11.668  19.171  1.00  0.00    -0.066 C 
HETATM   16  C19 UNL     1       8.776  11.996  20.297  1.00  0.00     0.029 A 
HETATM   17  C20 UNL     1       9.405  12.305  21.509  1.00  0.00     0.057 A 
HETATM   18  C21 UNL     1       8.640  12.613  22.626  1.00  0.00     0.067 A 
HETATM   19  C22 UNL     1       7.254  12.632  22.555  1.00  0.00     0.037 A 
HETATM   20  C23 UNL     1       6.619  12.336  21.345  1.00  0.00     0.014 A 
HETATM   21  C24 UNL     1       7.360  12.029  20.186  1.00  0.00    -0.006 A 
HETATM   22  C25 UNL     1       6.623  11.626  18.905  1.00  0.00     0.185 C 
HETATM   23  O6  UNL     1       7.405  11.966  17.751  1.00  0.00    -0.371 OA
HETATM   24  C26 UNL     1       3.594  12.703  16.351  1.00  0.00     0.115 A 
HETATM   25  C27 UNL     1       2.619  13.748  15.783  1.00  0.00    -0.035 A 
HETATM   26  C28 UNL     1       2.389  14.971  16.426  1.00  0.00     0.010 A 
HETATM   27  C29 UNL     1       1.484  15.904  15.908  1.00  0.00     0.012 A 
HETATM   28  C30 UNL     1       0.723  15.629  14.756  1.00  0.00    -0.003 A 
HETATM   29  C31 UNL     1       0.985  14.414  14.097  1.00  0.00     0.012 A 
HETATM   30  C32 UNL     1       1.930  13.499  14.589  1.00  0.00     0.010 A 
HETATM   31  C33 UNL     1      -0.440  16.595  14.356  1.00  0.00     0.170 C 
HETATM   32  O8  UNL     1      -1.775  16.218  14.890  1.00  0.00    -0.316 OA
HETATM   33  C42 UNL     1      -1.780  15.201  15.806  1.00  0.00     0.072 C 
HETATM   34  C43 UNL     1      -1.394  15.429  17.126  1.00  0.00     0.037 C 
HETATM   35  C44 UNL     1      -1.039  14.341  17.922  1.00  0.00     0.010 C 
HETATM   36  C45 UNL     1      -1.095  13.041  17.397  1.00  0.00    -0.054 C 
HETATM   37  C46 UNL     1      -1.731  12.836  16.160  1.00  0.00     0.010 C 
HETATM   38  C47 UNL     1      -2.077  13.919  15.359  1.00  0.00     0.037 C 
HETATM   39 NA1  UNL     1       2.970  13.621  15.879  1.00  0.00    -0.404 Na
ATOM     40  HA1 UNL     1       2.682  14.388  15.272  1.00  0.00     0.154 HD
ENDROOT
BRANCH  31  41
HETATM   41  C34 UNL     1      -0.679  16.576  12.807  1.00  0.00     0.070 C 
BRANCH  41  42
HETATM   42  C35 UNL     1       0.492  17.106  11.959  1.00  0.00     0.043 C 
BRANCH  42  43
HETATM   43  C36 UNL     1       0.042  17.782  10.658  1.00  0.00     0.058 C 
HETATM   44  C37 UNL     1      -1.465  17.710  10.405  1.00  0.00     0.038 C 
HETATM   45  C38 UNL     1      -1.616  17.946   8.904  1.00  0.00     0.003 C 
HETATM   46  C39 UNL     1      -0.283  17.549   8.273  1.00  0.00     0.003 C 
HETATM   47  C40 UNL     1       0.612  17.084   9.420  1.00  0.00     0.038 C 
BRANCH  43  48
HETATM   48  O7  UNL     1       0.447  19.153  10.649  1.00  0.00    -0.390 OA
HETATM   49  H40 UNL     1       1.399  19.174  10.843  1.00  0.00     0.210 HD
ENDBRANCH  43  48
ENDBRANCH  42  43
ENDBRANCH  41  42
ENDBRANCH  31  41
BRANCH  31  50
HETATM   50  N1  UNL     1      -0.016  17.991  14.633  1.00  0.00    -0.336 N 
HETATM   51  C41 UNL     1       1.158  18.421  14.400  1.00  0.00     0.124 C 
HETATM   52  N2  UNL     1       2.237  17.816  13.869  1.00  0.00    -0.279 NA
HETATM   53  N3  UNL     1       1.454  19.711  14.677  1.00  0.00    -0.279 NA
HETATM   54  H49 UNL     1       2.121  16.804  13.800  1.00  0.00     0.126 HD
HETATM   55  H50 UNL     1       3.095  18.042  14.358  1.00  0.00     0.126 HD
HETATM   56  H51 UNL     1       0.598  20.220  14.883  1.00  0.00     0.126 HD
HETATM   57  H52 UNL     1       1.959  20.153  13.918  1.00  0.00     0.126 HD
ATOM     58  H1  UNL     1      -0.699  18.636  15.030  1.00  0.00     0.165 HD
ENDBRANCH  31  50
BRANCH   1  59
HETATM   59  C2  UNL     1      -1.148  10.984  18.934  1.00  0.00     0.005 C 
HETATM   60  C1  UNL     1      -2.632  10.908  18.592  1.00  0.00     0.006 C 
ENDBRANCH   1  59
BRANCH   3  61
HETATM   61  S1  UNL     1       2.619   9.486  16.378  1.00  0.00     0.108 S 
HETATM   62  O1  UNL     1       2.017   9.832  15.086  1.00  0.00    -0.595 OA
HETATM   63  O2  UNL     1       2.099   8.249  16.948  1.00  0.00    -0.595 OA
HETATM   64  O3  UNL     1       4.072   9.612  16.429  1.00  0.00    -0.595 OA
ENDBRANCH   3  61
BRANCH  12  65
HETATM   65  C15 UNL     1      10.008  11.904  14.315  1.00  0.00     0.169 C 
BRANCH  65  66
HETATM   66  O4  UNL     1       9.361  11.045  13.382  1.00  0.00    -0.400 OA
HETATM   67  H23 UNL     1       8.443  10.920  13.667  1.00  0.00     0.209 HD
ENDBRANCH  65  66
ENDBRANCH  12  65
BRANCH  18  68
HETATM   68  O5  UNL     1       9.292  12.885  23.793  1.00  0.00    -0.361 OA
HETATM   69  H27 UNL     1       8.644  12.843  24.520  1.00  0.00     0.217 HD
ENDBRANCH  18  68
TORSDOF 10
ENDMDL
MODEL 8
REMARK minimizedAffinity -7.42146063
REMARK CNNscore 0.114425145
REMARK CNNaffinity 6.37655783
REMARK  10 active torsions:
REMARK  status: ('A' for Active; 'I' for Inactive)
REMARK    1  A    between atoms: C2_2  and  C3_3 
REMARK    2  A    between atoms: C5_5  and  S1_6 
REMARK    3  A    between atoms: C14_18  and  C15_19 
REMARK    4  A    between atoms: C15_19  and  O4_20 
REMARK    5  A    between atoms: C21_26  and  O5_27 
REMARK    6  A    between atoms: C33_40  and  C34_41 
REMARK    7  A    between atoms: C33_40  and  N1_49 
REMARK    8  A    between atoms: C34_41  and  C35_42 
REMARK    9  A    between atoms: C35_42  and  C36_43 
REMARK   10  A    between atoms: C36_43  and  O7_44 
REMARK       I    between atoms: C41_51  and  N2_52 
REMARK       I    between atoms: C41_51  and  N3_53 
ROOT
HETATM    1  C3  UNL     1       2.929  14.731  19.795  1.00  0.00     0.019 C 
HETATM    2  C4  UNL     1       2.328  13.339  20.126  1.00  0.00     0.034 C 
HETATM    3  C5  UNL     1       2.738  12.189  19.182  1.00  0.00     0.157 C 
HETATM    4  C6  UNL     1       2.130  12.240  17.729  1.00  0.00     0.121 A 
HETATM    5  C7  UNL     1       2.986  11.403  16.780  1.00  0.00     0.005 C 
HETATM    6  C8  UNL     1       2.518  11.038  15.573  1.00  0.00    -0.048 C 
HETATM    7  C9  UNL     1       1.241  11.656  15.093  1.00  0.00     0.044 C 
HETATM    8  C10 UNL     1       0.176  11.324  16.135  1.00  0.00     0.019 C 
HETATM    9  C11 UNL     1      -0.207   9.805  16.134  1.00  0.00     0.039 C 
HETATM   10  C12 UNL     1       0.930   8.764  15.985  1.00  0.00     0.123 C 
HETATM   11  C13 UNL     1       0.387   7.315  15.886  1.00  0.00     0.039 C 
HETATM   12  C14 UNL     1      -0.217   6.904  14.506  1.00  0.00     0.023 C 
HETATM   13  C16 UNL     1       0.752   6.043  13.646  1.00  0.00     0.101 C 
HETATM   14  C17 UNL     1       1.875   6.822  13.114  1.00  0.00    -0.101 C 
HETATM   15  C18 UNL     1       2.713   7.630  12.810  1.00  0.00    -0.066 C 
HETATM   16  C19 UNL     1       3.582   8.761  12.643  1.00  0.00     0.029 A 
HETATM   17  C20 UNL     1       4.346   8.836  11.472  1.00  0.00     0.057 A 
HETATM   18  C21 UNL     1       5.209   9.905  11.276  1.00  0.00     0.067 A 
HETATM   19  C22 UNL     1       5.319  10.912  12.224  1.00  0.00     0.037 A 
HETATM   20  C23 UNL     1       4.553  10.851  13.391  1.00  0.00     0.014 A 
HETATM   21  C24 UNL     1       3.656   9.789  13.622  1.00  0.00    -0.006 A 
HETATM   22  C25 UNL     1       2.900   9.715  14.952  1.00  0.00     0.185 C 
HETATM   23  O6  UNL     1       1.655   9.024  14.782  1.00  0.00    -0.371 OA
HETATM   24  C26 UNL     1       0.584  11.875  17.567  1.00  0.00     0.115 A 
HETATM   25  C27 UNL     1      -0.325  13.074  17.887  1.00  0.00    -0.035 A 
HETATM   26  C28 UNL     1      -0.416  14.181  17.033  1.00  0.00     0.010 A 
HETATM   27  C29 UNL     1      -1.231  15.273  17.347  1.00  0.00     0.012 A 
HETATM   28  C30 UNL     1      -1.945  15.334  18.559  1.00  0.00    -0.003 A 
HETATM   29  C31 UNL     1      -1.876  14.203  19.394  1.00  0.00     0.012 A 
HETATM   30  C32 UNL     1      -1.097  13.086  19.056  1.00  0.00     0.010 A 
HETATM   31  C33 UNL     1      -2.647  16.669  18.971  1.00  0.00     0.170 C 
HETATM   32  O8  UNL     1      -1.827  17.568  19.825  1.00  0.00    -0.316 OA
HETATM   33  C42 UNL     1      -0.516  17.203  19.979  1.00  0.00     0.072 C 
HETATM   34  C43 UNL     1       0.411  17.436  18.964  1.00  0.00     0.037 C 
HETATM   35  C44 UNL     1       1.613  16.730  18.975  1.00  0.00     0.010 C 
HETATM   36  C45 UNL     1       1.881  15.819  20.008  1.00  0.00    -0.054 C 
HETATM   37  C46 UNL     1       1.043  15.807  21.137  1.00  0.00     0.010 C 
HETATM   38  C47 UNL     1      -0.162  16.502  21.125  1.00  0.00     0.037 C 
HETATM   39 NA1  UNL     1      -0.222  12.765  17.680  1.00  0.00    -0.404 Na
ATOM     40  HA1 UNL     1      -1.102  13.278  17.719  1.00  0.00     0.154 HD
ENDROOT
BRANCH  31  41
HETATM   41  C34 UNL     1      -3.897  16.392  19.874  1.00  0.00     0.070 C 
BRANCH  41  42
HETATM   42  C35 UNL     1      -5.108  15.780  19.146  1.00  0.00     0.043 C 
BRANCH  42  43
HETATM   43  C36 UNL     1      -5.636  14.505  19.813  1.00  0.00     0.058 C 
HETATM   44  C37 UNL     1      -7.148  14.497  20.041  1.00  0.00     0.038 C 
HETATM   45  C38 UNL     1      -7.369  13.449  21.130  1.00  0.00     0.003 C 
HETATM   46  C39 UNL     1      -6.051  13.341  21.892  1.00  0.00     0.003 C 
HETATM   47  C40 UNL     1      -5.093  14.333  21.234  1.00  0.00     0.038 C 
BRANCH  43  48
HETATM   48  O7  UNL     1      -5.280  13.358  19.035  1.00  0.00    -0.390 OA
HETATM   49  H40 UNL     1      -4.322  13.403  18.878  1.00  0.00     0.210 HD
ENDBRANCH  43  48
ENDBRANCH  42  43
ENDBRANCH  41  42
ENDBRANCH  31  41
BRANCH  31  50
HETATM   50  N1  UNL     1      -3.221  17.300  17.754  1.00  0.00    -0.336 N 
HETATM   51  C41 UNL     1      -3.275  18.559  17.582  1.00  0.00     0.124 C 
HETATM   52  N2  UNL     1      -2.853  19.580  18.352  1.00  0.00    -0.279 NA
HETATM   53  N3  UNL     1      -3.808  19.045  16.439  1.00  0.00    -0.279 NA
HETATM   54  H49 UNL     1      -2.599  19.278  19.294  1.00  0.00     0.126 HD
HETATM   55  H50 UNL     1      -3.518  20.343  18.391  1.00  0.00     0.126 HD
HETATM   56  H51 UNL     1      -3.939  18.286  15.774  1.00  0.00     0.126 HD
HETATM   57  H52 UNL     1      -3.235  19.778  16.038  1.00  0.00     0.126 HD
ATOM     58  H1  UNL     1      -3.590  16.693  17.022  1.00  0.00     0.165 HD
ENDBRANCH  31  50
BRANCH   1  59
HETATM   59  C2  UNL     1       4.274  15.025  20.496  1.00  0.00     0.005 C 
HETATM   60  C1  UNL     1       5.225  15.968  19.768  1.00  0.00     0.006 C 
ENDBRANCH   1  59
BRANCH   3  61
HETATM   61  S1  UNL     1       2.461  10.611  20.052  1.00  0.00     0.108 S 
HETATM   62  O1  UNL     1       3.603  10.548  20.972  1.00  0.00    -0.595 OA
HETATM   63  O2  UNL     1       2.497   9.588  19.014  1.00  0.00    -0.595 OA
HETATM   64  O3  UNL     1       1.162  10.771  20.699  1.00  0.00    -0.595 OA
ENDBRANCH   3  61
BRANCH  12  65
HETATM   65  C15 UNL     1      -1.513   6.101  14.707  1.00  0.00     0.169 C 
BRANCH  65  66
HETATM   66  O4  UNL     1      -2.281   6.576  15.808  1.00  0.00    -0.400 OA
HETATM   67  H23 UNL     1      -2.088   7.519  15.931  1.00  0.00     0.209 HD
ENDBRANCH  65  66
ENDBRANCH  12  65
BRANCH  18  68
HETATM   68  O5  UNL     1       5.952   9.926  10.131  1.00  0.00    -0.361 OA
HETATM   69  H27 UNL     1       6.664  10.583  10.244  1.00  0.00     0.217 HD
ENDBRANCH  18  68
TORSDOF 10
ENDMDL
MODEL 9
REMARK minimizedAffinity -6.87799883
REMARK CNNscore 0.111542471
REMARK CNNaffinity 6.67697716
REMARK  10 active torsions:
REMARK  status: ('A' for Active; 'I' for Inactive)
REMARK    1  A    between atoms: C2_2  and  C3_3 
REMARK    2  A    between atoms: C5_5  and  S1_6 
REMARK    3  A    between atoms: C14_18  and  C15_19 
REMARK    4  A    between atoms: C15_19  and  O4_20 
REMARK    5  A    between atoms: C21_26  and  O5_27 
REMARK    6  A    between atoms: C33_40  and  C34_41 
REMARK    7  A    between atoms: C33_40  and  N1_49 
REMARK    8  A    between atoms: C34_41  and  C35_42 
REMARK    9  A    between atoms: C35_42  and  C36_43 
REMARK   10  A    between atoms: C36_43  and  O7_44 
REMARK       I    between atoms: C41_51  and  N2_52 
REMARK       I    between atoms: C41_51  and  N3_53 
ROOT
HETATM    1  C3  UNL     1     -10.714  10.573  22.729  1.00  0.00     0.019 C 
HETATM    2  C4  UNL     1     -12.039  10.865  21.976  1.00  0.00     0.034 C 
HETATM    3  C5  UNL     1     -12.251  10.086  20.661  1.00  0.00     0.157 C 
HETATM    4  C6  UNL     1     -11.330  10.509  19.454  1.00  0.00     0.121 A 
HETATM    5  C7  UNL     1     -11.256   9.372  18.436  1.00  0.00     0.005 C 
HETATM    6  C8  UNL     1     -10.794   9.593  17.192  1.00  0.00    -0.048 C 
HETATM    7  C9  UNL     1     -10.148  10.912  16.901  1.00  0.00     0.044 C 
HETATM    8  C10 UNL     1     -11.184  11.987  17.220  1.00  0.00     0.019 C 
HETATM    9  C11 UNL     1     -12.367  11.998  16.191  1.00  0.00     0.039 C 
HETATM   10  C12 UNL     1     -12.937  10.640  15.717  1.00  0.00     0.123 C 
HETATM   11  C13 UNL     1     -14.020  10.811  14.621  1.00  0.00     0.039 C 
HETATM   12  C14 UNL     1     -13.494  11.130  13.185  1.00  0.00     0.023 C 
HETATM   13  C16 UNL     1     -13.485   9.890  12.246  1.00  0.00     0.101 C 
HETATM   14  C17 UNL     1     -12.438   8.926  12.599  1.00  0.00    -0.101 C 
HETATM   15  C18 UNL     1     -11.546   8.271  13.071  1.00  0.00    -0.066 C 
HETATM   16  C19 UNL     1     -10.496   7.679  13.852  1.00  0.00     0.029 A 
HETATM   17  C20 UNL     1      -9.600   6.819  13.205  1.00  0.00     0.057 A 
HETATM   18  C21 UNL     1      -8.579   6.214  13.925  1.00  0.00     0.067 A 
HETATM   19  C22 UNL     1      -8.426   6.458  15.283  1.00  0.00     0.037 A 
HETATM   20  C23 UNL     1      -9.308   7.324  15.935  1.00  0.00     0.014 A 
HETATM   21  C24 UNL     1     -10.351   7.967  15.236  1.00  0.00    -0.006 A 
HETATM   22  C25 UNL     1     -11.348   8.838  16.006  1.00  0.00     0.185 C 
HETATM   23  O6  UNL     1     -11.886   9.857  15.150  1.00  0.00    -0.371 OA
HETATM   24  C26 UNL     1     -11.658  11.895  18.732  1.00  0.00     0.115 A 
HETATM   25  C27 UNL     1     -11.056  13.092  19.487  1.00  0.00    -0.035 A 
HETATM   26  C28 UNL     1      -9.677  13.337  19.504  1.00  0.00     0.010 A 
HETATM   27  C29 UNL     1      -9.142  14.418  20.213  1.00  0.00     0.012 A 
HETATM   28  C30 UNL     1      -9.957  15.267  20.986  1.00  0.00    -0.003 A 
HETATM   29  C31 UNL     1     -11.344  15.035  20.935  1.00  0.00     0.012 A 
HETATM   30  C32 UNL     1     -11.886  13.980  20.184  1.00  0.00     0.010 A 
HETATM   31  C33 UNL     1      -9.291  16.307  21.944  1.00  0.00     0.170 C 
HETATM   32  O8  UNL     1      -9.085  15.830  23.337  1.00  0.00    -0.316 OA
HETATM   33  C42 UNL     1      -9.325  14.499  23.547  1.00  0.00     0.072 C 
HETATM   34  C43 UNL     1      -8.395  13.537  23.155  1.00  0.00     0.037 C 
HETATM   35  C44 UNL     1      -8.810  12.213  23.022  1.00  0.00     0.010 C 
HETATM   36  C45 UNL     1     -10.140  11.865  23.302  1.00  0.00    -0.054 C 
HETATM   37  C46 UNL     1     -10.969  12.806  23.938  1.00  0.00     0.010 C 
HETATM   38  C47 UNL     1     -10.562  14.130  24.063  1.00  0.00     0.037 C 
HETATM   39 NA1  UNL     1     -11.144  12.895  19.168  1.00  0.00    -0.404 Na
ATOM     40  HA1 UNL     1     -10.873  13.869  19.297  1.00  0.00     0.154 HD
ENDROOT
BRANCH  31  41
HETATM   41  C34 UNL     1     -10.215  17.556  22.149  1.00  0.00     0.070 C 
BRANCH  41  42
HETATM   42  C35 UNL     1     -10.601  17.852  23.610  1.00  0.00     0.043 C 
BRANCH  42  43
HETATM   43  C36 UNL     1     -10.044  19.184  24.126  1.00  0.00     0.058 C 
HETATM   44  C37 UNL     1      -9.180  19.937  23.114  1.00  0.00     0.038 C 
HETATM   45  C38 UNL     1      -8.344  20.897  23.957  1.00  0.00     0.003 C 
HETATM   46  C39 UNL     1      -8.281  20.292  25.357  1.00  0.00     0.003 C 
HETATM   47  C40 UNL     1      -9.076  18.988  25.296  1.00  0.00     0.038 C 
BRANCH  43  48
HETATM   48  O7  UNL     1     -11.115  20.037  24.544  1.00  0.00    -0.390 OA
HETATM   49  H40 UNL     1     -11.665  19.526  25.161  1.00  0.00     0.210 HD
ENDBRANCH  43  48
ENDBRANCH  42  43
ENDBRANCH  41  42
ENDBRANCH  31  41
BRANCH  31  50
HETATM   50  N1  UNL     1      -8.084  16.863  21.279  1.00  0.00    -0.336 N 
HETATM   51  C41 UNL     1      -7.039  17.215  21.913  1.00  0.00     0.124 C 
HETATM   52  N2  UNL     1      -6.739  17.171  23.225  1.00  0.00    -0.279 NA
HETATM   53  N3  UNL     1      -5.984  17.704  21.225  1.00  0.00    -0.279 NA
HETATM   54  H49 UNL     1      -7.556  16.971  23.805  1.00  0.00     0.126 HD
HETATM   55  H50 UNL     1      -6.270  18.008  23.549  1.00  0.00     0.126 HD
HETATM   56  H51 UNL     1      -6.126  17.549  20.229  1.00  0.00     0.126 HD
HETATM   57  H52 UNL     1      -5.111  17.291  21.530  1.00  0.00     0.126 HD
ATOM     58  H1  UNL     1      -8.095  16.967  20.265  1.00  0.00     0.165 HD
ENDBRANCH  31  50
BRANCH   1  59
HETATM   59  C2  UNL     1     -10.811   9.428  23.763  1.00  0.00     0.005 C 
HETATM   60  C1  UNL     1     -11.975   8.459  23.594  1.00  0.00     0.006 C 
ENDBRANCH   1  59
BRANCH   3  61
HETATM   61  S1  UNL     1     -14.033  10.086  20.277  1.00  0.00     0.108 S 
HETATM   62  O1  UNL     1     -14.567   9.116  21.239  1.00  0.00    -0.595 OA
HETATM   63  O2  UNL     1     -14.127   9.641  18.892  1.00  0.00    -0.595 OA
HETATM   64  O3  UNL     1     -14.455  11.465  20.499  1.00  0.00    -0.595 OA
ENDBRANCH   3  61
BRANCH  12  65
HETATM   65  C15 UNL     1     -14.364  12.216  12.527  1.00  0.00     0.169 C 
BRANCH  65  66
HETATM   66  O4  UNL     1     -15.693  11.771  12.280  1.00  0.00    -0.400 OA
HETATM   67  H23 UNL     1     -15.912  11.084  12.929  1.00  0.00     0.209 HD
ENDBRANCH  65  66
ENDBRANCH  12  65
BRANCH  18  68
HETATM   68  O5  UNL     1      -7.743   5.365  13.260  1.00  0.00    -0.361 OA
HETATM   69  H27 UNL     1      -7.249   4.846  13.921  1.00  0.00     0.217 HD
ENDBRANCH  18  68
TORSDOF 10
ENDMDL
