MODEL 1
REMARK minimizedAffinity -8.72991467
REMARK  6 active torsions:
REMARK  status: ('A' for Active; 'I' for Inactive)
REMARK    1  A    between atoms: C2_2  and  O2_4 
REMARK    2  A    between atoms: O2_4  and  C3_5 
REMARK    3  A    between atoms: C13_15  and  C14_16 
REMARK    4  A    between atoms: C14_16  and  C16_18 
REMARK    5  A    between atoms: C16_18  and  C17_19 
REMARK    6  A    between atoms: C17_19  and  C18_20 
ROOT
HETATM    1  C3  UNL     1      -6.703   5.671  13.494  1.00  0.00     0.136 C 
HETATM    2  C4  UNL     1      -6.120   7.060  13.195  1.00  0.00     0.034 C 
HETATM    3  C5  UNL     1      -4.704   7.259  13.735  1.00  0.00     0.013 C 
HETATM    4  C6  UNL     1      -3.756   6.103  13.397  1.00  0.00    -0.027 A 
HETATM    5  C7  UNL     1      -2.808   5.760  14.526  1.00  0.00     0.021 A 
HETATM    6  C8  UNL     1      -2.222   6.303  13.240  1.00  0.00    -0.027 A 
HETATM    7  C9  UNL     1      -1.703   7.742  13.258  1.00  0.00     0.011 C 
HETATM    8  C10 UNL     1      -0.178   7.959  13.213  1.00  0.00     0.011 C 
HETATM    9  C11 UNL     1       0.646   6.707  12.884  1.00  0.00    -0.032 C 
HETATM   10  C12 UNL     1       0.887   5.933  14.218  1.00  0.00     0.016 C 
HETATM   11  C13 UNL     1       2.026   6.946  12.177  1.00  0.00    -0.002 C 
HETATM   12  C22 UNL     1       2.274   5.585  11.458  1.00  0.00     0.006 C 
HETATM   13  C23 UNL     1       0.934   4.840  11.388  1.00  0.00     0.011 C 
HETATM   14  C24 UNL     1      -0.129   5.877  11.796  1.00  0.00    -0.032 C 
HETATM   15  C25 UNL     1      -0.491   6.674  10.505  1.00  0.00     0.016 C 
HETATM   16  C26 UNL     1      -1.403   5.261  12.434  1.00  0.00     0.004 C 
HETATM   17  C27 UNL     1      -2.276   4.464  11.456  1.00  0.00     0.006 C 
HETATM   18  C28 UNL     1      -3.481   3.864  12.179  1.00  0.00     0.006 C 
HETATM   19  C29 UNL     1      -4.439   4.982  12.601  1.00  0.00     0.001 C 
HETATM   20  C30 UNL     1      -5.664   4.521  13.419  1.00  0.00     0.016 C 
HETATM   21  C31 UNL     1      -6.333   3.254  12.885  1.00  0.00     0.013 C 
ENDROOT
BRANCH  11  22
HETATM   22  C14 UNL     1       3.257   7.398  13.022  1.00  0.00    -0.014 C 
HETATM   23  C15 UNL     1       2.895   8.545  13.975  1.00  0.00     0.010 C 
BRANCH  22  24
HETATM   24  C16 UNL     1       4.440   7.845  12.117  1.00  0.00     0.008 C 
BRANCH  24  25
HETATM   25  C17 UNL     1       4.448   7.173  10.734  1.00  0.00     0.028 C 
BRANCH  25  26
HETATM   26  C18 UNL     1       3.859   8.020   9.641  1.00  0.00    -0.025 C 
HETATM   27  C19 UNL     1       3.116   7.624   8.588  1.00  0.00    -0.091 C 
HETATM   28  C20 UNL     1       2.744   6.203   8.269  1.00  0.00     0.042 C 
HETATM   29  C21 UNL     1       2.588   8.635   7.601  1.00  0.00     0.042 C 
ENDBRANCH  25  26
ENDBRANCH  24  25
ENDBRANCH  22  24
ENDBRANCH  11  22
BRANCH   1  30
HETATM   30  O2  UNL     1      -7.270   5.656  14.825  1.00  0.00    -0.316 OA
BRANCH  30  31
HETATM   31  C2  UNL     1      -8.330   6.485  15.037  1.00  0.00     0.255 C 
HETATM   32  C1  UNL     1      -8.120   7.268  16.295  1.00  0.00     0.126 C 
HETATM   33  O1  UNL     1      -9.308   6.597  14.312  1.00  0.00    -0.266 OA
ENDBRANCH  30  31
ENDBRANCH   1  30
TORSDOF 6
ENDMDL
MODEL 2
REMARK minimizedAffinity -8.59893036
REMARK  6 active torsions:
REMARK  status: ('A' for Active; 'I' for Inactive)
REMARK    1  A    between atoms: C2_2  and  O2_4 
REMARK    2  A    between atoms: O2_4  and  C3_5 
REMARK    3  A    between atoms: C13_15  and  C14_16 
REMARK    4  A    between atoms: C14_16  and  C16_18 
REMARK    5  A    between atoms: C16_18  and  C17_19 
REMARK    6  A    between atoms: C17_19  and  C18_20 
ROOT
HETATM    1  C3  UNL     1      -5.609   6.375  13.514  1.00  0.00     0.136 C 
HETATM    2  C4  UNL     1      -5.077   7.775  13.174  1.00  0.00     0.034 C 
HETATM    3  C5  UNL     1      -3.663   8.035  13.691  1.00  0.00     0.013 C 
HETATM    4  C6  UNL     1      -2.680   6.903  13.369  1.00  0.00    -0.027 A 
HETATM    5  C7  UNL     1      -1.708   6.620  14.493  1.00  0.00     0.021 A 
HETATM    6  C8  UNL     1      -1.156   7.151  13.187  1.00  0.00    -0.027 A 
HETATM    7  C9  UNL     1      -0.686   8.606  13.163  1.00  0.00     0.011 C 
HETATM    8  C10 UNL     1       0.830   8.872  13.093  1.00  0.00     0.011 C 
HETATM    9  C11 UNL     1       1.693   7.641  12.783  1.00  0.00    -0.032 C 
HETATM   10  C12 UNL     1       1.976   6.909  14.133  1.00  0.00     0.016 C 
HETATM   11  C13 UNL     1       3.055   7.908  12.053  1.00  0.00    -0.002 C 
HETATM   12  C22 UNL     1       3.340   6.539  11.365  1.00  0.00     0.006 C 
HETATM   13  C23 UNL     1       2.025   5.748  11.330  1.00  0.00     0.011 C 
HETATM   14  C24 UNL     1       0.933   6.759  11.727  1.00  0.00    -0.032 C 
HETATM   15  C25 UNL     1       0.529   7.512  10.421  1.00  0.00     0.016 C 
HETATM   16  C26 UNL     1      -0.312   6.117  12.395  1.00  0.00     0.004 C 
HETATM   17  C27 UNL     1      -1.170   5.267  11.449  1.00  0.00     0.006 C 
HETATM   18  C28 UNL     1      -2.345   4.645  12.201  1.00  0.00     0.006 C 
HETATM   19  C29 UNL     1      -3.335   5.741  12.608  1.00  0.00     0.001 C 
HETATM   20  C30 UNL     1      -4.533   5.259  13.454  1.00  0.00     0.016 C 
HETATM   21  C31 UNL     1      -5.166   3.958  12.959  1.00  0.00     0.013 C 
ENDROOT
BRANCH  11  22
HETATM   22  C14 UNL     1       4.280   8.422  12.871  1.00  0.00    -0.014 C 
HETATM   23  C15 UNL     1       4.638   9.867  12.502  1.00  0.00     0.010 C 
BRANCH  22  24
HETATM   24  C16 UNL     1       5.529   7.520  12.660  1.00  0.00     0.008 C 
BRANCH  24  25
HETATM   25  C17 UNL     1       6.451   7.445  13.888  1.00  0.00     0.028 C 
BRANCH  25  26
HETATM   26  C18 UNL     1       7.900   7.692  13.580  1.00  0.00    -0.025 C 
HETATM   27  C19 UNL     1       8.913   7.897  14.446  1.00  0.00    -0.091 C 
HETATM   28  C20 UNL     1       8.784   7.953  15.942  1.00  0.00     0.042 C 
HETATM   29  C21 UNL     1      10.320   8.104  13.942  1.00  0.00     0.042 C 
ENDBRANCH  25  26
ENDBRANCH  24  25
ENDBRANCH  22  24
ENDBRANCH  11  22
BRANCH   1  30
HETATM   30  O2  UNL     1      -6.159   6.374  14.852  1.00  0.00    -0.316 OA
BRANCH  30  31
HETATM   31  C2  UNL     1      -7.399   5.827  14.993  1.00  0.00     0.255 C 
HETATM   32  C1  UNL     1      -8.242   6.163  13.803  1.00  0.00     0.126 C 
HETATM   33  O1  UNL     1      -7.780   5.149  15.936  1.00  0.00    -0.266 OA
ENDBRANCH  30  31
ENDBRANCH   1  30
TORSDOF 6
ENDMDL
MODEL 3
REMARK minimizedAffinity -8.25731659
REMARK  6 active torsions:
REMARK  status: ('A' for Active; 'I' for Inactive)
REMARK    1  A    between atoms: C2_2  and  O2_4 
REMARK    2  A    between atoms: O2_4  and  C3_5 
REMARK    3  A    between atoms: C13_15  and  C14_16 
REMARK    4  A    between atoms: C14_16  and  C16_18 
REMARK    5  A    between atoms: C16_18  and  C17_19 
REMARK    6  A    between atoms: C17_19  and  C18_20 
ROOT
HETATM    1  C3  UNL     1       4.652   6.520  11.069  1.00  0.00     0.136 C 
HETATM    2  C4  UNL     1       4.388   7.013  12.499  1.00  0.00     0.034 C 
HETATM    3  C5  UNL     1       3.121   7.859  12.631  1.00  0.00     0.013 C 
HETATM    4  C6  UNL     1       1.897   7.230  11.955  1.00  0.00    -0.027 A 
HETATM    5  C7  UNL     1       1.014   8.243  11.260  1.00  0.00     0.021 A 
HETATM    6  C8  UNL     1       0.447   7.496  12.449  1.00  0.00    -0.027 A 
HETATM    7  C9  UNL     1       0.288   8.273  13.757  1.00  0.00     0.011 C 
HETATM    8  C10 UNL     1      -1.139   8.642  14.207  1.00  0.00     0.011 C 
HETATM    9  C11 UNL     1      -2.266   7.952  13.425  1.00  0.00    -0.032 C 
HETATM   10  C12 UNL     1      -2.547   8.804  12.147  1.00  0.00     0.016 C 
HETATM   11  C13 UNL     1      -3.614   7.728  14.195  1.00  0.00    -0.002 C 
HETATM   12  C22 UNL     1      -4.248   6.534  13.419  1.00  0.00     0.006 C 
HETATM   13  C23 UNL     1      -3.137   5.862  12.601  1.00  0.00     0.011 C 
HETATM   14  C24 UNL     1      -1.823   6.474  13.122  1.00  0.00    -0.032 C 
HETATM   15  C25 UNL     1      -1.415   5.646  14.380  1.00  0.00     0.016 C 
HETATM   16  C26 UNL     1      -0.673   6.487  12.079  1.00  0.00     0.004 C 
HETATM   17  C27 UNL     1      -0.117   5.100  11.735  1.00  0.00     0.006 C 
HETATM   18  C28 UNL     1       0.979   5.208  10.675  1.00  0.00     0.006 C 
HETATM   19  C29 UNL     1       2.211   5.890  11.275  1.00  0.00     0.001 C 
HETATM   20  C30 UNL     1       3.368   6.141  10.285  1.00  0.00     0.016 C 
HETATM   21  C31 UNL     1       3.661   4.964   9.353  1.00  0.00     0.013 C 
ENDROOT
BRANCH  11  22
HETATM   22  C14 UNL     1      -4.610   8.915  14.365  1.00  0.00    -0.014 C 
HETATM   23  C15 UNL     1      -4.159   9.876  15.474  1.00  0.00     0.010 C 
BRANCH  22  24
HETATM   24  C16 UNL     1      -6.048   8.416  14.683  1.00  0.00     0.008 C 
BRANCH  24  25
HETATM   25  C17 UNL     1      -6.083   7.103  15.483  1.00  0.00     0.028 C 
BRANCH  25  26
HETATM   26  C18 UNL     1      -6.595   5.925  14.702  1.00  0.00    -0.025 C 
HETATM   27  C19 UNL     1      -7.831   5.732  14.200  1.00  0.00    -0.091 C 
HETATM   28  C20 UNL     1      -8.993   6.672  14.357  1.00  0.00     0.042 C 
HETATM   29  C21 UNL     1      -8.151   4.485  13.413  1.00  0.00     0.042 C 
ENDBRANCH  25  26
ENDBRANCH  24  25
ENDBRANCH  22  24
ENDBRANCH  11  22
BRANCH   1  30
HETATM   30  O2  UNL     1       5.331   7.552  10.315  1.00  0.00    -0.316 OA
BRANCH  30  31
HETATM   31  C2  UNL     1       6.605   7.839  10.700  1.00  0.00     0.255 C 
HETATM   32  C1  UNL     1       6.768   9.318  10.864  1.00  0.00     0.126 C 
HETATM   33  O1  UNL     1       7.495   7.023  10.901  1.00  0.00    -0.266 OA
ENDBRANCH  30  31
ENDBRANCH   1  30
TORSDOF 6
ENDMDL
MODEL 4
REMARK minimizedAffinity -8.25641918
REMARK  6 active torsions:
REMARK  status: ('A' for Active; 'I' for Inactive)
REMARK    1  A    between atoms: C2_2  and  O2_4 
REMARK    2  A    between atoms: O2_4  and  C3_5 
REMARK    3  A    between atoms: C13_15  and  C14_16 
REMARK    4  A    between atoms: C14_16  and  C16_18 
REMARK    5  A    between atoms: C16_18  and  C17_19 
REMARK    6  A    between atoms: C17_19  and  C18_20 
ROOT
HETATM    1  C3  UNL     1       2.692   7.377  12.217  1.00  0.00     0.136 C 
HETATM    2  C4  UNL     1       2.286   7.468  13.695  1.00  0.00     0.034 C 
HETATM    3  C5  UNL     1       0.875   8.016  13.910  1.00  0.00     0.013 C 
HETATM    4  C6  UNL     1      -0.178   7.351  13.017  1.00  0.00    -0.027 A 
HETATM    5  C7  UNL     1      -1.216   8.321  12.495  1.00  0.00     0.021 A 
HETATM    6  C8  UNL     1      -1.669   7.228  13.440  1.00  0.00    -0.027 A 
HETATM    7  C9  UNL     1      -2.023   7.638  14.870  1.00  0.00     0.011 C 
HETATM    8  C10 UNL     1      -3.510   7.628  15.276  1.00  0.00     0.011 C 
HETATM    9  C11 UNL     1      -4.452   6.946  14.274  1.00  0.00    -0.032 C 
HETATM   10  C12 UNL     1      -4.847   8.007  13.198  1.00  0.00     0.016 C 
HETATM   11  C13 UNL     1      -5.758   6.310  14.866  1.00  0.00    -0.002 C 
HETATM   12  C22 UNL     1      -6.120   5.234  13.797  1.00  0.00     0.006 C 
HETATM   13  C23 UNL     1      -4.871   4.983  12.942  1.00  0.00     0.011 C 
HETATM   14  C24 UNL     1      -3.720   5.685  13.687  1.00  0.00    -0.032 C 
HETATM   15  C25 UNL     1      -3.204   4.675  14.759  1.00  0.00     0.016 C 
HETATM   16  C26 UNL     1      -2.558   6.148  12.769  1.00  0.00     0.004 C 
HETATM   17  C27 UNL     1      -1.731   5.002  12.171  1.00  0.00     0.006 C 
HETATM   18  C28 UNL     1      -0.640   5.550  11.252  1.00  0.00     0.006 C 
HETATM   19  C29 UNL     1       0.414   6.286  12.085  1.00  0.00     0.001 C 
HETATM   20  C30 UNL     1       1.536   6.965  11.269  1.00  0.00     0.016 C 
HETATM   21  C31 UNL     1       2.084   6.109  10.126  1.00  0.00     0.013 C 
ENDROOT
BRANCH  11  22
HETATM   22  C14 UNL     1      -6.971   7.225  15.215  1.00  0.00    -0.014 C 
HETATM   23  C15 UNL     1      -7.408   7.050  16.675  1.00  0.00     0.010 C 
BRANCH  22  24
HETATM   24  C16 UNL     1      -8.186   6.944  14.286  1.00  0.00     0.008 C 
BRANCH  24  25
HETATM   25  C17 UNL     1      -9.417   7.812  14.600  1.00  0.00     0.028 C 
BRANCH  25  26
HETATM   26  C18 UNL     1     -10.689   7.029  14.765  1.00  0.00    -0.025 C 
HETATM   27  C19 UNL     1     -11.789   7.052  13.986  1.00  0.00    -0.091 C 
HETATM   28  C20 UNL     1     -11.981   7.921  12.775  1.00  0.00     0.042 C 
HETATM   29  C21 UNL     1     -12.968   6.167  14.302  1.00  0.00     0.042 C 
ENDBRANCH  25  26
ENDBRANCH  24  25
ENDBRANCH  22  24
ENDBRANCH  11  22
BRANCH   1  30
HETATM   30  O2  UNL     1       3.184   8.660  11.767  1.00  0.00    -0.316 OA
BRANCH  30  31
HETATM   31  C2  UNL     1       4.535   8.776  11.639  1.00  0.00     0.255 C 
HETATM   32  C1  UNL     1       4.911   8.791  10.190  1.00  0.00     0.126 C 
HETATM   33  O1  UNL     1       5.337   8.870  12.558  1.00  0.00    -0.266 OA
ENDBRANCH  30  31
ENDBRANCH   1  30
TORSDOF 6
ENDMDL
MODEL 5
REMARK minimizedAffinity -8.20387077
REMARK  6 active torsions:
REMARK  status: ('A' for Active; 'I' for Inactive)
REMARK    1  A    between atoms: C2_2  and  O2_4 
REMARK    2  A    between atoms: O2_4  and  C3_5 
REMARK    3  A    between atoms: C13_15  and  C14_16 
REMARK    4  A    between atoms: C14_16  and  C16_18 
REMARK    5  A    between atoms: C16_18  and  C17_19 
REMARK    6  A    between atoms: C17_19  and  C18_20 
ROOT
HETATM    1  C3  UNL     1       3.883   7.993  12.092  1.00  0.00     0.136 C 
HETATM    2  C4  UNL     1       2.912   7.584  10.975  1.00  0.00     0.034 C 
HETATM    3  C5  UNL     1       1.790   6.660  11.446  1.00  0.00     0.013 C 
HETATM    4  C6  UNL     1       1.096   7.148  12.723  1.00  0.00    -0.027 A 
HETATM    5  C7  UNL     1       0.742   6.026  13.675  1.00  0.00     0.021 A 
HETATM    6  C8  UNL     1      -0.388   6.813  13.044  1.00  0.00    -0.027 A 
HETATM    7  C9  UNL     1      -1.198   6.121  11.947  1.00  0.00     0.011 C 
HETATM    8  C10 UNL     1      -2.637   5.682  12.281  1.00  0.00     0.011 C 
HETATM    9  C11 UNL     1      -3.193   6.230  13.603  1.00  0.00    -0.032 C 
HETATM   10  C12 UNL     1      -2.732   5.271  14.745  1.00  0.00     0.016 C 
HETATM   11  C13 UNL     1      -4.749   6.409  13.684  1.00  0.00    -0.002 C 
HETATM   12  C22 UNL     1      -4.904   7.495  14.792  1.00  0.00     0.006 C 
HETATM   13  C23 UNL     1      -3.544   8.186  14.964  1.00  0.00     0.011 C 
HETATM   14  C24 UNL     1      -2.693   7.711  13.772  1.00  0.00    -0.032 C 
HETATM   15  C25 UNL     1      -3.035   8.654  12.577  1.00  0.00     0.016 C 
HETATM   16  C26 UNL     1      -1.165   7.708  14.046  1.00  0.00     0.004 C 
HETATM   17  C27 UNL     1      -0.545   9.104  14.181  1.00  0.00     0.006 C 
HETATM   18  C28 UNL     1       0.949   9.001  14.488  1.00  0.00     0.006 C 
HETATM   19  C29 UNL     1       1.691   8.455  13.265  1.00  0.00     0.001 C 
HETATM   20  C30 UNL     1       3.203   8.220  13.468  1.00  0.00     0.016 C 
HETATM   21  C31 UNL     1       3.917   9.346  14.217  1.00  0.00     0.013 C 
ENDROOT
BRANCH  11  22
HETATM   22  C14 UNL     1      -5.655   5.167  13.947  1.00  0.00    -0.014 C 
HETATM   23  C15 UNL     1      -5.672   4.216  12.743  1.00  0.00     0.010 C 
BRANCH  22  24
HETATM   24  C16 UNL     1      -7.114   5.583  14.285  1.00  0.00     0.008 C 
BRANCH  24  25
HETATM   25  C17 UNL     1      -7.984   5.846  13.045  1.00  0.00     0.028 C 
BRANCH  25  26
HETATM   26  C18 UNL     1      -9.413   6.185  13.362  1.00  0.00    -0.025 C 
HETATM   27  C19 UNL     1      -9.878   7.118  14.217  1.00  0.00    -0.091 C 
HETATM   28  C20 UNL     1      -9.030   8.012  15.078  1.00  0.00     0.042 C 
HETATM   29  C21 UNL     1     -11.362   7.332  14.382  1.00  0.00     0.042 C 
ENDBRANCH  25  26
ENDBRANCH  24  25
ENDBRANCH  22  24
ENDBRANCH  11  22
BRANCH   1  30
HETATM   30  O2  UNL     1       4.883   6.963  12.269  1.00  0.00    -0.316 OA
BRANCH  30  31
HETATM   31  C2  UNL     1       5.733   6.763  11.224  1.00  0.00     0.255 C 
HETATM   32  C1  UNL     1       6.518   8.010  10.959  1.00  0.00     0.126 C 
HETATM   33  O1  UNL     1       5.861   5.723  10.592  1.00  0.00    -0.266 OA
ENDBRANCH  30  31
ENDBRANCH   1  30
TORSDOF 6
ENDMDL
MODEL 6
REMARK minimizedAffinity -8.16153049
REMARK  6 active torsions:
REMARK  status: ('A' for Active; 'I' for Inactive)
REMARK    1  A    between atoms: C2_2  and  O2_4 
REMARK    2  A    between atoms: O2_4  and  C3_5 
REMARK    3  A    between atoms: C13_15  and  C14_16 
REMARK    4  A    between atoms: C14_16  and  C16_18 
REMARK    5  A    between atoms: C16_18  and  C17_19 
REMARK    6  A    between atoms: C17_19  and  C18_20 
ROOT
HETATM    1  C3  UNL     1       1.726   6.578  10.067  1.00  0.00     0.136 C 
HETATM    2  C4  UNL     1       1.712   5.825  11.406  1.00  0.00     0.034 C 
HETATM    3  C5  UNL     1       1.751   6.745  12.626  1.00  0.00     0.013 C 
HETATM    4  C6  UNL     1       0.741   7.896  12.551  1.00  0.00    -0.027 A 
HETATM    5  C7  UNL     1       1.283   9.200  13.095  1.00  0.00     0.021 A 
HETATM    6  C8  UNL     1       0.127   8.548  13.822  1.00  0.00    -0.027 A 
HETATM    7  C9  UNL     1       0.429   7.877  15.164  1.00  0.00     0.011 C 
HETATM    8  C10 UNL     1      -0.078   8.566  16.445  1.00  0.00     0.011 C 
HETATM    9  C11 UNL     1      -1.067   9.717  16.215  1.00  0.00    -0.032 C 
HETATM   10  C12 UNL     1      -0.236  11.013  15.956  1.00  0.00     0.016 C 
HETATM   11  C13 UNL     1      -2.096   9.994  17.367  1.00  0.00    -0.002 C 
HETATM   12  C22 UNL     1      -3.259  10.707  16.613  1.00  0.00     0.006 C 
HETATM   13  C23 UNL     1      -3.090  10.424  15.113  1.00  0.00     0.011 C 
HETATM   14  C24 UNL     1      -2.018   9.322  15.027  1.00  0.00    -0.032 C 
HETATM   15  C25 UNL     1      -2.761   7.962  15.213  1.00  0.00     0.016 C 
HETATM   16  C26 UNL     1      -1.210   9.326  13.701  1.00  0.00     0.004 C 
HETATM   17  C27 UNL     1      -2.019   8.905  12.468  1.00  0.00     0.006 C 
HETATM   18  C28 UNL     1      -1.156   8.978  11.209  1.00  0.00     0.006 C 
HETATM   19  C29 UNL     1      -0.082   7.888  11.256  1.00  0.00     0.001 C 
HETATM   20  C30 UNL     1       0.918   7.902  10.079  1.00  0.00     0.016 C 
HETATM   21  C31 UNL     1       0.271   8.125   8.711  1.00  0.00     0.013 C 
ENDROOT
BRANCH  11  22
HETATM   22  C14 UNL     1      -1.643  10.784  18.632  1.00  0.00    -0.014 C 
HETATM   23  C15 UNL     1      -2.245  12.195  18.661  1.00  0.00     0.010 C 
BRANCH  22  24
HETATM   24  C16 UNL     1      -0.094  10.893  18.715  1.00  0.00     0.008 C 
BRANCH  24  25
HETATM   25  C17 UNL     1       0.418  11.398  20.074  1.00  0.00     0.028 C 
BRANCH  25  26
HETATM   26  C18 UNL     1       1.414  10.484  20.730  1.00  0.00    -0.025 C 
HETATM   27  C19 UNL     1       2.415  10.809  21.572  1.00  0.00    -0.091 C 
HETATM   28  C20 UNL     1       2.767  12.202  22.012  1.00  0.00     0.042 C 
HETATM   29  C21 UNL     1       3.303   9.737  22.154  1.00  0.00     0.042 C 
ENDBRANCH  25  26
ENDBRANCH  24  25
ENDBRANCH  22  24
ENDBRANCH  11  22
BRANCH   1  30
HETATM   30  O2  UNL     1       3.088   6.906   9.706  1.00  0.00    -0.316 OA
BRANCH  30  31
HETATM   31  C2  UNL     1       4.013   5.924   9.892  1.00  0.00     0.255 C 
HETATM   32  C1  UNL     1       5.036   6.369  10.890  1.00  0.00     0.126 C 
HETATM   33  O1  UNL     1       4.017   4.829   9.346  1.00  0.00    -0.266 OA
ENDBRANCH  30  31
ENDBRANCH   1  30
TORSDOF 6
ENDMDL
MODEL 7
REMARK minimizedAffinity -8.11588573
REMARK  6 active torsions:
REMARK  status: ('A' for Active; 'I' for Inactive)
REMARK    1  A    between atoms: C2_2  and  O2_4 
REMARK    2  A    between atoms: O2_4  and  C3_5 
REMARK    3  A    between atoms: C13_15  and  C14_16 
REMARK    4  A    between atoms: C14_16  and  C16_18 
REMARK    5  A    between atoms: C16_18  and  C17_19 
REMARK    6  A    between atoms: C17_19  and  C18_20 
ROOT
HETATM    1  C3  UNL     1      -6.466   6.439  14.256  1.00  0.00     0.136 C 
HETATM    2  C4  UNL     1      -5.486   5.257  14.281  1.00  0.00     0.034 C 
HETATM    3  C5  UNL     1      -4.224   5.490  13.452  1.00  0.00     0.013 C 
HETATM    4  C6  UNL     1      -3.565   6.849  13.717  1.00  0.00    -0.027 A 
HETATM    5  C7  UNL     1      -3.015   7.498  12.466  1.00  0.00     0.021 A 
HETATM    6  C8  UNL     1      -2.037   7.080  13.544  1.00  0.00    -0.027 A 
HETATM    7  C9  UNL     1      -1.173   5.848  13.268  1.00  0.00     0.011 C 
HETATM    8  C10 UNL     1       0.326   6.066  12.986  1.00  0.00     0.011 C 
HETATM    9  C11 UNL     1       0.842   7.482  13.277  1.00  0.00    -0.032 C 
HETATM   10  C12 UNL     1       0.569   8.356  12.012  1.00  0.00     0.016 C 
HETATM   11  C13 UNL     1       2.357   7.607  13.665  1.00  0.00    -0.002 C 
HETATM   12  C22 UNL     1       2.389   8.946  14.462  1.00  0.00     0.006 C 
HETATM   13  C23 UNL     1       0.949   9.280  14.877  1.00  0.00     0.011 C 
HETATM   14  C24 UNL     1       0.135   8.008  14.579  1.00  0.00    -0.032 C 
HETATM   15  C25 UNL     1       0.291   7.079  15.824  1.00  0.00     0.016 C 
HETATM   16  C26 UNL     1      -1.365   8.270  14.278  1.00  0.00     0.004 C 
HETATM   17  C27 UNL     1      -2.179   8.741  15.490  1.00  0.00     0.006 C 
HETATM   18  C28 UNL     1      -3.629   9.012  15.090  1.00  0.00     0.006 C 
HETATM   19  C29 UNL     1      -4.326   7.692  14.749  1.00  0.00     0.001 C 
HETATM   20  C30 UNL     1      -5.778   7.829  14.245  1.00  0.00     0.016 C 
HETATM   21  C31 UNL     1      -6.623   8.830  15.036  1.00  0.00     0.013 C 
ENDROOT
BRANCH  11  22
HETATM   22  C14 UNL     1       3.444   7.560  12.549  1.00  0.00    -0.014 C 
HETATM   23  C15 UNL     1       3.614   8.926  11.869  1.00  0.00     0.010 C 
BRANCH  22  24
HETATM   24  C16 UNL     1       3.110   6.494  11.467  1.00  0.00     0.008 C 
BRANCH  24  25
HETATM   25  C17 UNL     1       3.860   6.704  10.141  1.00  0.00     0.028 C 
BRANCH  25  26
HETATM   26  C18 UNL     1       3.001   6.531   8.920  1.00  0.00    -0.025 C 
HETATM   27  C19 UNL     1       2.699   7.446   7.977  1.00  0.00    -0.091 C 
HETATM   28  C20 UNL     1       3.150   8.880   7.977  1.00  0.00     0.042 C 
HETATM   29  C21 UNL     1       1.834   7.073   6.799  1.00  0.00     0.042 C 
ENDBRANCH  25  26
ENDBRANCH  24  25
ENDBRANCH  22  24
ENDBRANCH  11  22
BRANCH   1  30
HETATM   30  O2  UNL     1      -7.297   6.358  13.074  1.00  0.00    -0.316 OA
BRANCH  30  31
HETATM   31  C2  UNL     1      -8.533   5.813  13.243  1.00  0.00     0.255 C 
HETATM   32  C1  UNL     1      -8.537   4.397  12.756  1.00  0.00     0.126 C 
HETATM   33  O1  UNL     1      -9.504   6.375  13.731  1.00  0.00    -0.266 OA
ENDBRANCH  30  31
ENDBRANCH   1  30
TORSDOF 6
ENDMDL
MODEL 8
REMARK minimizedAffinity -7.98236752
REMARK  6 active torsions:
REMARK  status: ('A' for Active; 'I' for Inactive)
REMARK    1  A    between atoms: C2_2  and  O2_4 
REMARK    2  A    between atoms: O2_4  and  C3_5 
REMARK    3  A    between atoms: C13_15  and  C14_16 
REMARK    4  A    between atoms: C14_16  and  C16_18 
REMARK    5  A    between atoms: C16_18  and  C17_19 
REMARK    6  A    between atoms: C17_19  and  C18_20 
ROOT
HETATM    1  C3  UNL     1      -5.658   6.543  13.657  1.00  0.00     0.136 C 
HETATM    2  C4  UNL     1      -5.118   7.893  13.163  1.00  0.00     0.034 C 
HETATM    3  C5  UNL     1      -3.659   8.145  13.542  1.00  0.00     0.013 C 
HETATM    4  C6  UNL     1      -2.738   6.958  13.235  1.00  0.00    -0.027 A 
HETATM    5  C7  UNL     1      -1.684   6.731  14.296  1.00  0.00     0.021 A 
HETATM    6  C8  UNL     1      -1.228   7.139  12.911  1.00  0.00    -0.027 A 
HETATM    7  C9  UNL     1      -0.721   8.571  12.731  1.00  0.00     0.011 C 
HETATM    8  C10 UNL     1       0.791   8.779  12.518  1.00  0.00     0.011 C 
HETATM    9  C11 UNL     1       1.590   7.498  12.242  1.00  0.00    -0.032 C 
HETATM   10  C12 UNL     1       1.964   6.866  13.620  1.00  0.00     0.016 C 
HETATM   11  C13 UNL     1       2.895   7.661  11.386  1.00  0.00    -0.002 C 
HETATM   12  C22 UNL     1       3.084   6.233  10.790  1.00  0.00     0.006 C 
HETATM   13  C23 UNL     1       1.750   5.487  10.925  1.00  0.00     0.011 C 
HETATM   14  C24 UNL     1       0.722   6.562  11.325  1.00  0.00    -0.032 C 
HETATM   15  C25 UNL     1       0.232   7.223   9.999  1.00  0.00     0.016 C 
HETATM   16  C26 UNL     1      -0.481   6.018  12.141  1.00  0.00     0.004 C 
HETATM   17  C27 UNL     1      -1.437   5.126  11.339  1.00  0.00     0.006 C 
HETATM   18  C28 UNL     1      -2.563   4.605  12.231  1.00  0.00     0.006 C 
HETATM   19  C29 UNL     1      -3.484   5.763  12.626  1.00  0.00     0.001 C 
HETATM   20  C30 UNL     1      -4.622   5.390  13.602  1.00  0.00     0.016 C 
HETATM   21  C31 UNL     1      -5.328   4.076  13.266  1.00  0.00     0.013 C 
ENDROOT
BRANCH  11  22
HETATM   22  C14 UNL     1       4.196   8.195  12.058  1.00  0.00    -0.014 C 
HETATM   23  C15 UNL     1       3.956   8.585  13.522  1.00  0.00     0.010 C 
BRANCH  22  24
HETATM   24  C16 UNL     1       4.773   9.422  11.296  1.00  0.00     0.008 C 
BRANCH  24  25
HETATM   25  C17 UNL     1       6.200   9.205  10.765  1.00  0.00     0.028 C 
BRANCH  25  26
HETATM   26  C18 UNL     1       7.139  10.340  11.057  1.00  0.00    -0.025 C 
HETATM   27  C19 UNL     1       7.870  10.552  12.170  1.00  0.00    -0.091 C 
HETATM   28  C20 UNL     1       7.864   9.683  13.396  1.00  0.00     0.042 C 
HETATM   29  C21 UNL     1       8.785  11.747  12.268  1.00  0.00     0.042 C 
ENDBRANCH  25  26
ENDBRANCH  24  25
ENDBRANCH  22  24
ENDBRANCH  11  22
BRANCH   1  30
HETATM   30  O2  UNL     1      -6.095   6.666  15.030  1.00  0.00    -0.316 OA
BRANCH  30  31
HETATM   31  C2  UNL     1      -7.426   6.487  15.257  1.00  0.00     0.255 C 
HETATM   32  C1  UNL     1      -7.808   7.103  16.567  1.00  0.00     0.126 C 
HETATM   33  O1  UNL     1      -8.212   5.923  14.508  1.00  0.00    -0.266 OA
ENDBRANCH  30  31
ENDBRANCH   1  30
TORSDOF 6
ENDMDL
MODEL 9
REMARK minimizedAffinity -7.86935711
REMARK  6 active torsions:
REMARK  status: ('A' for Active; 'I' for Inactive)
REMARK    1  A    between atoms: C2_2  and  O2_4 
REMARK    2  A    between atoms: O2_4  and  C3_5 
REMARK    3  A    between atoms: C13_15  and  C14_16 
REMARK    4  A    between atoms: C14_16  and  C16_18 
REMARK    5  A    between atoms: C16_18  and  C17_19 
REMARK    6  A    between atoms: C17_19  and  C18_20 
ROOT
HETATM    1  C3  UNL     1      -5.899   5.951  13.549  1.00  0.00     0.136 C 
HETATM    2  C4  UNL     1      -5.422   7.380  13.252  1.00  0.00     0.034 C 
HETATM    3  C5  UNL     1      -4.004   7.667  13.744  1.00  0.00     0.013 C 
HETATM    4  C6  UNL     1      -2.994   6.582  13.352  1.00  0.00    -0.027 A 
HETATM    5  C7  UNL     1      -1.984   6.288  14.440  1.00  0.00     0.021 A 
HETATM    6  C8  UNL     1      -1.484   6.888  13.142  1.00  0.00    -0.027 A 
HETATM    7  C9  UNL     1      -1.062   8.358  13.165  1.00  0.00     0.011 C 
HETATM    8  C10 UNL     1       0.442   8.678  13.068  1.00  0.00     0.011 C 
HETATM    9  C11 UNL     1       1.336   7.489  12.688  1.00  0.00    -0.032 C 
HETATM   10  C12 UNL     1       1.678   6.714  14.001  1.00  0.00     0.016 C 
HETATM   11  C13 UNL     1       2.669   7.830  11.936  1.00  0.00    -0.002 C 
HETATM   12  C22 UNL     1       2.981   6.500  11.186  1.00  0.00     0.006 C 
HETATM   13  C23 UNL     1       1.692   5.667  11.153  1.00  0.00     0.011 C 
HETATM   14  C24 UNL     1       0.578   6.624  11.617  1.00  0.00    -0.032 C 
HETATM   15  C25 UNL     1       0.115   7.413  10.353  1.00  0.00     0.016 C 
HETATM   16  C26 UNL     1      -0.628   5.915  12.290  1.00  0.00     0.004 C 
HETATM   17  C27 UNL     1      -1.482   5.074  11.331  1.00  0.00     0.006 C 
HETATM   18  C28 UNL     1      -2.616   4.384  12.087  1.00  0.00     0.006 C 
HETATM   19  C29 UNL     1      -3.630   5.429  12.563  1.00  0.00     0.001 C 
HETATM   20  C30 UNL     1      -4.789   4.875  13.418  1.00  0.00     0.016 C 
HETATM   21  C31 UNL     1      -5.392   3.573  12.887  1.00  0.00     0.013 C 
ENDROOT
BRANCH  11  22
HETATM   22  C14 UNL     1       3.897   8.352  12.743  1.00  0.00    -0.014 C 
HETATM   23  C15 UNL     1       5.090   7.393  12.638  1.00  0.00     0.010 C 
BRANCH  22  24
HETATM   24  C16 UNL     1       3.549   8.564  14.244  1.00  0.00     0.008 C 
BRANCH  24  25
HETATM   25  C17 UNL     1       3.380  10.042  14.635  1.00  0.00     0.028 C 
BRANCH  25  26
HETATM   26  C18 UNL     1       3.262  10.271  16.116  1.00  0.00    -0.025 C 
HETATM   27  C19 UNL     1       2.167  10.148  16.893  1.00  0.00    -0.091 C 
HETATM   28  C20 UNL     1       0.793   9.777  16.411  1.00  0.00     0.042 C 
HETATM   29  C21 UNL     1       2.252  10.398  18.378  1.00  0.00     0.042 C 
ENDBRANCH  25  26
ENDBRANCH  24  25
ENDBRANCH  22  24
ENDBRANCH  11  22
BRANCH   1  30
HETATM   30  O2  UNL     1      -6.414   5.879  14.899  1.00  0.00    -0.316 OA
BRANCH  30  31
HETATM   31  C2  UNL     1      -7.691   6.316  15.081  1.00  0.00     0.255 C 
HETATM   32  C1  UNL     1      -7.821   6.968  16.422  1.00  0.00     0.126 C 
HETATM   33  O1  UNL     1      -8.606   6.212  14.275  1.00  0.00    -0.266 OA
ENDBRANCH  30  31
ENDBRANCH   1  30
TORSDOF 6
ENDMDL
