MODEL 1
REMARK minimizedAffinity -8.44340706
REMARK CNNscore 0.712031543
REMARK CNNaffinity 7.29536676
REMARK  12 active torsions:
REMARK  status: ('A' for Active; 'I' for Inactive)
REMARK    1  A    between atoms: C5_5  and  C6_6 
REMARK    2  A    between atoms: C6_6  and  C8_8 
REMARK    3  A    between atoms: C8_8  and  O1_9 
REMARK    4  A    between atoms: C13_15  and  O3_17 
REMARK    5  A    between atoms: C18_21  and  O4_23 
REMARK    6  A    between atoms: O4_23  and  C20_24 
REMARK    7  A    between atoms: C20_24  and  C21_26 
REMARK    8  A    between atoms: C21_26  and  C22_27 
REMARK    9  A    between atoms: C21_26  and  O6_29 
REMARK   10  A    between atoms: O6_29  and  C24_30 
REMARK   11  A    between atoms: C24_30  and  C25_32 
REMARK   12  A    between atoms: C25_32  and  C26_33 
ROOT
HETATM    1  C1  UNL     1      -7.214   1.872  13.078  1.00  0.00     0.015 C 
HETATM    2  C2  UNL     1      -6.691   2.953  12.472  1.00  0.00    -0.077 C 
HETATM    3  C3  UNL     1      -6.397   2.953  10.993  1.00  0.00     0.034 C 
HETATM    4  C4  UNL     1      -5.203   3.841  10.633  1.00  0.00     0.010 C 
HETATM    5  C5  UNL     1      -4.161   3.960  11.762  1.00  0.00    -0.001 C 
HETATM    6  C9  UNL     1      -4.832   4.684  12.990  1.00  0.00     0.037 C 
HETATM    7  C10 UNL     1      -6.315   4.213  13.233  1.00  0.00     0.090 C 
HETATM    8  C11 UNL     1      -7.413   5.263  12.981  1.00  0.00     0.138 C 
HETATM    9  O2  UNL     1      -7.808   5.538  11.842  1.00  0.00    -0.297 OA
HETATM   10  C12 UNL     1      -8.083   5.931  14.184  1.00  0.00     0.119 C 
HETATM   11  C13 UNL     1      -7.189   6.286  15.396  1.00  0.00     0.087 C 
HETATM   12  C14 UNL     1      -7.939   7.295  16.287  1.00  0.00     0.049 C 
HETATM   13  C15 UNL     1      -5.789   6.891  15.012  1.00  0.00     0.156 C 
HETATM   14  C16 UNL     1      -4.588   6.244  15.720  1.00  0.00     0.038 C 
HETATM   15  C17 UNL     1      -3.230   6.501  15.061  1.00  0.00     0.043 C 
HETATM   16  C18 UNL     1      -3.295   6.819  13.545  1.00  0.00     0.093 C 
HETATM   17  C19 UNL     1      -3.248   8.367  13.419  1.00  0.00     0.049 C 
HETATM   18  C28 UNL     1      -4.623   6.249  12.952  1.00  0.00     0.162 C 
HETATM   19  O8  UNL     1      -5.686   6.961  13.590  1.00  0.00    -0.374 OA
ENDROOT
BRANCH  16  20
HETATM   20  O4  UNL     1      -2.082   6.256  12.975  1.00  0.00    -0.306 OA
BRANCH  20  21
HETATM   21  C20 UNL     1      -0.983   7.046  12.798  1.00  0.00     0.289 C 
HETATM   22  O5  UNL     1      -0.412   7.667  13.685  1.00  0.00    -0.262 OA
BRANCH  21  23
HETATM   23  C21 UNL     1      -0.540   7.027  11.328  1.00  0.00     0.231 C 
BRANCH  23  24
HETATM   24  C22 UNL     1      -0.246   5.593  10.865  1.00  0.00     0.038 C 
HETATM   25  C23 UNL     1       0.888   4.921  11.631  1.00  0.00     0.008 C 
ENDBRANCH  23  24
BRANCH  23  26
HETATM   26  O6  UNL     1       0.639   7.815  11.104  1.00  0.00    -0.306 OA
BRANCH  26  27
HETATM   27  C24 UNL     1       0.799   8.237   9.820  1.00  0.00     0.259 C 
HETATM   28  O7  UNL     1       0.012   8.953   9.217  1.00  0.00    -0.265 OA
BRANCH  27  29
HETATM   29  C25 UNL     1       2.068   7.683   9.230  1.00  0.00     0.111 C 
BRANCH  29  30
HETATM   30  C26 UNL     1       2.121   7.911   7.724  1.00  0.00     0.005 C 
HETATM   31  C27 UNL     1       2.155   6.595   6.964  1.00  0.00     0.005 C 
ENDBRANCH  29  30
ENDBRANCH  27  29
ENDBRANCH  26  27
ENDBRANCH  23  26
ENDBRANCH  21  23
ENDBRANCH  20  21
ENDBRANCH  16  20
BRANCH   5  32
HETATM   32  C6  UNL     1      -3.488   2.595  12.158  1.00  0.00     0.010 C 
HETATM   33  C7  UNL     1      -4.170   1.377  11.514  1.00  0.00     0.012 C 
BRANCH  32  34
HETATM   34  C8  UNL     1      -1.993   2.571  11.780  1.00  0.00     0.168 C 
BRANCH  34  35
HETATM   35  O1  UNL     1      -1.819   2.433  10.373  1.00  0.00    -0.400 OA
HETATM   36  H14 UNL     1      -2.330   1.656  10.088  1.00  0.00     0.209 HD
ENDBRANCH  34  35
ENDBRANCH  32  34
ENDBRANCH   5  32
BRANCH  11  37
HETATM   37  O3  UNL     1      -7.038   5.107  16.206  1.00  0.00    -0.387 OA
HETATM   38  H22 UNL     1      -7.913   4.855  16.551  1.00  0.00     0.210 HD
ENDBRANCH  11  37
TORSDOF 12
ENDMDL
MODEL 2
REMARK minimizedAffinity -6.94812965
REMARK CNNscore 0.508728266
REMARK CNNaffinity 5.91528463
REMARK  12 active torsions:
REMARK  status: ('A' for Active; 'I' for Inactive)
REMARK    1  A    between atoms: C5_5  and  C6_6 
REMARK    2  A    between atoms: C6_6  and  C8_8 
REMARK    3  A    between atoms: C8_8  and  O1_9 
REMARK    4  A    between atoms: C13_15  and  O3_17 
REMARK    5  A    between atoms: C18_21  and  O4_23 
REMARK    6  A    between atoms: O4_23  and  C20_24 
REMARK    7  A    between atoms: C20_24  and  C21_26 
REMARK    8  A    between atoms: C21_26  and  C22_27 
REMARK    9  A    between atoms: C21_26  and  O6_29 
REMARK   10  A    between atoms: O6_29  and  C24_30 
REMARK   11  A    between atoms: C24_30  and  C25_32 
REMARK   12  A    between atoms: C25_32  and  C26_33 
ROOT
HETATM    1  C1  UNL     1      -0.515   5.684  11.902  1.00  0.00     0.015 C 
HETATM    2  C2  UNL     1      -0.290   7.006  12.012  1.00  0.00    -0.077 C 
HETATM    3  C3  UNL     1       0.656   7.718  11.079  1.00  0.00     0.034 C 
HETATM    4  C4  UNL     1       1.352   8.908  11.746  1.00  0.00     0.010 C 
HETATM    5  C5  UNL     1       1.537   8.740  13.266  1.00  0.00    -0.001 C 
HETATM    6  C9  UNL     1       0.114   8.689  13.943  1.00  0.00     0.037 C 
HETATM    7  C10 UNL     1      -0.923   7.852  13.104  1.00  0.00     0.090 C 
HETATM    8  C11 UNL     1      -2.086   8.642  12.476  1.00  0.00     0.138 C 
HETATM    9  O2  UNL     1      -1.947   9.297  11.436  1.00  0.00    -0.297 OA
HETATM   10  C12 UNL     1      -3.471   8.553  13.121  1.00  0.00     0.119 C 
HETATM   11  C13 UNL     1      -3.540   8.523  14.666  1.00  0.00     0.087 C 
HETATM   12  C14 UNL     1      -4.981   8.850  15.103  1.00  0.00     0.049 C 
HETATM   13  C15 UNL     1      -2.555   9.520  15.378  1.00  0.00     0.156 C 
HETATM   14  C16 UNL     1      -1.712   8.904  16.505  1.00  0.00     0.038 C 
HETATM   15  C17 UNL     1      -0.472   9.709  16.904  1.00  0.00     0.043 C 
HETATM   16  C18 UNL     1       0.082  10.638  15.794  1.00  0.00     0.093 C 
HETATM   17  C19 UNL     1      -0.490  12.054  16.079  1.00  0.00     0.049 C 
HETATM   18  C28 UNL     1      -0.386  10.115  14.398  1.00  0.00     0.162 C 
HETATM   19  O8  UNL     1      -1.811  10.228  14.385  1.00  0.00    -0.374 OA
ENDROOT
BRANCH  16  20
HETATM   20  O4  UNL     1       1.523  10.658  15.984  1.00  0.00    -0.306 OA
BRANCH  20  21
HETATM   21  C20 UNL     1       2.071  10.080  17.094  1.00  0.00     0.289 C 
HETATM   22  O5  UNL     1       2.391   8.902  17.188  1.00  0.00    -0.262 OA
BRANCH  21  23
HETATM   23  C21 UNL     1       2.256  11.123  18.205  1.00  0.00     0.231 C 
BRANCH  23  24
HETATM   24  C22 UNL     1       3.175  12.261  17.738  1.00  0.00     0.038 C 
HETATM   25  C23 UNL     1       4.641  12.056  18.104  1.00  0.00     0.008 C 
ENDBRANCH  23  24
BRANCH  23  26
HETATM   26  O6  UNL     1       2.824  10.556  19.395  1.00  0.00    -0.306 OA
BRANCH  26  27
HETATM   27  C24 UNL     1       1.972  10.496  20.454  1.00  0.00     0.259 C 
HETATM   28  O7  UNL     1       0.755  10.413  20.366  1.00  0.00    -0.265 OA
BRANCH  27  29
HETATM   29  C25 UNL     1       2.727  10.572  21.753  1.00  0.00     0.111 C 
BRANCH  29  30
HETATM   30  C26 UNL     1       3.334   9.222  22.116  1.00  0.00     0.005 C 
HETATM   31  C27 UNL     1       2.418   8.430  23.036  1.00  0.00     0.005 C 
ENDBRANCH  29  30
ENDBRANCH  27  29
ENDBRANCH  26  27
ENDBRANCH  23  26
ENDBRANCH  21  23
ENDBRANCH  20  21
ENDBRANCH  16  20
BRANCH   5  32
HETATM   32  C6  UNL     1       2.443   7.521  13.670  1.00  0.00     0.010 C 
HETATM   33  C7  UNL     1       3.926   7.897  13.827  1.00  0.00     0.012 C 
BRANCH  32  34
HETATM   34  C8  UNL     1       1.966   6.872  14.986  1.00  0.00     0.168 C 
BRANCH  34  35
HETATM   35  O1  UNL     1       3.068   6.489  15.802  1.00  0.00    -0.400 OA
HETATM   36  H14 UNL     1       3.658   5.938  15.259  1.00  0.00     0.209 HD
ENDBRANCH  34  35
ENDBRANCH  32  34
ENDBRANCH   5  32
BRANCH  11  37
HETATM   37  O3  UNL     1      -3.312   7.171  15.102  1.00  0.00    -0.387 OA
HETATM   38  H22 UNL     1      -4.034   6.611  14.765  1.00  0.00     0.210 HD
ENDBRANCH  11  37
TORSDOF 12
ENDMDL
MODEL 3
REMARK minimizedAffinity -6.16996765
REMARK CNNscore 0.500343502
REMARK CNNaffinity 5.60494757
REMARK  12 active torsions:
REMARK  status: ('A' for Active; 'I' for Inactive)
REMARK    1  A    between atoms: C5_5  and  C6_6 
REMARK    2  A    between atoms: C6_6  and  C8_8 
REMARK    3  A    between atoms: C8_8  and  O1_9 
REMARK    4  A    between atoms: C13_15  and  O3_17 
REMARK    5  A    between atoms: C18_21  and  O4_23 
REMARK    6  A    between atoms: O4_23  and  C20_24 
REMARK    7  A    between atoms: C20_24  and  C21_26 
REMARK    8  A    between atoms: C21_26  and  C22_27 
REMARK    9  A    between atoms: C21_26  and  O6_29 
REMARK   10  A    between atoms: O6_29  and  C24_30 
REMARK   11  A    between atoms: C24_30  and  C25_32 
REMARK   12  A    between atoms: C25_32  and  C26_33 
ROOT
HETATM    1  C1  UNL     1      -1.275  16.128   4.643  1.00  0.00     0.015 C 
HETATM    2  C2  UNL     1      -1.142  15.220   3.660  1.00  0.00    -0.077 C 
HETATM    3  C3  UNL     1      -0.837  13.776   3.966  1.00  0.00     0.034 C 
HETATM    4  C4  UNL     1      -0.012  13.105   2.865  1.00  0.00     0.010 C 
HETATM    5  C5  UNL     1       0.904  14.080   2.100  1.00  0.00    -0.001 C 
HETATM    6  C9  UNL     1       0.001  15.121   1.335  1.00  0.00     0.037 C 
HETATM    7  C10 UNL     1      -1.235  15.591   2.189  1.00  0.00     0.090 C 
HETATM    8  C11 UNL     1      -2.621  15.156   1.679  1.00  0.00     0.138 C 
HETATM    9  O2  UNL     1      -3.064  14.018   1.875  1.00  0.00    -0.297 OA
HETATM   10  C12 UNL     1      -3.503  16.188   0.972  1.00  0.00     0.119 C 
HETATM   11  C13 UNL     1      -2.809  17.191   0.021  1.00  0.00     0.087 C 
HETATM   12  C14 UNL     1      -3.877  17.839  -0.881  1.00  0.00     0.049 C 
HETATM   13  C15 UNL     1      -1.693  16.557  -0.888  1.00  0.00     0.156 C 
HETATM   14  C16 UNL     1      -0.358  17.317  -0.900  1.00  0.00     0.038 C 
HETATM   15  C17 UNL     1       0.843  16.512  -1.406  1.00  0.00     0.043 C 
HETATM   16  C18 UNL     1       0.702  14.975  -1.256  1.00  0.00     0.093 C 
HETATM   17  C19 UNL     1       0.219  14.443  -2.633  1.00  0.00     0.049 C 
HETATM   18  C28 UNL     1      -0.337  14.656  -0.135  1.00  0.00     0.162 C 
HETATM   19  O8  UNL     1      -1.593  15.163  -0.597  1.00  0.00    -0.374 OA
ENDROOT
BRANCH  16  20
HETATM   20  O4  UNL     1       2.046  14.483  -0.998  1.00  0.00    -0.306 OA
BRANCH  20  21
HETATM   21  C20 UNL     1       3.015  14.621  -1.950  1.00  0.00     0.289 C 
HETATM   22  O5  UNL     1       2.899  15.263  -2.986  1.00  0.00    -0.262 OA
BRANCH  21  23
HETATM   23  C21 UNL     1       4.290  13.876  -1.527  1.00  0.00     0.231 C 
BRANCH  23  24
HETATM   24  C22 UNL     1       5.109  14.715  -0.536  1.00  0.00     0.038 C 
HETATM   25  C23 UNL     1       6.220  13.935   0.159  1.00  0.00     0.008 C 
ENDBRANCH  23  24
BRANCH  23  26
HETATM   26  O6  UNL     1       5.135  13.564  -2.646  1.00  0.00    -0.306 OA
BRANCH  26  27
HETATM   27  C24 UNL     1       5.105  12.259  -3.027  1.00  0.00     0.259 C 
HETATM   28  O7  UNL     1       5.605  11.336  -2.399  1.00  0.00    -0.265 OA
BRANCH  27  29
HETATM   29  C25 UNL     1       4.394  12.103  -4.344  1.00  0.00     0.111 C 
BRANCH  29  30
HETATM   30  C26 UNL     1       5.135  11.137  -5.260  1.00  0.00     0.005 C 
HETATM   31  C27 UNL     1       5.562  11.813  -6.553  1.00  0.00     0.005 C 
ENDBRANCH  29  30
ENDBRANCH  27  29
ENDBRANCH  26  27
ENDBRANCH  23  26
ENDBRANCH  21  23
ENDBRANCH  20  21
ENDBRANCH  16  20
BRANCH   5  32
HETATM   32  C6  UNL     1       1.995  14.769   2.997  1.00  0.00     0.010 C 
HETATM   33  C7  UNL     1       1.882  16.303   3.013  1.00  0.00     0.012 C 
BRANCH  32  34
HETATM   34  C8  UNL     1       1.935  14.263   4.452  1.00  0.00     0.168 C 
BRANCH  34  35
HETATM   35  O1  UNL     1       2.842  14.978   5.286  1.00  0.00    -0.400 OA
HETATM   36  H14 UNL     1       3.719  14.934   4.869  1.00  0.00     0.209 HD
ENDBRANCH  34  35
ENDBRANCH  32  34
ENDBRANCH   5  32
BRANCH  11  37
HETATM   37  O3  UNL     1      -2.279  18.270   0.812  1.00  0.00    -0.387 OA
HETATM   38  H22 UNL     1      -3.022  18.734   1.238  1.00  0.00     0.210 HD
ENDBRANCH  11  37
TORSDOF 12
ENDMDL
MODEL 4
REMARK minimizedAffinity -7.56884003
REMARK CNNscore 0.40526557
REMARK CNNaffinity 6.94269419
REMARK  12 active torsions:
REMARK  status: ('A' for Active; 'I' for Inactive)
REMARK    1  A    between atoms: C5_5  and  C6_6 
REMARK    2  A    between atoms: C6_6  and  C8_8 
REMARK    3  A    between atoms: C8_8  and  O1_9 
REMARK    4  A    between atoms: C13_15  and  O3_17 
REMARK    5  A    between atoms: C18_21  and  O4_23 
REMARK    6  A    between atoms: O4_23  and  C20_24 
REMARK    7  A    between atoms: C20_24  and  C21_26 
REMARK    8  A    between atoms: C21_26  and  C22_27 
REMARK    9  A    between atoms: C21_26  and  O6_29 
REMARK   10  A    between atoms: O6_29  and  C24_30 
REMARK   11  A    between atoms: C24_30  and  C25_32 
REMARK   12  A    between atoms: C25_32  and  C26_33 
ROOT
HETATM    1  C1  UNL     1      -7.061   1.505  12.810  1.00  0.00     0.015 C 
HETATM    2  C2  UNL     1      -6.637   2.652  12.250  1.00  0.00    -0.077 C 
HETATM    3  C3  UNL     1      -6.200   2.703  10.808  1.00  0.00     0.034 C 
HETATM    4  C4  UNL     1      -5.113   3.752  10.562  1.00  0.00     0.010 C 
HETATM    5  C5  UNL     1      -4.215   4.008  11.788  1.00  0.00    -0.001 C 
HETATM    6  C9  UNL     1      -5.099   4.623  12.938  1.00  0.00     0.037 C 
HETATM    7  C10 UNL     1      -6.518   3.948  13.036  1.00  0.00     0.090 C 
HETATM    8  C11 UNL     1      -7.722   4.835  12.669  1.00  0.00     0.138 C 
HETATM    9  O2  UNL     1      -8.036   5.059  11.494  1.00  0.00    -0.297 OA
HETATM   10  C12 UNL     1      -8.595   5.394  13.794  1.00  0.00     0.119 C 
HETATM   11  C13 UNL     1      -7.884   5.863  15.086  1.00  0.00     0.087 C 
HETATM   12  C14 UNL     1      -8.854   6.750  15.891  1.00  0.00     0.049 C 
HETATM   13  C15 UNL     1      -6.552   6.660  14.840  1.00  0.00     0.156 C 
HETATM   14  C16 UNL     1      -5.349   6.183  15.668  1.00  0.00     0.038 C 
HETATM   15  C17 UNL     1      -3.981   6.631  15.145  1.00  0.00     0.043 C 
HETATM   16  C18 UNL     1      -3.939   6.948  13.628  1.00  0.00     0.093 C 
HETATM   17  C19 UNL     1      -4.097   8.488  13.496  1.00  0.00     0.049 C 
HETATM   18  C28 UNL     1      -5.108   6.201  12.910  1.00  0.00     0.162 C 
HETATM   19  O8  UNL     1      -6.319   6.754  13.434  1.00  0.00    -0.374 OA
ENDROOT
BRANCH  16  20
HETATM   20  O4  UNL     1      -2.609   6.564  13.185  1.00  0.00    -0.306 OA
BRANCH  20  21
HETATM   21  C20 UNL     1      -1.538   7.361  13.476  1.00  0.00     0.289 C 
HETATM   22  O5  UNL     1      -1.336   8.470  12.999  1.00  0.00    -0.262 OA
BRANCH  21  23
HETATM   23  C21 UNL     1      -0.630   6.681  14.511  1.00  0.00     0.231 C 
BRANCH  23  24
HETATM   24  C22 UNL     1      -0.066   7.710  15.501  1.00  0.00     0.038 C 
HETATM   25  C23 UNL     1      -1.138   8.501  16.244  1.00  0.00     0.008 C 
ENDBRANCH  23  24
BRANCH  23  26
HETATM   26  O6  UNL     1       0.477   6.001  13.901  1.00  0.00    -0.306 OA
BRANCH  26  27
HETATM   27  C24 UNL     1       1.480   6.820  13.483  1.00  0.00     0.259 C 
HETATM   28  O7  UNL     1       1.900   7.785  14.106  1.00  0.00    -0.265 OA
BRANCH  27  29
HETATM   29  C25 UNL     1       1.991   6.392  12.133  1.00  0.00     0.111 C 
BRANCH  29  30
HETATM   30  C26 UNL     1       0.874   6.393  11.096  1.00  0.00     0.005 C 
HETATM   31  C27 UNL     1       1.426   6.515   9.685  1.00  0.00     0.005 C 
ENDBRANCH  29  30
ENDBRANCH  27  29
ENDBRANCH  26  27
ENDBRANCH  23  26
ENDBRANCH  21  23
ENDBRANCH  20  21
ENDBRANCH  16  20
BRANCH   5  32
HETATM   32  C6  UNL     1      -3.400   2.748  12.259  1.00  0.00     0.010 C 
HETATM   33  C7  UNL     1      -3.858   1.446  11.582  1.00  0.00     0.012 C 
BRANCH  32  34
HETATM   34  C8  UNL     1      -1.889   2.923  12.002  1.00  0.00     0.168 C 
BRANCH  34  35
HETATM   35  O1  UNL     1      -1.439   4.208  12.423  1.00  0.00    -0.400 OA
HETATM   36  H14 UNL     1      -2.011   4.872  11.999  1.00  0.00     0.209 HD
ENDBRANCH  34  35
ENDBRANCH  32  34
ENDBRANCH   5  32
BRANCH  11  37
HETATM   37  O3  UNL     1      -7.651   4.711  15.916  1.00  0.00    -0.387 OA
HETATM   38  H22 UNL     1      -8.513   4.336  16.174  1.00  0.00     0.210 HD
ENDBRANCH  11  37
TORSDOF 12
ENDMDL
MODEL 5
REMARK minimizedAffinity -5.26118803
REMARK CNNscore 0.390826285
REMARK CNNaffinity 6.13194609
REMARK  12 active torsions:
REMARK  status: ('A' for Active; 'I' for Inactive)
REMARK    1  A    between atoms: C5_5  and  C6_6 
REMARK    2  A    between atoms: C6_6  and  C8_8 
REMARK    3  A    between atoms: C8_8  and  O1_9 
REMARK    4  A    between atoms: C13_15  and  O3_17 
REMARK    5  A    between atoms: C18_21  and  O4_23 
REMARK    6  A    between atoms: O4_23  and  C20_24 
REMARK    7  A    between atoms: C20_24  and  C21_26 
REMARK    8  A    between atoms: C21_26  and  C22_27 
REMARK    9  A    between atoms: C21_26  and  O6_29 
REMARK   10  A    between atoms: O6_29  and  C24_30 
REMARK   11  A    between atoms: C24_30  and  C25_32 
REMARK   12  A    between atoms: C25_32  and  C26_33 
ROOT
HETATM    1  C1  UNL     1       1.097  16.679   4.643  1.00  0.00     0.015 C 
HETATM    2  C2  UNL     1       1.484  16.839   3.365  1.00  0.00    -0.077 C 
HETATM    3  C3  UNL     1       0.482  17.113   2.273  1.00  0.00     0.034 C 
HETATM    4  C4  UNL     1       0.914  16.537   0.923  1.00  0.00     0.010 C 
HETATM    5  C5  UNL     1       1.798  15.281   1.043  1.00  0.00    -0.001 C 
HETATM    6  C9  UNL     1       3.149  15.684   1.748  1.00  0.00     0.037 C 
HETATM    7  C10 UNL     1       2.934  16.702   2.929  1.00  0.00     0.090 C 
HETATM    8  C11 UNL     1       3.501  18.118   2.720  1.00  0.00     0.138 C 
HETATM    9  O2  UNL     1       2.913  18.964   2.036  1.00  0.00    -0.297 OA
HETATM   10  C12 UNL     1       4.793  18.509   3.441  1.00  0.00     0.119 C 
HETATM   11  C13 UNL     1       5.902  17.436   3.553  1.00  0.00     0.087 C 
HETATM   12  C14 UNL     1       7.228  18.130   3.919  1.00  0.00     0.049 C 
HETATM   13  C15 UNL     1       6.117  16.588   2.246  1.00  0.00     0.156 C 
HETATM   14  C16 UNL     1       6.159  15.067   2.461  1.00  0.00     0.038 C 
HETATM   15  C17 UNL     1       5.930  14.227   1.202  1.00  0.00     0.043 C 
HETATM   16  C18 UNL     1       5.126  14.939   0.084  1.00  0.00     0.093 C 
HETATM   17  C19 UNL     1       6.171  15.506  -0.916  1.00  0.00     0.049 C 
HETATM   18  C28 UNL     1       4.270  16.086   0.712  1.00  0.00     0.162 C 
HETATM   19  O8  UNL     1       5.200  17.032   1.247  1.00  0.00    -0.374 OA
ENDROOT
BRANCH  16  20
HETATM   20  O4  UNL     1       4.355  13.894  -0.570  1.00  0.00    -0.306 OA
BRANCH  20  21
HETATM   21  C20 UNL     1       4.876  13.240  -1.650  1.00  0.00     0.289 C 
HETATM   22  O5  UNL     1       5.796  12.434  -1.608  1.00  0.00    -0.262 OA
BRANCH  21  23
HETATM   23  C21 UNL     1       4.126  13.638  -2.930  1.00  0.00     0.231 C 
BRANCH  23  24
HETATM   24  C22 UNL     1       2.719  14.154  -2.599  1.00  0.00     0.038 C 
HETATM   25  C23 UNL     1       2.554  15.657  -2.792  1.00  0.00     0.008 C 
ENDBRANCH  23  24
BRANCH  23  26
HETATM   26  O6  UNL     1       3.991  12.540  -3.845  1.00  0.00    -0.306 OA
BRANCH  26  27
HETATM   27  C24 UNL     1       4.727  12.660  -4.983  1.00  0.00     0.259 C 
HETATM   28  O7  UNL     1       5.110  13.720  -5.458  1.00  0.00    -0.265 OA
BRANCH  27  29
HETATM   29  C25 UNL     1       4.989  11.310  -5.595  1.00  0.00     0.111 C 
BRANCH  29  30
HETATM   30  C26 UNL     1       6.413  11.216  -6.130  1.00  0.00     0.005 C 
HETATM   31  C27 UNL     1       6.452  10.533  -7.488  1.00  0.00     0.005 C 
ENDBRANCH  29  30
ENDBRANCH  27  29
ENDBRANCH  26  27
ENDBRANCH  23  26
ENDBRANCH  21  23
ENDBRANCH  20  21
ENDBRANCH  16  20
BRANCH   5  32
HETATM   32  C6  UNL     1       1.090  14.065   1.743  1.00  0.00     0.010 C 
HETATM   33  C7  UNL     1       1.711  13.706   3.103  1.00  0.00     0.012 C 
BRANCH  32  34
HETATM   34  C8  UNL     1      -0.415  14.329   1.951  1.00  0.00     0.168 C 
BRANCH  34  35
HETATM   35  O1  UNL     1      -1.200  13.633   0.987  1.00  0.00    -0.400 OA
HETATM   36  H14 UNL     1      -0.857  13.866   0.107  1.00  0.00     0.209 HD
ENDBRANCH  34  35
ENDBRANCH  32  34
ENDBRANCH   5  32
BRANCH  11  37
HETATM   37  O3  UNL     1       5.599  16.588   4.675  1.00  0.00    -0.387 OA
HETATM   38  H22 UNL     1       5.628  17.127   5.486  1.00  0.00     0.210 HD
ENDBRANCH  11  37
TORSDOF 12
ENDMDL
MODEL 6
REMARK minimizedAffinity -5.55997324
REMARK CNNscore 0.37469542
REMARK CNNaffinity 5.86227751
REMARK  12 active torsions:
REMARK  status: ('A' for Active; 'I' for Inactive)
REMARK    1  A    between atoms: C5_5  and  C6_6 
REMARK    2  A    between atoms: C6_6  and  C8_8 
REMARK    3  A    between atoms: C8_8  and  O1_9 
REMARK    4  A    between atoms: C13_15  and  O3_17 
REMARK    5  A    between atoms: C18_21  and  O4_23 
REMARK    6  A    between atoms: O4_23  and  C20_24 
REMARK    7  A    between atoms: C20_24  and  C21_26 
REMARK    8  A    between atoms: C21_26  and  C22_27 
REMARK    9  A    between atoms: C21_26  and  O6_29 
REMARK   10  A    between atoms: O6_29  and  C24_30 
REMARK   11  A    between atoms: C24_30  and  C25_32 
REMARK   12  A    between atoms: C25_32  and  C26_33 
ROOT
HETATM    1  C1  UNL     1     -19.255   0.405  16.613  1.00  0.00     0.015 C 
HETATM    2  C2  UNL     1     -17.944   0.127  16.496  1.00  0.00    -0.077 C 
HETATM    3  C3  UNL     1     -16.913   1.226  16.463  1.00  0.00     0.034 C 
HETATM    4  C4  UNL     1     -15.691   0.858  15.617  1.00  0.00     0.010 C 
HETATM    5  C5  UNL     1     -16.009  -0.118  14.468  1.00  0.00    -0.001 C 
HETATM    6  C9  UNL     1     -16.483  -1.487  15.088  1.00  0.00     0.037 C 
HETATM    7  C10 UNL     1     -17.422  -1.291  16.337  1.00  0.00     0.090 C 
HETATM    8  C11 UNL     1     -16.852  -1.741  17.695  1.00  0.00     0.138 C 
HETATM    9  O2  UNL     1     -16.052  -1.046  18.332  1.00  0.00    -0.297 OA
HETATM   10  C12 UNL     1     -17.350  -3.054  18.304  1.00  0.00     0.119 C 
HETATM   11  C13 UNL     1     -17.598  -4.240  17.343  1.00  0.00     0.087 C 
HETATM   12  C14 UNL     1     -17.680  -5.538  18.169  1.00  0.00     0.049 C 
HETATM   13  C15 UNL     1     -16.500  -4.414  16.231  1.00  0.00     0.156 C 
HETATM   14  C16 UNL     1     -17.044  -4.578  14.803  1.00  0.00     0.038 C 
HETATM   15  C17 UNL     1     -16.029  -4.313  13.688  1.00  0.00     0.043 C 
HETATM   16  C18 UNL     1     -14.857  -3.379  14.085  1.00  0.00     0.093 C 
HETATM   17  C19 UNL     1     -13.666  -4.303  14.461  1.00  0.00     0.049 C 
HETATM   18  C28 UNL     1     -15.287  -2.496  15.300  1.00  0.00     0.162 C 
HETATM   19  O8  UNL     1     -15.513  -3.395  16.389  1.00  0.00    -0.374 OA
ENDROOT
BRANCH  16  20
HETATM   20  O4  UNL     1     -14.524  -2.636  12.881  1.00  0.00    -0.306 OA
BRANCH  20  21
HETATM   21  C20 UNL     1     -15.114  -2.964  11.694  1.00  0.00     0.289 C 
HETATM   22  O5  UNL     1     -16.227  -2.600  11.337  1.00  0.00    -0.262 OA
BRANCH  21  23
HETATM   23  C21 UNL     1     -14.173  -3.837  10.851  1.00  0.00     0.231 C 
BRANCH  23  24
HETATM   24  C22 UNL     1     -13.722  -3.090   9.588  1.00  0.00     0.038 C 
HETATM   25  C23 UNL     1     -14.572  -3.393   8.358  1.00  0.00     0.008 C 
ENDBRANCH  23  24
BRANCH  23  26
HETATM   26  O6  UNL     1     -14.792  -5.066  10.441  1.00  0.00    -0.306 OA
BRANCH  26  27
HETATM   27  C24 UNL     1     -13.968  -6.149  10.471  1.00  0.00     0.259 C 
HETATM   28  O7  UNL     1     -13.757  -6.892   9.522  1.00  0.00    -0.265 OA
BRANCH  27  29
HETATM   29  C25 UNL     1     -13.369  -6.326  11.839  1.00  0.00     0.111 C 
BRANCH  29  30
HETATM   30  C26 UNL     1     -12.653  -7.667  11.958  1.00  0.00     0.005 C 
HETATM   31  C27 UNL     1     -13.466  -8.660  12.773  1.00  0.00     0.005 C 
ENDBRANCH  29  30
ENDBRANCH  27  29
ENDBRANCH  26  27
ENDBRANCH  23  26
ENDBRANCH  21  23
ENDBRANCH  20  21
ENDBRANCH  16  20
BRANCH   5  32
HETATM   32  C6  UNL     1     -17.023   0.449  13.409  1.00  0.00     0.010 C 
HETATM   33  C7  UNL     1     -17.463   1.892  13.707  1.00  0.00     0.012 C 
BRANCH  32  34
HETATM   34  C8  UNL     1     -16.435   0.407  11.983  1.00  0.00     0.168 C 
BRANCH  34  35
HETATM   35  O1  UNL     1     -17.424   0.033  11.028  1.00  0.00    -0.400 OA
HETATM   36  H14 UNL     1     -17.828  -0.797  11.334  1.00  0.00     0.209 HD
ENDBRANCH  34  35
ENDBRANCH  32  34
ENDBRANCH   5  32
BRANCH  11  37
HETATM   37  O3  UNL     1     -18.903  -4.082  16.759  1.00  0.00    -0.387 OA
HETATM   38  H22 UNL     1     -19.568  -4.135  17.469  1.00  0.00     0.210 HD
ENDBRANCH  11  37
TORSDOF 12
ENDMDL
MODEL 7
REMARK minimizedAffinity -7.01878929
REMARK CNNscore 0.34470886
REMARK CNNaffinity 5.99853468
REMARK  12 active torsions:
REMARK  status: ('A' for Active; 'I' for Inactive)
REMARK    1  A    between atoms: C5_5  and  C6_6 
REMARK    2  A    between atoms: C6_6  and  C8_8 
REMARK    3  A    between atoms: C8_8  and  O1_9 
REMARK    4  A    between atoms: C13_15  and  O3_17 
REMARK    5  A    between atoms: C18_21  and  O4_23 
REMARK    6  A    between atoms: O4_23  and  C20_24 
REMARK    7  A    between atoms: C20_24  and  C21_26 
REMARK    8  A    between atoms: C21_26  and  C22_27 
REMARK    9  A    between atoms: C21_26  and  O6_29 
REMARK   10  A    between atoms: O6_29  and  C24_30 
REMARK   11  A    between atoms: C24_30  and  C25_32 
REMARK   12  A    between atoms: C25_32  and  C26_33 
ROOT
HETATM    1  C1  UNL     1      -4.191   8.379  12.784  1.00  0.00     0.015 C 
HETATM    2  C2  UNL     1      -3.345   7.815  13.664  1.00  0.00    -0.077 C 
HETATM    3  C3  UNL     1      -3.830   7.304  14.997  1.00  0.00     0.034 C 
HETATM    4  C4  UNL     1      -2.764   7.415  16.090  1.00  0.00     0.010 C 
HETATM    5  C5  UNL     1      -1.777   8.578  15.873  1.00  0.00    -0.001 C 
HETATM    6  C9  UNL     1      -0.959   8.302  14.554  1.00  0.00     0.037 C 
HETATM    7  C10 UNL     1      -1.851   7.704  13.404  1.00  0.00     0.090 C 
HETATM    8  C11 UNL     1      -1.550   6.250  12.993  1.00  0.00     0.138 C 
HETATM    9  O2  UNL     1      -1.955   5.286  13.653  1.00  0.00    -0.297 OA
HETATM   10  C12 UNL     1      -0.788   5.995  11.690  1.00  0.00     0.119 C 
HETATM   11  C13 UNL     1       0.364   6.964  11.334  1.00  0.00     0.087 C 
HETATM   12  C14 UNL     1       1.242   6.311  10.250  1.00  0.00     0.049 C 
HETATM   13  C15 UNL     1       1.275   7.363  12.552  1.00  0.00     0.156 C 
HETATM   14  C16 UNL     1       1.531   8.871  12.702  1.00  0.00     0.038 C 
HETATM   15  C17 UNL     1       2.027   9.311  14.082  1.00  0.00     0.043 C 
HETATM   16  C18 UNL     1       1.639   8.361  15.245  1.00  0.00     0.093 C 
HETATM   17  C19 UNL     1       2.868   7.442  15.490  1.00  0.00     0.049 C 
HETATM   18  C28 UNL     1       0.386   7.523  14.833  1.00  0.00     0.162 C 
HETATM   19  O8  UNL     1       0.792   6.712  13.727  1.00  0.00    -0.374 OA
ENDROOT
BRANCH  16  20
HETATM   20  O4  UNL     1       1.444   9.218  16.402  1.00  0.00    -0.306 OA
BRANCH  20  21
HETATM   21  C20 UNL     1       2.526   9.760  17.037  1.00  0.00     0.289 C 
HETATM   22  O5  UNL     1       3.684   9.675  16.651  1.00  0.00    -0.262 OA
BRANCH  21  23
HETATM   23  C21 UNL     1       2.082  10.520  18.296  1.00  0.00     0.231 C 
BRANCH  23  24
HETATM   24  C22 UNL     1       1.975  12.025  18.016  1.00  0.00     0.038 C 
HETATM   25  C23 UNL     1       0.599  12.609  18.316  1.00  0.00     0.008 C 
ENDBRANCH  23  24
BRANCH  23  26
HETATM   26  O6  UNL     1       2.993  10.338  19.391  1.00  0.00    -0.306 OA
BRANCH  26  27
HETATM   27  C24 UNL     1       2.396  10.214  20.607  1.00  0.00     0.259 C 
HETATM   28  O7  UNL     1       1.188  10.237  20.797  1.00  0.00    -0.265 OA
BRANCH  27  29
HETATM   29  C25 UNL     1       3.425  10.069  21.695  1.00  0.00     0.111 C 
BRANCH  29  30
HETATM   30  C26 UNL     1       2.812   9.470  22.956  1.00  0.00     0.005 C 
HETATM   31  C27 UNL     1       2.214   8.099  22.686  1.00  0.00     0.005 C 
ENDBRANCH  29  30
ENDBRANCH  27  29
ENDBRANCH  26  27
ENDBRANCH  23  26
ENDBRANCH  21  23
ENDBRANCH  20  21
ENDBRANCH  16  20
BRANCH   5  32
HETATM   32  C6  UNL     1      -2.449   9.999  15.881  1.00  0.00     0.010 C 
HETATM   33  C7  UNL     1      -2.875  10.456  17.286  1.00  0.00     0.012 C 
BRANCH  32  34
HETATM   34  C8  UNL     1      -1.515  11.071  15.284  1.00  0.00     0.168 C 
BRANCH  34  35
HETATM   35  O1  UNL     1      -1.967  11.494  14.001  1.00  0.00    -0.400 OA
HETATM   36  H14 UNL     1      -2.086  10.697  13.455  1.00  0.00     0.209 HD
ENDBRANCH  34  35
ENDBRANCH  32  34
ENDBRANCH   5  32
BRANCH  11  37
HETATM   37  O3  UNL     1      -0.202   8.129  10.709  1.00  0.00    -0.387 OA
HETATM   38  H22 UNL     1      -0.626   7.857   9.875  1.00  0.00     0.210 HD
ENDBRANCH  11  37
TORSDOF 12
ENDMDL
MODEL 8
REMARK minimizedAffinity -7.63342237
REMARK CNNscore 0.33274433
REMARK CNNaffinity 6.71083307
REMARK  12 active torsions:
REMARK  status: ('A' for Active; 'I' for Inactive)
REMARK    1  A    between atoms: C5_5  and  C6_6 
REMARK    2  A    between atoms: C6_6  and  C8_8 
REMARK    3  A    between atoms: C8_8  and  O1_9 
REMARK    4  A    between atoms: C13_15  and  O3_17 
REMARK    5  A    between atoms: C18_21  and  O4_23 
REMARK    6  A    between atoms: O4_23  and  C20_24 
REMARK    7  A    between atoms: C20_24  and  C21_26 
REMARK    8  A    between atoms: C21_26  and  C22_27 
REMARK    9  A    between atoms: C21_26  and  O6_29 
REMARK   10  A    between atoms: O6_29  and  C24_30 
REMARK   11  A    between atoms: C24_30  and  C25_32 
REMARK   12  A    between atoms: C25_32  and  C26_33 
ROOT
HETATM    1  C1  UNL     1       0.883   6.255  10.126  1.00  0.00     0.015 C 
HETATM    2  C2  UNL     1       0.413   5.781  11.293  1.00  0.00    -0.077 C 
HETATM    3  C3  UNL     1       0.818   4.422  11.804  1.00  0.00     0.034 C 
HETATM    4  C4  UNL     1      -0.283   3.756  12.634  1.00  0.00     0.010 C 
HETATM    5  C5  UNL     1      -1.706   4.181  12.224  1.00  0.00    -0.001 C 
HETATM    6  C9  UNL     1      -1.874   5.721  12.514  1.00  0.00     0.037 C 
HETATM    7  C10 UNL     1      -0.587   6.549  12.142  1.00  0.00     0.090 C 
HETATM    8  C11 UNL     1       0.178   7.182  13.318  1.00  0.00     0.138 C 
HETATM    9  O2  UNL     1       0.947   6.525  14.030  1.00  0.00    -0.297 OA
HETATM   10  C12 UNL     1       0.037   8.686  13.565  1.00  0.00     0.119 C 
HETATM   11  C13 UNL     1      -1.360   9.317  13.358  1.00  0.00     0.087 C 
HETATM   12  C14 UNL     1      -1.387  10.697  14.042  1.00  0.00     0.049 C 
HETATM   13  C15 UNL     1      -2.550   8.452  13.913  1.00  0.00     0.156 C 
HETATM   14  C16 UNL     1      -3.715   8.247  12.932  1.00  0.00     0.038 C 
HETATM   15  C17 UNL     1      -4.653   7.085  13.270  1.00  0.00     0.043 C 
HETATM   16  C18 UNL     1      -4.011   5.963  14.127  1.00  0.00     0.093 C 
HETATM   17  C19 UNL     1      -4.415   6.249  15.599  1.00  0.00     0.049 C 
HETATM   18  C28 UNL     1      -2.459   6.001  13.953  1.00  0.00     0.162 C 
HETATM   19  O8  UNL     1      -2.027   7.255  14.488  1.00  0.00    -0.374 OA
ENDROOT
BRANCH  16  20
HETATM   20  O4  UNL     1      -4.642   4.728  13.689  1.00  0.00    -0.306 OA
BRANCH  20  21
HETATM   21  C20 UNL     1      -5.796   4.775  12.961  1.00  0.00     0.289 C 
HETATM   22  O5  UNL     1      -5.858   4.766  11.738  1.00  0.00    -0.262 OA
BRANCH  21  23
HETATM   23  C21 UNL     1      -7.016   4.815  13.893  1.00  0.00     0.231 C 
BRANCH  23  24
HETATM   24  C22 UNL     1      -8.103   3.844  13.410  1.00  0.00     0.038 C 
HETATM   25  C23 UNL     1      -7.574   2.462  13.044  1.00  0.00     0.008 C 
ENDBRANCH  23  24
BRANCH  23  26
HETATM   26  O6  UNL     1      -7.598   6.125  13.973  1.00  0.00    -0.306 OA
BRANCH  26  27
HETATM   27  C24 UNL     1      -8.391   6.324  15.061  1.00  0.00     0.259 C 
HETATM   28  O7  UNL     1      -8.273   5.737  16.127  1.00  0.00    -0.265 OA
BRANCH  27  29
HETATM   29  C25 UNL     1      -9.451   7.351  14.768  1.00  0.00     0.111 C 
BRANCH  29  30
HETATM   30  C26 UNL     1     -10.463   6.824  13.757  1.00  0.00     0.005 C 
HETATM   31  C27 UNL     1     -11.860   6.754  14.353  1.00  0.00     0.005 C 
ENDBRANCH  29  30
ENDBRANCH  27  29
ENDBRANCH  26  27
ENDBRANCH  23  26
ENDBRANCH  21  23
ENDBRANCH  20  21
ENDBRANCH  16  20
BRANCH   5  32
HETATM   32  C6  UNL     1      -2.088   3.798  10.747  1.00  0.00     0.010 C 
HETATM   33  C7  UNL     1      -1.570   2.412  10.331  1.00  0.00     0.012 C 
BRANCH  32  34
HETATM   34  C8  UNL     1      -3.615   3.832  10.531  1.00  0.00     0.168 C 
BRANCH  34  35
HETATM   35  O1  UNL     1      -4.188   2.539  10.701  1.00  0.00    -0.400 OA
HETATM   36  H14 UNL     1      -3.702   1.924  10.125  1.00  0.00     0.209 HD
ENDBRANCH  34  35
ENDBRANCH  32  34
ENDBRANCH   5  32
BRANCH  11  37
HETATM   37  O3  UNL     1      -1.530   9.588  11.955  1.00  0.00    -0.387 OA
HETATM   38  H22 UNL     1      -0.866  10.249  11.686  1.00  0.00     0.210 HD
ENDBRANCH  11  37
TORSDOF 12
ENDMDL
MODEL 9
REMARK minimizedAffinity -6.21871758
REMARK CNNscore 0.306914896
REMARK CNNaffinity 6.02189302
REMARK  12 active torsions:
REMARK  status: ('A' for Active; 'I' for Inactive)
REMARK    1  A    between atoms: C5_5  and  C6_6 
REMARK    2  A    between atoms: C6_6  and  C8_8 
REMARK    3  A    between atoms: C8_8  and  O1_9 
REMARK    4  A    between atoms: C13_15  and  O3_17 
REMARK    5  A    between atoms: C18_21  and  O4_23 
REMARK    6  A    between atoms: O4_23  and  C20_24 
REMARK    7  A    between atoms: C20_24  and  C21_26 
REMARK    8  A    between atoms: C21_26  and  C22_27 
REMARK    9  A    between atoms: C21_26  and  O6_29 
REMARK   10  A    between atoms: O6_29  and  C24_30 
REMARK   11  A    between atoms: C24_30  and  C25_32 
REMARK   12  A    between atoms: C25_32  and  C26_33 
ROOT
HETATM    1  C1  UNL     1      13.752  10.700  13.690  1.00  0.00     0.015 C 
HETATM    2  C2  UNL     1      12.813  11.580  14.083  1.00  0.00    -0.077 C 
HETATM    3  C3  UNL     1      12.984  13.060  13.852  1.00  0.00     0.034 C 
HETATM    4  C4  UNL     1      12.309  13.904  14.936  1.00  0.00     0.010 C 
HETATM    5  C5  UNL     1      12.240  13.205  16.307  1.00  0.00    -0.001 C 
HETATM    6  C9  UNL     1      11.323  11.930  16.175  1.00  0.00     0.037 C 
HETATM    7  C10 UNL     1      11.557  11.155  14.825  1.00  0.00     0.090 C 
HETATM    8  C11 UNL     1      10.389  11.167  13.822  1.00  0.00     0.138 C 
HETATM    9  O2  UNL     1      10.162  12.139  13.092  1.00  0.00    -0.297 OA
HETATM   10  C12 UNL     1       9.530   9.908  13.676  1.00  0.00     0.119 C 
HETATM   11  C13 UNL     1       9.200   9.114  14.962  1.00  0.00     0.087 C 
HETATM   12  C14 UNL     1       8.022   8.166  14.670  1.00  0.00     0.049 C 
HETATM   13  C15 UNL     1       8.835  10.011  16.201  1.00  0.00     0.156 C 
HETATM   14  C16 UNL     1       9.580   9.658  17.498  1.00  0.00     0.038 C 
HETATM   15  C17 UNL     1       9.577  10.754  18.568  1.00  0.00     0.043 C 
HETATM   16  C18 UNL     1       9.386  12.192  18.022  1.00  0.00     0.093 C 
HETATM   17  C19 UNL     1       7.878  12.527  18.183  1.00  0.00     0.049 C 
HETATM   18  C28 UNL     1       9.813  12.238  16.520  1.00  0.00     0.162 C 
HETATM   19  O8  UNL     1       8.905  11.384  15.819  1.00  0.00    -0.374 OA
ENDROOT
BRANCH  16  20
HETATM   20  O4  UNL     1      10.163  13.050  18.901  1.00  0.00    -0.306 OA
BRANCH  20  21
HETATM   21  C20 UNL     1      10.331  12.706  20.212  1.00  0.00     0.289 C 
HETATM   22  O5  UNL     1      11.145  11.892  20.628  1.00  0.00    -0.262 OA
BRANCH  21  23
HETATM   23  C21 UNL     1       9.371  13.508  21.103  1.00  0.00     0.231 C 
BRANCH  23  24
HETATM   24  C22 UNL     1       9.566  15.017  20.897  1.00  0.00     0.038 C 
HETATM   25  C23 UNL     1       8.260  15.798  20.796  1.00  0.00     0.008 C 
ENDBRANCH  23  24
BRANCH  23  26
HETATM   26  O6  UNL     1       9.557  13.225  22.498  1.00  0.00    -0.306 OA
BRANCH  26  27
HETATM   27  C24 UNL     1       8.637  12.375  23.029  1.00  0.00     0.259 C 
HETATM   28  O7  UNL     1       8.860  11.216  23.351  1.00  0.00    -0.265 OA
BRANCH  27  29
HETATM   29  C25 UNL     1       7.294  13.045  23.144  1.00  0.00     0.111 C 
BRANCH  29  30
HETATM   30  C26 UNL     1       6.279  12.410  22.202  1.00  0.00     0.005 C 
HETATM   31  C27 UNL     1       5.417  11.385  22.923  1.00  0.00     0.005 C 
ENDBRANCH  29  30
ENDBRANCH  27  29
ENDBRANCH  26  27
ENDBRANCH  23  26
ENDBRANCH  21  23
ENDBRANCH  20  21
ENDBRANCH  16  20
BRANCH   5  32
HETATM   32  C6  UNL     1      13.646  12.878  16.930  1.00  0.00     0.010 C 
HETATM   33  C7  UNL     1      14.320  14.101  17.573  1.00  0.00     0.012 C 
BRANCH  32  34
HETATM   34  C8  UNL     1      13.548  11.763  17.992  1.00  0.00     0.168 C 
BRANCH  34  35
HETATM   35  O1  UNL     1      14.359  10.645  17.644  1.00  0.00    -0.400 OA
HETATM   36  H14 UNL     1      14.118  10.378  16.740  1.00  0.00     0.209 HD
ENDBRANCH  34  35
ENDBRANCH  32  34
ENDBRANCH   5  32
BRANCH  11  37
HETATM   37  O3  UNL     1      10.313   8.252  15.258  1.00  0.00    -0.387 OA
HETATM   38  H22 UNL     1      10.408   7.609  14.532  1.00  0.00     0.210 HD
ENDBRANCH  11  37
TORSDOF 12
ENDMDL
