MODEL 1
REMARK minimizedAffinity -9.29742813
REMARK CNNscore 0.579904437
REMARK CNNaffinity 6.70097303
REMARK  14 active torsions:
REMARK  status: ('A' for Active; 'I' for Inactive)
REMARK    1  A    between atoms: O1_2  and  C2_3 
REMARK    2  A    between atoms: C2_3  and  C3_5 
REMARK    3  A    between atoms: C3_5  and  C4_6 
REMARK    4  A    between atoms: C3_5  and  N2_16 
REMARK    5  A    between atoms: C4_6  and  C5_7 
REMARK       I    between atoms: N2_16  and  C13_17 
REMARK    6  A    between atoms: C13_17  and  C14_19 
REMARK    7  A    between atoms: C14_19  and  C15_20 
REMARK    8  A    between atoms: C15_20  and  C16_21 
REMARK    9  A    between atoms: C16_21  and  O5_23 
REMARK   10  A    between atoms: O5_23  and  C17_24 
REMARK   11  A    between atoms: C17_24  and  C18_25 
REMARK   12  A    between atoms: C18_25  and  C19_27 
REMARK   13  A    between atoms: C19_27  and  O7_28 
REMARK   14  A    between atoms: C34_44  and  O9_45 
ROOT
HETATM    1  C17 UNL     1      -8.936  48.135 -29.643  1.00  0.00     0.260 C 
ENDROOT
BRANCH   1   2
HETATM    2  O5  UNL     1      -7.619  48.417 -29.158  1.00  0.00    -0.314 OA
BRANCH   2   3
HETATM    3  C16 UNL     1      -6.630  47.828 -29.886  1.00  0.00     0.259 C 
HETATM    4  O4  UNL     1      -6.807  47.231 -30.940  1.00  0.00    -0.265 OA
BRANCH   3   5
HETATM    5  C15 UNL     1      -5.290  48.007 -29.226  1.00  0.00     0.120 C 
BRANCH   5   6
HETATM    6  C14 UNL     1      -5.452  47.895 -27.716  1.00  0.00     0.112 C 
BRANCH   6   7
HETATM    7  C13 UNL     1      -4.270  48.470 -26.971  1.00  0.00     0.218 C 
HETATM    8  N2  UNL     1      -4.638  49.157 -25.840  1.00  0.00    -0.347 N 
HETATM    9  H13 UNL     1      -5.621  49.273 -25.609  1.00  0.00     0.163 HD
HETATM   10  O3  UNL     1      -3.105  48.340 -27.329  1.00  0.00    -0.274 OA
BRANCH   8  11
HETATM   11  C3  UNL     1      -3.662  49.791 -24.940  1.00  0.00     0.188 C 
BRANCH  11  12
HETATM   12  C2  UNL     1      -4.379  50.013 -23.608  1.00  0.00     0.281 C 
HETATM   13  O2  UNL     1      -5.519  50.460 -23.519  1.00  0.00    -0.263 OA
BRANCH  12  14
HETATM   14  O1  UNL     1      -3.596  49.647 -22.557  1.00  0.00    -0.325 OA
HETATM   15  C1  UNL     1      -3.244  48.264 -22.534  1.00  0.00     0.213 C 
ENDBRANCH  12  14
ENDBRANCH  11  12
BRANCH  11  16
HETATM   16  C4  UNL     1      -3.163  51.128 -25.506  1.00  0.00     0.076 C 
BRANCH  16  17
HETATM   17  C5  UNL     1      -1.712  51.392 -25.235  1.00  0.00    -0.028 A 
HETATM   18  C6  UNL     1      -1.139  51.590 -23.995  1.00  0.00     0.096 A 
HETATM   19  N1  UNL     1       0.198  51.822 -24.169  1.00  0.00    -0.365 N 
HETATM   20  C7  UNL     1       0.519  51.774 -25.505  1.00  0.00     0.042 A 
HETATM   21  H8  UNL     1       0.860  52.002 -23.427  1.00  0.00     0.165 HD
HETATM   22  C8  UNL     1       1.752  51.953 -26.142  1.00  0.00     0.030 A 
HETATM   23  C12 UNL     1      -0.660  51.504 -26.201  1.00  0.00    -0.002 A 
HETATM   24  C9  UNL     1       1.782  51.854 -27.535  1.00  0.00     0.002 A 
HETATM   25  C10 UNL     1       0.625  51.584 -28.260  1.00  0.00     0.001 A 
HETATM   26  C11 UNL     1      -0.600  51.408 -27.607  1.00  0.00     0.014 A 
ENDBRANCH  16  17
ENDBRANCH  11  16
ENDBRANCH   8  11
ENDBRANCH   6   7
ENDBRANCH   5   6
ENDBRANCH   3   5
ENDBRANCH   2   3
ENDBRANCH   1   2
BRANCH   1  27
HETATM   27  C18 UNL     1      -9.766  47.388 -28.603  1.00  0.00     0.185 C 
HETATM   28  O6  UNL     1      -9.439  47.370 -27.406  1.00  0.00    -0.292 OA
BRANCH  27  29
HETATM   29  C19 UNL     1     -11.054  46.660 -29.032  1.00  0.00     0.128 C 
HETATM   30  C20 UNL     1     -12.159  47.510 -29.671  1.00  0.00     0.047 C 
HETATM   31  C21 UNL     1     -13.475  46.768 -29.392  1.00  0.00     0.009 C 
HETATM   32  C22 UNL     1     -13.113  45.527 -28.557  1.00  0.00     0.002 C 
HETATM   33  C23 UNL     1     -14.207  45.033 -27.587  1.00  0.00    -0.002 C 
HETATM   34  C36 UNL     1     -11.778  45.901 -27.874  1.00  0.00     0.001 C 
HETATM   35  C24 UNL     1     -15.496  44.707 -28.358  1.00  0.00     0.010 C 
HETATM   36  C33 UNL     1     -14.460  45.987 -26.377  1.00  0.00     0.035 C 
HETATM   37  C25 UNL     1     -16.554  44.109 -27.445  1.00  0.00     0.036 C 
HETATM   38  C26 UNL     1     -16.827  45.059 -26.311  1.00  0.00    -0.064 A 
HETATM   39  C27 UNL     1     -18.068  45.553 -26.148  1.00  0.00     0.058 A 
HETATM   40  C31 UNL     1     -15.621  45.450 -25.432  1.00  0.00     0.004 A 
HETATM   41  C28 UNL     1     -18.387  46.538 -25.097  1.00  0.00     0.172 A 
HETATM   42  O8  UNL     1     -19.524  46.966 -24.950  1.00  0.00    -0.289 OA
HETATM   43  C29 UNL     1     -17.278  46.986 -24.241  1.00  0.00     0.052 A 
HETATM   44  C30 UNL     1     -16.043  46.493 -24.400  1.00  0.00    -0.009 A 
HETATM   45  C32 UNL     1     -15.175  44.210 -24.624  1.00  0.00     0.025 C 
HETATM   46  C34 UNL     1     -13.098  46.261 -25.677  1.00  0.00     0.124 C 
HETATM   47  C35 UNL     1     -12.048  46.807 -26.654  1.00  0.00     0.045 C 
HETATM   48  C37 UNL     1     -11.018  44.637 -27.422  1.00  0.00     0.019 C 
BRANCH  29  49
HETATM   49  O7  UNL     1     -10.649  45.711 -30.039  1.00  0.00    -0.381 OA
HETATM   50  H20 UNL     1      -9.773  45.372 -29.766  1.00  0.00     0.211 HD
ENDBRANCH  29  49
BRANCH  46  51
HETATM   51  O9  UNL     1     -13.230  47.241 -24.652  1.00  0.00    -0.395 OA
HETATM   52  H39 UNL     1     -12.386  47.286 -24.169  1.00  0.00     0.210 HD
ENDBRANCH  46  51
ENDBRANCH  27  29
ENDBRANCH   1  27
TORSDOF 14
ENDMDL
MODEL 2
REMARK minimizedAffinity -8.90707111
REMARK CNNscore 0.534694672
REMARK CNNaffinity 7.37533188
REMARK  14 active torsions:
REMARK  status: ('A' for Active; 'I' for Inactive)
REMARK    1  A    between atoms: O1_2  and  C2_3 
REMARK    2  A    between atoms: C2_3  and  C3_5 
REMARK    3  A    between atoms: C3_5  and  C4_6 
REMARK    4  A    between atoms: C3_5  and  N2_16 
REMARK    5  A    between atoms: C4_6  and  C5_7 
REMARK       I    between atoms: N2_16  and  C13_17 
REMARK    6  A    between atoms: C13_17  and  C14_19 
REMARK    7  A    between atoms: C14_19  and  C15_20 
REMARK    8  A    between atoms: C15_20  and  C16_21 
REMARK    9  A    between atoms: C16_21  and  O5_23 
REMARK   10  A    between atoms: O5_23  and  C17_24 
REMARK   11  A    between atoms: C17_24  and  C18_25 
REMARK   12  A    between atoms: C18_25  and  C19_27 
REMARK   13  A    between atoms: C19_27  and  O7_28 
REMARK   14  A    between atoms: C34_44  and  O9_45 
ROOT
HETATM    1  C17 UNL     1      -0.823  48.947 -17.652  1.00  0.00     0.260 C 
ENDROOT
BRANCH   1   2
HETATM    2  O5  UNL     1      -0.289  50.210 -17.242  1.00  0.00    -0.314 OA
BRANCH   2   3
HETATM    3  C16 UNL     1       0.199  50.210 -15.970  1.00  0.00     0.259 C 
HETATM    4  O4  UNL     1       0.452  49.202 -15.324  1.00  0.00    -0.265 OA
BRANCH   3   5
HETATM    5  C15 UNL     1       0.389  51.614 -15.463  1.00  0.00     0.120 C 
BRANCH   5   6
HETATM    6  C14 UNL     1       1.734  52.147 -15.940  1.00  0.00     0.112 C 
BRANCH   6   7
HETATM    7  C13 UNL     1       2.812  51.995 -14.892  1.00  0.00     0.218 C 
HETATM    8  N2  UNL     1       2.318  52.044 -13.611  1.00  0.00    -0.347 N 
HETATM    9  H13 UNL     1       1.329  52.214 -13.450  1.00  0.00     0.163 HD
HETATM   10  O3  UNL     1       4.000  51.843 -15.149  1.00  0.00    -0.274 OA
BRANCH   8  11
HETATM   11  C3  UNL     1       3.173  51.900 -12.423  1.00  0.00     0.188 C 
BRANCH  11  12
HETATM   12  C2  UNL     1       3.296  50.400 -12.153  1.00  0.00     0.281 C 
HETATM   13  O2  UNL     1       4.288  49.882 -11.649  1.00  0.00    -0.263 OA
BRANCH  12  14
HETATM   14  O1  UNL     1       2.173  49.734 -12.536  1.00  0.00    -0.325 OA
HETATM   15  C1  UNL     1       1.439  49.146 -11.462  1.00  0.00     0.213 C 
ENDBRANCH  12  14
ENDBRANCH  11  12
BRANCH  11  16
HETATM   16  C4  UNL     1       2.565  52.612 -11.206  1.00  0.00     0.076 C 
BRANCH  16  17
HETATM   17  C5  UNL     1       3.383  53.767 -10.714  1.00  0.00    -0.028 A 
HETATM   18  C6  UNL     1       3.088  55.106 -10.887  1.00  0.00     0.096 A 
HETATM   19  N1  UNL     1       4.088  55.846 -10.316  1.00  0.00    -0.365 N 
HETATM   20  C7  UNL     1       5.036  55.018  -9.764  1.00  0.00     0.042 A 
HETATM   21  H8  UNL     1       4.128  56.855 -10.299  1.00  0.00     0.165 HD
HETATM   22  C8  UNL     1       6.220  55.331  -9.086  1.00  0.00     0.030 A 
HETATM   23  C12 UNL     1       4.621  53.705  -9.995  1.00  0.00    -0.002 A 
HETATM   24  C9  UNL     1       7.007  54.269  -8.632  1.00  0.00     0.002 A 
HETATM   25  C10 UNL     1       6.622  52.948  -8.846  1.00  0.00     0.001 A 
HETATM   26  C11 UNL     1       5.435  52.653  -9.525  1.00  0.00     0.014 A 
ENDBRANCH  16  17
ENDBRANCH  11  16
ENDBRANCH   8  11
ENDBRANCH   6   7
ENDBRANCH   5   6
ENDBRANCH   3   5
ENDBRANCH   2   3
ENDBRANCH   1   2
BRANCH   1  27
HETATM   27  C18 UNL     1      -2.256  49.084 -18.161  1.00  0.00     0.185 C 
HETATM   28  O6  UNL     1      -3.151  49.561 -17.447  1.00  0.00    -0.292 OA
BRANCH  27  29
HETATM   29  C19 UNL     1      -2.602  48.649 -19.598  1.00  0.00     0.128 C 
HETATM   30  C20 UNL     1      -1.637  47.674 -20.285  1.00  0.00     0.047 C 
HETATM   31  C21 UNL     1      -1.796  47.919 -21.793  1.00  0.00     0.009 C 
HETATM   32  C22 UNL     1      -2.814  49.063 -21.949  1.00  0.00     0.002 C 
HETATM   33  C23 UNL     1      -2.637  49.948 -23.202  1.00  0.00    -0.002 C 
HETATM   34  C36 UNL     1      -2.736  49.830 -20.610  1.00  0.00     0.001 C 
HETATM   35  C24 UNL     1      -2.711  49.091 -24.475  1.00  0.00     0.010 C 
HETATM   36  C33 UNL     1      -1.366  50.854 -23.163  1.00  0.00     0.035 C 
HETATM   37  C25 UNL     1      -2.655  49.951 -25.728  1.00  0.00     0.036 C 
HETATM   38  C26 UNL     1      -1.401  50.782 -25.705  1.00  0.00    -0.064 A 
HETATM   39  C27 UNL     1      -0.498  50.641 -26.694  1.00  0.00     0.058 A 
HETATM   40  C31 UNL     1      -1.212  51.715 -24.492  1.00  0.00     0.004 A 
HETATM   41  C28 UNL     1       0.780  51.376 -26.697  1.00  0.00     0.172 A 
HETATM   42  O8  UNL     1       1.585  51.251 -27.611  1.00  0.00    -0.289 OA
HETATM   43  C29 UNL     1       1.047  52.260 -25.552  1.00  0.00     0.052 A 
HETATM   44  C30 UNL     1       0.148  52.404 -24.568  1.00  0.00    -0.009 A 
HETATM   45  C32 UNL     1      -2.265  52.845 -24.568  1.00  0.00     0.025 C 
HETATM   46  C34 UNL     1      -1.382  51.665 -21.836  1.00  0.00     0.124 C 
HETATM   47  C35 UNL     1      -1.500  50.755 -20.606  1.00  0.00     0.045 C 
HETATM   48  C37 UNL     1      -4.010  50.670 -20.382  1.00  0.00     0.019 C 
BRANCH  29  49
HETATM   49  O7  UNL     1      -3.864  47.959 -19.503  1.00  0.00    -0.381 OA
HETATM   50  H20 UNL     1      -4.389  48.431 -18.825  1.00  0.00     0.211 HD
ENDBRANCH  29  49
BRANCH  46  51
HETATM   51  O9  UNL     1      -0.177  52.405 -21.666  1.00  0.00    -0.395 OA
HETATM   52  H39 UNL     1      -0.288  52.984 -20.891  1.00  0.00     0.210 HD
ENDBRANCH  46  51
ENDBRANCH  27  29
ENDBRANCH   1  27
TORSDOF 14
ENDMDL
MODEL 3
REMARK minimizedAffinity -9.13440704
REMARK CNNscore 0.503657579
REMARK CNNaffinity 7.3267417
REMARK  14 active torsions:
REMARK  status: ('A' for Active; 'I' for Inactive)
REMARK    1  A    between atoms: O1_2  and  C2_3 
REMARK    2  A    between atoms: C2_3  and  C3_5 
REMARK    3  A    between atoms: C3_5  and  C4_6 
REMARK    4  A    between atoms: C3_5  and  N2_16 
REMARK    5  A    between atoms: C4_6  and  C5_7 
REMARK       I    between atoms: N2_16  and  C13_17 
REMARK    6  A    between atoms: C13_17  and  C14_19 
REMARK    7  A    between atoms: C14_19  and  C15_20 
REMARK    8  A    between atoms: C15_20  and  C16_21 
REMARK    9  A    between atoms: C16_21  and  O5_23 
REMARK   10  A    between atoms: O5_23  and  C17_24 
REMARK   11  A    between atoms: C17_24  and  C18_25 
REMARK   12  A    between atoms: C18_25  and  C19_27 
REMARK   13  A    between atoms: C19_27  and  O7_28 
REMARK   14  A    between atoms: C34_44  and  O9_45 
ROOT
HETATM    1  C17 UNL     1       0.323  50.813 -17.157  1.00  0.00     0.260 C 
ENDROOT
BRANCH   1   2
HETATM    2  O5  UNL     1       1.068  51.958 -16.732  1.00  0.00    -0.314 OA
BRANCH   2   3
HETATM    3  C16 UNL     1       1.590  51.836 -15.479  1.00  0.00     0.259 C 
HETATM    4  O4  UNL     1       2.705  51.395 -15.233  1.00  0.00    -0.265 OA
BRANCH   3   5
HETATM    5  C15 UNL     1       0.617  52.318 -14.438  1.00  0.00     0.120 C 
BRANCH   5   6
HETATM    6  C14 UNL     1       0.191  51.146 -13.564  1.00  0.00     0.112 C 
BRANCH   6   7
HETATM    7  C13 UNL     1       0.224  51.490 -12.092  1.00  0.00     0.218 C 
HETATM    8  N2  UNL     1      -0.705  52.441 -11.748  1.00  0.00    -0.347 N 
HETATM    9  H13 UNL     1      -1.290  52.866 -12.462  1.00  0.00     0.163 HD
HETATM   10  O3  UNL     1       0.992  50.977 -11.287  1.00  0.00    -0.274 OA
BRANCH   8  11
HETATM   11  C3  UNL     1      -0.876  52.924 -10.369  1.00  0.00     0.188 C 
BRANCH  11  12
HETATM   12  C2  UNL     1      -2.145  52.262  -9.830  1.00  0.00     0.281 C 
HETATM   13  O2  UNL     1      -2.315  51.989  -8.645  1.00  0.00    -0.263 OA
BRANCH  12  14
HETATM   14  O1  UNL     1      -3.043  52.029 -10.825  1.00  0.00    -0.325 OA
HETATM   15  C1  UNL     1      -4.021  53.056 -10.992  1.00  0.00     0.213 C 
ENDBRANCH  12  14
ENDBRANCH  11  12
BRANCH  11  16
HETATM   16  C4  UNL     1      -1.011  54.453 -10.323  1.00  0.00     0.076 C 
BRANCH  16  17
HETATM   17  C5  UNL     1      -0.028  55.117  -9.408  1.00  0.00    -0.028 A 
HETATM   18  C6  UNL     1      -0.287  55.579  -8.132  1.00  0.00     0.096 A 
HETATM   19  N1  UNL     1       0.858  56.140  -7.635  1.00  0.00    -0.365 N 
HETATM   20  C7  UNL     1       1.872  56.049  -8.560  1.00  0.00     0.042 A 
HETATM   21  H8  UNL     1       0.952  56.560  -6.722  1.00  0.00     0.165 HD
HETATM   22  C8  UNL     1       3.199  56.486  -8.486  1.00  0.00     0.030 A 
HETATM   23  C12 UNL     1       1.347  55.409  -9.684  1.00  0.00    -0.002 A 
HETATM   24  C9  UNL     1       4.017  56.264  -9.596  1.00  0.00     0.002 A 
HETATM   25  C10 UNL     1       3.527  55.628 -10.733  1.00  0.00     0.001 A 
HETATM   26  C11 UNL     1       2.196  55.197 -10.790  1.00  0.00     0.014 A 
ENDBRANCH  16  17
ENDBRANCH  11  16
ENDBRANCH   8  11
ENDBRANCH   6   7
ENDBRANCH   5   6
ENDBRANCH   3   5
ENDBRANCH   2   3
ENDBRANCH   1   2
BRANCH   1  27
HETATM   27  C18 UNL     1      -0.150  50.959 -18.601  1.00  0.00     0.185 C 
HETATM   28  O6  UNL     1       0.218  51.910 -19.309  1.00  0.00    -0.292 OA
BRANCH  27  29
HETATM   29  C19 UNL     1      -1.082  49.895 -19.212  1.00  0.00     0.128 C 
HETATM   30  C20 UNL     1      -0.427  48.778 -20.033  1.00  0.00     0.047 C 
HETATM   31  C21 UNL     1      -1.500  48.297 -21.021  1.00  0.00     0.009 C 
HETATM   32  C22 UNL     1      -2.741  49.176 -20.786  1.00  0.00     0.002 C 
HETATM   33  C23 UNL     1      -3.642  49.401 -22.019  1.00  0.00    -0.002 C 
HETATM   34  C36 UNL     1      -2.179  50.473 -20.162  1.00  0.00     0.001 C 
HETATM   35  C24 UNL     1      -4.132  48.055 -22.575  1.00  0.00     0.010 C 
HETATM   36  C33 UNL     1      -2.997  50.304 -23.119  1.00  0.00     0.035 C 
HETATM   37  C25 UNL     1      -5.114  48.251 -23.719  1.00  0.00     0.036 C 
HETATM   38  C26 UNL     1      -4.465  49.078 -24.796  1.00  0.00    -0.064 A 
HETATM   39  C27 UNL     1      -4.320  48.559 -26.029  1.00  0.00     0.058 A 
HETATM   40  C31 UNL     1      -3.952  50.471 -24.381  1.00  0.00     0.004 A 
HETATM   41  C28 UNL     1      -3.635  49.291 -27.111  1.00  0.00     0.172 A 
HETATM   42  O8  UNL     1      -3.524  48.813 -28.232  1.00  0.00    -0.289 OA
HETATM   43  C29 UNL     1      -3.086  50.615 -26.779  1.00  0.00     0.052 A 
HETATM   44  C30 UNL     1      -3.232  51.134 -25.553  1.00  0.00    -0.009 A 
HETATM   45  C32 UNL     1      -5.167  51.373 -24.065  1.00  0.00     0.025 C 
HETATM   46  C34 UNL     1      -2.528  51.628 -22.452  1.00  0.00     0.124 C 
HETATM   47  C35 UNL     1      -1.586  51.374 -21.267  1.00  0.00     0.045 C 
HETATM   48  C37 UNL     1      -3.281  51.241 -19.404  1.00  0.00     0.019 C 
BRANCH  29  49
HETATM   49  O7  UNL     1      -1.719  49.246 -18.093  1.00  0.00    -0.381 OA
HETATM   50  H20 UNL     1      -1.880  49.941 -17.422  1.00  0.00     0.211 HD
ENDBRANCH  29  49
BRANCH  46  51
HETATM   51  O9  UNL     1      -1.798  52.439 -23.369  1.00  0.00    -0.395 OA
HETATM   52  H39 UNL     1      -1.635  53.299 -22.943  1.00  0.00     0.210 HD
ENDBRANCH  46  51
ENDBRANCH  27  29
ENDBRANCH   1  27
TORSDOF 14
ENDMDL
MODEL 4
REMARK minimizedAffinity -9.43193436
REMARK CNNscore 0.492279112
REMARK CNNaffinity 7.03378916
REMARK  14 active torsions:
REMARK  status: ('A' for Active; 'I' for Inactive)
REMARK    1  A    between atoms: O1_2  and  C2_3 
REMARK    2  A    between atoms: C2_3  and  C3_5 
REMARK    3  A    between atoms: C3_5  and  C4_6 
REMARK    4  A    between atoms: C3_5  and  N2_16 
REMARK    5  A    between atoms: C4_6  and  C5_7 
REMARK       I    between atoms: N2_16  and  C13_17 
REMARK    6  A    between atoms: C13_17  and  C14_19 
REMARK    7  A    between atoms: C14_19  and  C15_20 
REMARK    8  A    between atoms: C15_20  and  C16_21 
REMARK    9  A    between atoms: C16_21  and  O5_23 
REMARK   10  A    between atoms: O5_23  and  C17_24 
REMARK   11  A    between atoms: C17_24  and  C18_25 
REMARK   12  A    between atoms: C18_25  and  C19_27 
REMARK   13  A    between atoms: C19_27  and  O7_28 
REMARK   14  A    between atoms: C34_44  and  O9_45 
ROOT
HETATM    1  C17 UNL     1      -1.229  49.426 -17.682  1.00  0.00     0.260 C 
ENDROOT
BRANCH   1   2
HETATM    2  O5  UNL     1      -1.163  50.763 -17.175  1.00  0.00    -0.314 OA
BRANCH   2   3
HETATM    3  C16 UNL     1       0.109  51.237 -17.047  1.00  0.00     0.259 C 
HETATM    4  O4  UNL     1       0.610  52.082 -17.777  1.00  0.00    -0.265 OA
BRANCH   3   5
HETATM    5  C15 UNL     1       0.816  50.586 -15.890  1.00  0.00     0.120 C 
BRANCH   5   6
HETATM    6  C14 UNL     1       1.594  51.640 -15.114  1.00  0.00     0.112 C 
BRANCH   6   7
HETATM    7  C13 UNL     1       1.424  51.491 -13.620  1.00  0.00     0.218 C 
HETATM    8  N2  UNL     1       1.156  52.684 -12.995  1.00  0.00    -0.347 N 
HETATM    9  H13 UNL     1       1.135  53.548 -13.529  1.00  0.00     0.163 HD
HETATM   10  O3  UNL     1       1.511  50.424 -13.024  1.00  0.00    -0.274 OA
BRANCH   8  11
HETATM   11  C3  UNL     1       0.931  52.790 -11.545  1.00  0.00     0.188 C 
BRANCH  11  12
HETATM   12  C2  UNL     1      -0.485  53.336 -11.362  1.00  0.00     0.281 C 
HETATM   13  O2  UNL     1      -0.729  54.435 -10.871  1.00  0.00    -0.263 OA
BRANCH  12  14
HETATM   14  O1  UNL     1      -1.418  52.457 -11.818  1.00  0.00    -0.325 OA
HETATM   15  C1  UNL     1      -2.757  52.757 -11.423  1.00  0.00     0.213 C 
ENDBRANCH  12  14
ENDBRANCH  11  12
BRANCH  11  16
HETATM   16  C4  UNL     1       1.953  53.727 -10.886  1.00  0.00     0.076 C 
BRANCH  16  17
HETATM   17  C5  UNL     1       3.164  53.019 -10.357  1.00  0.00    -0.028 A 
HETATM   18  C6  UNL     1       3.293  51.657 -10.166  1.00  0.00     0.096 A 
HETATM   19  N1  UNL     1       4.534  51.409  -9.647  1.00  0.00    -0.365 N 
HETATM   20  C7  UNL     1       5.231  52.585  -9.498  1.00  0.00     0.042 A 
HETATM   21  H8  UNL     1       4.894  50.496  -9.408  1.00  0.00     0.165 HD
HETATM   22  C8  UNL     1       6.522  52.811  -9.007  1.00  0.00     0.030 A 
HETATM   23  C12 UNL     1       4.397  53.616  -9.936  1.00  0.00    -0.002 A 
HETATM   24  C9  UNL     1       6.976  54.131  -8.962  1.00  0.00     0.002 A 
HETATM   25  C10 UNL     1       6.171  55.182  -9.392  1.00  0.00     0.001 A 
HETATM   26  C11 UNL     1       4.882  54.939  -9.880  1.00  0.00     0.014 A 
ENDBRANCH  16  17
ENDBRANCH  11  16
ENDBRANCH   8  11
ENDBRANCH   6   7
ENDBRANCH   5   6
ENDBRANCH   3   5
ENDBRANCH   2   3
ENDBRANCH   1   2
BRANCH   1  27
HETATM   27  C18 UNL     1      -2.627  49.094 -18.199  1.00  0.00     0.185 C 
HETATM   28  O6  UNL     1      -3.630  49.233 -17.483  1.00  0.00    -0.292 OA
BRANCH  27  29
HETATM   29  C19 UNL     1      -2.809  48.601 -19.647  1.00  0.00     0.128 C 
HETATM   30  C20 UNL     1      -1.707  47.706 -20.225  1.00  0.00     0.047 C 
HETATM   31  C21 UNL     1      -1.758  47.906 -21.747  1.00  0.00     0.009 C 
HETATM   32  C22 UNL     1      -2.857  48.949 -22.019  1.00  0.00     0.002 C 
HETATM   33  C23 UNL     1      -2.653  49.821 -23.275  1.00  0.00    -0.002 C 
HETATM   34  C36 UNL     1      -2.962  49.746 -20.699  1.00  0.00     0.001 C 
HETATM   35  C24 UNL     1      -2.541  48.937 -24.527  1.00  0.00     0.010 C 
HETATM   36  C33 UNL     1      -1.475  50.840 -23.156  1.00  0.00     0.035 C 
HETATM   37  C25 UNL     1      -2.456  49.774 -25.793  1.00  0.00     0.036 C 
HETATM   38  C26 UNL     1      -1.287  50.716 -25.689  1.00  0.00    -0.064 A 
HETATM   39  C27 UNL     1      -0.294  50.638 -26.595  1.00  0.00     0.058 A 
HETATM   40  C31 UNL     1      -1.286  51.685 -24.490  1.00  0.00     0.004 A 
HETATM   41  C28 UNL     1       0.909  51.486 -26.512  1.00  0.00     0.172 A 
HETATM   42  O8  UNL     1       1.797  51.417 -27.352  1.00  0.00    -0.289 OA
HETATM   43  C29 UNL     1       0.998  52.413 -25.373  1.00  0.00     0.052 A 
HETATM   44  C30 UNL     1       0.010  52.494 -24.472  1.00  0.00    -0.009 A 
HETATM   45  C32 UNL     1      -2.424  52.713 -24.684  1.00  0.00     0.025 C 
HETATM   46  C34 UNL     1      -1.677  51.672 -21.857  1.00  0.00     0.124 C 
HETATM   47  C35 UNL     1      -1.817  50.779 -20.617  1.00  0.00     0.045 C 
HETATM   48  C37 UNL     1      -4.319  50.470 -20.601  1.00  0.00     0.019 C 
BRANCH  29  49
HETATM   49  O7  UNL     1      -4.009  47.802 -19.640  1.00  0.00    -0.381 OA
HETATM   50  H20 UNL     1      -4.629  48.237 -19.020  1.00  0.00     0.211 HD
ENDBRANCH  29  49
BRANCH  46  51
HETATM   51  O9  UNL     1      -0.561  52.521 -21.607  1.00  0.00    -0.395 OA
HETATM   52  H39 UNL     1      -0.788  53.103 -20.860  1.00  0.00     0.210 HD
ENDBRANCH  46  51
ENDBRANCH  27  29
ENDBRANCH   1  27
TORSDOF 14
ENDMDL
MODEL 5
REMARK minimizedAffinity -8.60634899
REMARK CNNscore 0.416391224
REMARK CNNaffinity 6.30569458
REMARK  14 active torsions:
REMARK  status: ('A' for Active; 'I' for Inactive)
REMARK    1  A    between atoms: O1_2  and  C2_3 
REMARK    2  A    between atoms: C2_3  and  C3_5 
REMARK    3  A    between atoms: C3_5  and  C4_6 
REMARK    4  A    between atoms: C3_5  and  N2_16 
REMARK    5  A    between atoms: C4_6  and  C5_7 
REMARK       I    between atoms: N2_16  and  C13_17 
REMARK    6  A    between atoms: C13_17  and  C14_19 
REMARK    7  A    between atoms: C14_19  and  C15_20 
REMARK    8  A    between atoms: C15_20  and  C16_21 
REMARK    9  A    between atoms: C16_21  and  O5_23 
REMARK   10  A    between atoms: O5_23  and  C17_24 
REMARK   11  A    between atoms: C17_24  and  C18_25 
REMARK   12  A    between atoms: C18_25  and  C19_27 
REMARK   13  A    between atoms: C19_27  and  O7_28 
REMARK   14  A    between atoms: C34_44  and  O9_45 
ROOT
HETATM    1  C17 UNL     1      -8.543  47.370 -26.267  1.00  0.00     0.260 C 
ENDROOT
BRANCH   1   2
HETATM    2  O5  UNL     1      -8.342  46.688 -25.026  1.00  0.00    -0.314 OA
BRANCH   2   3
HETATM    3  C16 UNL     1      -7.265  47.139 -24.322  1.00  0.00     0.259 C 
HETATM    4  O4  UNL     1      -6.808  46.590 -23.329  1.00  0.00    -0.265 OA
BRANCH   3   5
HETATM    5  C15 UNL     1      -6.712  48.400 -24.928  1.00  0.00     0.120 C 
BRANCH   5   6
HETATM    6  C14 UNL     1      -5.477  48.065 -25.754  1.00  0.00     0.112 C 
BRANCH   6   7
HETATM    7  C13 UNL     1      -4.205  48.552 -25.100  1.00  0.00     0.218 C 
HETATM    8  N2  UNL     1      -4.440  49.319 -23.986  1.00  0.00    -0.347 N 
HETATM    9  H13 UNL     1      -5.392  49.541 -23.709  1.00  0.00     0.163 HD
HETATM   10  O3  UNL     1      -3.080  48.292 -25.513  1.00  0.00    -0.274 OA
BRANCH   8  11
HETATM   11  C3  UNL     1      -3.358  49.890 -23.169  1.00  0.00     0.188 C 
BRANCH  11  12
HETATM   12  C2  UNL     1      -3.795  49.756 -21.710  1.00  0.00     0.281 C 
HETATM   13  O2  UNL     1      -4.827  50.250 -21.265  1.00  0.00    -0.263 OA
BRANCH  12  14
HETATM   14  O1  UNL     1      -2.904  49.021 -20.991  1.00  0.00    -0.325 OA
HETATM   15  C1  UNL     1      -2.036  48.207 -21.779  1.00  0.00     0.213 C 
ENDBRANCH  12  14
ENDBRANCH  11  12
BRANCH  11  16
HETATM   16  C4  UNL     1      -3.111  51.365 -23.518  1.00  0.00     0.076 C 
BRANCH  16  17
HETATM   17  C5  UNL     1      -1.664  51.701 -23.719  1.00  0.00    -0.028 A 
HETATM   18  C6  UNL     1      -0.809  52.221 -22.767  1.00  0.00     0.096 A 
HETATM   19  N1  UNL     1       0.417  52.410 -23.344  1.00  0.00    -0.365 N 
HETATM   20  C7  UNL     1       0.388  52.017 -24.662  1.00  0.00     0.042 A 
HETATM   21  H8  UNL     1       1.230  52.782 -22.875  1.00  0.00     0.165 HD
HETATM   22  C8  UNL     1       1.400  52.032 -25.628  1.00  0.00     0.030 A 
HETATM   23  C12 UNL     1      -0.906  51.565 -24.927  1.00  0.00    -0.002 A 
HETATM   24  C9  UNL     1       1.080  51.573 -26.908  1.00  0.00     0.002 A 
HETATM   25  C10 UNL     1      -0.200  51.114 -27.207  1.00  0.00     0.001 A 
HETATM   26  C11 UNL     1      -1.200  51.105 -26.228  1.00  0.00     0.014 A 
ENDBRANCH  16  17
ENDBRANCH  11  16
ENDBRANCH   8  11
ENDBRANCH   6   7
ENDBRANCH   5   6
ENDBRANCH   3   5
ENDBRANCH   2   3
ENDBRANCH   1   2
BRANCH   1  27
HETATM   27  C18 UNL     1      -9.938  47.986 -26.346  1.00  0.00     0.185 C 
HETATM   28  O6  UNL     1     -10.205  49.057 -25.779  1.00  0.00    -0.292 OA
BRANCH  27  29
HETATM   29  C19 UNL     1     -11.038  47.284 -27.166  1.00  0.00     0.128 C 
HETATM   30  C20 UNL     1     -12.040  48.181 -27.903  1.00  0.00     0.047 C 
HETATM   31  C21 UNL     1     -13.321  47.346 -28.051  1.00  0.00     0.009 C 
HETATM   32  C22 UNL     1     -13.053  46.000 -27.354  1.00  0.00     0.002 C 
HETATM   33  C23 UNL     1     -14.291  45.303 -26.749  1.00  0.00    -0.002 C 
HETATM   34  C36 UNL     1     -11.935  46.312 -26.335  1.00  0.00     0.001 C 
HETATM   35  C24 UNL     1     -15.349  45.055 -27.835  1.00  0.00     0.010 C 
HETATM   36  C33 UNL     1     -14.878  46.031 -25.497  1.00  0.00     0.035 C 
HETATM   37  C25 UNL     1     -16.530  44.267 -27.291  1.00  0.00     0.036 C 
HETATM   38  C26 UNL     1     -17.120  45.002 -26.118  1.00  0.00    -0.064 A 
HETATM   39  C27 UNL     1     -18.403  45.407 -26.171  1.00  0.00     0.058 A 
HETATM   40  C31 UNL     1     -16.172  45.293 -24.938  1.00  0.00     0.004 A 
HETATM   41  C28 UNL     1     -19.022  46.188 -25.084  1.00  0.00     0.172 A 
HETATM   42  O8  UNL     1     -20.194  46.536 -25.137  1.00  0.00    -0.289 OA
HETATM   43  C29 UNL     1     -18.167  46.535 -23.937  1.00  0.00     0.052 A 
HETATM   44  C30 UNL     1     -16.891  46.130 -23.882  1.00  0.00    -0.009 A 
HETATM   45  C32 UNL     1     -15.816  43.956 -24.247  1.00  0.00     0.025 C 
HETATM   46  C34 UNL     1     -13.730  46.243 -24.470  1.00  0.00     0.124 C 
HETATM   47  C35 UNL     1     -12.538  46.990 -25.085  1.00  0.00     0.045 C 
HETATM   48  C37 UNL     1     -11.195  45.025 -25.919  1.00  0.00     0.019 C 
BRANCH  29  49
HETATM   49  O7  UNL     1     -10.347  46.536 -28.186  1.00  0.00    -0.381 OA
HETATM   50  H20 UNL     1      -9.528  46.194 -27.774  1.00  0.00     0.211 HD
ENDBRANCH  29  49
BRANCH  46  51
HETATM   51  O9  UNL     1     -14.161  47.031 -23.365  1.00  0.00    -0.395 OA
HETATM   52  H39 UNL     1     -13.450  47.031 -22.700  1.00  0.00     0.210 HD
ENDBRANCH  46  51
ENDBRANCH  27  29
ENDBRANCH   1  27
TORSDOF 14
ENDMDL
MODEL 6
REMARK minimizedAffinity -8.89409351
REMARK CNNscore 0.412259072
REMARK CNNaffinity 6.86421204
REMARK  14 active torsions:
REMARK  status: ('A' for Active; 'I' for Inactive)
REMARK    1  A    between atoms: O1_2  and  C2_3 
REMARK    2  A    between atoms: C2_3  and  C3_5 
REMARK    3  A    between atoms: C3_5  and  C4_6 
REMARK    4  A    between atoms: C3_5  and  N2_16 
REMARK    5  A    between atoms: C4_6  and  C5_7 
REMARK       I    between atoms: N2_16  and  C13_17 
REMARK    6  A    between atoms: C13_17  and  C14_19 
REMARK    7  A    between atoms: C14_19  and  C15_20 
REMARK    8  A    between atoms: C15_20  and  C16_21 
REMARK    9  A    between atoms: C16_21  and  O5_23 
REMARK   10  A    between atoms: O5_23  and  C17_24 
REMARK   11  A    between atoms: C17_24  and  C18_25 
REMARK   12  A    between atoms: C18_25  and  C19_27 
REMARK   13  A    between atoms: C19_27  and  O7_28 
REMARK   14  A    between atoms: C34_44  and  O9_45 
ROOT
HETATM    1  C17 UNL     1      -4.986  48.730 -29.153  1.00  0.00     0.260 C 
ENDROOT
BRANCH   1   2
HETATM    2  O5  UNL     1      -3.825  48.284 -28.445  1.00  0.00    -0.314 OA
BRANCH   2   3
HETATM    3  C16 UNL     1      -3.510  49.058 -27.368  1.00  0.00     0.259 C 
HETATM    4  O4  UNL     1      -3.577  50.280 -27.351  1.00  0.00    -0.265 OA
BRANCH   3   5
HETATM    5  C15 UNL     1      -3.071  48.213 -26.204  1.00  0.00     0.120 C 
BRANCH   5   6
HETATM    6  C14 UNL     1      -3.795  48.671 -24.945  1.00  0.00     0.112 C 
BRANCH   6   7
HETATM    7  C13 UNL     1      -2.842  48.935 -23.802  1.00  0.00     0.218 C 
HETATM    8  N2  UNL     1      -2.338  50.212 -23.816  1.00  0.00    -0.347 N 
HETATM    9  H13 UNL     1      -2.580  50.850 -24.569  1.00  0.00     0.163 HD
HETATM   10  O3  UNL     1      -2.548  48.105 -22.950  1.00  0.00    -0.274 OA
BRANCH   8  11
HETATM   11  C3  UNL     1      -1.405  50.711 -22.793  1.00  0.00     0.188 C 
BRANCH  11  12
HETATM   12  C2  UNL     1      -2.241  51.007 -21.548  1.00  0.00     0.281 C 
HETATM   13  O2  UNL     1      -1.942  50.617 -20.422  1.00  0.00    -0.263 OA
BRANCH  12  14
HETATM   14  O1  UNL     1      -3.337  51.754 -21.854  1.00  0.00    -0.325 OA
HETATM   15  C1  UNL     1      -4.528  51.364 -21.171  1.00  0.00     0.213 C 
ENDBRANCH  12  14
ENDBRANCH  11  12
BRANCH  11  16
HETATM   16  C4  UNL     1      -0.682  51.980 -23.265  1.00  0.00     0.076 C 
BRANCH  16  17
HETATM   17  C5  UNL     1      -0.803  52.229 -24.737  1.00  0.00    -0.028 A 
HETATM   18  C6  UNL     1      -1.932  52.672 -25.398  1.00  0.00     0.096 A 
HETATM   19  N1  UNL     1      -1.648  52.752 -26.734  1.00  0.00    -0.365 N 
HETATM   20  C7  UNL     1      -0.347  52.374 -26.967  1.00  0.00     0.042 A 
HETATM   21  H8  UNL     1      -2.296  53.046 -27.451  1.00  0.00     0.165 HD
HETATM   22  C8  UNL     1       0.368  52.299 -28.167  1.00  0.00     0.030 A 
HETATM   23  C12 UNL     1       0.212  52.042 -25.732  1.00  0.00    -0.002 A 
HETATM   24  C9  UNL     1       1.696  51.869 -28.105  1.00  0.00     0.002 A 
HETATM   25  C10 UNL     1       2.285  51.531 -26.890  1.00  0.00     0.001 A 
HETATM   26  C11 UNL     1       1.555  51.612 -25.698  1.00  0.00     0.014 A 
ENDBRANCH  16  17
ENDBRANCH  11  16
ENDBRANCH   8  11
ENDBRANCH   6   7
ENDBRANCH   5   6
ENDBRANCH   3   5
ENDBRANCH   2   3
ENDBRANCH   1   2
BRANCH   1  27
HETATM   27  C18 UNL     1      -5.454  47.690 -30.168  1.00  0.00     0.185 C 
HETATM   28  O6  UNL     1      -4.767  47.400 -31.160  1.00  0.00    -0.292 OA
BRANCH  27  29
HETATM   29  C19 UNL     1      -6.795  46.961 -29.953  1.00  0.00     0.128 C 
HETATM   30  C20 UNL     1      -6.944  46.138 -28.668  1.00  0.00     0.047 C 
HETATM   31  C21 UNL     1      -7.982  45.050 -28.984  1.00  0.00     0.009 C 
HETATM   32  C22 UNL     1      -8.378  45.234 -30.460  1.00  0.00     0.002 C 
HETATM   33  C23 UNL     1      -8.808  43.950 -31.201  1.00  0.00    -0.002 C 
HETATM   34  C36 UNL     1      -7.170  45.961 -31.093  1.00  0.00     0.001 C 
HETATM   35  C24 UNL     1      -9.999  43.294 -30.485  1.00  0.00     0.010 C 
HETATM   36  C33 UNL     1      -7.639  42.947 -31.460  1.00  0.00     0.035 C 
HETATM   37  C25 UNL     1     -10.517  42.091 -31.256  1.00  0.00     0.036 C 
HETATM   38  C26 UNL     1      -9.396  41.107 -31.456  1.00  0.00    -0.064 A 
HETATM   39  C27 UNL     1      -9.512  39.864 -30.953  1.00  0.00     0.058 A 
HETATM   40  C31 UNL     1      -8.145  41.627 -32.191  1.00  0.00     0.004 A 
HETATM   41  C28 UNL     1      -8.424  38.874 -31.056  1.00  0.00     0.172 A 
HETATM   42  O8  UNL     1      -8.548  37.742 -30.608  1.00  0.00    -0.289 OA
HETATM   43  C29 UNL     1      -7.183  39.309 -31.715  1.00  0.00     0.052 A 
HETATM   44  C30 UNL     1      -7.067  40.545 -32.219  1.00  0.00    -0.009 A 
HETATM   45  C32 UNL     1      -8.514  41.895 -33.668  1.00  0.00     0.025 C 
HETATM   46  C34 UNL     1      -6.488  43.710 -32.174  1.00  0.00     0.124 C 
HETATM   47  C35 UNL     1      -6.041  44.949 -31.384  1.00  0.00     0.045 C 
HETATM   48  C37 UNL     1      -7.578  46.671 -32.399  1.00  0.00     0.019 C 
BRANCH  29  49
HETATM   49  O7  UNL     1      -7.795  47.996 -29.882  1.00  0.00    -0.381 OA
HETATM   50  H20 UNL     1      -7.528  48.686 -30.523  1.00  0.00     0.211 HD
ENDBRANCH  29  49
BRANCH  46  51
HETATM   51  O9  UNL     1      -5.330  42.892 -32.311  1.00  0.00    -0.395 OA
HETATM   52  H39 UNL     1      -4.689  43.370 -32.866  1.00  0.00     0.210 HD
ENDBRANCH  46  51
ENDBRANCH  27  29
ENDBRANCH   1  27
TORSDOF 14
ENDMDL
MODEL 7
REMARK minimizedAffinity -8.32246876
REMARK CNNscore 0.405397058
REMARK CNNaffinity 7.28194427
REMARK  14 active torsions:
REMARK  status: ('A' for Active; 'I' for Inactive)
REMARK    1  A    between atoms: O1_2  and  C2_3 
REMARK    2  A    between atoms: C2_3  and  C3_5 
REMARK    3  A    between atoms: C3_5  and  C4_6 
REMARK    4  A    between atoms: C3_5  and  N2_16 
REMARK    5  A    between atoms: C4_6  and  C5_7 
REMARK       I    between atoms: N2_16  and  C13_17 
REMARK    6  A    between atoms: C13_17  and  C14_19 
REMARK    7  A    between atoms: C14_19  and  C15_20 
REMARK    8  A    between atoms: C15_20  and  C16_21 
REMARK    9  A    between atoms: C16_21  and  O5_23 
REMARK   10  A    between atoms: O5_23  and  C17_24 
REMARK   11  A    between atoms: C17_24  and  C18_25 
REMARK   12  A    between atoms: C18_25  and  C19_27 
REMARK   13  A    between atoms: C19_27  and  O7_28 
REMARK   14  A    between atoms: C34_44  and  O9_45 
ROOT
HETATM    1  C17 UNL     1      -0.807  48.908 -17.694  1.00  0.00     0.260 C 
ENDROOT
BRANCH   1   2
HETATM    2  O5  UNL     1      -0.207  50.138 -17.274  1.00  0.00    -0.314 OA
BRANCH   2   3
HETATM    3  C16 UNL     1       0.266  50.107 -15.996  1.00  0.00     0.259 C 
HETATM    4  O4  UNL     1       0.460  49.083 -15.354  1.00  0.00    -0.265 OA
BRANCH   3   5
HETATM    5  C15 UNL     1       0.520  51.497 -15.479  1.00  0.00     0.120 C 
BRANCH   5   6
HETATM    6  C14 UNL     1       1.936  51.922 -15.845  1.00  0.00     0.112 C 
BRANCH   6   7
HETATM    7  C13 UNL     1       2.893  51.776 -14.685  1.00  0.00     0.218 C 
HETATM    8  N2  UNL     1       2.280  51.937 -13.467  1.00  0.00    -0.347 N 
HETATM    9  H13 UNL     1       1.293  52.175 -13.418  1.00  0.00     0.163 HD
HETATM   10  O3  UNL     1       4.089  51.538 -14.810  1.00  0.00    -0.274 OA
BRANCH   8  11
HETATM   11  C3  UNL     1       3.002  51.821 -12.190  1.00  0.00     0.188 C 
BRANCH  11  12
HETATM   12  C2  UNL     1       2.639  50.456 -11.607  1.00  0.00     0.281 C 
HETATM   13  O2  UNL     1       2.673  50.202 -10.405  1.00  0.00    -0.263 OA
BRANCH  12  14
HETATM   14  O1  UNL     1       2.272  49.581 -12.582  1.00  0.00    -0.325 OA
HETATM   15  C1  UNL     1       1.323  48.598 -12.170  1.00  0.00     0.213 C 
ENDBRANCH  12  14
ENDBRANCH  11  12
BRANCH  11  16
HETATM   16  C4  UNL     1       2.605  52.940 -11.218  1.00  0.00     0.076 C 
BRANCH  16  17
HETATM   17  C5  UNL     1       1.124  53.071 -11.025  1.00  0.00    -0.028 A 
HETATM   18  C6  UNL     1       0.196  53.350 -12.010  1.00  0.00     0.096 A 
HETATM   19  N1  UNL     1      -1.042  53.410 -11.432  1.00  0.00    -0.365 N 
HETATM   20  C7  UNL     1      -0.949  53.169 -10.081  1.00  0.00     0.042 A 
HETATM   21  H8  UNL     1      -1.905  53.602 -11.921  1.00  0.00     0.165 HD
HETATM   22  C8  UNL     1      -1.948  53.133  -9.102  1.00  0.00     0.030 A 
HETATM   23  C12 UNL     1       0.399  52.950  -9.795  1.00  0.00    -0.002 A 
HETATM   24  C9  UNL     1      -1.558  52.867  -7.787  1.00  0.00     0.002 A 
HETATM   25  C10 UNL     1      -0.222  52.643  -7.467  1.00  0.00     0.001 A 
HETATM   26  C11 UNL     1       0.765  52.683  -8.459  1.00  0.00     0.014 A 
ENDBRANCH  16  17
ENDBRANCH  11  16
ENDBRANCH   8  11
ENDBRANCH   6   7
ENDBRANCH   5   6
ENDBRANCH   3   5
ENDBRANCH   2   3
ENDBRANCH   1   2
BRANCH   1  27
HETATM   27  C18 UNL     1      -2.232  49.124 -18.195  1.00  0.00     0.185 C 
HETATM   28  O6  UNL     1      -3.102  49.631 -17.470  1.00  0.00    -0.292 OA
BRANCH  27  29
HETATM   29  C19 UNL     1      -2.603  48.732 -19.639  1.00  0.00     0.128 C 
HETATM   30  C20 UNL     1      -1.703  47.706 -20.338  1.00  0.00     0.047 C 
HETATM   31  C21 UNL     1      -1.842  47.982 -21.843  1.00  0.00     0.009 C 
HETATM   32  C22 UNL     1      -2.782  49.192 -21.984  1.00  0.00     0.002 C 
HETATM   33  C23 UNL     1      -2.544  50.081 -23.224  1.00  0.00    -0.002 C 
HETATM   34  C36 UNL     1      -2.657  49.935 -20.635  1.00  0.00     0.001 C 
HETATM   35  C24 UNL     1      -2.671  49.249 -24.510  1.00  0.00     0.010 C 
HETATM   36  C33 UNL     1      -1.215  50.900 -23.171  1.00  0.00     0.035 C 
HETATM   37  C25 UNL     1      -2.556  50.120 -25.750  1.00  0.00     0.036 C 
HETATM   38  C26 UNL     1      -1.249  50.866 -25.714  1.00  0.00    -0.064 A 
HETATM   39  C27 UNL     1      -0.356  50.679 -26.703  1.00  0.00     0.058 A 
HETATM   40  C31 UNL     1      -1.002  51.767 -24.488  1.00  0.00     0.004 A 
HETATM   41  C28 UNL     1       0.969  51.328 -26.694  1.00  0.00     0.172 A 
HETATM   42  O8  UNL     1       1.766  51.162 -27.608  1.00  0.00    -0.289 OA
HETATM   43  C29 UNL     1       1.290  52.177 -25.536  1.00  0.00     0.052 A 
HETATM   44  C30 UNL     1       0.401  52.366 -24.552  1.00  0.00    -0.009 A 
HETATM   45  C32 UNL     1      -1.978  52.965 -24.549  1.00  0.00     0.025 C 
HETATM   46  C34 UNL     1      -1.182  51.692 -21.833  1.00  0.00     0.124 C 
HETATM   47  C35 UNL     1      -1.362  50.775 -20.615  1.00  0.00     0.045 C 
HETATM   48  C37 UNL     1      -3.873  50.853 -20.397  1.00  0.00     0.019 C 
BRANCH  29  49
HETATM   49  O7  UNL     1      -3.909  48.127 -19.556  1.00  0.00    -0.381 OA
HETATM   50  H20 UNL     1      -4.403  48.623 -18.871  1.00  0.00     0.211 HD
ENDBRANCH  29  49
BRANCH  46  51
HETATM   51  O9  UNL     1       0.069  52.348 -21.651  1.00  0.00    -0.395 OA
HETATM   52  H39 UNL     1      -0.005  52.923 -20.868  1.00  0.00     0.210 HD
ENDBRANCH  46  51
ENDBRANCH  27  29
ENDBRANCH   1  27
TORSDOF 14
ENDMDL
MODEL 8
REMARK minimizedAffinity -9.59404278
REMARK CNNscore 0.401039422
REMARK CNNaffinity 7.14017248
REMARK  14 active torsions:
REMARK  status: ('A' for Active; 'I' for Inactive)
REMARK    1  A    between atoms: O1_2  and  C2_3 
REMARK    2  A    between atoms: C2_3  and  C3_5 
REMARK    3  A    between atoms: C3_5  and  C4_6 
REMARK    4  A    between atoms: C3_5  and  N2_16 
REMARK    5  A    between atoms: C4_6  and  C5_7 
REMARK       I    between atoms: N2_16  and  C13_17 
REMARK    6  A    between atoms: C13_17  and  C14_19 
REMARK    7  A    between atoms: C14_19  and  C15_20 
REMARK    8  A    between atoms: C15_20  and  C16_21 
REMARK    9  A    between atoms: C16_21  and  O5_23 
REMARK   10  A    between atoms: O5_23  and  C17_24 
REMARK   11  A    between atoms: C17_24  and  C18_25 
REMARK   12  A    between atoms: C18_25  and  C19_27 
REMARK   13  A    between atoms: C19_27  and  O7_28 
REMARK   14  A    between atoms: C34_44  and  O9_45 
ROOT
HETATM    1  C17 UNL     1      -0.337  50.115 -17.416  1.00  0.00     0.260 C 
ENDROOT
BRANCH   1   2
HETATM    2  O5  UNL     1      -0.270  51.395 -16.779  1.00  0.00    -0.314 OA
BRANCH   2   3
HETATM    3  C16 UNL     1       0.926  51.643 -16.174  1.00  0.00     0.259 C 
HETATM    4  O4  UNL     1       1.915  52.082 -16.747  1.00  0.00    -0.265 OA
BRANCH   3   5
HETATM    5  C15 UNL     1       0.870  51.309 -14.708  1.00  0.00     0.120 C 
BRANCH   5   6
HETATM    6  C14 UNL     1      -0.337  51.992 -14.079  1.00  0.00     0.112 C 
BRANCH   6   7
HETATM    7  C13 UNL     1      -0.102  52.344 -12.629  1.00  0.00     0.218 C 
HETATM    8  N2  UNL     1      -1.181  52.966 -12.052  1.00  0.00    -0.347 N 
HETATM    9  H13 UNL     1      -2.004  53.183 -12.607  1.00  0.00     0.163 HD
HETATM   10  O3  UNL     1       0.937  52.102 -12.025  1.00  0.00    -0.274 OA
BRANCH   8  11
HETATM   11  C3  UNL     1      -1.197  53.388 -10.642  1.00  0.00     0.188 C 
BRANCH  11  12
HETATM   12  C2  UNL     1      -2.574  53.014 -10.092  1.00  0.00     0.281 C 
HETATM   13  O2  UNL     1      -3.538  53.775 -10.105  1.00  0.00    -0.263 OA
BRANCH  12  14
HETATM   14  O1  UNL     1      -2.584  51.745  -9.602  1.00  0.00    -0.325 OA
HETATM   15  C1  UNL     1      -3.765  51.003  -9.906  1.00  0.00     0.213 C 
ENDBRANCH  12  14
ENDBRANCH  11  12
BRANCH  11  16
HETATM   16  C4  UNL     1      -0.961  54.899 -10.506  1.00  0.00     0.076 C 
BRANCH  16  17
HETATM   17  C5  UNL     1       0.030  55.259  -9.441  1.00  0.00    -0.028 A 
HETATM   18  C6  UNL     1      -0.240  55.408  -8.094  1.00  0.00     0.096 A 
HETATM   19  N1  UNL     1       0.919  55.761  -7.458  1.00  0.00    -0.365 N 
HETATM   20  C7  UNL     1       1.952  55.842  -8.362  1.00  0.00     0.042 A 
HETATM   21  H8  UNL     1       1.009  55.938  -6.468  1.00  0.00     0.165 HD
HETATM   22  C8  UNL     1       3.298  56.169  -8.163  1.00  0.00     0.030 A 
HETATM   23  C12 UNL     1       1.426  55.530  -9.617  1.00  0.00    -0.002 A 
HETATM   24  C9  UNL     1       4.134  56.179  -9.283  1.00  0.00     0.002 A 
HETATM   25  C10 UNL     1       3.643  55.872 -10.548  1.00  0.00     0.001 A 
HETATM   26  C11 UNL     1       2.293  55.547 -10.729  1.00  0.00     0.014 A 
ENDBRANCH  16  17
ENDBRANCH  11  16
ENDBRANCH   8  11
ENDBRANCH   6   7
ENDBRANCH   5   6
ENDBRANCH   3   5
ENDBRANCH   2   3
ENDBRANCH   1   2
BRANCH   1  27
HETATM   27  C18 UNL     1      -1.781  49.696 -17.676  1.00  0.00     0.185 C 
HETATM   28  O6  UNL     1      -2.659  49.830 -16.810  1.00  0.00    -0.292 OA
BRANCH  27  29
HETATM   29  C19 UNL     1      -2.173  49.117 -19.050  1.00  0.00     0.128 C 
HETATM   30  C20 UNL     1      -1.192  48.135 -19.701  1.00  0.00     0.047 C 
HETATM   31  C21 UNL     1      -1.439  48.235 -21.213  1.00  0.00     0.009 C 
HETATM   32  C22 UNL     1      -2.524  49.308 -21.413  1.00  0.00     0.002 C 
HETATM   33  C23 UNL     1      -2.457  50.085 -22.745  1.00  0.00    -0.002 C 
HETATM   34  C36 UNL     1      -2.422  50.196 -20.152  1.00  0.00     0.001 C 
HETATM   35  C24 UNL     1      -2.546  49.116 -23.934  1.00  0.00     0.010 C 
HETATM   36  C33 UNL     1      -1.236  51.054 -22.854  1.00  0.00     0.035 C 
HETATM   37  C25 UNL     1      -2.599  49.862 -25.257  1.00  0.00     0.036 C 
HETATM   38  C26 UNL     1      -1.392  50.753 -25.375  1.00  0.00    -0.064 A 
HETATM   39  C27 UNL     1      -0.533  50.569 -26.394  1.00  0.00     0.058 A 
HETATM   40  C31 UNL     1      -1.195  51.799 -24.259  1.00  0.00     0.004 A 
HETATM   41  C28 UNL     1       0.702  51.364 -26.530  1.00  0.00     0.172 A 
HETATM   42  O8  UNL     1       1.467  51.197 -27.471  1.00  0.00    -0.289 OA
HETATM   43  C29 UNL     1       0.976  52.359 -25.482  1.00  0.00     0.052 A 
HETATM   44  C30 UNL     1       0.121  52.545 -24.468  1.00  0.00    -0.009 A 
HETATM   45  C32 UNL     1      -2.309  52.864 -24.376  1.00  0.00     0.025 C 
HETATM   46  C34 UNL     1      -1.231  51.978 -21.603  1.00  0.00     0.124 C 
HETATM   47  C35 UNL     1      -1.238  51.177 -20.294  1.00  0.00     0.045 C 
HETATM   48  C37 UNL     1      -3.726  50.987 -19.930  1.00  0.00     0.019 C 
BRANCH  29  49
HETATM   49  O7  UNL     1      -3.391  48.377 -18.828  1.00  0.00    -0.381 OA
HETATM   50  H20 UNL     1      -3.906  48.881 -18.166  1.00  0.00     0.211 HD
ENDBRANCH  29  49
BRANCH  46  51
HETATM   51  O9  UNL     1      -0.061  52.789 -21.563  1.00  0.00    -0.395 OA
HETATM   52  H39 UNL     1      -0.164  53.429 -20.836  1.00  0.00     0.210 HD
ENDBRANCH  46  51
ENDBRANCH  27  29
ENDBRANCH   1  27
TORSDOF 14
ENDMDL
MODEL 9
REMARK minimizedAffinity -9.23114204
REMARK CNNscore 0.395697474
REMARK CNNaffinity 6.50942564
REMARK  14 active torsions:
REMARK  status: ('A' for Active; 'I' for Inactive)
REMARK    1  A    between atoms: O1_2  and  C2_3 
REMARK    2  A    between atoms: C2_3  and  C3_5 
REMARK    3  A    between atoms: C3_5  and  C4_6 
REMARK    4  A    between atoms: C3_5  and  N2_16 
REMARK    5  A    between atoms: C4_6  and  C5_7 
REMARK       I    between atoms: N2_16  and  C13_17 
REMARK    6  A    between atoms: C13_17  and  C14_19 
REMARK    7  A    between atoms: C14_19  and  C15_20 
REMARK    8  A    between atoms: C15_20  and  C16_21 
REMARK    9  A    between atoms: C16_21  and  O5_23 
REMARK   10  A    between atoms: O5_23  and  C17_24 
REMARK   11  A    between atoms: C17_24  and  C18_25 
REMARK   12  A    between atoms: C18_25  and  C19_27 
REMARK   13  A    between atoms: C19_27  and  O7_28 
REMARK   14  A    between atoms: C34_44  and  O9_45 
ROOT
HETATM    1  C17 UNL     1      -9.230  47.949 -26.397  1.00  0.00     0.260 C 
ENDROOT
BRANCH   1   2
HETATM    2  O5  UNL     1      -7.843  48.139 -26.099  1.00  0.00    -0.314 OA
BRANCH   2   3
HETATM    3  C16 UNL     1      -7.382  47.329 -25.103  1.00  0.00     0.259 C 
HETATM    4  O4  UNL     1      -7.715  46.162 -24.950  1.00  0.00    -0.265 OA
BRANCH   3   5
HETATM    5  C15 UNL     1      -6.409  48.060 -24.219  1.00  0.00     0.120 C 
BRANCH   5   6
HETATM    6  C14 UNL     1      -5.251  48.579 -25.061  1.00  0.00     0.112 C 
BRANCH   6   7
HETATM    7  C13 UNL     1      -4.648  49.840 -24.487  1.00  0.00     0.218 C 
HETATM    8  N2  UNL     1      -3.339  50.020 -24.860  1.00  0.00    -0.347 N 
HETATM    9  H13 UNL     1      -2.866  49.319 -25.424  1.00  0.00     0.163 HD
HETATM   10  O3  UNL     1      -5.257  50.623 -23.767  1.00  0.00    -0.274 OA
BRANCH   8  11
HETATM   11  C3  UNL     1      -2.545  51.186 -24.442  1.00  0.00     0.188 C 
BRANCH  11  12
HETATM   12  C2  UNL     1      -2.300  52.020 -25.700  1.00  0.00     0.281 C 
HETATM   13  O2  UNL     1      -3.182  52.648 -26.278  1.00  0.00    -0.263 OA
BRANCH  12  14
HETATM   14  O1  UNL     1      -0.993  51.976 -26.077  1.00  0.00    -0.325 OA
HETATM   15  C1  UNL     1      -0.296  53.214 -25.940  1.00  0.00     0.213 C 
ENDBRANCH  12  14
ENDBRANCH  11  12
BRANCH  11  16
HETATM   16  C4  UNL     1      -1.210  50.760 -23.816  1.00  0.00     0.076 C 
BRANCH  16  17
HETATM   17  C5  UNL     1      -1.081  51.123 -22.368  1.00  0.00    -0.028 A 
HETATM   18  C6  UNL     1      -1.788  50.563 -21.322  1.00  0.00     0.096 A 
HETATM   19  N1  UNL     1      -1.403  51.178 -20.161  1.00  0.00    -0.365 N 
HETATM   20  C7  UNL     1      -0.448  52.132 -20.423  1.00  0.00     0.042 A 
HETATM   21  H8  UNL     1      -1.764  50.965 -19.242  1.00  0.00     0.165 HD
HETATM   22  C8  UNL     1       0.222  52.997 -19.551  1.00  0.00     0.030 A 
HETATM   23  C12 UNL     1      -0.222  52.120 -21.800  1.00  0.00    -0.002 A 
HETATM   24  C9  UNL     1       1.152  53.881 -20.104  1.00  0.00     0.002 A 
HETATM   25  C10 UNL     1       1.402  53.896 -21.473  1.00  0.00     0.001 A 
HETATM   26  C11 UNL     1       0.723  53.023 -22.331  1.00  0.00     0.014 A 
ENDBRANCH  16  17
ENDBRANCH  11  16
ENDBRANCH   8  11
ENDBRANCH   6   7
ENDBRANCH   5   6
ENDBRANCH   3   5
ENDBRANCH   2   3
ENDBRANCH   1   2
BRANCH   1  27
HETATM   27  C18 UNL     1      -9.487  47.983 -27.901  1.00  0.00     0.185 C 
HETATM   28  O6  UNL     1      -8.746  48.616 -28.669  1.00  0.00    -0.292 OA
BRANCH  27  29
HETATM   29  C19 UNL     1     -10.674  47.197 -28.492  1.00  0.00     0.128 C 
HETATM   30  C20 UNL     1     -11.775  48.009 -29.185  1.00  0.00     0.047 C 
HETATM   31  C21 UNL     1     -13.053  47.164 -29.075  1.00  0.00     0.009 C 
HETATM   32  C22 UNL     1     -12.679  45.901 -28.279  1.00  0.00     0.002 C 
HETATM   33  C23 UNL     1     -13.818  45.274 -27.447  1.00  0.00    -0.002 C 
HETATM   34  C36 UNL     1     -11.443  46.321 -27.452  1.00  0.00     0.001 C 
HETATM   35  C24 UNL     1     -15.004  44.910 -28.355  1.00  0.00     0.010 C 
HETATM   36  C33 UNL     1     -14.249  46.132 -26.215  1.00  0.00     0.035 C 
HETATM   37  C25 UNL     1     -16.094  44.186 -27.581  1.00  0.00     0.036 C 
HETATM   38  C26 UNL     1     -16.539  45.044 -26.427  1.00  0.00    -0.064 A 
HETATM   39  C27 UNL     1     -17.822  45.441 -26.356  1.00  0.00     0.058 A 
HETATM   40  C31 UNL     1     -15.450  45.460 -25.417  1.00  0.00     0.004 A 
HETATM   41  C28 UNL     1     -18.307  46.335 -25.288  1.00  0.00     0.172 A 
HETATM   42  O8  UNL     1     -19.481  46.676 -25.227  1.00  0.00    -0.289 OA
HETATM   43  C29 UNL     1     -17.317  46.803 -24.306  1.00  0.00     0.052 A 
HETATM   44  C30 UNL     1     -16.039  46.406 -24.374  1.00  0.00    -0.009 A 
HETATM   45  C32 UNL     1     -14.990  44.205 -24.640  1.00  0.00     0.025 C 
HETATM   46  C34 UNL     1     -12.981  46.454 -25.375  1.00  0.00     0.124 C 
HETATM   47  C35 UNL     1     -11.889  47.130 -26.215  1.00  0.00     0.045 C 
HETATM   48  C37 UNL     1     -10.637  45.086 -27.001  1.00  0.00     0.019 C 
BRANCH  29  49
HETATM   49  O7  UNL     1     -10.110  46.343 -29.507  1.00  0.00    -0.381 OA
HETATM   50  H20 UNL     1      -9.240  46.047 -29.170  1.00  0.00     0.211 HD
ENDBRANCH  29  49
BRANCH  46  51
HETATM   51  O9  UNL     1     -13.278  47.357 -24.314  1.00  0.00    -0.395 OA
HETATM   52  H39 UNL     1     -12.487  47.428 -23.751  1.00  0.00     0.210 HD
ENDBRANCH  46  51
ENDBRANCH  27  29
ENDBRANCH   1  27
TORSDOF 14
ENDMDL
