MODEL 1
REMARK minimizedAffinity -9.3365469
REMARK  9 active torsions:
REMARK  status: ('A' for Active; 'I' for Inactive)
REMARK    1  A    between atoms: C12_14  and  C13_15 
REMARK    2  A    between atoms: C13_15  and  C15_17 
REMARK    3  A    between atoms: C15_17  and  C16_18 
REMARK    4  A    between atoms: C16_18  and  C17_19 
REMARK    5  A    between atoms: C18_20  and  C20_22 
REMARK    6  A    between atoms: C26_29  and  C27_30 
REMARK    7  A    between atoms: C27_30  and  C28_31 
REMARK    8  A    between atoms: C28_31  and  C29_32 
REMARK    9  A    between atoms: C29_32  and  O5_34 
ROOT
HETATM    1  C1  UNL     1       1.056  54.201 -23.737  1.00  0.00     0.025 C 
HETATM    2  C2  UNL     1       0.694  53.206 -22.916  1.00  0.00     0.015 C 
HETATM    3  C3  UNL     1       0.918  53.288 -21.457  1.00  0.00     0.289 C 
HETATM    4  O1  UNL     1       1.529  54.159 -20.867  1.00  0.00    -0.260 OA
HETATM    5  O2  UNL     1       0.336  52.204 -20.884  1.00  0.00    -0.311 OA
HETATM    6  C4  UNL     1      -0.460  51.485 -21.847  1.00  0.00     0.142 C 
HETATM    7  C5  UNL     1      -1.926  51.777 -21.558  1.00  0.00     0.039 C 
HETATM    8  C6  UNL     1      -2.927  51.263 -22.603  1.00  0.00     0.006 C 
HETATM    9  C7  UNL     1      -2.476  51.521 -24.061  1.00  0.00    -0.027 A 
HETATM   10  C8  UNL     1      -3.416  50.939 -25.137  1.00  0.00     0.011 C 
HETATM   11  C9  UNL     1      -3.982  49.541 -24.844  1.00  0.00     0.011 C 
HETATM   12  C10 UNL     1      -4.570  49.458 -23.428  1.00  0.00    -0.032 C 
HETATM   13  C11 UNL     1      -5.766  50.447 -23.339  1.00  0.00     0.016 C 
HETATM   14  C12 UNL     1      -5.033  48.050 -22.923  1.00  0.00    -0.002 C 
HETATM   15  C21 UNL     1      -4.852  48.149 -21.376  1.00  0.00     0.006 C 
HETATM   16  C22 UNL     1      -4.041  49.426 -21.088  1.00  0.00     0.011 C 
HETATM   17  C23 UNL     1      -3.381  49.779 -22.429  1.00  0.00    -0.032 C 
HETATM   18  C24 UNL     1      -2.150  48.830 -22.590  1.00  0.00     0.016 C 
HETATM   19  C25 UNL     1      -2.037  52.928 -24.391  1.00  0.00     0.022 A 
HETATM   20  C26 UNL     1      -0.978  51.838 -24.364  1.00  0.00    -0.021 A 
HETATM   21  C30 UNL     1       0.048  51.894 -23.222  1.00  0.00     0.063 C 
ENDROOT
BRANCH  14  22
HETATM   22  C13 UNL     1      -6.376  47.376 -23.345  1.00  0.00    -0.014 C 
HETATM   23  C14 UNL     1      -7.393  47.084 -22.231  1.00  0.00     0.010 C 
BRANCH  22  24
HETATM   24  C15 UNL     1      -7.113  48.081 -24.506  1.00  0.00     0.008 C 
BRANCH  24  25
HETATM   25  C16 UNL     1      -7.196  47.254 -25.792  1.00  0.00     0.028 C 
BRANCH  25  26
HETATM   26  C17 UNL     1      -6.256  47.791 -26.838  1.00  0.00    -0.017 C 
HETATM   27  C18 UNL     1      -6.167  47.397 -28.122  1.00  0.00    -0.028 C 
HETATM   28  C19 UNL     1      -7.000  46.366 -28.818  1.00  0.00     0.051 C 
BRANCH  27  29
HETATM   29  C20 UNL     1      -5.137  48.069 -28.966  1.00  0.00     0.265 C 
HETATM   30  O3  UNL     1      -4.010  48.322 -28.558  1.00  0.00    -0.302 OA
ENDBRANCH  27  29
ENDBRANCH  25  26
ENDBRANCH  24  25
ENDBRANCH  22  24
ENDBRANCH  14  22
BRANCH  20  31
HETATM   31  C27 UNL     1      -0.372  51.303 -25.672  1.00  0.00     0.021 C 
BRANCH  31  32
HETATM   32  C28 UNL     1       0.639  52.218 -26.353  1.00  0.00     0.111 C 
BRANCH  32  33
HETATM   33  C29 UNL     1      -0.047  53.068 -27.382  1.00  0.00     0.139 C 
HETATM   34  O4  UNL     1      -0.442  54.210 -27.224  1.00  0.00    -0.650 OA
BRANCH  33  35
HETATM   35  O5  UNL     1      -0.175  52.450 -28.570  1.00  0.00    -0.776 OA
HETATM   36  H41 UNL     1      -0.628  53.110 -29.136  1.00  0.00     0.167 HD
ENDBRANCH  33  35
ENDBRANCH  32  33
ENDBRANCH  31  32
ENDBRANCH  20  31
TORSDOF 9
ENDMDL
MODEL 2
REMARK minimizedAffinity -9.10737324
REMARK  9 active torsions:
REMARK  status: ('A' for Active; 'I' for Inactive)
REMARK    1  A    between atoms: C12_14  and  C13_15 
REMARK    2  A    between atoms: C13_15  and  C15_17 
REMARK    3  A    between atoms: C15_17  and  C16_18 
REMARK    4  A    between atoms: C16_18  and  C17_19 
REMARK    5  A    between atoms: C18_20  and  C20_22 
REMARK    6  A    between atoms: C26_29  and  C27_30 
REMARK    7  A    between atoms: C27_30  and  C28_31 
REMARK    8  A    between atoms: C28_31  and  C29_32 
REMARK    9  A    between atoms: C29_32  and  O5_34 
ROOT
HETATM    1  C1  UNL     1      -6.109  47.874 -25.996  1.00  0.00     0.025 C 
HETATM    2  C2  UNL     1      -6.221  48.391 -24.766  1.00  0.00     0.015 C 
HETATM    3  C3  UNL     1      -7.209  47.872 -23.797  1.00  0.00     0.289 C 
HETATM    4  O1  UNL     1      -8.073  47.044 -24.017  1.00  0.00    -0.260 OA
HETATM    5  O2  UNL     1      -6.998  48.497 -22.610  1.00  0.00    -0.311 OA
HETATM    6  C4  UNL     1      -5.782  49.269 -22.651  1.00  0.00     0.142 C 
HETATM    7  C5  UNL     1      -4.724  48.520 -21.852  1.00  0.00     0.039 C 
HETATM    8  C6  UNL     1      -3.297  49.081 -21.945  1.00  0.00     0.006 C 
HETATM    9  C7  UNL     1      -2.885  49.471 -23.385  1.00  0.00    -0.027 A 
HETATM   10  C8  UNL     1      -1.491  50.120 -23.501  1.00  0.00     0.011 C 
HETATM   11  C9  UNL     1      -1.129  51.129 -22.400  1.00  0.00     0.011 C 
HETATM   12  C10 UNL     1      -1.409  50.560 -21.001  1.00  0.00    -0.032 C 
HETATM   13  C11 UNL     1      -0.492  49.324 -20.787  1.00  0.00     0.016 C 
HETATM   14  C12 UNL     1      -1.250  51.532 -19.784  1.00  0.00    -0.002 C 
HETATM   15  C21 UNL     1      -2.250  50.955 -18.735  1.00  0.00     0.006 C 
HETATM   16  C22 UNL     1      -3.131  49.919 -19.458  1.00  0.00     0.011 C 
HETATM   17  C23 UNL     1      -2.961  50.237 -20.951  1.00  0.00    -0.032 C 
HETATM   18  C24 UNL     1      -3.870  51.472 -21.255  1.00  0.00     0.016 C 
HETATM   19  C25 UNL     1      -3.120  48.433 -24.457  1.00  0.00     0.022 A 
HETATM   20  C26 UNL     1      -3.983  49.684 -24.473  1.00  0.00    -0.021 A 
HETATM   21  C30 UNL     1      -5.468  49.509 -24.121  1.00  0.00     0.063 C 
ENDROOT
BRANCH  14  22
HETATM   22  C13 UNL     1       0.127  51.931 -19.169  1.00  0.00    -0.014 C 
HETATM   23  C14 UNL     1       0.610  53.370 -19.410  1.00  0.00     0.010 C 
BRANCH  22  24
HETATM   24  C15 UNL     1       0.277  51.613 -17.664  1.00  0.00     0.008 C 
BRANCH  24  25
HETATM   25  C16 UNL     1       1.309  52.482 -16.939  1.00  0.00     0.028 C 
BRANCH  25  26
HETATM   26  C17 UNL     1       1.940  51.729 -15.799  1.00  0.00    -0.017 C 
HETATM   27  C18 UNL     1       3.235  51.756 -15.433  1.00  0.00    -0.028 C 
HETATM   28  C19 UNL     1       4.338  52.563 -16.045  1.00  0.00     0.051 C 
BRANCH  27  29
HETATM   29  C20 UNL     1       3.629  50.902 -14.275  1.00  0.00     0.265 C 
HETATM   30  O3  UNL     1       4.636  50.205 -14.279  1.00  0.00    -0.302 OA
ENDBRANCH  27  29
ENDBRANCH  25  26
ENDBRANCH  24  25
ENDBRANCH  22  24
ENDBRANCH  14  22
BRANCH  20  31
HETATM   31  C27 UNL     1      -3.756  50.777 -25.530  1.00  0.00     0.021 C 
BRANCH  31  32
HETATM   32  C28 UNL     1      -2.670  50.486 -26.558  1.00  0.00     0.111 C 
BRANCH  32  33
HETATM   33  C29 UNL     1      -3.277  49.899 -27.798  1.00  0.00     0.139 C 
HETATM   34  O4  UNL     1      -3.630  48.742 -27.949  1.00  0.00    -0.650 OA
BRANCH  33  35
HETATM   35  O5  UNL     1      -3.441  50.805 -28.780  1.00  0.00    -0.776 OA
HETATM   36  H41 UNL     1      -3.842  50.293 -29.513  1.00  0.00     0.167 HD
ENDBRANCH  33  35
ENDBRANCH  32  33
ENDBRANCH  31  32
ENDBRANCH  20  31
TORSDOF 9
ENDMDL
MODEL 3
REMARK minimizedAffinity -9.0222044
REMARK  9 active torsions:
REMARK  status: ('A' for Active; 'I' for Inactive)
REMARK    1  A    between atoms: C12_14  and  C13_15 
REMARK    2  A    between atoms: C13_15  and  C15_17 
REMARK    3  A    between atoms: C15_17  and  C16_18 
REMARK    4  A    between atoms: C16_18  and  C17_19 
REMARK    5  A    between atoms: C18_20  and  C20_22 
REMARK    6  A    between atoms: C26_29  and  C27_30 
REMARK    7  A    between atoms: C27_30  and  C28_31 
REMARK    8  A    between atoms: C28_31  and  C29_32 
REMARK    9  A    between atoms: C29_32  and  O5_34 
ROOT
HETATM    1  C1  UNL     1      -1.313  51.172 -27.852  1.00  0.00     0.025 C 
HETATM    2  C2  UNL     1      -2.250  50.946 -26.921  1.00  0.00     0.015 C 
HETATM    3  C3  UNL     1      -3.323  49.951 -27.132  1.00  0.00     0.289 C 
HETATM    4  O1  UNL     1      -3.551  49.338 -28.158  1.00  0.00    -0.260 OA
HETATM    5  O2  UNL     1      -4.033  49.853 -25.978  1.00  0.00    -0.311 OA
HETATM    6  C4  UNL     1      -3.378  50.572 -24.915  1.00  0.00     0.142 C 
HETATM    7  C5  UNL     1      -2.724  49.552 -23.991  1.00  0.00     0.039 C 
HETATM    8  C6  UNL     1      -1.803  50.129 -22.906  1.00  0.00     0.006 C 
HETATM    9  C7  UNL     1      -0.866  51.245 -23.429  1.00  0.00    -0.027 A 
HETATM   10  C8  UNL     1       0.010  51.907 -22.346  1.00  0.00     0.011 C 
HETATM   11  C9  UNL     1      -0.683  52.184 -21.002  1.00  0.00     0.011 C 
HETATM   12  C10 UNL     1      -1.431  50.945 -20.490  1.00  0.00    -0.032 C 
HETATM   13  C11 UNL     1      -0.389  49.821 -20.228  1.00  0.00     0.016 C 
HETATM   14  C12 UNL     1      -2.326  51.120 -19.217  1.00  0.00    -0.002 C 
HETATM   15  C21 UNL     1      -3.430  50.034 -19.405  1.00  0.00     0.006 C 
HETATM   16  C22 UNL     1      -3.322  49.513 -20.850  1.00  0.00     0.011 C 
HETATM   17  C23 UNL     1      -2.513  50.587 -21.593  1.00  0.00    -0.032 C 
HETATM   18  C24 UNL     1      -3.500  51.757 -21.909  1.00  0.00     0.016 C 
HETATM   19  C25 UNL     1      -0.083  50.934 -24.682  1.00  0.00     0.022 A 
HETATM   20  C26 UNL     1      -1.195  51.965 -24.774  1.00  0.00    -0.021 A 
HETATM   21  C30 UNL     1      -2.443  51.572 -25.579  1.00  0.00     0.063 C 
ENDROOT
BRANCH  14  22
HETATM   22  C13 UNL     1      -1.761  51.180 -17.764  1.00  0.00    -0.014 C 
HETATM   23  C14 UNL     1      -2.609  50.535 -16.656  1.00  0.00     0.010 C 
BRANCH  22  24
HETATM   24  C15 UNL     1      -0.306  50.681 -17.616  1.00  0.00     0.008 C 
BRANCH  24  25
HETATM   25  C16 UNL     1       0.706  51.785 -17.295  1.00  0.00     0.028 C 
BRANCH  25  26
HETATM   26  C17 UNL     1       1.390  51.522 -15.981  1.00  0.00    -0.017 C 
HETATM   27  C18 UNL     1       2.599  51.970 -15.596  1.00  0.00    -0.028 C 
HETATM   28  C19 UNL     1       3.527  52.859 -16.363  1.00  0.00     0.051 C 
BRANCH  27  29
HETATM   29  C20 UNL     1       3.076  51.556 -14.244  1.00  0.00     0.265 C 
HETATM   30  O3  UNL     1       2.319  51.154 -13.370  1.00  0.00    -0.302 OA
ENDBRANCH  27  29
ENDBRANCH  25  26
ENDBRANCH  24  25
ENDBRANCH  22  24
ENDBRANCH  14  22
BRANCH  20  31
HETATM   31  C27 UNL     1      -0.865  53.462 -24.896  1.00  0.00     0.021 C 
BRANCH  31  32
HETATM   32  C28 UNL     1       0.315  53.806 -25.796  1.00  0.00     0.111 C 
BRANCH  32  33
HETATM   33  C29 UNL     1      -0.115  54.763 -26.868  1.00  0.00     0.139 C 
HETATM   34  O4  UNL     1      -0.789  54.491 -27.847  1.00  0.00    -0.650 OA
BRANCH  33  35
HETATM   35  O5  UNL     1       0.296  56.024 -26.641  1.00  0.00    -0.776 OA
HETATM   36  H41 UNL     1      -0.053  56.531 -27.404  1.00  0.00     0.167 HD
ENDBRANCH  33  35
ENDBRANCH  32  33
ENDBRANCH  31  32
ENDBRANCH  20  31
TORSDOF 9
ENDMDL
MODEL 4
REMARK minimizedAffinity -8.91443729
REMARK  9 active torsions:
REMARK  status: ('A' for Active; 'I' for Inactive)
REMARK    1  A    between atoms: C12_14  and  C13_15 
REMARK    2  A    between atoms: C13_15  and  C15_17 
REMARK    3  A    between atoms: C15_17  and  C16_18 
REMARK    4  A    between atoms: C16_18  and  C17_19 
REMARK    5  A    between atoms: C18_20  and  C20_22 
REMARK    6  A    between atoms: C26_29  and  C27_30 
REMARK    7  A    between atoms: C27_30  and  C28_31 
REMARK    8  A    between atoms: C28_31  and  C29_32 
REMARK    9  A    between atoms: C29_32  and  O5_34 
ROOT
HETATM    1  C1  UNL     1       1.217  54.319 -23.693  1.00  0.00     0.025 C 
HETATM    2  C2  UNL     1       0.819  53.338 -22.872  1.00  0.00     0.015 C 
HETATM    3  C3  UNL     1       0.971  53.448 -21.406  1.00  0.00     0.289 C 
HETATM    4  O1  UNL     1       1.548  54.334 -20.803  1.00  0.00    -0.260 OA
HETATM    5  O2  UNL     1       0.366  52.372 -20.842  1.00  0.00    -0.311 OA
HETATM    6  C4  UNL     1      -0.378  51.631 -21.829  1.00  0.00     0.142 C 
HETATM    7  C5  UNL     1      -1.858  51.921 -21.617  1.00  0.00     0.039 C 
HETATM    8  C6  UNL     1      -2.804  51.382 -22.700  1.00  0.00     0.006 C 
HETATM    9  C7  UNL     1      -2.284  51.615 -24.139  1.00  0.00    -0.027 A 
HETATM   10  C8  UNL     1      -3.167  51.008 -25.248  1.00  0.00     0.011 C 
HETATM   11  C9  UNL     1      -3.741  49.612 -24.957  1.00  0.00     0.011 C 
HETATM   12  C10 UNL     1      -4.397  49.552 -23.570  1.00  0.00    -0.032 C 
HETATM   13  C11 UNL     1      -5.600  50.536 -23.558  1.00  0.00     0.016 C 
HETATM   14  C12 UNL     1      -4.878  48.151 -23.061  1.00  0.00    -0.002 C 
HETATM   15  C21 UNL     1      -4.773  48.280 -21.510  1.00  0.00     0.006 C 
HETATM   16  C22 UNL     1      -3.983  49.567 -21.207  1.00  0.00     0.011 C 
HETATM   17  C23 UNL     1      -3.260  49.899 -22.520  1.00  0.00    -0.032 C 
HETATM   18  C24 UNL     1      -2.018  48.954 -22.603  1.00  0.00     0.016 C 
HETATM   19  C25 UNL     1      -1.835  53.018 -24.473  1.00  0.00     0.022 A 
HETATM   20  C26 UNL     1      -0.774  51.934 -24.374  1.00  0.00    -0.021 A 
HETATM   21  C30 UNL     1       0.195  52.017 -23.185  1.00  0.00     0.063 C 
ENDROOT
BRANCH  14  22
HETATM   22  C13 UNL     1      -6.195  47.463 -23.536  1.00  0.00    -0.014 C 
HETATM   23  C14 UNL     1      -7.441  47.655 -22.658  1.00  0.00     0.010 C 
BRANCH  22  24
HETATM   24  C15 UNL     1      -6.583  47.756 -25.003  1.00  0.00     0.008 C 
BRANCH  24  25
HETATM   25  C16 UNL     1      -8.011  47.343 -25.369  1.00  0.00     0.028 C 
BRANCH  25  26
HETATM   26  C17 UNL     1      -8.278  47.569 -26.833  1.00  0.00    -0.017 C 
HETATM   27  C18 UNL     1      -9.460  47.872 -27.400  1.00  0.00    -0.028 C 
HETATM   28  C19 UNL     1     -10.772  48.091 -26.712  1.00  0.00     0.051 C 
BRANCH  27  29
HETATM   29  C20 UNL     1      -9.479  48.029 -28.884  1.00  0.00     0.265 C 
HETATM   30  O3  UNL     1      -8.487  48.349 -29.527  1.00  0.00    -0.302 OA
ENDBRANCH  27  29
ENDBRANCH  25  26
ENDBRANCH  24  25
ENDBRANCH  22  24
ENDBRANCH  14  22
BRANCH  20  31
HETATM   31  C27 UNL     1      -0.102  51.378 -25.640  1.00  0.00     0.021 C 
BRANCH  31  32
HETATM   32  C28 UNL     1       1.418  51.482 -25.681  1.00  0.00     0.111 C 
BRANCH  32  33
HETATM   33  C29 UNL     1       1.882  51.709 -27.089  1.00  0.00     0.139 C 
HETATM   34  O4  UNL     1       1.194  52.086 -28.021  1.00  0.00    -0.650 OA
BRANCH  33  35
HETATM   35  O5  UNL     1       3.199  51.481 -27.249  1.00  0.00    -0.776 OA
HETATM   36  H41 UNL     1       3.361  51.668 -28.198  1.00  0.00     0.167 HD
ENDBRANCH  33  35
ENDBRANCH  32  33
ENDBRANCH  31  32
ENDBRANCH  20  31
TORSDOF 9
ENDMDL
MODEL 5
REMARK minimizedAffinity -8.85460949
REMARK  9 active torsions:
REMARK  status: ('A' for Active; 'I' for Inactive)
REMARK    1  A    between atoms: C12_14  and  C13_15 
REMARK    2  A    between atoms: C13_15  and  C15_17 
REMARK    3  A    between atoms: C15_17  and  C16_18 
REMARK    4  A    between atoms: C16_18  and  C17_19 
REMARK    5  A    between atoms: C18_20  and  C20_22 
REMARK    6  A    between atoms: C26_29  and  C27_30 
REMARK    7  A    between atoms: C27_30  and  C28_31 
REMARK    8  A    between atoms: C28_31  and  C29_32 
REMARK    9  A    between atoms: C29_32  and  O5_34 
ROOT
HETATM    1  C1  UNL     1       0.681  52.050 -16.559  1.00  0.00     0.025 C 
HETATM    2  C2  UNL     1       0.233  50.853 -16.959  1.00  0.00     0.015 C 
HETATM    3  C3  UNL     1      -0.146  49.806 -15.986  1.00  0.00     0.289 C 
HETATM    4  O1  UNL     1       0.004  49.851 -14.779  1.00  0.00    -0.260 OA
HETATM    5  O2  UNL     1      -0.678  48.767 -16.678  1.00  0.00    -0.311 OA
HETATM    6  C4  UNL     1      -0.880  49.124 -18.059  1.00  0.00     0.142 C 
HETATM    7  C5  UNL     1      -2.371  49.354 -18.272  1.00  0.00     0.039 C 
HETATM    8  C6  UNL     1      -2.767  49.943 -19.635  1.00  0.00     0.006 C 
HETATM    9  C7  UNL     1      -1.847  51.101 -20.092  1.00  0.00    -0.027 A 
HETATM   10  C8  UNL     1      -2.162  51.656 -21.495  1.00  0.00     0.011 C 
HETATM   11  C9  UNL     1      -2.510  50.609 -22.566  1.00  0.00     0.011 C 
HETATM   12  C10 UNL     1      -3.571  49.621 -22.061  1.00  0.00    -0.032 C 
HETATM   13  C11 UNL     1      -4.878  50.413 -21.777  1.00  0.00     0.016 C 
HETATM   14  C12 UNL     1      -3.906  48.396 -22.977  1.00  0.00    -0.002 C 
HETATM   15  C21 UNL     1      -4.362  47.304 -21.960  1.00  0.00     0.006 C 
HETATM   16  C22 UNL     1      -3.994  47.805 -20.551  1.00  0.00     0.011 C 
HETATM   17  C23 UNL     1      -2.950  48.907 -20.789  1.00  0.00    -0.032 C 
HETATM   18  C24 UNL     1      -1.592  48.188 -21.071  1.00  0.00     0.016 C 
HETATM   19  C25 UNL     1      -1.601  52.201 -19.087  1.00  0.00     0.022 A 
HETATM   20  C26 UNL     1      -0.443  51.280 -19.434  1.00  0.00    -0.021 A 
HETATM   21  C30 UNL     1       0.028  50.313 -18.337  1.00  0.00     0.063 C 
ENDROOT
BRANCH  14  22
HETATM   22  C13 UNL     1      -4.819  48.482 -24.240  1.00  0.00    -0.014 C 
HETATM   23  C14 UNL     1      -6.254  48.991 -24.033  1.00  0.00     0.010 C 
BRANCH  22  24
HETATM   24  C15 UNL     1      -4.199  49.244 -25.432  1.00  0.00     0.008 C 
BRANCH  24  25
HETATM   25  C16 UNL     1      -3.337  48.375 -26.353  1.00  0.00     0.028 C 
BRANCH  25  26
HETATM   26  C17 UNL     1      -3.815  48.462 -27.777  1.00  0.00    -0.017 C 
HETATM   27  C18 UNL     1      -5.019  48.088 -28.249  1.00  0.00    -0.028 C 
HETATM   28  C19 UNL     1      -6.171  47.534 -27.469  1.00  0.00     0.051 C 
BRANCH  27  29
HETATM   29  C20 UNL     1      -5.254  48.253 -29.713  1.00  0.00     0.265 C 
HETATM   30  O3  UNL     1      -4.824  49.208 -30.348  1.00  0.00    -0.302 OA
ENDBRANCH  27  29
ENDBRANCH  25  26
ENDBRANCH  24  25
ENDBRANCH  22  24
ENDBRANCH  14  22
BRANCH  20  31
HETATM   31  C27 UNL     1       0.715  51.777 -20.315  1.00  0.00     0.021 C 
BRANCH  31  32
HETATM   32  C28 UNL     1       0.951  53.282 -20.308  1.00  0.00     0.111 C 
BRANCH  32  33
HETATM   33  C29 UNL     1       1.191  53.773 -21.705  1.00  0.00     0.139 C 
HETATM   34  O4  UNL     1       0.744  53.284 -22.727  1.00  0.00    -0.650 OA
BRANCH  33  35
HETATM   35  O5  UNL     1       1.960  54.878 -21.745  1.00  0.00    -0.776 OA
HETATM   36  H41 UNL     1       2.030  55.085 -22.701  1.00  0.00     0.167 HD
ENDBRANCH  33  35
ENDBRANCH  32  33
ENDBRANCH  31  32
ENDBRANCH  20  31
TORSDOF 9
ENDMDL
MODEL 6
REMARK minimizedAffinity -8.80796909
REMARK  9 active torsions:
REMARK  status: ('A' for Active; 'I' for Inactive)
REMARK    1  A    between atoms: C12_14  and  C13_15 
REMARK    2  A    between atoms: C13_15  and  C15_17 
REMARK    3  A    between atoms: C15_17  and  C16_18 
REMARK    4  A    between atoms: C16_18  and  C17_19 
REMARK    5  A    between atoms: C18_20  and  C20_22 
REMARK    6  A    between atoms: C26_29  and  C27_30 
REMARK    7  A    between atoms: C27_30  and  C28_31 
REMARK    8  A    between atoms: C28_31  and  C29_32 
REMARK    9  A    between atoms: C29_32  and  O5_34 
ROOT
HETATM    1  C1  UNL     1       0.937  54.267 -23.668  1.00  0.00     0.025 C 
HETATM    2  C2  UNL     1       0.789  53.303 -22.750  1.00  0.00     0.015 C 
HETATM    3  C3  UNL     1       1.170  53.516 -21.338  1.00  0.00     0.289 C 
HETATM    4  O1  UNL     1       1.743  54.488 -20.881  1.00  0.00    -0.260 OA
HETATM    5  O2  UNL     1       0.787  52.421 -20.632  1.00  0.00    -0.311 OA
HETATM    6  C4  UNL     1      -0.027  51.552 -21.444  1.00  0.00     0.142 C 
HETATM    7  C5  UNL     1      -1.473  51.708 -20.993  1.00  0.00     0.039 C 
HETATM    8  C6  UNL     1      -2.524  51.014 -21.873  1.00  0.00     0.006 C 
HETATM    9  C7  UNL     1      -2.279  51.210 -23.389  1.00  0.00    -0.027 A 
HETATM   10  C8  UNL     1      -3.264  50.454 -24.303  1.00  0.00     0.011 C 
HETATM   11  C9  UNL     1      -3.629  49.028 -23.858  1.00  0.00     0.011 C 
HETATM   12  C10 UNL     1      -4.034  48.988 -22.377  1.00  0.00    -0.032 C 
HETATM   13  C11 UNL     1      -5.317  49.848 -22.201  1.00  0.00     0.016 C 
HETATM   14  C12 UNL     1      -4.271  47.580 -21.735  1.00  0.00    -0.002 C 
HETATM   15  C21 UNL     1      -3.924  47.811 -20.231  1.00  0.00     0.006 C 
HETATM   16  C22 UNL     1      -3.236  49.185 -20.123  1.00  0.00     0.011 C 
HETATM   17  C23 UNL     1      -2.782  49.507 -21.555  1.00  0.00    -0.032 C 
HETATM   18  C24 UNL     1      -1.477  48.685 -21.810  1.00  0.00     0.016 C 
HETATM   19  C25 UNL     1      -2.045  52.627 -23.855  1.00  0.00     0.022 A 
HETATM   20  C26 UNL     1      -0.872  51.661 -23.894  1.00  0.00    -0.021 A 
HETATM   21  C30 UNL     1       0.267  51.911 -22.894  1.00  0.00     0.063 C 
ENDROOT
BRANCH  14  22
HETATM   22  C13 UNL     1      -5.567  46.738 -21.946  1.00  0.00    -0.014 C 
HETATM   23  C14 UNL     1      -6.129  45.999 -20.721  1.00  0.00     0.010 C 
BRANCH  22  24
HETATM   24  C15 UNL     1      -6.725  47.498 -22.629  1.00  0.00     0.008 C 
BRANCH  24  25
HETATM   25  C16 UNL     1      -7.123  46.938 -23.998  1.00  0.00     0.028 C 
BRANCH  25  26
HETATM   26  C17 UNL     1      -8.190  47.785 -24.637  1.00  0.00    -0.017 C 
HETATM   27  C18 UNL     1      -8.389  47.974 -25.955  1.00  0.00    -0.028 C 
HETATM   28  C19 UNL     1      -7.627  47.360 -27.088  1.00  0.00     0.051 C 
BRANCH  27  29
HETATM   29  C20 UNL     1      -9.506  48.882 -26.348  1.00  0.00     0.265 C 
HETATM   30  O3  UNL     1      -9.790  49.892 -25.717  1.00  0.00    -0.302 OA
ENDBRANCH  27  29
ENDBRANCH  25  26
ENDBRANCH  24  25
ENDBRANCH  22  24
ENDBRANCH  14  22
BRANCH  20  31
HETATM   31  C27 UNL     1      -0.365  51.099 -25.232  1.00  0.00     0.021 C 
BRANCH  31  32
HETATM   32  C28 UNL     1      -0.702  51.928 -26.466  1.00  0.00     0.111 C 
BRANCH  32  33
HETATM   33  C29 UNL     1       0.403  52.902 -26.750  1.00  0.00     0.139 C 
HETATM   34  O4  UNL     1       0.268  54.059 -27.108  1.00  0.00    -0.650 OA
BRANCH  33  35
HETATM   35  O5  UNL     1       1.626  52.381 -26.538  1.00  0.00    -0.776 OA
HETATM   36  H41 UNL     1       2.239  53.115 -26.756  1.00  0.00     0.167 HD
ENDBRANCH  33  35
ENDBRANCH  32  33
ENDBRANCH  31  32
ENDBRANCH  20  31
TORSDOF 9
ENDMDL
MODEL 7
REMARK minimizedAffinity -8.69817638
REMARK  9 active torsions:
REMARK  status: ('A' for Active; 'I' for Inactive)
REMARK    1  A    between atoms: C12_14  and  C13_15 
REMARK    2  A    between atoms: C13_15  and  C15_17 
REMARK    3  A    between atoms: C15_17  and  C16_18 
REMARK    4  A    between atoms: C16_18  and  C17_19 
REMARK    5  A    between atoms: C18_20  and  C20_22 
REMARK    6  A    between atoms: C26_29  and  C27_30 
REMARK    7  A    between atoms: C27_30  and  C28_31 
REMARK    8  A    between atoms: C28_31  and  C29_32 
REMARK    9  A    between atoms: C29_32  and  O5_34 
ROOT
HETATM    1  C1  UNL     1       0.722  52.207 -16.612  1.00  0.00     0.025 C 
HETATM    2  C2  UNL     1       0.328  50.991 -17.014  1.00  0.00     0.015 C 
HETATM    3  C3  UNL     1      -0.024  49.934 -16.044  1.00  0.00     0.289 C 
HETATM    4  O1  UNL     1       0.105  49.988 -14.834  1.00  0.00    -0.260 OA
HETATM    5  O2  UNL     1      -0.504  48.871 -16.740  1.00  0.00    -0.311 OA
HETATM    6  C4  UNL     1      -0.699  49.217 -18.125  1.00  0.00     0.142 C 
HETATM    7  C5  UNL     1      -2.194  49.386 -18.361  1.00  0.00     0.039 C 
HETATM    8  C6  UNL     1      -2.592  49.955 -19.732  1.00  0.00     0.006 C 
HETATM    9  C7  UNL     1      -1.712  51.147 -20.179  1.00  0.00    -0.027 A 
HETATM   10  C8  UNL     1      -2.027  51.685 -21.589  1.00  0.00     0.011 C 
HETATM   11  C9  UNL     1      -2.317  50.622 -22.661  1.00  0.00     0.011 C 
HETATM   12  C10 UNL     1      -3.346  49.594 -22.169  1.00  0.00    -0.032 C 
HETATM   13  C11 UNL     1      -4.687  50.335 -21.907  1.00  0.00     0.016 C 
HETATM   14  C12 UNL     1      -3.617  48.354 -23.086  1.00  0.00    -0.002 C 
HETATM   15  C21 UNL     1      -4.045  47.248 -22.072  1.00  0.00     0.006 C 
HETATM   16  C22 UNL     1      -3.719  47.768 -20.659  1.00  0.00     0.011 C 
HETATM   17  C23 UNL     1      -2.717  48.909 -20.885  1.00  0.00    -0.032 C 
HETATM   18  C24 UNL     1      -1.326  48.244 -21.144  1.00  0.00     0.016 C 
HETATM   19  C25 UNL     1      -1.525  52.259 -19.175  1.00  0.00     0.022 A 
HETATM   20  C26 UNL     1      -0.326  51.384 -19.500  1.00  0.00    -0.021 A 
HETATM   21  C30 UNL     1       0.166  50.440 -18.393  1.00  0.00     0.063 C 
ENDROOT
BRANCH  14  22
HETATM   22  C13 UNL     1      -4.514  48.399 -24.362  1.00  0.00    -0.014 C 
HETATM   23  C14 UNL     1      -6.031  48.275 -24.157  1.00  0.00     0.010 C 
BRANCH  22  24
HETATM   24  C15 UNL     1      -4.245  49.602 -25.295  1.00  0.00     0.008 C 
BRANCH  24  25
HETATM   25  C16 UNL     1      -2.901  49.541 -26.027  1.00  0.00     0.028 C 
BRANCH  25  26
HETATM   26  C17 UNL     1      -2.513  50.897 -26.553  1.00  0.00    -0.017 C 
HETATM   27  C18 UNL     1      -1.264  51.369 -26.723  1.00  0.00    -0.028 C 
HETATM   28  C19 UNL     1       0.024  50.651 -26.467  1.00  0.00     0.051 C 
BRANCH  27  29
HETATM   29  C20 UNL     1      -1.132  52.761 -27.243  1.00  0.00     0.265 C 
HETATM   30  O3  UNL     1      -2.096  53.428 -27.599  1.00  0.00    -0.302 OA
ENDBRANCH  27  29
ENDBRANCH  25  26
ENDBRANCH  24  25
ENDBRANCH  22  24
ENDBRANCH  14  22
BRANCH  20  31
HETATM   31  C27 UNL     1       0.824  51.924 -20.366  1.00  0.00     0.021 C 
BRANCH  31  32
HETATM   32  C28 UNL     1       0.957  53.441 -20.415  1.00  0.00     0.111 C 
BRANCH  32  33
HETATM   33  C29 UNL     1       1.255  53.887 -21.816  1.00  0.00     0.139 C 
HETATM   34  O4  UNL     1       0.822  53.386 -22.839  1.00  0.00    -0.650 OA
BRANCH  33  35
HETATM   35  O5  UNL     1       2.062  54.964 -21.861  1.00  0.00    -0.776 OA
HETATM   36  H41 UNL     1       2.167  55.144 -22.820  1.00  0.00     0.167 HD
ENDBRANCH  33  35
ENDBRANCH  32  33
ENDBRANCH  31  32
ENDBRANCH  20  31
TORSDOF 9
ENDMDL
MODEL 8
REMARK minimizedAffinity -8.67389965
REMARK  9 active torsions:
REMARK  status: ('A' for Active; 'I' for Inactive)
REMARK    1  A    between atoms: C12_14  and  C13_15 
REMARK    2  A    between atoms: C13_15  and  C15_17 
REMARK    3  A    between atoms: C15_17  and  C16_18 
REMARK    4  A    between atoms: C16_18  and  C17_19 
REMARK    5  A    between atoms: C18_20  and  C20_22 
REMARK    6  A    between atoms: C26_29  and  C27_30 
REMARK    7  A    between atoms: C27_30  and  C28_31 
REMARK    8  A    between atoms: C28_31  and  C29_32 
REMARK    9  A    between atoms: C29_32  and  O5_34 
ROOT
HETATM    1  C1  UNL     1       1.065  54.098 -23.663  1.00  0.00     0.025 C 
HETATM    2  C2  UNL     1       0.679  53.095 -22.863  1.00  0.00     0.015 C 
HETATM    3  C3  UNL     1       0.900  53.145 -21.402  1.00  0.00     0.289 C 
HETATM    4  O1  UNL     1       1.528  53.991 -20.793  1.00  0.00    -0.260 OA
HETATM    5  O2  UNL     1       0.293  52.062 -20.852  1.00  0.00    -0.311 OA
HETATM    6  C4  UNL     1      -0.515  51.379 -21.830  1.00  0.00     0.142 C 
HETATM    7  C5  UNL     1      -1.976  51.698 -21.539  1.00  0.00     0.039 C 
HETATM    8  C6  UNL     1      -2.985  51.226 -22.597  1.00  0.00     0.006 C 
HETATM    9  C7  UNL     1      -2.524  51.502 -24.049  1.00  0.00    -0.027 A 
HETATM   10  C8  UNL     1      -3.472  50.961 -25.138  1.00  0.00     0.011 C 
HETATM   11  C9  UNL     1      -4.070  49.569 -24.873  1.00  0.00     0.011 C 
HETATM   12  C10 UNL     1      -4.664  49.472 -23.461  1.00  0.00    -0.032 C 
HETATM   13  C11 UNL     1      -5.838  50.485 -23.356  1.00  0.00     0.016 C 
HETATM   14  C12 UNL     1      -5.158  48.065 -22.984  1.00  0.00    -0.002 C 
HETATM   15  C21 UNL     1      -4.980  48.131 -21.435  1.00  0.00     0.006 C 
HETATM   16  C22 UNL     1      -4.143  49.384 -21.120  1.00  0.00     0.011 C 
HETATM   17  C23 UNL     1      -3.471  49.749 -22.453  1.00  0.00    -0.032 C 
HETATM   18  C24 UNL     1      -2.260  48.777 -22.629  1.00  0.00     0.016 C 
HETATM   19  C25 UNL     1      -2.053  52.905 -24.350  1.00  0.00     0.022 A 
HETATM   20  C26 UNL     1      -1.018  51.792 -24.341  1.00  0.00    -0.021 A 
HETATM   21  C30 UNL     1       0.006  51.804 -23.196  1.00  0.00     0.063 C 
ENDROOT
BRANCH  14  22
HETATM   22  C13 UNL     1      -6.514  47.429 -23.423  1.00  0.00    -0.014 C 
HETATM   23  C14 UNL     1      -7.762  47.814 -22.614  1.00  0.00     0.010 C 
BRANCH  22  24
HETATM   24  C15 UNL     1      -6.841  47.582 -24.925  1.00  0.00     0.008 C 
BRANCH  24  25
HETATM   25  C16 UNL     1      -8.141  46.898 -25.357  1.00  0.00     0.028 C 
BRANCH  25  26
HETATM   26  C17 UNL     1      -8.024  45.402 -25.250  1.00  0.00    -0.017 C 
HETATM   27  C18 UNL     1      -8.723  44.485 -25.945  1.00  0.00    -0.028 C 
HETATM   28  C19 UNL     1      -9.749  44.735 -27.006  1.00  0.00     0.051 C 
BRANCH  27  29
HETATM   29  C20 UNL     1      -8.442  43.051 -25.647  1.00  0.00     0.265 C 
HETATM   30  O3  UNL     1      -7.364  42.664 -25.215  1.00  0.00    -0.302 OA
ENDBRANCH  27  29
ENDBRANCH  25  26
ENDBRANCH  24  25
ENDBRANCH  22  24
ENDBRANCH  14  22
BRANCH  20  31
HETATM   31  C27 UNL     1      -0.420  51.269 -25.657  1.00  0.00     0.021 C 
BRANCH  31  32
HETATM   32  C28 UNL     1       1.101  51.167 -25.697  1.00  0.00     0.111 C 
BRANCH  32  33
HETATM   33  C29 UNL     1       1.654  52.110 -26.723  1.00  0.00     0.139 C 
HETATM   34  O4  UNL     1       1.068  53.052 -27.226  1.00  0.00    -0.650 OA
BRANCH  33  35
HETATM   35  O5  UNL     1       2.933  51.839 -27.045  1.00  0.00    -0.776 OA
HETATM   36  H41 UNL     1       3.162  52.523 -27.710  1.00  0.00     0.167 HD
ENDBRANCH  33  35
ENDBRANCH  32  33
ENDBRANCH  31  32
ENDBRANCH  20  31
TORSDOF 9
ENDMDL
MODEL 9
REMARK minimizedAffinity -8.52054024
REMARK  9 active torsions:
REMARK  status: ('A' for Active; 'I' for Inactive)
REMARK    1  A    between atoms: C12_14  and  C13_15 
REMARK    2  A    between atoms: C13_15  and  C15_17 
REMARK    3  A    between atoms: C15_17  and  C16_18 
REMARK    4  A    between atoms: C16_18  and  C17_19 
REMARK    5  A    between atoms: C18_20  and  C20_22 
REMARK    6  A    between atoms: C26_29  and  C27_30 
REMARK    7  A    between atoms: C27_30  and  C28_31 
REMARK    8  A    between atoms: C28_31  and  C29_32 
REMARK    9  A    between atoms: C29_32  and  O5_34 
ROOT
HETATM    1  C1  UNL     1       1.055  54.097 -23.910  1.00  0.00     0.025 C 
HETATM    2  C2  UNL     1       0.724  53.184 -22.987  1.00  0.00     0.015 C 
HETATM    3  C3  UNL     1       0.983  53.411 -21.550  1.00  0.00     0.289 C 
HETATM    4  O1  UNL     1       1.599  54.340 -21.062  1.00  0.00    -0.260 OA
HETATM    5  O2  UNL     1       0.426  52.383 -20.859  1.00  0.00    -0.311 OA
HETATM    6  C4  UNL     1      -0.384  51.566 -21.726  1.00  0.00     0.142 C 
HETATM    7  C5  UNL     1      -1.846  51.874 -21.429  1.00  0.00     0.039 C 
HETATM    8  C6  UNL     1      -2.867  51.251 -22.394  1.00  0.00     0.006 C 
HETATM    9  C7  UNL     1      -2.455  51.369 -23.881  1.00  0.00    -0.027 A 
HETATM   10  C8  UNL     1      -3.415  50.677 -24.870  1.00  0.00     0.011 C 
HETATM   11  C9  UNL     1      -3.959  49.309 -24.428  1.00  0.00     0.011 C 
HETATM   12  C10 UNL     1      -4.511  49.360 -22.996  1.00  0.00    -0.032 C 
HETATM   13  C11 UNL     1      -5.714  50.343 -22.974  1.00  0.00     0.016 C 
HETATM   14  C12 UNL     1      -4.946  48.005 -22.344  1.00  0.00    -0.002 C 
HETATM   15  C21 UNL     1      -4.728  48.256 -20.820  1.00  0.00     0.006 C 
HETATM   16  C22 UNL     1      -3.924  49.562 -20.678  1.00  0.00     0.011 C 
HETATM   17  C23 UNL     1      -3.301  49.788 -22.064  1.00  0.00    -0.032 C 
HETATM   18  C24 UNL     1      -2.064  48.838 -22.163  1.00  0.00     0.016 C 
HETATM   19  C25 UNL     1      -2.039  52.740 -24.358  1.00  0.00     0.022 A 
HETATM   20  C26 UNL     1      -0.968  51.667 -24.251  1.00  0.00    -0.021 A 
HETATM   21  C30 UNL     1       0.085  51.843 -23.147  1.00  0.00     0.063 C 
ENDROOT
BRANCH  14  22
HETATM   22  C13 UNL     1      -6.291  47.281 -22.664  1.00  0.00    -0.014 C 
HETATM   23  C14 UNL     1      -6.431  45.824 -22.197  1.00  0.00     0.010 C 
BRANCH  22  24
HETATM   24  C15 UNL     1      -7.557  48.055 -22.232  1.00  0.00     0.008 C 
BRANCH  24  25
HETATM   25  C16 UNL     1      -7.661  48.295 -20.724  1.00  0.00     0.028 C 
BRANCH  25  26
HETATM   26  C17 UNL     1      -8.948  47.739 -20.178  1.00  0.00    -0.017 C 
HETATM   27  C18 UNL     1      -9.568  48.104 -19.041  1.00  0.00    -0.028 C 
HETATM   28  C19 UNL     1      -9.147  49.167 -18.075  1.00  0.00     0.051 C 
BRANCH  27  29
HETATM   29  C20 UNL     1     -10.831  47.388 -18.698  1.00  0.00     0.265 C 
HETATM   30  O3  UNL     1     -11.383  47.504 -17.611  1.00  0.00    -0.302 OA
ENDBRANCH  27  29
ENDBRANCH  25  26
ENDBRANCH  24  25
ENDBRANCH  22  24
ENDBRANCH  14  22
BRANCH  20  31
HETATM   31  C27 UNL     1      -0.389  51.012 -25.516  1.00  0.00     0.021 C 
BRANCH  31  32
HETATM   32  C28 UNL     1      -0.150  51.948 -26.694  1.00  0.00     0.111 C 
BRANCH  32  33
HETATM   33  C29 UNL     1       1.298  51.929 -27.083  1.00  0.00     0.139 C 
HETATM   34  O4  UNL     1       2.246  52.097 -26.336  1.00  0.00    -0.650 OA
BRANCH  33  35
HETATM   35  O5  UNL     1       1.485  51.669 -28.390  1.00  0.00    -0.776 OA
HETATM   36  H41 UNL     1       2.460  51.684 -28.500  1.00  0.00     0.167 HD
ENDBRANCH  33  35
ENDBRANCH  32  33
ENDBRANCH  31  32
ENDBRANCH  20  31
TORSDOF 9
ENDMDL
