MODEL 1
REMARK minimizedAffinity -9.52763367
REMARK  6 active torsions:
REMARK  status: ('A' for Active; 'I' for Inactive)
REMARK    1  A    between atoms: C2_2  and  C30_31 
REMARK    2  A    between atoms: C3_3  and  C4_4 
REMARK    3  A    between atoms: C4_4  and  C5_5 
REMARK    4  A    between atoms: C5_5  and  C6_6 
REMARK    5  A    between atoms: C6_6  and  C8_8 
REMARK    6  A    between atoms: C30_31  and  O3_33 
ROOT
HETATM    1  C8  UNL     1       1.025   6.832  11.968  1.00  0.00    -0.002 C 
HETATM    2  C9  UNL     1       1.223   5.294  11.955  1.00  0.00     0.007 C 
HETATM    3  C10 UNL     1      -0.174   4.664  12.107  1.00  0.00     0.015 C 
HETATM    4  C11 UNL     1      -0.958   5.697  12.942  1.00  0.00    -0.013 C 
HETATM    5  C12 UNL     1      -0.508   5.494  14.419  1.00  0.00     0.021 C 
HETATM    6  C13 UNL     1      -2.481   5.610  12.984  1.00  0.00    -0.070 C 
HETATM    7  C14 UNL     1      -3.136   4.436  12.917  1.00  0.00    -0.022 C 
HETATM    8  C15 UNL     1      -4.615   4.274  13.123  1.00  0.00     0.034 C 
HETATM    9  C16 UNL     1      -5.398   5.604  13.187  1.00  0.00     0.013 C 
HETATM   10  C17 UNL     1      -6.927   5.470  13.545  1.00  0.00     0.018 C 
HETATM   11  C18 UNL     1      -7.776   5.813  12.299  1.00  0.00     0.023 C 
HETATM   12  C19 UNL     1      -7.332   4.049  13.992  1.00  0.00     0.023 C 
HETATM   13  C20 UNL     1      -7.372   6.452  14.640  1.00  0.00     0.135 C 
HETATM   14  O1  UNL     1      -8.253   6.161  15.454  1.00  0.00    -0.297 OA
HETATM   15  C21 UNL     1      -6.797   7.848  14.660  1.00  0.00     0.080 C 
HETATM   16  C22 UNL     1      -5.449   7.982  13.973  1.00  0.00     0.017 C 
HETATM   17  C23 UNL     1      -4.602   6.690  13.995  1.00  0.00    -0.031 C 
HETATM   18  C24 UNL     1      -4.329   6.259  15.456  1.00  0.00     0.016 C 
HETATM   19  C25 UNL     1      -3.243   6.923  13.218  1.00  0.00     0.024 C 
HETATM   20  C26 UNL     1      -2.354   8.064  13.776  1.00  0.00     0.010 C 
HETATM   21  C27 UNL     1      -0.959   8.236  13.116  1.00  0.00     0.011 C 
HETATM   22  C28 UNL     1      -0.508   7.034  12.267  1.00  0.00    -0.029 C 
HETATM   23  C29 UNL     1      -1.134   7.237  10.833  1.00  0.00     0.016 C 
ENDROOT
BRANCH   1  24
HETATM   24  C6  UNL     1       2.098   7.668  12.726  1.00  0.00    -0.014 C 
HETATM   25  C7  UNL     1       2.146   7.479  14.246  1.00  0.00     0.010 C 
BRANCH  24  26
HETATM   26  C5  UNL     1       3.529   7.399  12.181  1.00  0.00     0.008 C 
BRANCH  26  27
HETATM   27  C4  UNL     1       3.763   7.938  10.764  1.00  0.00     0.028 C 
BRANCH  27  28
HETATM   28  C3  UNL     1       3.426   6.903   9.725  1.00  0.00    -0.013 C 
HETATM   29  C2  UNL     1       2.911   7.105   8.495  1.00  0.00     0.008 C 
HETATM   30  C1  UNL     1       2.658   5.974   7.543  1.00  0.00     0.055 C 
BRANCH  29  31
HETATM   31  C30 UNL     1       2.514   8.456   8.038  1.00  0.00     0.171 C 
HETATM   32  O2  UNL     1       3.213   9.282   7.485  1.00  0.00    -0.646 OA
BRANCH  31  33
HETATM   33  O3  UNL     1       1.223   8.708   8.316  1.00  0.00    -0.773 OA
HETATM   34  H46 UNL     1       1.084   9.609   7.959  1.00  0.00     0.167 HD
ENDBRANCH  31  33
ENDBRANCH  29  31
ENDBRANCH  27  28
ENDBRANCH  26  27
ENDBRANCH  24  26
ENDBRANCH   1  24
TORSDOF 6
ENDMDL
MODEL 2
REMARK minimizedAffinity -9.3607769
REMARK  6 active torsions:
REMARK  status: ('A' for Active; 'I' for Inactive)
REMARK    1  A    between atoms: C2_2  and  C30_31 
REMARK    2  A    between atoms: C3_3  and  C4_4 
REMARK    3  A    between atoms: C4_4  and  C5_5 
REMARK    4  A    between atoms: C5_5  and  C6_6 
REMARK    5  A    between atoms: C6_6  and  C8_8 
REMARK    6  A    between atoms: C30_31  and  O3_33 
ROOT
HETATM    1  C8  UNL     1      -3.062   8.582  15.258  1.00  0.00    -0.002 C 
HETATM    2  C9  UNL     1      -2.202   8.409  16.537  1.00  0.00     0.007 C 
HETATM    3  C10 UNL     1      -0.743   8.249  16.074  1.00  0.00     0.015 C 
HETATM    4  C11 UNL     1      -0.864   7.575  14.692  1.00  0.00    -0.013 C 
HETATM    5  C12 UNL     1      -1.131   6.065  14.967  1.00  0.00     0.021 C 
HETATM    6  C13 UNL     1       0.339   7.591  13.753  1.00  0.00    -0.070 C 
HETATM    7  C14 UNL     1       1.606   7.553  14.207  1.00  0.00    -0.022 C 
HETATM    8  C15 UNL     1       2.818   7.396  13.335  1.00  0.00     0.034 C 
HETATM    9  C16 UNL     1       2.533   7.520  11.821  1.00  0.00     0.013 C 
HETATM   10  C17 UNL     1       3.759   7.218  10.877  1.00  0.00     0.018 C 
HETATM   11  C18 UNL     1       4.225   8.532  10.210  1.00  0.00     0.023 C 
HETATM   12  C19 UNL     1       4.978   6.629  11.620  1.00  0.00     0.023 C 
HETATM   13  C20 UNL     1       3.405   6.264   9.726  1.00  0.00     0.135 C 
HETATM   14  O1  UNL     1       4.225   5.462   9.272  1.00  0.00    -0.297 OA
HETATM   15  C21 UNL     1       2.054   6.379   9.060  1.00  0.00     0.080 C 
HETATM   16  C22 UNL     1       0.979   7.015   9.923  1.00  0.00     0.017 C 
HETATM   17  C23 UNL     1       1.187   6.807  11.439  1.00  0.00    -0.031 C 
HETATM   18  C24 UNL     1       1.203   5.295  11.771  1.00  0.00     0.016 C 
HETATM   19  C25 UNL     1       0.043   7.544  12.247  1.00  0.00     0.024 C 
HETATM   20  C26 UNL     1      -1.399   7.080  11.914  1.00  0.00     0.010 C 
HETATM   21  C27 UNL     1      -2.535   7.693  12.776  1.00  0.00     0.011 C 
HETATM   22  C28 UNL     1      -2.052   8.377  14.067  1.00  0.00    -0.029 C 
HETATM   23  C29 UNL     1      -1.654   9.852  13.672  1.00  0.00     0.016 C 
ENDROOT
BRANCH   1  24
HETATM   24  C6  UNL     1      -4.451   7.877  15.250  1.00  0.00    -0.014 C 
HETATM   25  C7  UNL     1      -5.672   8.802  15.291  1.00  0.00     0.010 C 
BRANCH  24  26
HETATM   26  C5  UNL     1      -4.617   6.945  14.018  1.00  0.00     0.008 C 
BRANCH  26  27
HETATM   27  C4  UNL     1      -5.740   5.912  14.169  1.00  0.00     0.028 C 
BRANCH  27  28
HETATM   28  C3  UNL     1      -5.498   4.712  13.294  1.00  0.00    -0.013 C 
HETATM   29  C2  UNL     1      -6.403   4.026  12.565  1.00  0.00     0.008 C 
HETATM   30  C1  UNL     1      -6.012   2.863  11.702  1.00  0.00     0.055 C 
BRANCH  29  31
HETATM   31  C30 UNL     1      -7.846   4.352  12.623  1.00  0.00     0.171 C 
HETATM   32  O2  UNL     1      -8.395   5.348  12.190  1.00  0.00    -0.646 OA
BRANCH  31  33
HETATM   33  O3  UNL     1      -8.543   3.386  13.244  1.00  0.00    -0.773 OA
HETATM   34  H46 UNL     1      -9.466   3.709  13.205  1.00  0.00     0.167 HD
ENDBRANCH  31  33
ENDBRANCH  29  31
ENDBRANCH  27  28
ENDBRANCH  26  27
ENDBRANCH  24  26
ENDBRANCH   1  24
TORSDOF 6
ENDMDL
MODEL 3
REMARK minimizedAffinity -9.01387501
REMARK  6 active torsions:
REMARK  status: ('A' for Active; 'I' for Inactive)
REMARK    1  A    between atoms: C2_2  and  C30_31 
REMARK    2  A    between atoms: C3_3  and  C4_4 
REMARK    3  A    between atoms: C4_4  and  C5_5 
REMARK    4  A    between atoms: C5_5  and  C6_6 
REMARK    5  A    between atoms: C6_6  and  C8_8 
REMARK    6  A    between atoms: C30_31  and  O3_33 
ROOT
HETATM    1  C8  UNL     1       0.915   8.167  11.920  1.00  0.00    -0.002 C 
HETATM    2  C9  UNL     1       1.179   6.750  11.349  1.00  0.00     0.007 C 
HETATM    3  C10 UNL     1      -0.150   5.977  11.442  1.00  0.00     0.015 C 
HETATM    4  C11 UNL     1      -0.848   6.589  12.674  1.00  0.00    -0.013 C 
HETATM    5  C12 UNL     1      -0.177   5.941  13.921  1.00  0.00     0.021 C 
HETATM    6  C13 UNL     1      -2.343   6.350  12.870  1.00  0.00    -0.070 C 
HETATM    7  C14 UNL     1      -2.946   5.211  12.479  1.00  0.00    -0.022 C 
HETATM    8  C15 UNL     1      -4.369   4.850  12.796  1.00  0.00     0.034 C 
HETATM    9  C16 UNL     1      -5.195   6.000  13.415  1.00  0.00     0.013 C 
HETATM   10  C17 UNL     1      -6.646   5.610  13.888  1.00  0.00     0.018 C 
HETATM   11  C18 UNL     1      -7.684   6.273  12.954  1.00  0.00     0.023 C 
HETATM   12  C19 UNL     1      -6.915   4.090  13.859  1.00  0.00     0.023 C 
HETATM   13  C20 UNL     1      -6.969   6.117  15.303  1.00  0.00     0.135 C 
HETATM   14  O1  UNL     1      -7.705   5.486  16.066  1.00  0.00    -0.297 OA
HETATM   15  C21 UNL     1      -6.462   7.471  15.736  1.00  0.00     0.080 C 
HETATM   16  C22 UNL     1      -5.238   7.956  14.980  1.00  0.00     0.017 C 
HETATM   17  C23 UNL     1      -4.338   6.819  14.446  1.00  0.00    -0.031 C 
HETATM   18  C24 UNL     1      -3.833   5.947  15.621  1.00  0.00     0.016 C 
HETATM   19  C25 UNL     1      -3.122   7.428  13.638  1.00  0.00     0.024 C 
HETATM   20  C26 UNL     1      -2.213   8.391  14.445  1.00  0.00     0.010 C 
HETATM   21  C27 UNL     1      -0.941   8.907  13.720  1.00  0.00     0.011 C 
HETATM   22  C28 UNL     1      -0.565   8.111  12.457  1.00  0.00    -0.029 C 
HETATM   23  C29 UNL     1      -1.404   8.728  11.272  1.00  0.00     0.016 C 
ENDROOT
BRANCH   1  24
HETATM   24  C6  UNL     1       2.048   8.795  12.784  1.00  0.00    -0.014 C 
HETATM   25  C7  UNL     1       1.797   8.835  14.295  1.00  0.00     0.010 C 
BRANCH  24  26
HETATM   26  C5  UNL     1       3.408   8.076  12.560  1.00  0.00     0.008 C 
BRANCH  26  27
HETATM   27  C4  UNL     1       4.522   9.001  12.055  1.00  0.00     0.028 C 
BRANCH  27  28
HETATM   28  C3  UNL     1       5.782   8.825  12.858  1.00  0.00    -0.013 C 
HETATM   29  C2  UNL     1       6.780   7.942  12.646  1.00  0.00     0.008 C 
HETATM   30  C1  UNL     1       8.005   7.903  13.511  1.00  0.00     0.055 C 
BRANCH  29  31
HETATM   31  C30 UNL     1       6.692   6.923  11.576  1.00  0.00     0.171 C 
HETATM   32  O2  UNL     1       7.107   7.013  10.436  1.00  0.00    -0.646 OA
BRANCH  31  33
HETATM   33  O3  UNL     1       6.064   5.814  12.004  1.00  0.00    -0.773 OA
HETATM   34  H46 UNL     1       6.083   5.225  11.223  1.00  0.00     0.167 HD
ENDBRANCH  31  33
ENDBRANCH  29  31
ENDBRANCH  27  28
ENDBRANCH  26  27
ENDBRANCH  24  26
ENDBRANCH   1  24
TORSDOF 6
ENDMDL
MODEL 4
REMARK minimizedAffinity -8.61831665
REMARK  6 active torsions:
REMARK  status: ('A' for Active; 'I' for Inactive)
REMARK    1  A    between atoms: C2_2  and  C30_31 
REMARK    2  A    between atoms: C3_3  and  C4_4 
REMARK    3  A    between atoms: C4_4  and  C5_5 
REMARK    4  A    between atoms: C5_5  and  C6_6 
REMARK    5  A    between atoms: C6_6  and  C8_8 
REMARK    6  A    between atoms: C30_31  and  O3_33 
ROOT
HETATM    1  C8  UNL     1       0.804   7.104  13.899  1.00  0.00    -0.002 C 
HETATM    2  C9  UNL     1       0.826   8.308  14.876  1.00  0.00     0.007 C 
HETATM    3  C10 UNL     1      -0.591   8.425  15.469  1.00  0.00     0.015 C 
HETATM    4  C11 UNL     1      -1.507   7.894  14.348  1.00  0.00    -0.013 C 
HETATM    5  C12 UNL     1      -1.648   9.052  13.316  1.00  0.00     0.021 C 
HETATM    6  C13 UNL     1      -2.942   7.502  14.689  1.00  0.00    -0.070 C 
HETATM    7  C14 UNL     1      -3.651   8.132  15.644  1.00  0.00    -0.022 C 
HETATM    8  C15 UNL     1      -5.112   7.907  15.907  1.00  0.00     0.034 C 
HETATM    9  C16 UNL     1      -5.717   6.703  15.150  1.00  0.00     0.013 C 
HETATM   10  C17 UNL     1      -7.277   6.529  15.295  1.00  0.00     0.018 C 
HETATM   11  C18 UNL     1      -7.574   5.276  16.150  1.00  0.00     0.023 C 
HETATM   12  C19 UNL     1      -7.967   7.724  15.987  1.00  0.00     0.023 C 
HETATM   13  C20 UNL     1      -7.979   6.296  13.948  1.00  0.00     0.135 C 
HETATM   14  O1  UNL     1      -9.121   6.711  13.731  1.00  0.00    -0.297 OA
HETATM   15  C21 UNL     1      -7.302   5.447  12.899  1.00  0.00     0.080 C 
HETATM   16  C22 UNL     1      -5.791   5.371  13.029  1.00  0.00     0.017 C 
HETATM   17  C23 UNL     1      -5.155   6.617  13.686  1.00  0.00    -0.031 C 
HETATM   18  C24 UNL     1      -5.478   7.880  12.852  1.00  0.00     0.016 C 
HETATM   19  C25 UNL     1      -3.590   6.418  13.816  1.00  0.00     0.024 C 
HETATM   20  C26 UNL     1      -2.846   6.174  12.478  1.00  0.00     0.010 C 
HETATM   21  C27 UNL     1      -1.297   6.100  12.555  1.00  0.00     0.011 C 
HETATM   22  C28 UNL     1      -0.702   6.643  13.866  1.00  0.00    -0.029 C 
HETATM   23  C29 UNL     1      -0.739   5.455  14.904  1.00  0.00     0.016 C 
ENDROOT
BRANCH   1  24
HETATM   24  C6  UNL     1       1.614   7.262  12.578  1.00  0.00    -0.014 C 
HETATM   25  C7  UNL     1       3.046   7.786  12.727  1.00  0.00     0.010 C 
BRANCH  24  26
HETATM   26  C5  UNL     1       1.689   5.928  11.785  1.00  0.00     0.008 C 
BRANCH  26  27
HETATM   27  C4  UNL     1       2.820   5.885  10.750  1.00  0.00     0.028 C 
BRANCH  27  28
HETATM   28  C3  UNL     1       2.801   7.106   9.871  1.00  0.00    -0.013 C 
HETATM   29  C2  UNL     1       2.749   7.153   8.524  1.00  0.00     0.008 C 
HETATM   30  C1  UNL     1       2.698   8.452   7.775  1.00  0.00     0.055 C 
BRANCH  29  31
HETATM   31  C30 UNL     1       2.797   5.919   7.707  1.00  0.00     0.171 C 
HETATM   32  O2  UNL     1       3.342   4.870   7.988  1.00  0.00    -0.646 OA
BRANCH  31  33
HETATM   33  O3  UNL     1       2.144   6.076   6.542  1.00  0.00    -0.773 OA
HETATM   34  H46 UNL     1       2.237   5.203   6.109  1.00  0.00     0.167 HD
ENDBRANCH  31  33
ENDBRANCH  29  31
ENDBRANCH  27  28
ENDBRANCH  26  27
ENDBRANCH  24  26
ENDBRANCH   1  24
TORSDOF 6
ENDMDL
MODEL 5
REMARK minimizedAffinity -8.58625889
REMARK  6 active torsions:
REMARK  status: ('A' for Active; 'I' for Inactive)
REMARK    1  A    between atoms: C2_2  and  C30_31 
REMARK    2  A    between atoms: C3_3  and  C4_4 
REMARK    3  A    between atoms: C4_4  and  C5_5 
REMARK    4  A    between atoms: C5_5  and  C6_6 
REMARK    5  A    between atoms: C6_6  and  C8_8 
REMARK    6  A    between atoms: C30_31  and  O3_33 
ROOT
HETATM    1  C8  UNL     1      -2.092   5.405  12.861  1.00  0.00    -0.002 C 
HETATM    2  C9  UNL     1      -1.183   6.114  11.824  1.00  0.00     0.007 C 
HETATM    3  C10 UNL     1      -0.619   7.371  12.512  1.00  0.00     0.015 C 
HETATM    4  C11 UNL     1      -1.722   7.773  13.512  1.00  0.00    -0.013 C 
HETATM    5  C12 UNL     1      -2.819   8.501  12.680  1.00  0.00     0.021 C 
HETATM    6  C13 UNL     1      -1.380   8.744  14.638  1.00  0.00    -0.070 C 
HETATM    7  C14 UNL     1      -0.472   9.727  14.489  1.00  0.00    -0.022 C 
HETATM    8  C15 UNL     1      -0.219  10.811  15.496  1.00  0.00     0.034 C 
HETATM    9  C16 UNL     1      -0.916  10.591  16.857  1.00  0.00     0.013 C 
HETATM   10  C17 UNL     1      -0.784  11.781  17.883  1.00  0.00     0.018 C 
HETATM   11  C18 UNL     1       0.134  11.350  19.049  1.00  0.00     0.023 C 
HETATM   12  C19 UNL     1      -0.171  13.057  17.269  1.00  0.00     0.023 C 
HETATM   13  C20 UNL     1      -2.126  12.166  18.525  1.00  0.00     0.135 C 
HETATM   14  O1  UNL     1      -2.383  13.331  18.842  1.00  0.00    -0.297 OA
HETATM   15  C21 UNL     1      -3.117  11.082  18.876  1.00  0.00     0.080 C 
HETATM   16  C22 UNL     1      -2.960   9.802  18.073  1.00  0.00     0.017 C 
HETATM   17  C23 UNL     1      -2.365  10.016  16.663  1.00  0.00    -0.031 C 
HETATM   18  C24 UNL     1      -3.273  10.962  15.841  1.00  0.00     0.016 C 
HETATM   19  C25 UNL     1      -2.201   8.623  15.930  1.00  0.00     0.024 C 
HETATM   20  C26 UNL     1      -3.512   7.813  15.757  1.00  0.00     0.010 C 
HETATM   21  C27 UNL     1      -3.408   6.502  14.933  1.00  0.00     0.011 C 
HETATM   22  C28 UNL     1      -2.121   6.379  14.099  1.00  0.00    -0.029 C 
HETATM   23  C29 UNL     1      -1.019   5.781  15.057  1.00  0.00     0.016 C 
ENDROOT
BRANCH   1  24
HETATM   24  C6  UNL     1      -3.407   4.771  12.320  1.00  0.00    -0.014 C 
HETATM   25  C7  UNL     1      -3.521   3.249  12.446  1.00  0.00     0.010 C 
BRANCH  24  26
HETATM   26  C5  UNL     1      -4.664   5.387  12.996  1.00  0.00     0.008 C 
BRANCH  26  27
HETATM   27  C4  UNL     1      -5.882   4.455  13.005  1.00  0.00     0.028 C 
BRANCH  27  28
HETATM   28  C3  UNL     1      -7.167   5.237  13.038  1.00  0.00    -0.013 C 
HETATM   29  C2  UNL     1      -7.838   5.678  14.121  1.00  0.00     0.008 C 
HETATM   30  C1  UNL     1      -9.097   6.485  14.003  1.00  0.00     0.055 C 
BRANCH  29  31
HETATM   31  C30 UNL     1      -7.396   5.338  15.493  1.00  0.00     0.171 C 
HETATM   32  O2  UNL     1      -6.601   5.948  16.183  1.00  0.00    -0.646 OA
BRANCH  31  33
HETATM   33  O3  UNL     1      -7.986   4.215  15.936  1.00  0.00    -0.773 OA
HETATM   34  H46 UNL     1      -7.627   4.109  16.840  1.00  0.00     0.167 HD
ENDBRANCH  31  33
ENDBRANCH  29  31
ENDBRANCH  27  28
ENDBRANCH  26  27
ENDBRANCH  24  26
ENDBRANCH   1  24
TORSDOF 6
ENDMDL
MODEL 6
REMARK minimizedAffinity -8.3746233
REMARK  6 active torsions:
REMARK  status: ('A' for Active; 'I' for Inactive)
REMARK    1  A    between atoms: C2_2  and  C30_31 
REMARK    2  A    between atoms: C3_3  and  C4_4 
REMARK    3  A    between atoms: C4_4  and  C5_5 
REMARK    4  A    between atoms: C5_5  and  C6_6 
REMARK    5  A    between atoms: C6_6  and  C8_8 
REMARK    6  A    between atoms: C30_31  and  O3_33 
ROOT
HETATM    1  C8  UNL     1      -2.010   7.964  13.324  1.00  0.00    -0.002 C 
HETATM    2  C9  UNL     1      -2.058   9.278  14.145  1.00  0.00     0.007 C 
HETATM    3  C10 UNL     1      -0.679   9.947  13.995  1.00  0.00     0.015 C 
HETATM    4  C11 UNL     1       0.290   8.762  13.813  1.00  0.00    -0.013 C 
HETATM    5  C12 UNL     1       0.531   8.174  15.235  1.00  0.00     0.021 C 
HETATM    6  C13 UNL     1       1.689   9.029  13.262  1.00  0.00    -0.070 C 
HETATM    7  C14 UNL     1       2.354  10.172  13.513  1.00  0.00    -0.022 C 
HETATM    8  C15 UNL     1       3.788  10.420  13.144  1.00  0.00     0.034 C 
HETATM    9  C16 UNL     1       4.404   9.342  12.223  1.00  0.00     0.013 C 
HETATM   10  C17 UNL     1       5.946   9.501  11.936  1.00  0.00     0.018 C 
HETATM   11  C18 UNL     1       6.151   9.914  10.460  1.00  0.00     0.023 C 
HETATM   12  C19 UNL     1       6.626  10.579  12.807  1.00  0.00     0.023 C 
HETATM   13  C20 UNL     1       6.725   8.189  12.118  1.00  0.00     0.135 C 
HETATM   14  O1  UNL     1       7.889   8.178  12.526  1.00  0.00    -0.297 OA
HETATM   15  C21 UNL     1       6.091   6.888  11.689  1.00  0.00     0.080 C 
HETATM   16  C22 UNL     1       4.573   6.910  11.649  1.00  0.00     0.017 C 
HETATM   17  C23 UNL     1       3.934   7.904  12.643  1.00  0.00    -0.031 C 
HETATM   18  C24 UNL     1       4.346   7.546  14.091  1.00  0.00     0.016 C 
HETATM   19  C25 UNL     1       2.359   7.883  12.489  1.00  0.00     0.024 C 
HETATM   20  C26 UNL     1       1.694   6.503  12.729  1.00  0.00     0.010 C 
HETATM   21  C27 UNL     1       0.142   6.474  12.709  1.00  0.00     0.011 C 
HETATM   22  C28 UNL     1      -0.519   7.858  12.826  1.00  0.00    -0.029 C 
HETATM   23  C29 UNL     1      -0.582   8.451  11.365  1.00  0.00     0.016 C 
ENDROOT
BRANCH   1  24
HETATM   24  C6  UNL     1      -2.729   6.728  13.941  1.00  0.00    -0.014 C 
HETATM   25  C7  UNL     1      -3.104   6.840  15.422  1.00  0.00     0.010 C 
BRANCH  24  26
HETATM   26  C5  UNL     1      -4.025   6.367  13.162  1.00  0.00     0.008 C 
BRANCH  26  27
HETATM   27  C4  UNL     1      -4.061   4.919  12.659  1.00  0.00     0.028 C 
BRANCH  27  28
HETATM   28  C3  UNL     1      -5.386   4.271  12.958  1.00  0.00    -0.013 C 
HETATM   29  C2  UNL     1      -5.985   3.268  12.286  1.00  0.00     0.008 C 
HETATM   30  C1  UNL     1      -7.299   2.690  12.722  1.00  0.00     0.055 C 
BRANCH  29  31
HETATM   31  C30 UNL     1      -5.402   2.717  11.041  1.00  0.00     0.171 C 
HETATM   32  O2  UNL     1      -5.488   3.178   9.919  1.00  0.00    -0.646 OA
BRANCH  31  33
HETATM   33  O3  UNL     1      -4.727   1.579  11.277  1.00  0.00    -0.773 OA
HETATM   34  H46 UNL     1      -4.386   1.328  10.394  1.00  0.00     0.167 HD
ENDBRANCH  31  33
ENDBRANCH  29  31
ENDBRANCH  27  28
ENDBRANCH  26  27
ENDBRANCH  24  26
ENDBRANCH   1  24
TORSDOF 6
ENDMDL
MODEL 7
REMARK minimizedAffinity -8.30362129
REMARK  6 active torsions:
REMARK  status: ('A' for Active; 'I' for Inactive)
REMARK    1  A    between atoms: C2_2  and  C30_31 
REMARK    2  A    between atoms: C3_3  and  C4_4 
REMARK    3  A    between atoms: C4_4  and  C5_5 
REMARK    4  A    between atoms: C5_5  and  C6_6 
REMARK    5  A    between atoms: C6_6  and  C8_8 
REMARK    6  A    between atoms: C30_31  and  O3_33 
ROOT
HETATM    1  C8  UNL     1      -2.604   8.173  14.651  1.00  0.00    -0.002 C 
HETATM    2  C9  UNL     1      -2.062   7.811  16.058  1.00  0.00     0.007 C 
HETATM    3  C10 UNL     1      -0.526   7.879  15.975  1.00  0.00     0.015 C 
HETATM    4  C11 UNL     1      -0.217   7.502  14.512  1.00  0.00    -0.013 C 
HETATM    5  C12 UNL     1      -0.331   5.951  14.428  1.00  0.00     0.021 C 
HETATM    6  C13 UNL     1       1.163   7.820  13.942  1.00  0.00    -0.070 C 
HETATM    7  C14 UNL     1       2.276   7.797  14.700  1.00  0.00    -0.022 C 
HETATM    8  C15 UNL     1       3.673   7.933  14.165  1.00  0.00     0.034 C 
HETATM    9  C16 UNL     1       3.747   8.347  12.678  1.00  0.00     0.013 C 
HETATM   10  C17 UNL     1       5.194   8.358  12.052  1.00  0.00     0.018 C 
HETATM   11  C18 UNL     1       5.622   9.818  11.781  1.00  0.00     0.023 C 
HETATM   12  C19 UNL     1       6.266   7.734  12.971  1.00  0.00     0.023 C 
HETATM   13  C20 UNL     1       5.262   7.641  10.695  1.00  0.00     0.135 C 
HETATM   14  O1  UNL     1       6.271   7.026  10.336  1.00  0.00    -0.297 OA
HETATM   15  C21 UNL     1       4.110   7.775   9.729  1.00  0.00     0.080 C 
HETATM   16  C22 UNL     1       2.781   8.119  10.378  1.00  0.00     0.017 C 
HETATM   17  C23 UNL     1       2.644   7.616  11.832  1.00  0.00    -0.031 C 
HETATM   18  C24 UNL     1       2.787   6.076  11.876  1.00  0.00     0.016 C 
HETATM   19  C25 UNL     1       1.249   8.065  12.429  1.00  0.00     0.024 C 
HETATM   20  C26 UNL     1       0.007   7.558  11.649  1.00  0.00     0.010 C 
HETATM   21  C27 UNL     1      -1.376   7.875  12.277  1.00  0.00     0.011 C 
HETATM   22  C28 UNL     1      -1.318   8.312  13.751  1.00  0.00    -0.029 C 
HETATM   23  C29 UNL     1      -1.043   9.865  13.749  1.00  0.00     0.016 C 
ENDROOT
BRANCH   1  24
HETATM   24  C6  UNL     1      -3.839   7.368  14.149  1.00  0.00    -0.014 C 
HETATM   25  C7  UNL     1      -4.695   8.051  13.078  1.00  0.00     0.010 C 
BRANCH  24  26
HETATM   26  C5  UNL     1      -3.432   5.973  13.597  1.00  0.00     0.008 C 
BRANCH  26  27
HETATM   27  C4  UNL     1      -4.450   5.374  12.619  1.00  0.00     0.028 C 
BRANCH  27  28
HETATM   28  C3  UNL     1      -5.672   4.875  13.341  1.00  0.00    -0.013 C 
HETATM   29  C2  UNL     1      -6.411   3.784  13.056  1.00  0.00     0.008 C 
HETATM   30  C1  UNL     1      -7.591   3.383  13.891  1.00  0.00     0.055 C 
BRANCH  29  31
HETATM   31  C30 UNL     1      -6.129   2.951  11.865  1.00  0.00     0.171 C 
HETATM   32  O2  UNL     1      -5.367   3.204  10.952  1.00  0.00    -0.646 OA
BRANCH  31  33
HETATM   33  O3  UNL     1      -6.846   1.814  11.880  1.00  0.00    -0.773 OA
HETATM   34  H46 UNL     1      -6.565   1.356  11.062  1.00  0.00     0.167 HD
ENDBRANCH  31  33
ENDBRANCH  29  31
ENDBRANCH  27  28
ENDBRANCH  26  27
ENDBRANCH  24  26
ENDBRANCH   1  24
TORSDOF 6
ENDMDL
MODEL 8
REMARK minimizedAffinity -8.24599266
REMARK  6 active torsions:
REMARK  status: ('A' for Active; 'I' for Inactive)
REMARK    1  A    between atoms: C2_2  and  C30_31 
REMARK    2  A    between atoms: C3_3  and  C4_4 
REMARK    3  A    between atoms: C4_4  and  C5_5 
REMARK    4  A    between atoms: C5_5  and  C6_6 
REMARK    5  A    between atoms: C6_6  and  C8_8 
REMARK    6  A    between atoms: C30_31  and  O3_33 
ROOT
HETATM    1  C8  UNL     1      -2.371   6.533  13.412  1.00  0.00    -0.002 C 
HETATM    2  C9  UNL     1      -1.953   6.175  14.862  1.00  0.00     0.007 C 
HETATM    3  C10 UNL     1      -0.518   6.700  15.054  1.00  0.00     0.015 C 
HETATM    4  C11 UNL     1       0.100   6.614  13.644  1.00  0.00    -0.013 C 
HETATM    5  C12 UNL     1       0.485   5.121  13.428  1.00  0.00     0.021 C 
HETATM    6  C13 UNL     1       1.381   7.391  13.350  1.00  0.00    -0.070 C 
HETATM    7  C14 UNL     1       2.324   7.602  14.287  1.00  0.00    -0.022 C 
HETATM    8  C15 UNL     1       3.672   8.207  14.016  1.00  0.00     0.034 C 
HETATM    9  C16 UNL     1       3.828   8.805  12.600  1.00  0.00     0.013 C 
HETATM   10  C17 UNL     1       5.274   9.318  12.240  1.00  0.00     0.018 C 
HETATM   11  C18 UNL     1       5.263  10.861  12.155  1.00  0.00     0.023 C 
HETATM   12  C19 UNL     1       6.343   8.927  13.283  1.00  0.00     0.023 C 
HETATM   13  C20 UNL     1       5.757   8.825  10.866  1.00  0.00     0.135 C 
HETATM   14  O1  UNL     1       6.947   8.583  10.645  1.00  0.00    -0.297 OA
HETATM   15  C21 UNL     1       4.772   8.734   9.726  1.00  0.00     0.080 C 
HETATM   16  C22 UNL     1       3.322   8.590  10.156  1.00  0.00     0.017 C 
HETATM   17  C23 UNL     1       3.140   7.893  11.522  1.00  0.00    -0.031 C 
HETATM   18  C24 UNL     1       3.745   6.470  11.477  1.00  0.00     0.016 C 
HETATM   19  C25 UNL     1       1.603   7.835  11.897  1.00  0.00     0.024 C 
HETATM   20  C26 UNL     1       0.706   7.087  10.877  1.00  0.00     0.010 C 
HETATM   21  C27 UNL     1      -0.783   6.903  11.275  1.00  0.00     0.011 C 
HETATM   22  C28 UNL     1      -1.076   7.153  12.765  1.00  0.00    -0.029 C 
HETATM   23  C29 UNL     1      -1.298   8.707  12.925  1.00  0.00     0.016 C 
ENDROOT
BRANCH   1  24
HETATM   24  C6  UNL     1      -3.210   5.470  12.644  1.00  0.00    -0.014 C 
HETATM   25  C7  UNL     1      -2.517   4.129  12.383  1.00  0.00     0.010 C 
BRANCH  24  26
HETATM   26  C5  UNL     1      -4.553   5.164  13.366  1.00  0.00     0.008 C 
BRANCH  26  27
HETATM   27  C4  UNL     1      -5.248   6.407  13.935  1.00  0.00     0.028 C 
BRANCH  27  28
HETATM   28  C3  UNL     1      -6.698   6.451  13.536  1.00  0.00    -0.013 C 
HETATM   29  C2  UNL     1      -7.776   6.231  14.316  1.00  0.00     0.008 C 
HETATM   30  C1  UNL     1      -9.175   6.347  13.789  1.00  0.00     0.055 C 
BRANCH  29  31
HETATM   31  C30 UNL     1      -7.633   5.807  15.727  1.00  0.00     0.171 C 
HETATM   32  O2  UNL     1      -7.276   6.489  16.669  1.00  0.00    -0.646 OA
BRANCH  31  33
HETATM   33  O3  UNL     1      -7.948   4.511  15.885  1.00  0.00    -0.773 OA
HETATM   34  H46 UNL     1      -7.828   4.361  16.845  1.00  0.00     0.167 HD
ENDBRANCH  31  33
ENDBRANCH  29  31
ENDBRANCH  27  28
ENDBRANCH  26  27
ENDBRANCH  24  26
ENDBRANCH   1  24
TORSDOF 6
ENDMDL
MODEL 9
REMARK minimizedAffinity -8.24185944
REMARK  6 active torsions:
REMARK  status: ('A' for Active; 'I' for Inactive)
REMARK    1  A    between atoms: C2_2  and  C30_31 
REMARK    2  A    between atoms: C3_3  and  C4_4 
REMARK    3  A    between atoms: C4_4  and  C5_5 
REMARK    4  A    between atoms: C5_5  and  C6_6 
REMARK    5  A    between atoms: C6_6  and  C8_8 
REMARK    6  A    between atoms: C30_31  and  O3_33 
ROOT
HETATM    1  C8  UNL     1      -3.024   7.041  13.763  1.00  0.00    -0.002 C 
HETATM    2  C9  UNL     1      -3.289   5.550  13.427  1.00  0.00     0.007 C 
HETATM    3  C10 UNL     1      -4.815   5.385  13.309  1.00  0.00     0.015 C 
HETATM    4  C11 UNL     1      -5.379   6.444  14.277  1.00  0.00    -0.013 C 
HETATM    5  C12 UNL     1      -5.245   5.842  15.707  1.00  0.00     0.021 C 
HETATM    6  C13 UNL     1      -6.847   6.845  14.162  1.00  0.00    -0.070 C 
HETATM    7  C14 UNL     1      -7.801   5.976  13.777  1.00  0.00    -0.022 C 
HETATM    8  C15 UNL     1      -9.275   6.261  13.808  1.00  0.00     0.034 C 
HETATM    9  C16 UNL     1      -9.632   7.738  14.095  1.00  0.00     0.013 C 
HETATM   10  C17 UNL     1     -11.168   8.038  14.274  1.00  0.00     0.018 C 
HETATM   11  C18 UNL     1     -11.674   8.856  13.064  1.00  0.00     0.023 C 
HETATM   12  C19 UNL     1     -12.038   6.765  14.357  1.00  0.00     0.023 C 
HETATM   13  C20 UNL     1     -11.468   8.894  15.515  1.00  0.00     0.135 C 
HETATM   14  O1  UNL     1     -12.510   8.756  16.161  1.00  0.00    -0.297 OA
HETATM   15  C21 UNL     1     -10.516  10.003  15.895  1.00  0.00     0.080 C 
HETATM   16  C22 UNL     1      -9.099   9.821  15.381  1.00  0.00     0.017 C 
HETATM   17  C23 UNL     1      -8.685   8.344  15.192  1.00  0.00    -0.031 C 
HETATM   18  C24 UNL     1      -8.781   7.589  16.540  1.00  0.00     0.016 C 
HETATM   19  C25 UNL     1      -7.215   8.266  14.611  1.00  0.00     0.024 C 
HETATM   20  C26 UNL     1      -6.127   8.940  15.487  1.00  0.00     0.010 C 
HETATM   21  C27 UNL     1      -4.659   8.773  15.010  1.00  0.00     0.011 C 
HETATM   22  C28 UNL     1      -4.456   7.666  13.960  1.00  0.00    -0.029 C 
HETATM   23  C29 UNL     1      -4.764   8.317  12.556  1.00  0.00     0.016 C 
ENDROOT
BRANCH   1  24
HETATM   24  C6  UNL     1      -1.883   7.336  14.781  1.00  0.00    -0.014 C 
HETATM   25  C7  UNL     1      -2.298   7.398  16.254  1.00  0.00     0.010 C 
BRANCH  24  26
HETATM   26  C5  UNL     1      -0.729   6.301  14.668  1.00  0.00     0.008 C 
BRANCH  26  27
HETATM   27  C4  UNL     1       0.560   6.873  14.066  1.00  0.00     0.028 C 
BRANCH  27  28
HETATM   28  C3  UNL     1       0.324   7.400  12.676  1.00  0.00    -0.013 C 
HETATM   29  C2  UNL     1       0.598   6.790  11.505  1.00  0.00     0.008 C 
HETATM   30  C1  UNL     1       0.274   7.422  10.184  1.00  0.00     0.055 C 
BRANCH  29  31
HETATM   31  C30 UNL     1       1.288   5.480  11.460  1.00  0.00     0.171 C 
HETATM   32  O2  UNL     1       0.784   4.387  11.287  1.00  0.00    -0.646 OA
BRANCH  31  33
HETATM   33  O3  UNL     1       2.612   5.616  11.647  1.00  0.00    -0.773 OA
HETATM   34  H46 UNL     1       2.947   4.699  11.583  1.00  0.00     0.167 HD
ENDBRANCH  31  33
ENDBRANCH  29  31
ENDBRANCH  27  28
ENDBRANCH  26  27
ENDBRANCH  24  26
ENDBRANCH   1  24
TORSDOF 6
ENDMDL
