MODEL 1
REMARK minimizedAffinity -9.54872227
REMARK CNNscore 0.515430331
REMARK CNNaffinity 7.25936699
REMARK  9 active torsions:
REMARK  status: ('A' for Active; 'I' for Inactive)
REMARK    1  A    between atoms: C7_8  and  O1_9 
REMARK    2  A    between atoms: O1_9  and  C8_10 
REMARK    3  A    between atoms: C8_10  and  C9_11 
REMARK       I    between atoms: C9_11  and  N1_13 
REMARK    4  A    between atoms: N1_13  and  N2_14 
REMARK    5  A    between atoms: C10_16  and  C11_17 
REMARK    6  A    between atoms: C14_20  and  O3_21 
REMARK    7  A    between atoms: C16_23  and  O4_24 
REMARK    8  A    between atoms: C25_33  and  C26_34 
REMARK    9  A    between atoms: C32_42  and  O7_43 
ROOT
HETATM    1  C11 UNL     1      -7.463   5.662  13.621  1.00  0.00     0.028 C 
HETATM    2  C12 UNL     1      -6.657   4.590  14.411  1.00  0.00     0.021 C 
HETATM    3  C13 UNL     1      -5.623   3.865  13.535  1.00  0.00     0.033 C 
HETATM    4  C14 UNL     1      -6.195   3.302  12.237  1.00  0.00     0.121 C 
HETATM    5  C15 UNL     1      -7.068   4.308  11.475  1.00  0.00     0.070 C 
HETATM    6  C16 UNL     1      -8.132   4.949  12.395  1.00  0.00     0.073 C 
HETATM    7  C17 UNL     1      -9.092   5.850  11.605  1.00  0.00     0.039 C 
HETATM    8  C18 UNL     1     -10.127   6.527  12.506  1.00  0.00     0.011 C 
HETATM    9  C19 UNL     1      -9.490   7.279  13.688  1.00  0.00     0.026 C 
HETATM   10  C20 UNL     1      -8.560   6.335  14.523  1.00  0.00     0.009 C 
HETATM   11  C21 UNL     1      -8.004   7.031  15.797  1.00  0.00     0.007 C 
HETATM   12  C22 UNL     1      -9.077   7.750  16.633  1.00  0.00     0.013 C 
HETATM   13  C23 UNL     1      -9.909   8.717  15.777  1.00  0.00    -0.005 C 
HETATM   14  C24 UNL     1      -9.002   9.886  15.310  1.00  0.00     0.019 C 
HETATM   15  C25 UNL     1     -11.197   9.283  16.456  1.00  0.00     0.028 C 
HETATM   16  C30 UNL     1     -12.087   9.672  15.235  1.00  0.00     0.013 C 
HETATM   17  C31 UNL     1     -11.548   8.893  14.017  1.00  0.00     0.040 C 
HETATM   18  C32 UNL     1     -10.549   7.906  14.614  1.00  0.00     0.070 C 
ENDROOT
BRANCH   1  19
HETATM   19  C10 UNL     1      -6.438   6.740  13.217  1.00  0.00     0.093 C 
HETATM   20  N2  UNL     1      -5.175   6.648  13.482  1.00  0.00    -0.312 N 
ATOM     21  H2  UNL     1      -4.787   5.813  13.922  1.00  0.00     0.185 HD
BRANCH  20  22
HETATM   22  N1  UNL     1      -4.374   7.711  13.152  1.00  0.00    -0.269 N 
HETATM   23  C9  UNL     1      -2.983   7.616  13.037  1.00  0.00     0.260 C 
HETATM   24  O2  UNL     1      -2.316   6.643  13.384  1.00  0.00    -0.269 OA
HETATM   25  H9  UNL     1      -4.842   8.383  12.553  1.00  0.00     0.190 HD
BRANCH  23  26
HETATM   26  C8  UNL     1      -2.369   8.871  12.406  1.00  0.00     0.280 C 
BRANCH  26  27
HETATM   27  O1  UNL     1      -0.952   8.891  12.357  1.00  0.00    -0.342 OA
BRANCH  27  28
HETATM   28  C7  UNL     1      -0.333   8.536  11.188  1.00  0.00     0.075 A 
HETATM   29  C2  UNL     1       0.822   7.739  11.328  1.00  0.00    -0.027 A 
HETATM   30  C1  UNL     1       1.326   7.343  12.687  1.00  0.00     0.051 C 
HETATM   31  C3  UNL     1       1.525   7.333  10.184  1.00  0.00     0.033 A 
HETATM   32  C4  UNL     1       1.074   7.698   8.919  1.00  0.00     0.034 A 
HETATM   33 CL1  UNL     1       1.939   7.190   7.525  1.00  0.00    -0.084 Cl
HETATM   34  C5  UNL     1      -0.078   8.466   8.779  1.00  0.00     0.026 A 
HETATM   35  C6  UNL     1      -0.787   8.877   9.912  1.00  0.00     0.039 A 
ENDBRANCH  27  28
ENDBRANCH  26  27
ENDBRANCH  23  26
ENDBRANCH  20  22
ENDBRANCH   1  19
BRANCH   6  36
HETATM   36  O4  UNL     1      -8.935   3.826  12.844  1.00  0.00    -0.389 OA
HETATM   37  H19 UNL     1      -9.531   4.113  13.571  1.00  0.00     0.210 HD
ENDBRANCH   6  36
BRANCH   4  38
HETATM   38  O3  UNL     1      -6.939   2.124  12.542  1.00  0.00    -0.395 OA
HETATM   39  H16 UNL     1      -7.869   2.408  12.685  1.00  0.00     0.210 HD
ENDBRANCH   4  38
BRANCH  18  40
HETATM   40  O7  UNL     1     -11.322   6.822  15.176  1.00  0.00    -0.389 OA
HETATM   41  H41 UNL     1     -11.989   6.540  14.526  1.00  0.00     0.210 HD
ENDBRANCH  18  40
BRANCH  15  42
HETATM   42  C26 UNL     1     -11.028  10.343  17.509  1.00  0.00    -0.045 A 
HETATM   43  C27 UNL     1     -11.124  10.242  18.835  1.00  0.00     0.087 A 
HETATM   44  C28 UNL     1     -10.812  11.552  19.398  1.00  0.00     0.283 A 
HETATM   45  O5  UNL     1     -10.849  11.825  20.581  1.00  0.00    -0.260 OA
HETATM   46  O6  UNL     1     -10.498  12.405  18.393  1.00  0.00    -0.314 OA
HETATM   47  C29 UNL     1     -10.622  11.724  17.146  1.00  0.00     0.213 A 
ENDBRANCH  15  42
TORSDOF 9
ENDMDL
MODEL 2
REMARK minimizedAffinity -9.68871117
REMARK CNNscore 0.440177113
REMARK CNNaffinity 7.83461046
REMARK  9 active torsions:
REMARK  status: ('A' for Active; 'I' for Inactive)
REMARK    1  A    between atoms: C7_8  and  O1_9 
REMARK    2  A    between atoms: O1_9  and  C8_10 
REMARK    3  A    between atoms: C8_10  and  C9_11 
REMARK       I    between atoms: C9_11  and  N1_13 
REMARK    4  A    between atoms: N1_13  and  N2_14 
REMARK    5  A    between atoms: C10_16  and  C11_17 
REMARK    6  A    between atoms: C14_20  and  O3_21 
REMARK    7  A    between atoms: C16_23  and  O4_24 
REMARK    8  A    between atoms: C25_33  and  C26_34 
REMARK    9  A    between atoms: C32_42  and  O7_43 
ROOT
HETATM    1  C11 UNL     1      -2.502  10.101  16.558  1.00  0.00     0.028 C 
HETATM    2  C12 UNL     1      -2.252   9.797  18.064  1.00  0.00     0.021 C 
HETATM    3  C13 UNL     1      -3.007  10.759  18.994  1.00  0.00     0.033 C 
HETATM    4  C14 UNL     1      -2.787  12.235  18.670  1.00  0.00     0.121 C 
HETATM    5  C15 UNL     1      -2.941  12.554  17.177  1.00  0.00     0.070 C 
HETATM    6  C16 UNL     1      -2.102  11.596  16.301  1.00  0.00     0.073 C 
HETATM    7  C17 UNL     1      -2.146  12.001  14.820  1.00  0.00     0.039 C 
HETATM    8  C18 UNL     1      -1.356  11.038  13.932  1.00  0.00     0.011 C 
HETATM    9  C19 UNL     1      -1.769   9.568  14.127  1.00  0.00     0.026 C 
HETATM   10  C20 UNL     1      -1.662   9.148  15.633  1.00  0.00     0.009 C 
HETATM   11  C21 UNL     1      -1.948   7.634  15.844  1.00  0.00     0.007 C 
HETATM   12  C22 UNL     1      -1.176   6.715  14.882  1.00  0.00     0.013 C 
HETATM   13  C23 UNL     1      -1.377   7.129  13.416  1.00  0.00    -0.005 C 
HETATM   14  C24 UNL     1      -2.855   6.874  13.018  1.00  0.00     0.019 C 
HETATM   15  C25 UNL     1      -0.424   6.446  12.384  1.00  0.00     0.028 C 
HETATM   16  C30 UNL     1      -0.424   7.456  11.195  1.00  0.00     0.013 C 
HETATM   17  C31 UNL     1      -0.908   8.811  11.753  1.00  0.00     0.040 C 
HETATM   18  C32 UNL     1      -0.925   8.610  13.266  1.00  0.00     0.070 C 
ENDROOT
BRANCH   1  19
HETATM   19  C10 UNL     1      -3.998   9.818  16.317  1.00  0.00     0.093 C 
HETATM   20  N2  UNL     1      -4.512   8.633  16.392  1.00  0.00    -0.312 N 
ATOM     21  H2  UNL     1      -3.952   7.831  16.682  1.00  0.00     0.185 HD
BRANCH  20  22
HETATM   22  N1  UNL     1      -5.838   8.492  16.070  1.00  0.00    -0.269 N 
HETATM   23  C9  UNL     1      -6.300   8.403  14.752  1.00  0.00     0.260 C 
HETATM   24  O2  UNL     1      -5.615   8.616  13.753  1.00  0.00    -0.269 OA
HETATM   25  H9  UNL     1      -6.363   7.990  16.777  1.00  0.00     0.190 HD
BRANCH  23  26
HETATM   26  C8  UNL     1      -7.774   7.989  14.684  1.00  0.00     0.280 C 
BRANCH  26  27
HETATM   27  O1  UNL     1      -8.022   6.605  14.869  1.00  0.00    -0.342 OA
BRANCH  27  28
HETATM   28  C7  UNL     1      -7.393   5.712  14.045  1.00  0.00     0.075 A 
HETATM   29  C2  UNL     1      -8.097   5.363  12.874  1.00  0.00    -0.027 A 
HETATM   30  C1  UNL     1      -9.456   5.936  12.591  1.00  0.00     0.051 C 
HETATM   31  C3  UNL     1      -7.530   4.449  11.973  1.00  0.00     0.033 A 
HETATM   32  C4  UNL     1      -6.275   3.904  12.224  1.00  0.00     0.034 A 
HETATM   33 CL1  UNL     1      -5.589   2.790  11.112  1.00  0.00    -0.084 Cl
HETATM   34  C5  UNL     1      -5.570   4.264  13.370  1.00  0.00     0.026 A 
HETATM   35  C6  UNL     1      -6.124   5.174  14.275  1.00  0.00     0.039 A 
ENDBRANCH  27  28
ENDBRANCH  26  27
ENDBRANCH  23  26
ENDBRANCH  20  22
ENDBRANCH   1  19
BRANCH   6  36
HETATM   36  O4  UNL     1      -0.734  11.831  16.727  1.00  0.00    -0.389 OA
HETATM   37  H19 UNL     1      -0.145  11.141  16.348  1.00  0.00     0.210 HD
ENDBRANCH   6  36
BRANCH   4  38
HETATM   38  O3  UNL     1      -1.492  12.612  19.132  1.00  0.00    -0.395 OA
HETATM   39  H16 UNL     1      -0.875  12.482  18.379  1.00  0.00     0.210 HD
ENDBRANCH   4  38
BRANCH  18  40
HETATM   40  O7  UNL     1       0.444   8.724  13.716  1.00  0.00    -0.389 OA
HETATM   41  H41 UNL     1       0.845   9.514  13.312  1.00  0.00     0.210 HD
ENDBRANCH  18  40
BRANCH  15  42
HETATM   42  C26 UNL     1      -0.689   5.011  12.025  1.00  0.00    -0.045 A 
HETATM   43  C27 UNL     1       0.172   4.044  11.709  1.00  0.00     0.087 A 
HETATM   44  C28 UNL     1      -0.597   2.820  11.505  1.00  0.00     0.283 A 
HETATM   45  O5  UNL     1      -0.126   1.754  11.162  1.00  0.00    -0.260 OA
HETATM   46  O6  UNL     1      -1.907   3.074  11.743  1.00  0.00    -0.314 OA
HETATM   47  C29 UNL     1      -2.064   4.453  12.069  1.00  0.00     0.213 A 
ENDBRANCH  15  42
TORSDOF 9
ENDMDL
MODEL 3
REMARK minimizedAffinity -7.43470764
REMARK CNNscore 0.368383616
REMARK CNNaffinity 6.2207737
REMARK  9 active torsions:
REMARK  status: ('A' for Active; 'I' for Inactive)
REMARK    1  A    between atoms: C7_8  and  O1_9 
REMARK    2  A    between atoms: O1_9  and  C8_10 
REMARK    3  A    between atoms: C8_10  and  C9_11 
REMARK       I    between atoms: C9_11  and  N1_13 
REMARK    4  A    between atoms: N1_13  and  N2_14 
REMARK    5  A    between atoms: C10_16  and  C11_17 
REMARK    6  A    between atoms: C14_20  and  O3_21 
REMARK    7  A    between atoms: C16_23  and  O4_24 
REMARK    8  A    between atoms: C25_33  and  C26_34 
REMARK    9  A    between atoms: C32_42  and  O7_43 
ROOT
HETATM    1  C11 UNL     1       4.064  15.829   0.617  1.00  0.00     0.028 C 
HETATM    2  C12 UNL     1       4.633  17.162   0.046  1.00  0.00     0.021 C 
HETATM    3  C13 UNL     1       5.999  16.978  -0.633  1.00  0.00     0.033 C 
HETATM    4  C14 UNL     1       7.025  16.246   0.228  1.00  0.00     0.121 C 
HETATM    5  C15 UNL     1       6.470  14.971   0.877  1.00  0.00     0.070 C 
HETATM    6  C16 UNL     1       5.132  15.239   1.602  1.00  0.00     0.073 C 
HETATM    7  C17 UNL     1       4.646  13.998   2.366  1.00  0.00     0.039 C 
HETATM    8  C18 UNL     1       3.301  14.231   3.056  1.00  0.00     0.011 C 
HETATM    9  C19 UNL     1       2.220  14.761   2.096  1.00  0.00     0.026 C 
HETATM   10  C20 UNL     1       2.703  16.061   1.366  1.00  0.00     0.009 C 
HETATM   11  C21 UNL     1       1.586  16.693   0.488  1.00  0.00     0.007 C 
HETATM   12  C22 UNL     1       0.237  16.845   1.210  1.00  0.00     0.013 C 
HETATM   13  C23 UNL     1      -0.222  15.522   1.843  1.00  0.00    -0.005 C 
HETATM   14  C24 UNL     1      -0.553  14.512   0.713  1.00  0.00     0.019 C 
HETATM   15  C25 UNL     1      -1.427  15.628   2.831  1.00  0.00     0.028 C 
HETATM   16  C30 UNL     1      -1.252  14.360   3.723  1.00  0.00     0.013 C 
HETATM   17  C31 UNL     1       0.214  13.901   3.573  1.00  0.00     0.040 C 
HETATM   18  C32 UNL     1       0.890  15.042   2.819  1.00  0.00     0.070 C 
ENDROOT
BRANCH   1  19
HETATM   19  C10 UNL     1       3.798  14.931  -0.608  1.00  0.00     0.093 C 
HETATM   20  N2  UNL     1       4.062  15.296  -1.821  1.00  0.00    -0.312 N 
ATOM     21  H2  UNL     1       4.524  16.184  -2.017  1.00  0.00     0.185 HD
BRANCH  20  22
HETATM   22  N1  UNL     1       3.698  14.447  -2.835  1.00  0.00    -0.269 N 
HETATM   23  C9  UNL     1       4.266  13.181  -3.013  1.00  0.00     0.260 C 
HETATM   24  O2  UNL     1       5.253  12.763  -2.411  1.00  0.00    -0.269 OA
HETATM   25  H9  UNL     1       2.731  14.563  -3.117  1.00  0.00     0.190 HD
BRANCH  23  26
HETATM   26  C8  UNL     1       3.501  12.347  -4.047  1.00  0.00     0.280 C 
BRANCH  26  27
HETATM   27  O1  UNL     1       3.683  12.742  -5.397  1.00  0.00    -0.342 OA
BRANCH  27  28
HETATM   28  C7  UNL     1       4.646  12.112  -6.138  1.00  0.00     0.075 A 
HETATM   29  C2  UNL     1       5.186  12.865  -7.203  1.00  0.00    -0.027 A 
HETATM   30  C1  UNL     1       4.696  14.255  -7.490  1.00  0.00     0.051 C 
HETATM   31  C3  UNL     1       6.174  12.296  -8.020  1.00  0.00     0.033 A 
HETATM   32  C4  UNL     1       6.633  11.007  -7.770  1.00  0.00     0.034 A 
HETATM   33 CL1  UNL     1       7.849  10.324  -8.773  1.00  0.00    -0.084 Cl
HETATM   34  C5  UNL     1       6.117  10.271  -6.707  1.00  0.00     0.026 A 
HETATM   35  C6  UNL     1       5.131  10.826  -5.886  1.00  0.00     0.039 A 
ENDBRANCH  27  28
ENDBRANCH  26  27
ENDBRANCH  23  26
ENDBRANCH  20  22
ENDBRANCH   1  19
BRANCH   6  36
HETATM   36  O4  UNL     1       5.469  16.215   2.621  1.00  0.00    -0.389 OA
HETATM   37  H19 UNL     1       4.647  16.576   3.021  1.00  0.00     0.210 HD
ENDBRANCH   6  36
BRANCH   4  38
HETATM   38  O3  UNL     1       7.507  17.146   1.224  1.00  0.00    -0.395 OA
HETATM   39  H16 UNL     1       6.937  17.021   2.015  1.00  0.00     0.210 HD
ENDBRANCH   4  38
BRANCH  18  40
HETATM   40  O7  UNL     1       1.141  16.088   3.785  1.00  0.00    -0.389 OA
HETATM   41  H41 UNL     1       1.543  15.694   4.579  1.00  0.00     0.210 HD
ENDBRANCH  18  40
BRANCH  15  42
HETATM   42  C26 UNL     1      -2.797  15.836   2.249  1.00  0.00    -0.045 A 
HETATM   43  C27 UNL     1      -3.704  14.934   1.873  1.00  0.00     0.087 A 
HETATM   44  C28 UNL     1      -4.890  15.661   1.430  1.00  0.00     0.283 A 
HETATM   45  O5  UNL     1      -5.892  15.144   0.980  1.00  0.00    -0.260 OA
HETATM   46  O6  UNL     1      -4.679  16.990   1.587  1.00  0.00    -0.314 OA
HETATM   47  C29 UNL     1      -3.363  17.200   2.092  1.00  0.00     0.213 A 
ENDBRANCH  15  42
TORSDOF 9
ENDMDL
MODEL 4
REMARK minimizedAffinity -7.26175833
REMARK CNNscore 0.290721983
REMARK CNNaffinity 6.11316872
REMARK  9 active torsions:
REMARK  status: ('A' for Active; 'I' for Inactive)
REMARK    1  A    between atoms: C7_8  and  O1_9 
REMARK    2  A    between atoms: O1_9  and  C8_10 
REMARK    3  A    between atoms: C8_10  and  C9_11 
REMARK       I    between atoms: C9_11  and  N1_13 
REMARK    4  A    between atoms: N1_13  and  N2_14 
REMARK    5  A    between atoms: C10_16  and  C11_17 
REMARK    6  A    between atoms: C14_20  and  O3_21 
REMARK    7  A    between atoms: C16_23  and  O4_24 
REMARK    8  A    between atoms: C25_33  and  C26_34 
REMARK    9  A    between atoms: C32_42  and  O7_43 
ROOT
HETATM    1  C11 UNL     1     -15.918  -2.117  14.730  1.00  0.00     0.028 C 
HETATM    2  C12 UNL     1     -14.584  -2.456  15.457  1.00  0.00     0.021 C 
HETATM    3  C13 UNL     1     -14.181  -3.930  15.296  1.00  0.00     0.033 C 
HETATM    4  C14 UNL     1     -15.288  -4.918  15.653  1.00  0.00     0.121 C 
HETATM    5  C15 UNL     1     -16.641  -4.564  15.022  1.00  0.00     0.070 C 
HETATM    6  C16 UNL     1     -17.020  -3.088  15.280  1.00  0.00     0.073 C 
HETATM    7  C17 UNL     1     -18.433  -2.770  14.768  1.00  0.00     0.039 C 
HETATM    8  C18 UNL     1     -18.810  -1.302  14.977  1.00  0.00     0.011 C 
HETATM    9  C19 UNL     1     -17.768  -0.329  14.398  1.00  0.00     0.026 C 
HETATM   10  C20 UNL     1     -16.340  -0.623  14.973  1.00  0.00     0.009 C 
HETATM   11  C21 UNL     1     -15.290   0.424  14.505  1.00  0.00     0.007 C 
HETATM   12  C22 UNL     1     -15.745   1.883  14.679  1.00  0.00     0.013 C 
HETATM   13  C23 UNL     1     -17.117   2.130  14.032  1.00  0.00    -0.005 C 
HETATM   14  C24 UNL     1     -16.979   1.997  12.492  1.00  0.00     0.019 C 
HETATM   15  C25 UNL     1     -17.797   3.491  14.388  1.00  0.00     0.028 C 
HETATM   16  C30 UNL     1     -19.308   3.196  14.139  1.00  0.00     0.013 C 
HETATM   17  C31 UNL     1     -19.479   1.662  14.160  1.00  0.00     0.040 C 
HETATM   18  C32 UNL     1     -18.136   1.142  14.666  1.00  0.00     0.070 C 
ENDROOT
BRANCH   1  19
HETATM   19  C10 UNL     1     -15.633  -2.304  13.226  1.00  0.00     0.093 C 
HETATM   20  N2  UNL     1     -14.624  -1.759  12.626  1.00  0.00    -0.312 N 
ATOM     21  H2  UNL     1     -13.926  -1.226  13.145  1.00  0.00     0.185 HD
BRANCH  20  22
HETATM   22  N1  UNL     1     -14.525  -1.924  11.269  1.00  0.00    -0.269 N 
HETATM   23  C9  UNL     1     -14.018  -3.085  10.674  1.00  0.00     0.260 C 
HETATM   24  O2  UNL     1     -13.452  -3.993  11.278  1.00  0.00    -0.269 OA
HETATM   25  H9  UNL     1     -15.242  -1.419  10.758  1.00  0.00     0.190 HD
BRANCH  23  26
HETATM   26  C8  UNL     1     -14.263  -3.111   9.161  1.00  0.00     0.280 C 
BRANCH  26  27
HETATM   27  O1  UNL     1     -13.793  -4.270   8.492  1.00  0.00    -0.342 OA
BRANCH  27  28
HETATM   28  C7  UNL     1     -14.655  -5.318   8.313  1.00  0.00     0.075 A 
HETATM   29  C2  UNL     1     -15.423  -5.280   7.130  1.00  0.00    -0.027 A 
HETATM   30  C1  UNL     1     -15.293  -4.138   6.163  1.00  0.00     0.051 C 
HETATM   31  C3  UNL     1     -16.338  -6.309   6.867  1.00  0.00     0.033 A 
HETATM   32  C4  UNL     1     -16.474  -7.370   7.756  1.00  0.00     0.034 A 
HETATM   33 CL1  UNL     1     -17.594  -8.629   7.420  1.00  0.00    -0.084 Cl
HETATM   34  C5  UNL     1     -15.702  -7.420   8.913  1.00  0.00     0.026 A 
HETATM   35  C6  UNL     1     -14.786  -6.399   9.188  1.00  0.00     0.039 A 
ENDBRANCH  27  28
ENDBRANCH  26  27
ENDBRANCH  23  26
ENDBRANCH  20  22
ENDBRANCH   1  19
BRANCH   6  36
HETATM   36  O4  UNL     1     -17.100  -2.990  16.726  1.00  0.00    -0.389 OA
HETATM   37  H19 UNL     1     -17.166  -2.046  16.992  1.00  0.00     0.210 HD
ENDBRANCH   6  36
BRANCH   4  38
HETATM   38  O3  UNL     1     -15.400  -4.979  17.074  1.00  0.00    -0.395 OA
HETATM   39  H16 UNL     1     -16.077  -4.316  17.332  1.00  0.00     0.210 HD
ENDBRANCH   4  38
BRANCH  18  40
HETATM   40  O7  UNL     1     -18.132   1.329  16.100  1.00  0.00    -0.389 OA
HETATM   41  H41 UNL     1     -18.974   1.003  16.463  1.00  0.00     0.210 HD
ENDBRANCH  18  40
BRANCH  15  42
HETATM   42  C26 UNL     1     -17.256   4.737  13.744  1.00  0.00    -0.045 A 
HETATM   43  C27 UNL     1     -17.727   5.424  12.704  1.00  0.00     0.087 A 
HETATM   44  C28 UNL     1     -16.864   6.588  12.519  1.00  0.00     0.283 A 
HETATM   45  O5  UNL     1     -16.983   7.405  11.629  1.00  0.00    -0.260 OA
HETATM   46  O6  UNL     1     -15.912   6.591  13.483  1.00  0.00    -0.314 OA
HETATM   47  C29 UNL     1     -16.074   5.438  14.305  1.00  0.00     0.213 A 
ENDBRANCH  15  42
TORSDOF 9
ENDMDL
MODEL 5
REMARK minimizedAffinity -7.28087711
REMARK CNNscore 0.236245349
REMARK CNNaffinity 5.29712915
REMARK  9 active torsions:
REMARK  status: ('A' for Active; 'I' for Inactive)
REMARK    1  A    between atoms: C7_8  and  O1_9 
REMARK    2  A    between atoms: O1_9  and  C8_10 
REMARK    3  A    between atoms: C8_10  and  C9_11 
REMARK       I    between atoms: C9_11  and  N1_13 
REMARK    4  A    between atoms: N1_13  and  N2_14 
REMARK    5  A    between atoms: C10_16  and  C11_17 
REMARK    6  A    between atoms: C14_20  and  O3_21 
REMARK    7  A    between atoms: C16_23  and  O4_24 
REMARK    8  A    between atoms: C25_33  and  C26_34 
REMARK    9  A    between atoms: C32_42  and  O7_43 
ROOT
HETATM    1  C11 UNL     1     -16.792  -0.877  15.787  1.00  0.00     0.028 C 
HETATM    2  C12 UNL     1     -15.496  -1.737  15.865  1.00  0.00     0.021 C 
HETATM    3  C13 UNL     1     -15.790  -3.244  15.916  1.00  0.00     0.033 C 
HETATM    4  C14 UNL     1     -16.801  -3.643  16.988  1.00  0.00     0.121 C 
HETATM    5  C15 UNL     1     -18.054  -2.759  16.995  1.00  0.00     0.070 C 
HETATM    6  C16 UNL     1     -17.691  -1.257  17.015  1.00  0.00     0.073 C 
HETATM    7  C17 UNL     1     -18.940  -0.375  17.161  1.00  0.00     0.039 C 
HETATM    8  C18 UNL     1     -18.603   1.117  17.141  1.00  0.00     0.011 C 
HETATM    9  C19 UNL     1     -17.765   1.524  15.915  1.00  0.00     0.026 C 
HETATM   10  C20 UNL     1     -16.463   0.659  15.810  1.00  0.00     0.009 C 
HETATM   11  C21 UNL     1     -15.533   1.133  14.657  1.00  0.00     0.007 C 
HETATM   12  C22 UNL     1     -15.279   2.650  14.645  1.00  0.00     0.013 C 
HETATM   13  C23 UNL     1     -16.593   3.446  14.675  1.00  0.00    -0.005 C 
HETATM   14  C24 UNL     1     -17.351   3.218  13.341  1.00  0.00     0.019 C 
HETATM   15  C25 UNL     1     -16.449   4.977  14.949  1.00  0.00     0.028 C 
HETATM   16  C30 UNL     1     -17.851   5.358  15.519  1.00  0.00     0.013 C 
HETATM   17  C31 UNL     1     -18.510   4.051  16.007  1.00  0.00     0.040 C 
HETATM   18  C32 UNL     1     -17.389   3.017  15.940  1.00  0.00     0.070 C 
ENDROOT
BRANCH   1  19
HETATM   19  C10 UNL     1     -17.436  -1.217  14.429  1.00  0.00     0.093 C 
HETATM   20  N2  UNL     1     -17.100  -0.634  13.323  1.00  0.00    -0.312 N 
ATOM     21  H2  UNL     1     -16.336   0.041  13.293  1.00  0.00     0.185 HD
BRANCH  20  22
HETATM   22  N1  UNL     1     -17.807  -0.956  12.193  1.00  0.00    -0.269 N 
HETATM   23  C9  UNL     1     -19.163  -0.653  12.025  1.00  0.00     0.260 C 
HETATM   24  O2  UNL     1     -19.904  -0.237  12.914  1.00  0.00    -0.269 OA
HETATM   25  H9  UNL     1     -17.230  -0.967  11.358  1.00  0.00     0.190 HD
BRANCH  23  26
HETATM   26  C8  UNL     1     -19.631  -0.884  10.584  1.00  0.00     0.280 C 
BRANCH  26  27
HETATM   27  O1  UNL     1     -20.311   0.209   9.987  1.00  0.00    -0.342 OA
BRANCH  27  28
HETATM   28  C7  UNL     1     -21.594   0.021   9.552  1.00  0.00     0.075 A 
HETATM   29  C2  UNL     1     -21.996   0.834   8.471  1.00  0.00    -0.027 A 
HETATM   30  C1  UNL     1     -21.058   1.844   7.875  1.00  0.00     0.051 C 
HETATM   31  C3  UNL     1     -23.298   0.714   7.962  1.00  0.00     0.033 A 
HETATM   32  C4  UNL     1     -24.180  -0.213   8.507  1.00  0.00     0.034 A 
HETATM   33 CL1  UNL     1     -25.770  -0.355   7.872  1.00  0.00    -0.084 Cl
HETATM   34  C5  UNL     1     -23.779  -1.030   9.560  1.00  0.00     0.026 A 
HETATM   35  C6  UNL     1     -22.484  -0.920  10.076  1.00  0.00     0.039 A 
ENDBRANCH  27  28
ENDBRANCH  26  27
ENDBRANCH  23  26
ENDBRANCH  20  22
ENDBRANCH   1  19
BRANCH   6  36
HETATM   36  O4  UNL     1     -16.949  -1.088  18.252  1.00  0.00    -0.389 OA
HETATM   37  H19 UNL     1     -16.527  -0.200  18.268  1.00  0.00     0.210 HD
ENDBRANCH   6  36
BRANCH   4  38
HETATM   38  O3  UNL     1     -16.153  -3.605  18.258  1.00  0.00    -0.395 OA
HETATM   39  H16 UNL     1     -16.306  -2.706  18.624  1.00  0.00     0.210 HD
ENDBRANCH   4  38
BRANCH  18  40
HETATM   40  O7  UNL     1     -16.559   3.229  17.104  1.00  0.00    -0.389 OA
HETATM   41  H41 UNL     1     -17.129   3.312  17.889  1.00  0.00     0.210 HD
ENDBRANCH  18  40
BRANCH  15  42
HETATM   42  C26 UNL     1     -15.936   5.845  13.833  1.00  0.00    -0.045 A 
HETATM   43  C27 UNL     1     -16.609   6.452  12.855  1.00  0.00     0.087 A 
HETATM   44  C28 UNL     1     -15.647   7.220  12.071  1.00  0.00     0.283 A 
HETATM   45  O5  UNL     1     -15.916   7.860  11.075  1.00  0.00    -0.260 OA
HETATM   46  O6  UNL     1     -14.416   7.086  12.624  1.00  0.00    -0.314 OA
HETATM   47  C29 UNL     1     -14.501   6.213  13.748  1.00  0.00     0.213 A 
ENDBRANCH  15  42
TORSDOF 9
ENDMDL
MODEL 6
REMARK minimizedAffinity -7.62109947
REMARK CNNscore 0.230534852
REMARK CNNaffinity 5.7284627
REMARK  9 active torsions:
REMARK  status: ('A' for Active; 'I' for Inactive)
REMARK    1  A    between atoms: C7_8  and  O1_9 
REMARK    2  A    between atoms: O1_9  and  C8_10 
REMARK    3  A    between atoms: C8_10  and  C9_11 
REMARK       I    between atoms: C9_11  and  N1_13 
REMARK    4  A    between atoms: N1_13  and  N2_14 
REMARK    5  A    between atoms: C10_16  and  C11_17 
REMARK    6  A    between atoms: C14_20  and  O3_21 
REMARK    7  A    between atoms: C16_23  and  O4_24 
REMARK    8  A    between atoms: C25_33  and  C26_34 
REMARK    9  A    between atoms: C32_42  and  O7_43 
ROOT
HETATM    1  C11 UNL     1     -12.606  10.182  22.517  1.00  0.00     0.028 C 
HETATM    2  C12 UNL     1     -13.085  11.660  22.613  1.00  0.00     0.021 C 
HETATM    3  C13 UNL     1     -11.918  12.660  22.629  1.00  0.00     0.033 C 
HETATM    4  C14 UNL     1     -10.845  12.342  23.667  1.00  0.00     0.121 C 
HETATM    5  C15 UNL     1     -10.412  10.870  23.658  1.00  0.00     0.070 C 
HETATM    6  C16 UNL     1     -11.629   9.919  23.714  1.00  0.00     0.073 C 
HETATM    7  C17 UNL     1     -11.193   8.452  23.844  1.00  0.00     0.039 C 
HETATM    8  C18 UNL     1     -12.384   7.492  23.858  1.00  0.00     0.011 C 
HETATM    9  C19 UNL     1     -13.331   7.696  22.662  1.00  0.00     0.026 C 
HETATM   10  C20 UNL     1     -13.818   9.182  22.575  1.00  0.00     0.009 C 
HETATM   11  C21 UNL     1     -14.876   9.391  21.455  1.00  0.00     0.007 C 
HETATM   12  C22 UNL     1     -16.017   8.360  21.476  1.00  0.00     0.013 C 
HETATM   13  C23 UNL     1     -15.481   6.920  21.486  1.00  0.00    -0.005 C 
HETATM   14  C24 UNL     1     -14.786   6.630  20.130  1.00  0.00     0.019 C 
HETATM   15  C25 UNL     1     -16.536   5.809  21.791  1.00  0.00     0.028 C 
HETATM   16  C30 UNL     1     -15.657   4.638  22.331  1.00  0.00     0.013 C 
HETATM   17  C31 UNL     1     -14.313   5.252  22.779  1.00  0.00     0.040 C 
HETATM   18  C32 UNL     1     -14.551   6.759  22.723  1.00  0.00     0.070 C 
ENDROOT
BRANCH   1  19
HETATM   19  C10 UNL     1     -11.933  10.051  21.136  1.00  0.00     0.093 C 
HETATM   20  N2  UNL     1     -11.928   8.950  20.455  1.00  0.00    -0.312 N 
ATOM     21  H2  UNL     1     -12.434   8.126  20.780  1.00  0.00     0.185 HD
BRANCH  20  22
HETATM   22  N1  UNL     1     -11.220   8.930  19.281  1.00  0.00    -0.269 N 
HETATM   23  C9  UNL     1     -11.729   9.417  18.072  1.00  0.00     0.260 C 
HETATM   24  O2  UNL     1     -12.899   9.744  17.884  1.00  0.00    -0.269 OA
HETATM   25  H9  UNL     1     -10.219   9.007  19.425  1.00  0.00     0.190 HD
BRANCH  23  26
HETATM   26  C8  UNL     1     -10.647   9.516  16.990  1.00  0.00     0.280 C 
BRANCH  26  27
HETATM   27  O1  UNL     1      -9.728   8.436  16.953  1.00  0.00    -0.342 OA
BRANCH  27  28
HETATM   28  C7  UNL     1      -9.569   7.752  15.779  1.00  0.00     0.075 A 
HETATM   29  C2  UNL     1      -8.379   7.004  15.665  1.00  0.00    -0.027 A 
HETATM   30  C1  UNL     1      -7.363   6.999  16.771  1.00  0.00     0.051 C 
HETATM   31  C3  UNL     1      -8.129   6.276  14.492  1.00  0.00     0.033 A 
HETATM   32  C4  UNL     1      -9.058   6.276  13.457  1.00  0.00     0.034 A 
HETATM   33 CL1  UNL     1      -8.744   5.376  12.028  1.00  0.00    -0.084 Cl
HETATM   34  C5  UNL     1     -10.243   6.997  13.576  1.00  0.00     0.026 A 
HETATM   35  C6  UNL     1     -10.503   7.727  14.739  1.00  0.00     0.039 A 
ENDBRANCH  27  28
ENDBRANCH  26  27
ENDBRANCH  23  26
ENDBRANCH  20  22
ENDBRANCH   1  19
BRANCH   6  36
HETATM   36  O4  UNL     1     -12.276  10.245  24.972  1.00  0.00    -0.389 OA
HETATM   37  H19 UNL     1     -13.157   9.812  25.014  1.00  0.00     0.210 HD
ENDBRANCH   6  36
BRANCH   4  38
HETATM   38  O3  UNL     1     -11.336  12.712  24.954  1.00  0.00    -0.395 OA
HETATM   39  H16 UNL     1     -11.764  11.912  25.332  1.00  0.00     0.210 HD
ENDBRANCH   4  38
BRANCH  18  40
HETATM   40  O7  UNL     1     -15.298   7.106  23.912  1.00  0.00    -0.389 OA
HETATM   41  H41 UNL     1     -14.878   6.685  24.682  1.00  0.00     0.210 HD
ENDBRANCH  18  40
BRANCH  15  42
HETATM   42  C26 UNL     1     -17.511   5.449  20.704  1.00  0.00    -0.045 A 
HETATM   43  C27 UNL     1     -17.279   5.123  19.432  1.00  0.00     0.087 A 
HETATM   44  C28 UNL     1     -18.565   4.806  18.819  1.00  0.00     0.283 A 
HETATM   45  O5  UNL     1     -18.723   4.510  17.652  1.00  0.00    -0.260 OA
HETATM   46  O6  UNL     1     -19.541   4.913  19.753  1.00  0.00    -0.314 OA
HETATM   47  C29 UNL     1     -18.963   5.333  20.987  1.00  0.00     0.213 A 
ENDBRANCH  15  42
TORSDOF 9
ENDMDL
MODEL 7
REMARK minimizedAffinity -7.59150839
REMARK CNNscore 0.221094787
REMARK CNNaffinity 6.05250359
REMARK  9 active torsions:
REMARK  status: ('A' for Active; 'I' for Inactive)
REMARK    1  A    between atoms: C7_8  and  O1_9 
REMARK    2  A    between atoms: O1_9  and  C8_10 
REMARK    3  A    between atoms: C8_10  and  C9_11 
REMARK       I    between atoms: C9_11  and  N1_13 
REMARK    4  A    between atoms: N1_13  and  N2_14 
REMARK    5  A    between atoms: C10_16  and  C11_17 
REMARK    6  A    between atoms: C14_20  and  O3_21 
REMARK    7  A    between atoms: C16_23  and  O4_24 
REMARK    8  A    between atoms: C25_33  and  C26_34 
REMARK    9  A    between atoms: C32_42  and  O7_43 
ROOT
HETATM    1  C11 UNL     1      -1.825   8.445  13.813  1.00  0.00     0.028 C 
HETATM    2  C12 UNL     1      -2.841   8.145  12.672  1.00  0.00     0.021 C 
HETATM    3  C13 UNL     1      -4.291   8.461  13.073  1.00  0.00     0.033 C 
HETATM    4  C14 UNL     1      -4.719   7.830  14.395  1.00  0.00     0.121 C 
HETATM    5  C15 UNL     1      -3.697   8.033  15.521  1.00  0.00     0.070 C 
HETATM    6  C16 UNL     1      -2.273   7.631  15.076  1.00  0.00     0.073 C 
HETATM    7  C17 UNL     1      -1.275   7.703  16.242  1.00  0.00     0.039 C 
HETATM    8  C18 UNL     1       0.149   7.348  15.809  1.00  0.00     0.011 C 
HETATM    9  C19 UNL     1       0.630   8.173  14.603  1.00  0.00     0.026 C 
HETATM   10  C20 UNL     1      -0.363   8.044  13.398  1.00  0.00     0.009 C 
HETATM   11  C21 UNL     1       0.161   8.761  12.122  1.00  0.00     0.007 C 
HETATM   12  C22 UNL     1       1.619   8.418  11.770  1.00  0.00     0.013 C 
HETATM   13  C23 UNL     1       2.558   8.634  12.966  1.00  0.00    -0.005 C 
HETATM   14  C24 UNL     1       2.632  10.151  13.282  1.00  0.00     0.019 C 
HETATM   15  C25 UNL     1       4.000   8.054  12.807  1.00  0.00     0.028 C 
HETATM   16  C30 UNL     1       4.461   7.866  14.285  1.00  0.00     0.013 C 
HETATM   17  C31 UNL     1       3.187   7.844  15.156  1.00  0.00     0.040 C 
HETATM   18  C32 UNL     1       2.044   7.764  14.148  1.00  0.00     0.070 C 
ENDROOT
BRANCH   1  19
HETATM   19  C10 UNL     1      -1.870   9.972  14.021  1.00  0.00     0.093 C 
HETATM   20  N2  UNL     1      -1.720  10.531  15.178  1.00  0.00    -0.312 N 
ATOM     21  H2  UNL     1      -1.498   9.978  16.006  1.00  0.00     0.185 HD
BRANCH  20  22
HETATM   22  N1  UNL     1      -1.870  11.892  15.253  1.00  0.00    -0.269 N 
HETATM   23  C9  UNL     1      -3.094  12.514  15.522  1.00  0.00     0.260 C 
HETATM   24  O2  UNL     1      -4.182  11.941  15.544  1.00  0.00    -0.269 OA
HETATM   25  H9  UNL     1      -1.032  12.362  15.579  1.00  0.00     0.190 HD
BRANCH  23  26
HETATM   26  C8  UNL     1      -2.929  14.011  15.808  1.00  0.00     0.280 C 
BRANCH  26  27
HETATM   27  O1  UNL     1      -4.073  14.652  16.349  1.00  0.00    -0.342 OA
BRANCH  27  28
HETATM   28  C7  UNL     1      -4.436  14.364  17.636  1.00  0.00     0.075 A 
HETATM   29  C2  UNL     1      -5.796  14.043  17.829  1.00  0.00    -0.027 A 
HETATM   30  C1  UNL     1      -6.760  14.049  16.677  1.00  0.00     0.051 C 
HETATM   31  C3  UNL     1      -6.259  13.741  19.118  1.00  0.00     0.033 A 
HETATM   32  C4  UNL     1      -5.380  13.738  20.196  1.00  0.00     0.034 A 
HETATM   33 CL1  UNL     1      -5.957  13.360  21.769  1.00  0.00    -0.084 Cl
HETATM   34  C5  UNL     1      -4.033  14.033  20.004  1.00  0.00     0.026 A 
HETATM   35  C6  UNL     1      -3.559  14.337  18.724  1.00  0.00     0.039 A 
ENDBRANCH  27  28
ENDBRANCH  26  27
ENDBRANCH  23  26
ENDBRANCH  20  22
ENDBRANCH   1  19
BRANCH   6  36
HETATM   36  O4  UNL     1      -2.388   6.221  14.750  1.00  0.00    -0.389 OA
HETATM   37  H19 UNL     1      -1.573   5.918  14.292  1.00  0.00     0.210 HD
ENDBRANCH   6  36
BRANCH   4  38
HETATM   38  O3  UNL     1      -4.956   6.441  14.179  1.00  0.00    -0.395 OA
HETATM   39  H16 UNL     1      -4.112   5.978  14.373  1.00  0.00     0.210 HD
ENDBRANCH   4  38
BRANCH  18  40
HETATM   40  O7  UNL     1       1.971   6.387  13.712  1.00  0.00    -0.389 OA
HETATM   41  H41 UNL     1       2.003   5.807  14.492  1.00  0.00     0.210 HD
ENDBRANCH  18  40
BRANCH  15  42
HETATM   42  C26 UNL     1       4.957   8.788  11.909  1.00  0.00    -0.045 A 
HETATM   43  C27 UNL     1       6.120   9.368  12.206  1.00  0.00     0.087 A 
HETATM   44  C28 UNL     1       6.681   9.888  10.962  1.00  0.00     0.283 A 
HETATM   45  O5  UNL     1       7.717  10.516  10.878  1.00  0.00    -0.260 OA
HETATM   46  O6  UNL     1       5.854   9.572   9.936  1.00  0.00    -0.314 OA
HETATM   47  C29 UNL     1       4.718   8.880  10.447  1.00  0.00     0.213 A 
ENDBRANCH  15  42
TORSDOF 9
ENDMDL
MODEL 8
REMARK minimizedAffinity -7.76098251
REMARK CNNscore 0.219019935
REMARK CNNaffinity 5.41067076
REMARK  9 active torsions:
REMARK  status: ('A' for Active; 'I' for Inactive)
REMARK    1  A    between atoms: C7_8  and  O1_9 
REMARK    2  A    between atoms: O1_9  and  C8_10 
REMARK    3  A    between atoms: C8_10  and  C9_11 
REMARK       I    between atoms: C9_11  and  N1_13 
REMARK    4  A    between atoms: N1_13  and  N2_14 
REMARK    5  A    between atoms: C10_16  and  C11_17 
REMARK    6  A    between atoms: C14_20  and  O3_21 
REMARK    7  A    between atoms: C16_23  and  O4_24 
REMARK    8  A    between atoms: C25_33  and  C26_34 
REMARK    9  A    between atoms: C32_42  and  O7_43 
ROOT
HETATM    1  C11 UNL     1       7.210  10.425  15.380  1.00  0.00     0.028 C 
HETATM    2  C12 UNL     1       6.337  11.042  16.511  1.00  0.00     0.021 C 
HETATM    3  C13 UNL     1       7.117  12.044  17.378  1.00  0.00     0.033 C 
HETATM    4  C14 UNL     1       8.440  11.504  17.913  1.00  0.00     0.121 C 
HETATM    5  C15 UNL     1       9.288  10.810  16.838  1.00  0.00     0.070 C 
HETATM    6  C16 UNL     1       8.465   9.765  16.051  1.00  0.00     0.073 C 
HETATM    7  C17 UNL     1       9.345   8.975  15.071  1.00  0.00     0.039 C 
HETATM    8  C18 UNL     1       8.539   7.965  14.252  1.00  0.00     0.011 C 
HETATM    9  C19 UNL     1       7.331   8.601  13.540  1.00  0.00     0.026 C 
HETATM   10  C20 UNL     1       6.407   9.353  14.557  1.00  0.00     0.009 C 
HETATM   11  C21 UNL     1       5.112   9.894  13.889  1.00  0.00     0.007 C 
HETATM   12  C22 UNL     1       4.376   8.856  13.026  1.00  0.00     0.013 C 
HETATM   13  C23 UNL     1       5.313   8.205  11.997  1.00  0.00    -0.005 C 
HETATM   14  C24 UNL     1       5.739   9.273  10.956  1.00  0.00     0.019 C 
HETATM   15  C25 UNL     1       4.745   6.947  11.266  1.00  0.00     0.028 C 
HETATM   16  C30 UNL     1       6.037   6.197  10.817  1.00  0.00     0.013 C 
HETATM   17  C31 UNL     1       7.193   6.726  11.691  1.00  0.00     0.040 C 
HETATM   18  C32 UNL     1       6.501   7.559  12.766  1.00  0.00     0.070 C 
ENDROOT
BRANCH   1  19
HETATM   19  C10 UNL     1       7.562  11.595  14.439  1.00  0.00     0.093 C 
HETATM   20  N2  UNL     1       6.762  12.587  14.217  1.00  0.00    -0.312 N 
ATOM     21  H2  UNL     1       5.874  12.670  14.712  1.00  0.00     0.185 HD
BRANCH  20  22
HETATM   22  N1  UNL     1       7.148  13.522  13.291  1.00  0.00    -0.269 N 
HETATM   23  C9  UNL     1       6.411  13.807  12.137  1.00  0.00     0.260 C 
HETATM   24  O2  UNL     1       5.455  13.147  11.734  1.00  0.00    -0.269 OA
HETATM   25  H9  UNL     1       7.677  14.285  13.701  1.00  0.00     0.190 HD
BRANCH  23  26
HETATM   26  C8  UNL     1       6.923  15.062  11.421  1.00  0.00     0.280 C 
BRANCH  26  27
HETATM   27  O1  UNL     1       5.943  16.055  11.167  1.00  0.00    -0.342 OA
BRANCH  27  28
HETATM   28  C7  UNL     1       5.640  16.358   9.867  1.00  0.00     0.075 A 
HETATM   29  C2  UNL     1       4.272  16.291   9.528  1.00  0.00    -0.027 A 
HETATM   30  C1  UNL     1       3.245  15.887  10.546  1.00  0.00     0.051 C 
HETATM   31  C3  UNL     1       3.871  16.579   8.215  1.00  0.00     0.033 A 
HETATM   32  C4  UNL     1       4.811  16.948   7.260  1.00  0.00     0.034 A 
HETATM   33 CL1  UNL     1       4.307  17.305   5.657  1.00  0.00    -0.084 Cl
HETATM   34  C5  UNL     1       6.159  17.036   7.598  1.00  0.00     0.026 A 
HETATM   35  C6  UNL     1       6.572  16.750   8.903  1.00  0.00     0.039 A 
ENDBRANCH  27  28
ENDBRANCH  26  27
ENDBRANCH  23  26
ENDBRANCH  20  22
ENDBRANCH   1  19
BRANCH   6  36
HETATM   36  O4  UNL     1       8.050   8.807  17.059  1.00  0.00    -0.389 OA
HETATM   37  H19 UNL     1       7.376   8.199  16.683  1.00  0.00     0.210 HD
ENDBRANCH   6  36
BRANCH   4  38
HETATM   38  O3  UNL     1       8.163  10.608  18.987  1.00  0.00    -0.395 OA
HETATM   39  H16 UNL     1       8.096   9.710  18.594  1.00  0.00     0.210 HD
ENDBRANCH   4  38
BRANCH  18  40
HETATM   40  O7  UNL     1       5.972   6.627  13.737  1.00  0.00    -0.389 OA
HETATM   41  H41 UNL     1       6.662   5.979  13.961  1.00  0.00     0.210 HD
ENDBRANCH  18  40
BRANCH  15  42
HETATM   42  C26 UNL     1       3.708   7.163  10.199  1.00  0.00    -0.045 A 
HETATM   43  C27 UNL     1       3.695   8.041   9.196  1.00  0.00     0.087 A 
HETATM   44  C28 UNL     1       2.488   7.795   8.413  1.00  0.00     0.283 A 
HETATM   45  O5  UNL     1       2.142   8.447   7.448  1.00  0.00    -0.260 OA
HETATM   46  O6  UNL     1       1.818   6.745   8.947  1.00  0.00    -0.314 OA
HETATM   47  C29 UNL     1       2.516   6.284  10.101  1.00  0.00     0.213 A 
ENDBRANCH  15  42
TORSDOF 9
ENDMDL
MODEL 9
REMARK minimizedAffinity -8.0991621
REMARK CNNscore 0.190844923
REMARK CNNaffinity 5.23913336
REMARK  9 active torsions:
REMARK  status: ('A' for Active; 'I' for Inactive)
REMARK    1  A    between atoms: C7_8  and  O1_9 
REMARK    2  A    between atoms: O1_9  and  C8_10 
REMARK    3  A    between atoms: C8_10  and  C9_11 
REMARK       I    between atoms: C9_11  and  N1_13 
REMARK    4  A    between atoms: N1_13  and  N2_14 
REMARK    5  A    between atoms: C10_16  and  C11_17 
REMARK    6  A    between atoms: C14_20  and  O3_21 
REMARK    7  A    between atoms: C16_23  and  O4_24 
REMARK    8  A    between atoms: C25_33  and  C26_34 
REMARK    9  A    between atoms: C32_42  and  O7_43 
ROOT
HETATM    1  C11 UNL     1     -15.920   6.400  14.062  1.00  0.00     0.028 C 
HETATM    2  C12 UNL     1     -14.537   6.735  13.431  1.00  0.00     0.021 C 
HETATM    3  C13 UNL     1     -14.272   8.247  13.356  1.00  0.00     0.033 C 
HETATM    4  C14 UNL     1     -15.401   9.042  12.706  1.00  0.00     0.121 C 
HETATM    5  C15 UNL     1     -16.789   8.673  13.245  1.00  0.00     0.070 C 
HETATM    6  C16 UNL     1     -17.019   7.145  13.228  1.00  0.00     0.073 C 
HETATM    7  C17 UNL     1     -18.455   6.785  13.637  1.00  0.00     0.039 C 
HETATM    8  C18 UNL     1     -18.688   5.274  13.666  1.00  0.00     0.011 C 
HETATM    9  C19 UNL     1     -17.652   4.525  14.524  1.00  0.00     0.026 C 
HETATM   10  C20 UNL     1     -16.192   4.852  14.059  1.00  0.00     0.009 C 
HETATM   11  C21 UNL     1     -15.129   4.012  14.822  1.00  0.00     0.007 C 
HETATM   12  C22 UNL     1     -15.446   2.508  14.876  1.00  0.00     0.013 C 
HETATM   13  C23 UNL     1     -16.862   2.245  15.409  1.00  0.00    -0.005 C 
HETATM   14  C24 UNL     1     -16.924   2.659  16.902  1.00  0.00     0.019 C 
HETATM   15  C25 UNL     1     -17.386   0.783  15.241  1.00  0.00     0.028 C 
HETATM   16  C30 UNL     1     -18.935   0.967  15.270  1.00  0.00     0.013 C 
HETATM   17  C31 UNL     1     -19.220   2.448  14.946  1.00  0.00     0.040 C 
HETATM   18  C32 UNL     1     -17.870   3.001  14.497  1.00  0.00     0.070 C 
ENDROOT
BRANCH   1  19
HETATM   19  C10 UNL     1     -15.836   6.876  15.526  1.00  0.00     0.093 C 
HETATM   20  N2  UNL     1     -14.775   6.734  16.255  1.00  0.00    -0.312 N 
ATOM     21  H2  UNL     1     -13.914   6.352  15.864  1.00  0.00     0.185 HD
BRANCH  20  22
HETATM   22  N1  UNL     1     -14.850   7.115  17.570  1.00  0.00    -0.269 N 
HETATM   23  C9  UNL     1     -15.761   6.561  18.477  1.00  0.00     0.260 C 
HETATM   24  O2  UNL     1     -16.693   5.820  18.171  1.00  0.00    -0.269 OA
HETATM   25  H9  UNL     1     -13.957   7.421  17.942  1.00  0.00     0.190 HD
BRANCH  23  26
HETATM   26  C8  UNL     1     -15.456   6.970  19.922  1.00  0.00     0.280 C 
BRANCH  26  27
HETATM   27  O1  UNL     1     -14.163   6.620  20.390  1.00  0.00    -0.342 OA
BRANCH  27  28
HETATM   28  C7  UNL     1     -14.062   5.805  21.484  1.00  0.00     0.075 A 
HETATM   29  C2  UNL     1     -13.447   6.379  22.617  1.00  0.00    -0.027 A 
HETATM   30  C1  UNL     1     -12.928   7.788  22.582  1.00  0.00     0.051 C 
HETATM   31  C3  UNL     1     -13.295   5.613  23.783  1.00  0.00     0.033 A 
HETATM   32  C4  UNL     1     -13.764   4.305  23.828  1.00  0.00     0.034 A 
HETATM   33 CL1  UNL     1     -13.578   3.379  25.263  1.00  0.00    -0.084 Cl
HETATM   34  C5  UNL     1     -14.390   3.744  22.718  1.00  0.00     0.026 A 
HETATM   35  C6  UNL     1     -14.547   4.496  21.550  1.00  0.00     0.039 A 
ENDBRANCH  27  28
ENDBRANCH  26  27
ENDBRANCH  23  26
ENDBRANCH  20  22
ENDBRANCH   1  19
BRANCH   6  36
HETATM   36  O4  UNL     1     -16.913   6.787  11.825  1.00  0.00    -0.389 OA
HETATM   37  H19 UNL     1     -16.873   5.809  11.734  1.00  0.00     0.210 HD
ENDBRANCH   6  36
BRANCH   4  38
HETATM   38  O3  UNL     1     -15.342   8.841  11.295  1.00  0.00    -0.395 OA
HETATM   39  H16 UNL     1     -15.930   8.080  11.095  1.00  0.00     0.210 HD
ENDBRANCH   4  38
BRANCH  18  40
HETATM   40  O7  UNL     1     -17.676   2.566  13.132  1.00  0.00    -0.389 OA
HETATM   41  H41 UNL     1     -18.490   2.738  12.627  1.00  0.00     0.210 HD
ENDBRANCH  18  40
BRANCH  15  42
HETATM   42  C26 UNL     1     -16.833  -0.271  16.160  1.00  0.00    -0.045 A 
HETATM   43  C27 UNL     1     -17.208  -0.596  17.398  1.00  0.00     0.087 A 
HETATM   44  C28 UNL     1     -16.387  -1.727  17.822  1.00  0.00     0.283 A 
HETATM   45  O5  UNL     1     -16.437  -2.248  18.918  1.00  0.00    -0.260 OA
HETATM   46  O6  UNL     1     -15.561  -2.081  16.808  1.00  0.00    -0.314 OA
HETATM   47  C29 UNL     1     -15.765  -1.197  15.708  1.00  0.00     0.213 A 
ENDBRANCH  15  42
TORSDOF 9
ENDMDL
