MODEL 1
REMARK minimizedAffinity -6.61432886
REMARK CNNscore 0.359064907
REMARK CNNaffinity 6.44803953
REMARK  21 active torsions:
REMARK  status: ('A' for Active; 'I' for Inactive)
REMARK    1  A    between atoms: C2_2  and  C3_3 
REMARK    2  A    between atoms: C2_2  and  C27_33 
REMARK    3  A    between atoms: C4_4  and  C5_5 
REMARK    4  A    between atoms: C6_6  and  C7_7 
REMARK    5  A    between atoms: C6_6  and  C10_12 
REMARK    6  A    between atoms: C7_7  and  O1_8 
REMARK    7  A    between atoms: O1_8  and  C8_9 
REMARK    8  A    between atoms: C8_9  and  C9_10 
REMARK    9  A    between atoms: C9_10  and  O2_11 
REMARK   10  A    between atoms: C14_16  and  O3_17 
REMARK   11  A    between atoms: C15_18  and  C16_19 
REMARK   12  A    between atoms: C16_19  and  C17_20 
REMARK   13  A    between atoms: C17_20  and  C18_21 
REMARK   14  A    between atoms: C18_21  and  O4_22 
REMARK   15  A    between atoms: C20_24  and  C22_26 
REMARK   16  A    between atoms: C25_30  and  O6_32 
REMARK   17  A    between atoms: C27_33  and  C28_34 
REMARK   18  A    between atoms: C28_34  and  C29_35 
REMARK   19  A    between atoms: C30_36  and  C32_38 
REMARK   20  A    between atoms: C32_38  and  N1_39 
REMARK   21  A    between atoms: N1_39  and  C33_40 
ROOT
HETATM    1  C10 UNL     1      -3.148  47.763 -21.102  1.00  0.00     0.046 C 
HETATM    2  C11 UNL     1      -1.665  47.405 -21.020  1.00  0.00     0.013 C 
HETATM    3  C12 UNL     1      -0.992  48.674 -20.471  1.00  0.00     0.017 C 
HETATM    4  C13 UNL     1      -2.126  49.663 -19.970  1.00  0.00     0.024 C 
HETATM    5  C14 UNL     1      -3.341  48.679 -19.875  1.00  0.00     0.138 C 
HETATM    6  C15 UNL     1      -2.354  50.777 -21.109  1.00  0.00     0.029 C 
HETATM    7  C19 UNL     1      -1.059  51.591 -21.329  1.00  0.00    -0.066 C 
HETATM    8  C20 UNL     1      -0.422  51.712 -22.523  1.00  0.00    -0.021 C 
HETATM    9  C21 UNL     1       0.863  52.453 -22.769  1.00  0.00     0.052 C 
HETATM   10  C23 UNL     1      -0.564  52.232 -20.047  1.00  0.00     0.038 C 
HETATM   11  C24 UNL     1      -0.437  51.244 -18.887  1.00  0.00     0.042 C 
HETATM   12  C25 UNL     1      -1.700  50.379 -18.637  1.00  0.00     0.065 C 
HETATM   13  C26 UNL     1      -1.408  49.477 -17.420  1.00  0.00     0.047 C 
ENDROOT
BRANCH   1  14
HETATM   14  C6  UNL     1      -4.182  46.671 -21.355  1.00  0.00    -0.050 C 
HETATM   15  C5  UNL     1      -5.419  46.765 -21.893  1.00  0.00     0.005 C 
BRANCH  15  16
HETATM   16  C4  UNL     1      -6.083  47.913 -22.458  1.00  0.00     0.001 C 
HETATM   17  C3  UNL     1      -5.834  48.596 -23.590  1.00  0.00     0.006 C 
BRANCH  17  18
HETATM   18  C2  UNL     1      -4.874  48.433 -24.689  1.00  0.00    -0.067 C 
HETATM   19  C1  UNL     1      -3.575  48.661 -24.407  1.00  0.00     0.019 C 
BRANCH  18  20
HETATM   20  C27 UNL     1      -5.353  48.033 -26.075  1.00  0.00     0.041 C 
BRANCH  20  21
HETATM   21  C28 UNL     1      -6.824  47.622 -26.285  1.00  0.00     0.032 C 
BRANCH  21  22
HETATM   22  C29 UNL     1      -7.168  47.348 -27.726  1.00  0.00    -0.022 C 
HETATM   23  C30 UNL     1      -7.750  46.237 -28.225  1.00  0.00    -0.060 C 
HETATM   24  C31 UNL     1      -8.080  45.020 -27.401  1.00  0.00     0.045 C 
BRANCH  23  25
HETATM   25  C32 UNL     1      -8.067  46.123 -29.704  1.00  0.00     0.303 C 
BRANCH  25  26
HETATM   26  N1  UNL     1      -8.584  47.386 -30.223  1.00  0.00     0.086 N 
HETATM   27  H50 UNL     1      -8.150  48.162 -29.730  1.00  0.00     0.316 HD
BRANCH  26  28
HETATM   28  C33 UNL     1     -10.038  47.493 -30.116  1.00  0.00     0.265 C 
HETATM   29  C34 UNL     1     -10.773  46.846 -31.283  1.00  0.00     0.037 C 
ENDBRANCH  26  28
ENDBRANCH  25  26
ENDBRANCH  23  25
ENDBRANCH  21  22
ENDBRANCH  20  21
ENDBRANCH  18  20
ENDBRANCH  17  18
ENDBRANCH  15  16
BRANCH  14  30
HETATM   30  C7  UNL     1      -3.738  45.290 -20.869  1.00  0.00     0.202 C 
BRANCH  30  31
HETATM   31  O1  UNL     1      -4.450  44.865 -19.708  1.00  0.00    -0.385 OA
BRANCH  31  32
HETATM   32  C8  UNL     1      -5.350  43.774 -19.942  1.00  0.00     0.194 C 
BRANCH  32  33
HETATM   33  C9  UNL     1      -5.000  42.634 -18.983  1.00  0.00     0.190 C 
BRANCH  33  34
HETATM   34  O2  UNL     1      -3.783  42.006 -19.391  1.00  0.00    -0.399 OA
HETATM   35  H12 UNL     1      -3.665  41.211 -18.838  1.00  0.00     0.209 HD
ENDBRANCH  33  34
ENDBRANCH  32  33
ENDBRANCH  31  32
ENDBRANCH  30  31
ENDBRANCH  14  30
ENDBRANCH   1  14
BRANCH   5  36
HETATM   36  O3  UNL     1      -3.297  47.881 -18.694  1.00  0.00    -0.394 OA
HETATM   37  H19 UNL     1      -4.106  47.339 -18.693  1.00  0.00     0.210 HD
ENDBRANCH   5  36
BRANCH   6  38
HETATM   38  C16 UNL     1      -3.510  51.819 -21.012  1.00  0.00     0.012 C 
BRANCH  38  39
HETATM   39  C17 UNL     1      -4.715  51.615 -21.931  1.00  0.00     0.027 C 
BRANCH  39  40
HETATM   40  C18 UNL     1      -4.409  51.995 -23.377  1.00  0.00     0.164 C 
BRANCH  40  41
HETATM   41  O4  UNL     1      -5.617  52.070 -24.122  1.00  0.00    -0.401 OA
HETATM   42  H27 UNL     1      -5.373  52.289 -25.039  1.00  0.00     0.209 HD
ENDBRANCH  40  41
ENDBRANCH  39  40
ENDBRANCH  38  39
ENDBRANCH   6  38
BRANCH  12  43
HETATM   43  O6  UNL     1      -2.763  51.252 -18.222  1.00  0.00    -0.389 OA
HETATM   44  H39 UNL     1      -2.515  51.636 -17.362  1.00  0.00     0.210 HD
ENDBRANCH  12  43
BRANCH   8  45
HETATM   45  C22 UNL     1      -0.990  51.114 -23.777  1.00  0.00     0.265 C 
HETATM   46  O5  UNL     1      -0.367  51.047 -24.832  1.00  0.00    -0.302 OA
ENDBRANCH   8  45
TORSDOF 21
ENDMDL
MODEL 2
REMARK minimizedAffinity -7.17549658
REMARK CNNscore 0.35837397
REMARK CNNaffinity 6.44368362
REMARK  21 active torsions:
REMARK  status: ('A' for Active; 'I' for Inactive)
REMARK    1  A    between atoms: C2_2  and  C3_3 
REMARK    2  A    between atoms: C2_2  and  C27_33 
REMARK    3  A    between atoms: C4_4  and  C5_5 
REMARK    4  A    between atoms: C6_6  and  C7_7 
REMARK    5  A    between atoms: C6_6  and  C10_12 
REMARK    6  A    between atoms: C7_7  and  O1_8 
REMARK    7  A    between atoms: O1_8  and  C8_9 
REMARK    8  A    between atoms: C8_9  and  C9_10 
REMARK    9  A    between atoms: C9_10  and  O2_11 
REMARK   10  A    between atoms: C14_16  and  O3_17 
REMARK   11  A    between atoms: C15_18  and  C16_19 
REMARK   12  A    between atoms: C16_19  and  C17_20 
REMARK   13  A    between atoms: C17_20  and  C18_21 
REMARK   14  A    between atoms: C18_21  and  O4_22 
REMARK   15  A    between atoms: C20_24  and  C22_26 
REMARK   16  A    between atoms: C25_30  and  O6_32 
REMARK   17  A    between atoms: C27_33  and  C28_34 
REMARK   18  A    between atoms: C28_34  and  C29_35 
REMARK   19  A    between atoms: C30_36  and  C32_38 
REMARK   20  A    between atoms: C32_38  and  N1_39 
REMARK   21  A    between atoms: N1_39  and  C33_40 
ROOT
HETATM    1  C10 UNL     1      -6.314  48.642 -22.435  1.00  0.00     0.046 C 
HETATM    2  C11 UNL     1      -6.085  49.546 -21.225  1.00  0.00     0.013 C 
HETATM    3  C12 UNL     1      -4.895  50.433 -21.627  1.00  0.00     0.017 C 
HETATM    4  C13 UNL     1      -4.623  50.232 -23.176  1.00  0.00     0.024 C 
HETATM    5  C14 UNL     1      -5.972  49.571 -23.619  1.00  0.00     0.138 C 
HETATM    6  C15 UNL     1      -3.386  49.214 -23.335  1.00  0.00     0.029 C 
HETATM    7  C19 UNL     1      -2.115  49.811 -22.689  1.00  0.00    -0.066 C 
HETATM    8  C20 UNL     1      -1.395  49.206 -21.709  1.00  0.00    -0.021 C 
HETATM    9  C21 UNL     1      -0.184  49.773 -21.022  1.00  0.00     0.052 C 
HETATM   10  C23 UNL     1      -1.766  51.170 -23.267  1.00  0.00     0.038 C 
HETATM   11  C24 UNL     1      -2.939  52.151 -23.253  1.00  0.00     0.042 C 
HETATM   12  C25 UNL     1      -4.251  51.595 -23.864  1.00  0.00     0.065 C 
HETATM   13  C26 UNL     1      -5.304  52.721 -23.800  1.00  0.00     0.047 C 
ENDROOT
BRANCH   1  14
HETATM   14  C6  UNL     1      -7.580  47.796 -22.525  1.00  0.00    -0.050 C 
HETATM   15  C5  UNL     1      -8.575  47.637 -21.624  1.00  0.00     0.005 C 
BRANCH  15  16
HETATM   16  C4  UNL     1      -8.765  48.287 -20.350  1.00  0.00     0.001 C 
HETATM   17  C3  UNL     1      -9.759  48.170 -19.451  1.00  0.00     0.006 C 
BRANCH  17  18
HETATM   18  C2  UNL     1     -10.965  47.337 -19.366  1.00  0.00    -0.067 C 
HETATM   19  C1  UNL     1     -11.079  46.532 -18.290  1.00  0.00     0.019 C 
BRANCH  18  20
HETATM   20  C27 UNL     1     -12.017  47.392 -20.461  1.00  0.00     0.041 C 
BRANCH  20  21
HETATM   21  C28 UNL     1     -13.259  48.288 -20.281  1.00  0.00     0.032 C 
BRANCH  21  22
HETATM   22  C29 UNL     1     -14.552  47.515 -20.241  1.00  0.00    -0.022 C 
HETATM   23  C30 UNL     1     -15.238  47.025 -21.295  1.00  0.00    -0.060 C 
HETATM   24  C31 UNL     1     -14.848  47.257 -22.731  1.00  0.00     0.045 C 
BRANCH  23  25
HETATM   25  C32 UNL     1     -16.515  46.232 -21.090  1.00  0.00     0.303 C 
BRANCH  25  26
HETATM   26  N1  UNL     1     -17.307  46.795 -20.001  1.00  0.00     0.086 N 
HETATM   27  H50 UNL     1     -17.192  46.227 -19.165  1.00  0.00     0.316 HD
BRANCH  26  28
HETATM   28  C33 UNL     1     -18.728  46.902 -20.326  1.00  0.00     0.265 C 
HETATM   29  C34 UNL     1     -19.610  47.094 -19.099  1.00  0.00     0.037 C 
ENDBRANCH  26  28
ENDBRANCH  25  26
ENDBRANCH  23  25
ENDBRANCH  21  22
ENDBRANCH  20  21
ENDBRANCH  18  20
ENDBRANCH  17  18
ENDBRANCH  15  16
BRANCH  14  30
HETATM   30  C7  UNL     1      -7.676  46.983 -23.818  1.00  0.00     0.202 C 
BRANCH  30  31
HETATM   31  O1  UNL     1      -8.843  47.299 -24.576  1.00  0.00    -0.385 OA
BRANCH  31  32
HETATM   32  C8  UNL     1      -8.567  47.904 -25.845  1.00  0.00     0.194 C 
BRANCH  32  33
HETATM   33  C9  UNL     1      -9.786  48.728 -26.271  1.00  0.00     0.190 C 
BRANCH  33  34
HETATM   34  O2  UNL     1      -9.559  50.113 -26.003  1.00  0.00    -0.399 OA
HETATM   35  H12 UNL     1     -10.399  50.583 -26.163  1.00  0.00     0.209 HD
ENDBRANCH  33  34
ENDBRANCH  32  33
ENDBRANCH  31  32
ENDBRANCH  30  31
ENDBRANCH  14  30
ENDBRANCH   1  14
BRANCH   5  36
HETATM   36  O3  UNL     1      -7.018  50.529 -23.768  1.00  0.00    -0.394 OA
HETATM   37  H19 UNL     1      -7.798  50.043 -24.088  1.00  0.00     0.210 HD
ENDBRANCH   5  36
BRANCH   6  38
HETATM   38  C16 UNL     1      -2.950  48.671 -24.730  1.00  0.00     0.012 C 
BRANCH  38  39
HETATM   39  C17 UNL     1      -4.059  48.304 -25.717  1.00  0.00     0.027 C 
BRANCH  39  40
HETATM   40  C18 UNL     1      -3.610  48.445 -27.168  1.00  0.00     0.164 C 
BRANCH  40  41
HETATM   41  O4  UNL     1      -4.618  49.105 -27.922  1.00  0.00    -0.401 OA
HETATM   42  H27 UNL     1      -4.301  49.149 -28.842  1.00  0.00     0.209 HD
ENDBRANCH  40  41
ENDBRANCH  39  40
ENDBRANCH  38  39
ENDBRANCH   6  38
BRANCH  12  43
HETATM   43  O6  UNL     1      -4.026  51.359 -25.263  1.00  0.00    -0.389 OA
HETATM   44  H39 UNL     1      -3.864  52.219 -25.688  1.00  0.00     0.210 HD
ENDBRANCH  12  43
BRANCH   8  45
HETATM   45  C22 UNL     1      -1.742  47.831 -21.219  1.00  0.00     0.265 C 
HETATM   46  O5  UNL     1      -1.858  47.550 -20.030  1.00  0.00    -0.302 OA
ENDBRANCH   8  45
TORSDOF 21
ENDMDL
MODEL 3
REMARK minimizedAffinity -7.72428083
REMARK CNNscore 0.307934821
REMARK CNNaffinity 6.63792086
REMARK  21 active torsions:
REMARK  status: ('A' for Active; 'I' for Inactive)
REMARK    1  A    between atoms: C2_2  and  C3_3 
REMARK    2  A    between atoms: C2_2  and  C27_33 
REMARK    3  A    between atoms: C4_4  and  C5_5 
REMARK    4  A    between atoms: C6_6  and  C7_7 
REMARK    5  A    between atoms: C6_6  and  C10_12 
REMARK    6  A    between atoms: C7_7  and  O1_8 
REMARK    7  A    between atoms: O1_8  and  C8_9 
REMARK    8  A    between atoms: C8_9  and  C9_10 
REMARK    9  A    between atoms: C9_10  and  O2_11 
REMARK   10  A    between atoms: C14_16  and  O3_17 
REMARK   11  A    between atoms: C15_18  and  C16_19 
REMARK   12  A    between atoms: C16_19  and  C17_20 
REMARK   13  A    between atoms: C17_20  and  C18_21 
REMARK   14  A    between atoms: C18_21  and  O4_22 
REMARK   15  A    between atoms: C20_24  and  C22_26 
REMARK   16  A    between atoms: C25_30  and  O6_32 
REMARK   17  A    between atoms: C27_33  and  C28_34 
REMARK   18  A    between atoms: C28_34  and  C29_35 
REMARK   19  A    between atoms: C30_36  and  C32_38 
REMARK   20  A    between atoms: C32_38  and  N1_39 
REMARK   21  A    between atoms: N1_39  and  C33_40 
ROOT
HETATM    1  C10 UNL     1      -7.428  47.130 -28.431  1.00  0.00     0.046 C 
HETATM    2  C11 UNL     1      -8.114  46.135 -29.365  1.00  0.00     0.013 C 
HETATM    3  C12 UNL     1      -9.525  45.965 -28.778  1.00  0.00     0.017 C 
HETATM    4  C13 UNL     1      -9.742  47.077 -27.669  1.00  0.00     0.024 C 
HETATM    5  C14 UNL     1      -8.586  48.070 -28.031  1.00  0.00     0.138 C 
HETATM    6  C15 UNL     1      -9.509  46.397 -26.229  1.00  0.00     0.029 C 
HETATM    7  C19 UNL     1     -10.539  45.269 -25.997  1.00  0.00    -0.066 C 
HETATM    8  C20 UNL     1     -10.215  43.979 -25.721  1.00  0.00    -0.021 C 
HETATM    9  C21 UNL     1     -11.184  42.843 -25.536  1.00  0.00     0.052 C 
HETATM   10  C23 UNL     1     -11.966  45.764 -26.128  1.00  0.00     0.038 C 
HETATM   11  C24 UNL     1     -12.224  46.525 -27.429  1.00  0.00     0.042 C 
HETATM   12  C25 UNL     1     -11.203  47.653 -27.728  1.00  0.00     0.065 C 
HETATM   13  C26 UNL     1     -11.636  48.330 -29.045  1.00  0.00     0.047 C 
ENDROOT
BRANCH   1  14
HETATM   14  C6  UNL     1      -6.096  47.757 -28.831  1.00  0.00    -0.050 C 
HETATM   15  C5  UNL     1      -5.085  48.200 -28.051  1.00  0.00     0.005 C 
BRANCH  15  16
HETATM   16  C4  UNL     1      -4.941  48.132 -26.618  1.00  0.00     0.001 C 
HETATM   17  C3  UNL     1      -4.184  48.864 -25.781  1.00  0.00     0.006 C 
BRANCH  17  18
HETATM   18  C2  UNL     1      -3.284  50.011 -25.959  1.00  0.00    -0.067 C 
HETATM   19  C1  UNL     1      -2.115  49.780 -26.589  1.00  0.00     0.019 C 
BRANCH  18  20
HETATM   20  C27 UNL     1      -3.676  51.384 -25.438  1.00  0.00     0.041 C 
BRANCH  20  21
HETATM   21  C28 UNL     1      -2.989  51.946 -24.177  1.00  0.00     0.032 C 
BRANCH  21  22
HETATM   22  C29 UNL     1      -1.707  52.682 -24.473  1.00  0.00    -0.022 C 
HETATM   23  C30 UNL     1      -0.524  52.541 -23.839  1.00  0.00    -0.060 C 
HETATM   24  C31 UNL     1      -0.317  51.656 -22.638  1.00  0.00     0.045 C 
BRANCH  23  25
HETATM   25  C32 UNL     1       0.692  53.333 -24.278  1.00  0.00     0.303 C 
BRANCH  25  26
HETATM   26  N1  UNL     1       0.983  53.098 -25.690  1.00  0.00     0.086 N 
HETATM   27  H50 UNL     1       0.183  53.372 -26.254  1.00  0.00     0.316 HD
BRANCH  26  28
HETATM   28  C33 UNL     1       1.328  51.706 -25.977  1.00  0.00     0.265 C 
HETATM   29  C34 UNL     1       2.603  51.563 -26.797  1.00  0.00     0.037 C 
ENDBRANCH  26  28
ENDBRANCH  25  26
ENDBRANCH  23  25
ENDBRANCH  21  22
ENDBRANCH  20  21
ENDBRANCH  18  20
ENDBRANCH  17  18
ENDBRANCH  15  16
BRANCH  14  30
HETATM   30  C7  UNL     1      -5.942  47.942 -30.342  1.00  0.00     0.202 C 
BRANCH  30  31
HETATM   31  O1  UNL     1      -4.635  47.604 -30.803  1.00  0.00    -0.385 OA
BRANCH  31  32
HETATM   32  C8  UNL     1      -4.625  46.709 -31.922  1.00  0.00     0.194 C 
BRANCH  32  33
HETATM   33  C9  UNL     1      -4.409  47.523 -33.200  1.00  0.00     0.190 C 
BRANCH  33  34
HETATM   34  O2  UNL     1      -3.052  47.963 -33.277  1.00  0.00    -0.399 OA
HETATM   35  H12 UNL     1      -2.987  48.582 -34.029  1.00  0.00     0.209 HD
ENDBRANCH  33  34
ENDBRANCH  32  33
ENDBRANCH  31  32
ENDBRANCH  30  31
ENDBRANCH  14  30
ENDBRANCH   1  14
BRANCH   5  36
HETATM   36  O3  UNL     1      -8.913  48.895 -29.147  1.00  0.00    -0.394 OA
HETATM   37  H19 UNL     1      -8.166  49.507 -29.271  1.00  0.00     0.210 HD
ENDBRANCH   5  36
BRANCH   6  38
HETATM   38  C16 UNL     1      -9.489  47.244 -24.920  1.00  0.00     0.012 C 
BRANCH  38  39
HETATM   39  C17 UNL     1      -8.156  47.872 -24.512  1.00  0.00     0.027 C 
BRANCH  39  40
HETATM   40  C18 UNL     1      -8.276  49.372 -24.267  1.00  0.00     0.164 C 
BRANCH  40  41
HETATM   41  O4  UNL     1      -9.113  49.957 -25.255  1.00  0.00    -0.401 OA
HETATM   42  H27 UNL     1      -9.140  50.914 -25.076  1.00  0.00     0.209 HD
ENDBRANCH  40  41
ENDBRANCH  39  40
ENDBRANCH  38  39
ENDBRANCH   6  38
BRANCH  12  43
HETATM   43  O6  UNL     1     -11.343  48.661 -26.714  1.00  0.00    -0.389 OA
HETATM   44  H39 UNL     1     -12.228  49.056 -26.807  1.00  0.00     0.210 HD
ENDBRANCH  12  43
BRANCH   8  45
HETATM   45  C22 UNL     1      -8.789  43.553 -25.533  1.00  0.00     0.265 C 
HETATM   46  O5  UNL     1      -7.951  43.594 -26.430  1.00  0.00    -0.302 OA
ENDBRANCH   8  45
TORSDOF 21
ENDMDL
MODEL 4
REMARK minimizedAffinity -6.87056017
REMARK CNNscore 0.295532733
REMARK CNNaffinity 6.83991241
REMARK  21 active torsions:
REMARK  status: ('A' for Active; 'I' for Inactive)
REMARK    1  A    between atoms: C2_2  and  C3_3 
REMARK    2  A    between atoms: C2_2  and  C27_33 
REMARK    3  A    between atoms: C4_4  and  C5_5 
REMARK    4  A    between atoms: C6_6  and  C7_7 
REMARK    5  A    between atoms: C6_6  and  C10_12 
REMARK    6  A    between atoms: C7_7  and  O1_8 
REMARK    7  A    between atoms: O1_8  and  C8_9 
REMARK    8  A    between atoms: C8_9  and  C9_10 
REMARK    9  A    between atoms: C9_10  and  O2_11 
REMARK   10  A    between atoms: C14_16  and  O3_17 
REMARK   11  A    between atoms: C15_18  and  C16_19 
REMARK   12  A    between atoms: C16_19  and  C17_20 
REMARK   13  A    between atoms: C17_20  and  C18_21 
REMARK   14  A    between atoms: C18_21  and  O4_22 
REMARK   15  A    between atoms: C20_24  and  C22_26 
REMARK   16  A    between atoms: C25_30  and  O6_32 
REMARK   17  A    between atoms: C27_33  and  C28_34 
REMARK   18  A    between atoms: C28_34  and  C29_35 
REMARK   19  A    between atoms: C30_36  and  C32_38 
REMARK   20  A    between atoms: C32_38  and  N1_39 
REMARK   21  A    between atoms: N1_39  and  C33_40 
ROOT
HETATM    1  C10 UNL     1      -0.452  49.995 -17.704  1.00  0.00     0.046 C 
HETATM    2  C11 UNL     1      -1.372  48.799 -17.463  1.00  0.00     0.013 C 
HETATM    3  C12 UNL     1      -1.555  48.756 -15.937  1.00  0.00     0.017 C 
HETATM    4  C13 UNL     1      -0.969  50.098 -15.326  1.00  0.00     0.024 C 
HETATM    5  C14 UNL     1      -0.899  50.989 -16.611  1.00  0.00     0.138 C 
HETATM    6  C15 UNL     1       0.498  49.781 -14.744  1.00  0.00     0.029 C 
HETATM    7  C19 UNL     1       0.411  48.728 -13.616  1.00  0.00    -0.066 C 
HETATM    8  C20 UNL     1       1.076  47.544 -13.618  1.00  0.00    -0.021 C 
HETATM    9  C21 UNL     1       0.981  46.474 -12.566  1.00  0.00     0.052 C 
HETATM   10  C23 UNL     1      -0.523  49.162 -12.502  1.00  0.00     0.038 C 
HETATM   11  C24 UNL     1      -1.903  49.590 -13.003  1.00  0.00     0.042 C 
HETATM   12  C25 UNL     1      -1.876  50.626 -14.156  1.00  0.00     0.065 C 
HETATM   13  C26 UNL     1      -3.340  50.967 -14.505  1.00  0.00     0.047 C 
ENDROOT
BRANCH   1  14
HETATM   14  C6  UNL     1      -0.248  50.525 -19.120  1.00  0.00    -0.050 C 
HETATM   15  C5  UNL     1      -0.340  49.877 -20.303  1.00  0.00     0.005 C 
BRANCH  15  16
HETATM   16  C4  UNL     1      -0.741  48.517 -20.570  1.00  0.00     0.001 C 
HETATM   17  C3  UNL     1      -1.804  48.038 -21.241  1.00  0.00     0.006 C 
BRANCH  17  18
HETATM   18  C2  UNL     1      -2.904  48.659 -21.988  1.00  0.00    -0.067 C 
HETATM   19  C1  UNL     1      -3.005  48.352 -23.298  1.00  0.00     0.019 C 
BRANCH  18  20
HETATM   20  C27 UNL     1      -3.866  49.608 -21.294  1.00  0.00     0.041 C 
BRANCH  20  21
HETATM   21  C28 UNL     1      -3.532  51.111 -21.216  1.00  0.00     0.032 C 
BRANCH  21  22
HETATM   22  C29 UNL     1      -2.752  51.612 -22.404  1.00  0.00    -0.022 C 
HETATM   23  C30 UNL     1      -3.252  52.036 -23.584  1.00  0.00    -0.060 C 
HETATM   24  C31 UNL     1      -4.716  51.993 -23.939  1.00  0.00     0.045 C 
BRANCH  23  25
HETATM   25  C32 UNL     1      -2.335  52.548 -24.678  1.00  0.00     0.303 C 
BRANCH  25  26
HETATM   26  N1  UNL     1      -3.052  52.664 -25.944  1.00  0.00     0.086 N 
HETATM   27  H50 UNL     1      -3.992  52.290 -25.842  1.00  0.00     0.316 HD
BRANCH  26  28
HETATM   28  C33 UNL     1      -2.375  51.983 -27.047  1.00  0.00     0.265 C 
HETATM   29  C34 UNL     1      -1.507  50.818 -26.589  1.00  0.00     0.037 C 
ENDBRANCH  26  28
ENDBRANCH  25  26
ENDBRANCH  23  25
ENDBRANCH  21  22
ENDBRANCH  20  21
ENDBRANCH  18  20
ENDBRANCH  17  18
ENDBRANCH  15  16
BRANCH  14  30
HETATM   30  C7  UNL     1       0.174  51.995 -19.163  1.00  0.00     0.202 C 
BRANCH  30  31
HETATM   31  O1  UNL     1      -0.005  52.577 -20.453  1.00  0.00    -0.385 OA
BRANCH  31  32
HETATM   32  C8  UNL     1       0.484  53.920 -20.559  1.00  0.00     0.194 C 
BRANCH  32  33
HETATM   33  C9  UNL     1       1.805  53.901 -21.332  1.00  0.00     0.190 C 
BRANCH  33  34
HETATM   34  O2  UNL     1       1.915  55.072 -22.144  1.00  0.00    -0.399 OA
HETATM   35  H12 UNL     1       2.699  54.959 -22.714  1.00  0.00     0.209 HD
ENDBRANCH  33  34
ENDBRANCH  32  33
ENDBRANCH  31  32
ENDBRANCH  30  31
ENDBRANCH  14  30
ENDBRANCH   1  14
BRANCH   5  36
HETATM   36  O3  UNL     1      -2.172  51.523 -16.968  1.00  0.00    -0.394 OA
HETATM   37  H19 UNL     1      -2.028  52.096 -17.741  1.00  0.00     0.210 HD
ENDBRANCH   5  36
BRANCH   6  38
HETATM   38  C16 UNL     1       1.426  50.914 -14.210  1.00  0.00     0.012 C 
BRANCH  38  39
HETATM   39  C17 UNL     1       2.917  50.808 -14.531  1.00  0.00     0.027 C 
BRANCH  39  40
HETATM   40  C18 UNL     1       3.722  50.253 -13.360  1.00  0.00     0.164 C 
BRANCH  40  41
HETATM   41  O4  UNL     1       4.853  49.541 -13.847  1.00  0.00    -0.401 OA
HETATM   42  H27 UNL     1       5.320  49.185 -13.070  1.00  0.00     0.209 HD
ENDBRANCH  40  41
ENDBRANCH  39  40
ENDBRANCH  38  39
ENDBRANCH   6  38
BRANCH  12  43
HETATM   43  O6  UNL     1      -1.310  51.845 -13.647  1.00  0.00    -0.389 OA
HETATM   44  H39 UNL     1      -1.916  52.196 -12.972  1.00  0.00     0.210 HD
ENDBRANCH  12  43
BRANCH   8  45
HETATM   45  C22 UNL     1       2.042  47.191 -14.711  1.00  0.00     0.265 C 
HETATM   46  O5  UNL     1       3.005  46.449 -14.544  1.00  0.00    -0.302 OA
ENDBRANCH   8  45
TORSDOF 21
ENDMDL
MODEL 5
REMARK minimizedAffinity -7.94257641
REMARK CNNscore 0.277560145
REMARK CNNaffinity 6.8451066
REMARK  21 active torsions:
REMARK  status: ('A' for Active; 'I' for Inactive)
REMARK    1  A    between atoms: C2_2  and  C3_3 
REMARK    2  A    between atoms: C2_2  and  C27_33 
REMARK    3  A    between atoms: C4_4  and  C5_5 
REMARK    4  A    between atoms: C6_6  and  C7_7 
REMARK    5  A    between atoms: C6_6  and  C10_12 
REMARK    6  A    between atoms: C7_7  and  O1_8 
REMARK    7  A    between atoms: O1_8  and  C8_9 
REMARK    8  A    between atoms: C8_9  and  C9_10 
REMARK    9  A    between atoms: C9_10  and  O2_11 
REMARK   10  A    between atoms: C14_16  and  O3_17 
REMARK   11  A    between atoms: C15_18  and  C16_19 
REMARK   12  A    between atoms: C16_19  and  C17_20 
REMARK   13  A    between atoms: C17_20  and  C18_21 
REMARK   14  A    between atoms: C18_21  and  O4_22 
REMARK   15  A    between atoms: C20_24  and  C22_26 
REMARK   16  A    between atoms: C25_30  and  O6_32 
REMARK   17  A    between atoms: C27_33  and  C28_34 
REMARK   18  A    between atoms: C28_34  and  C29_35 
REMARK   19  A    between atoms: C30_36  and  C32_38 
REMARK   20  A    between atoms: C32_38  and  N1_39 
REMARK   21  A    between atoms: N1_39  and  C33_40 
ROOT
HETATM    1  C10 UNL     1      -1.109  50.416 -22.172  1.00  0.00     0.046 C 
HETATM    2  C11 UNL     1      -0.904  51.921 -22.336  1.00  0.00     0.013 C 
HETATM    3  C12 UNL     1      -1.580  52.258 -23.676  1.00  0.00     0.017 C 
HETATM    4  C13 UNL     1      -2.418  50.996 -24.144  1.00  0.00     0.024 C 
HETATM    5  C14 UNL     1      -2.502  50.195 -22.800  1.00  0.00     0.138 C 
HETATM    6  C15 UNL     1      -1.554  50.207 -25.250  1.00  0.00     0.029 C 
HETATM    7  C19 UNL     1      -1.305  51.110 -26.479  1.00  0.00    -0.066 C 
HETATM    8  C20 UNL     1      -0.076  51.424 -26.964  1.00  0.00    -0.021 C 
HETATM    9  C21 UNL     1       0.211  52.336 -28.125  1.00  0.00     0.052 C 
HETATM   10  C23 UNL     1      -2.599  51.625 -27.080  1.00  0.00     0.038 C 
HETATM   11  C24 UNL     1      -3.521  52.285 -26.054  1.00  0.00     0.042 C 
HETATM   12  C25 UNL     1      -3.785  51.434 -24.784  1.00  0.00     0.065 C 
HETATM   13  C26 UNL     1      -4.754  52.231 -23.888  1.00  0.00     0.047 C 
ENDROOT
BRANCH   1  14
HETATM   14  C6  UNL     1      -0.808  49.748 -20.835  1.00  0.00    -0.050 C 
HETATM   15  C5  UNL     1      -0.403  50.299 -19.669  1.00  0.00     0.005 C 
BRANCH  15  16
HETATM   16  C4  UNL     1      -0.221  51.689 -19.332  1.00  0.00     0.001 C 
HETATM   17  C3  UNL     1       0.371  52.258 -18.266  1.00  0.00     0.006 C 
BRANCH  17  18
HETATM   18  C2  UNL     1       1.089  51.734 -17.097  1.00  0.00    -0.067 C 
HETATM   19  C1  UNL     1       0.568  50.646 -16.496  1.00  0.00     0.019 C 
BRANCH  18  20
HETATM   20  C27 UNL     1       2.355  52.414 -16.604  1.00  0.00     0.041 C 
BRANCH  20  21
HETATM   21  C28 UNL     1       3.235  51.715 -15.548  1.00  0.00     0.032 C 
BRANCH  21  22
HETATM   22  C29 UNL     1       2.926  52.141 -14.136  1.00  0.00    -0.022 C 
HETATM   23  C30 UNL     1       3.030  51.389 -13.019  1.00  0.00    -0.060 C 
HETATM   24  C31 UNL     1       3.401  49.929 -13.022  1.00  0.00     0.045 C 
BRANCH  23  25
HETATM   25  C32 UNL     1       2.714  51.975 -11.656  1.00  0.00     0.303 C 
BRANCH  25  26
HETATM   26  N1  UNL     1       2.706  53.434 -11.707  1.00  0.00     0.086 N 
HETATM   27  H50 UNL     1       2.986  53.746 -12.634  1.00  0.00     0.316 HD
BRANCH  26  28
HETATM   28  C33 UNL     1       3.577  54.044 -10.704  1.00  0.00     0.265 C 
HETATM   29  C34 UNL     1       4.074  55.427 -11.104  1.00  0.00     0.037 C 
ENDBRANCH  26  28
ENDBRANCH  25  26
ENDBRANCH  23  25
ENDBRANCH  21  22
ENDBRANCH  20  21
ENDBRANCH  18  20
ENDBRANCH  17  18
ENDBRANCH  15  16
BRANCH  14  30
HETATM   30  C7  UNL     1      -0.943  48.224 -20.874  1.00  0.00     0.202 C 
BRANCH  30  31
HETATM   31  O1  UNL     1      -2.271  47.802 -21.183  1.00  0.00    -0.385 OA
BRANCH  31  32
HETATM   32  C8  UNL     1      -2.880  47.002 -20.162  1.00  0.00     0.194 C 
BRANCH  32  33
HETATM   33  C9  UNL     1      -3.478  47.931 -19.103  1.00  0.00     0.190 C 
BRANCH  33  34
HETATM   34  O2  UNL     1      -4.216  48.980 -19.732  1.00  0.00    -0.399 OA
HETATM   35  H12 UNL     1      -4.468  49.618 -19.037  1.00  0.00     0.209 HD
ENDBRANCH  33  34
ENDBRANCH  32  33
ENDBRANCH  31  32
ENDBRANCH  30  31
ENDBRANCH  14  30
ENDBRANCH   1  14
BRANCH   5  36
HETATM   36  O3  UNL     1      -3.491  50.722 -21.920  1.00  0.00    -0.394 OA
HETATM   37  H19 UNL     1      -3.508  50.142 -21.139  1.00  0.00     0.210 HD
ENDBRANCH   5  36
BRANCH   6  38
HETATM   38  C16 UNL     1      -2.013  48.826 -25.811  1.00  0.00     0.012 C 
BRANCH  38  39
HETATM   39  C17 UNL     1      -3.515  48.605 -25.987  1.00  0.00     0.027 C 
BRANCH  39  40
HETATM   40  C18 UNL     1      -3.881  48.232 -27.420  1.00  0.00     0.164 C 
BRANCH  40  41
HETATM   41  O4  UNL     1      -5.276  48.415 -27.625  1.00  0.00    -0.401 OA
HETATM   42  H27 UNL     1      -5.467  48.142 -28.540  1.00  0.00     0.209 HD
ENDBRANCH  40  41
ENDBRANCH  39  40
ENDBRANCH  38  39
ENDBRANCH   6  38
BRANCH  12  43
HETATM   43  O6  UNL     1      -4.507  50.257 -25.180  1.00  0.00    -0.389 OA
HETATM   44  H39 UNL     1      -5.378  50.538 -25.511  1.00  0.00     0.210 HD
ENDBRANCH  12  43
BRANCH   8  45
HETATM   45  C22 UNL     1       1.172  50.833 -26.375  1.00  0.00     0.265 C 
HETATM   46  O5  UNL     1       2.298  51.250 -26.630  1.00  0.00    -0.302 OA
ENDBRANCH   8  45
TORSDOF 21
ENDMDL
MODEL 6
REMARK minimizedAffinity -7.04416752
REMARK CNNscore 0.255375743
REMARK CNNaffinity 6.31570816
REMARK  21 active torsions:
REMARK  status: ('A' for Active; 'I' for Inactive)
REMARK    1  A    between atoms: C2_2  and  C3_3 
REMARK    2  A    between atoms: C2_2  and  C27_33 
REMARK    3  A    between atoms: C4_4  and  C5_5 
REMARK    4  A    between atoms: C6_6  and  C7_7 
REMARK    5  A    between atoms: C6_6  and  C10_12 
REMARK    6  A    between atoms: C7_7  and  O1_8 
REMARK    7  A    between atoms: O1_8  and  C8_9 
REMARK    8  A    between atoms: C8_9  and  C9_10 
REMARK    9  A    between atoms: C9_10  and  O2_11 
REMARK   10  A    between atoms: C14_16  and  O3_17 
REMARK   11  A    between atoms: C15_18  and  C16_19 
REMARK   12  A    between atoms: C16_19  and  C17_20 
REMARK   13  A    between atoms: C17_20  and  C18_21 
REMARK   14  A    between atoms: C18_21  and  O4_22 
REMARK   15  A    between atoms: C20_24  and  C22_26 
REMARK   16  A    between atoms: C25_30  and  O6_32 
REMARK   17  A    between atoms: C27_33  and  C28_34 
REMARK   18  A    between atoms: C28_34  and  C29_35 
REMARK   19  A    between atoms: C30_36  and  C32_38 
REMARK   20  A    between atoms: C32_38  and  N1_39 
REMARK   21  A    between atoms: N1_39  and  C33_40 
ROOT
HETATM    1  C10 UNL     1      -3.357  49.275 -24.786  1.00  0.00     0.046 C 
HETATM    2  C11 UNL     1      -4.174  48.060 -24.351  1.00  0.00     0.013 C 
HETATM    3  C12 UNL     1      -4.622  48.391 -22.918  1.00  0.00     0.017 C 
HETATM    4  C13 UNL     1      -4.299  49.917 -22.633  1.00  0.00     0.024 C 
HETATM    5  C14 UNL     1      -4.092  50.442 -24.094  1.00  0.00     0.138 C 
HETATM    6  C15 UNL     1      -2.935  49.986 -21.781  1.00  0.00     0.029 C 
HETATM    7  C19 UNL     1      -3.112  49.263 -20.426  1.00  0.00    -0.066 C 
HETATM    8  C20 UNL     1      -2.338  48.233 -19.999  1.00  0.00    -0.021 C 
HETATM    9  C21 UNL     1      -2.507  47.473 -18.712  1.00  0.00     0.052 C 
HETATM   10  C23 UNL     1      -4.271  49.829 -19.626  1.00  0.00     0.038 C 
HETATM   11  C24 UNL     1      -5.575  49.900 -20.421  1.00  0.00     0.042 C 
HETATM   12  C25 UNL     1      -5.451  50.591 -21.803  1.00  0.00     0.065 C 
HETATM   13  C26 UNL     1      -6.856  50.606 -22.440  1.00  0.00     0.047 C 
ENDROOT
BRANCH   1  14
HETATM   14  C6  UNL     1      -2.958  49.441 -26.249  1.00  0.00    -0.050 C 
HETATM   15  C5  UNL     1      -3.545  48.948 -27.362  1.00  0.00     0.005 C 
BRANCH  15  16
HETATM   16  C4  UNL     1      -4.766  48.191 -27.491  1.00  0.00     0.001 C 
HETATM   17  C3  UNL     1      -5.472  47.854 -28.586  1.00  0.00     0.006 C 
BRANCH  17  18
HETATM   18  C2  UNL     1      -5.275  48.051 -30.027  1.00  0.00    -0.067 C 
HETATM   19  C1  UNL     1      -5.071  49.315 -30.450  1.00  0.00     0.019 C 
BRANCH  18  20
HETATM   20  C27 UNL     1      -5.315  46.867 -30.978  1.00  0.00     0.041 C 
BRANCH  20  21
HETATM   21  C28 UNL     1      -5.371  47.112 -32.500  1.00  0.00     0.032 C 
BRANCH  21  22
HETATM   22  C29 UNL     1      -6.580  46.498 -33.159  1.00  0.00    -0.022 C 
HETATM   23  C30 UNL     1      -7.840  46.981 -33.156  1.00  0.00    -0.060 C 
HETATM   24  C31 UNL     1      -8.266  48.209 -32.394  1.00  0.00     0.045 C 
BRANCH  23  25
HETATM   25  C32 UNL     1      -8.949  46.263 -33.900  1.00  0.00     0.303 C 
BRANCH  25  26
HETATM   26  N1  UNL     1      -8.520  45.898 -35.247  1.00  0.00     0.086 N 
HETATM   27  H50 UNL     1      -7.814  46.554 -35.571  1.00  0.00     0.316 HD
BRANCH  26  28
HETATM   28  C33 UNL     1      -9.623  45.857 -36.205  1.00  0.00     0.265 C 
HETATM   29  C34 UNL     1      -9.343  46.651 -37.474  1.00  0.00     0.037 C 
ENDBRANCH  26  28
ENDBRANCH  25  26
ENDBRANCH  23  25
ENDBRANCH  21  22
ENDBRANCH  20  21
ENDBRANCH  18  20
ENDBRANCH  17  18
ENDBRANCH  15  16
BRANCH  14  30
HETATM   30  C7  UNL     1      -1.670  50.245 -26.439  1.00  0.00     0.202 C 
BRANCH  30  31
HETATM   31  O1  UNL     1      -1.766  51.183 -27.511  1.00  0.00    -0.385 OA
BRANCH  31  32
HETATM   32  C8  UNL     1      -0.520  51.803 -27.855  1.00  0.00     0.194 C 
BRANCH  32  33
HETATM   33  C9  UNL     1      -0.649  53.313 -27.643  1.00  0.00     0.190 C 
BRANCH  33  34
HETATM   34  O2  UNL     1      -1.903  53.774 -28.151  1.00  0.00    -0.399 OA
HETATM   35  H12 UNL     1      -1.891  54.749 -28.117  1.00  0.00     0.209 HD
ENDBRANCH  33  34
ENDBRANCH  32  33
ENDBRANCH  31  32
ENDBRANCH  30  31
ENDBRANCH  14  30
ENDBRANCH   1  14
BRANCH   5  36
HETATM   36  O3  UNL     1      -5.330  50.667 -24.766  1.00  0.00    -0.394 OA
HETATM   37  H19 UNL     1      -5.110  51.034 -25.640  1.00  0.00     0.210 HD
ENDBRANCH   5  36
BRANCH   6  38
HETATM   38  C16 UNL     1      -2.240  51.345 -21.461  1.00  0.00     0.012 C 
BRANCH  38  39
HETATM   39  C17 UNL     1      -0.851  51.579 -22.055  1.00  0.00     0.027 C 
BRANCH  39  40
HETATM   40  C18 UNL     1      -0.099  52.698 -21.342  1.00  0.00     0.164 C 
BRANCH  40  41
HETATM   41  O4  UNL     1       0.562  52.181 -20.195  1.00  0.00    -0.401 OA
HETATM   42  H27 UNL     1       1.005  52.931 -19.759  1.00  0.00     0.209 HD
ENDBRANCH  40  41
ENDBRANCH  39  40
ENDBRANCH  38  39
ENDBRANCH   6  38
BRANCH  12  43
HETATM   43  O6  UNL     1      -5.115  51.970 -21.583  1.00  0.00    -0.389 OA
HETATM   44  H39 UNL     1      -5.865  52.391 -21.129  1.00  0.00     0.210 HD
ENDBRANCH  12  43
BRANCH   8  45
HETATM   45  C22 UNL     1      -1.160  47.756 -20.797  1.00  0.00     0.265 C 
HETATM   46  O5  UNL     1      -0.083  48.344 -20.825  1.00  0.00    -0.302 OA
ENDBRANCH   8  45
TORSDOF 21
ENDMDL
MODEL 7
REMARK minimizedAffinity -7.18059397
REMARK CNNscore 0.249214858
REMARK CNNaffinity 6.84454489
REMARK  21 active torsions:
REMARK  status: ('A' for Active; 'I' for Inactive)
REMARK    1  A    between atoms: C2_2  and  C3_3 
REMARK    2  A    between atoms: C2_2  and  C27_33 
REMARK    3  A    between atoms: C4_4  and  C5_5 
REMARK    4  A    between atoms: C6_6  and  C7_7 
REMARK    5  A    between atoms: C6_6  and  C10_12 
REMARK    6  A    between atoms: C7_7  and  O1_8 
REMARK    7  A    between atoms: O1_8  and  C8_9 
REMARK    8  A    between atoms: C8_9  and  C9_10 
REMARK    9  A    between atoms: C9_10  and  O2_11 
REMARK   10  A    between atoms: C14_16  and  O3_17 
REMARK   11  A    between atoms: C15_18  and  C16_19 
REMARK   12  A    between atoms: C16_19  and  C17_20 
REMARK   13  A    between atoms: C17_20  and  C18_21 
REMARK   14  A    between atoms: C18_21  and  O4_22 
REMARK   15  A    between atoms: C20_24  and  C22_26 
REMARK   16  A    between atoms: C25_30  and  O6_32 
REMARK   17  A    between atoms: C27_33  and  C28_34 
REMARK   18  A    between atoms: C28_34  and  C29_35 
REMARK   19  A    between atoms: C30_36  and  C32_38 
REMARK   20  A    between atoms: C32_38  and  N1_39 
REMARK   21  A    between atoms: N1_39  and  C33_40 
ROOT
HETATM    1  C10 UNL     1      -1.742  51.337 -22.070  1.00  0.00     0.046 C 
HETATM    2  C11 UNL     1      -2.646  52.214 -22.935  1.00  0.00     0.013 C 
HETATM    3  C12 UNL     1      -3.892  51.350 -23.189  1.00  0.00     0.017 C 
HETATM    4  C13 UNL     1      -3.826  50.085 -22.235  1.00  0.00     0.024 C 
HETATM    5  C14 UNL     1      -2.756  50.567 -21.198  1.00  0.00     0.138 C 
HETATM    6  C15 UNL     1      -3.292  48.837 -23.099  1.00  0.00     0.029 C 
HETATM    7  C19 UNL     1      -4.272  48.526 -24.253  1.00  0.00    -0.066 C 
HETATM    8  C20 UNL     1      -3.928  48.502 -25.566  1.00  0.00    -0.021 C 
HETATM    9  C21 UNL     1      -4.859  48.252 -26.721  1.00  0.00     0.052 C 
HETATM   10  C23 UNL     1      -5.680  48.265 -23.751  1.00  0.00     0.038 C 
HETATM   11  C24 UNL     1      -6.204  49.363 -22.825  1.00  0.00     0.042 C 
HETATM   12  C25 UNL     1      -5.248  49.737 -21.663  1.00  0.00     0.065 C 
HETATM   13  C26 UNL     1      -5.948  50.822 -20.819  1.00  0.00     0.047 C 
ENDROOT
BRANCH   1  14
HETATM   14  C6  UNL     1      -0.519  51.943 -21.390  1.00  0.00    -0.050 C 
HETATM   15  C5  UNL     1       0.023  51.661 -20.184  1.00  0.00     0.005 C 
BRANCH  15  16
HETATM   16  C4  UNL     1      -0.352  50.646 -19.230  1.00  0.00     0.001 C 
HETATM   17  C3  UNL     1      -0.124  50.567 -17.907  1.00  0.00     0.006 C 
BRANCH  17  18
HETATM   18  C2  UNL     1       0.512  51.455 -16.926  1.00  0.00    -0.067 C 
HETATM   19  C1  UNL     1       1.341  52.404 -17.406  1.00  0.00     0.019 C 
BRANCH  18  20
HETATM   20  C27 UNL     1       0.238  51.283 -15.441  1.00  0.00     0.041 C 
BRANCH  20  21
HETATM   21  C28 UNL     1       1.417  51.088 -14.465  1.00  0.00     0.032 C 
BRANCH  21  22
HETATM   22  C29 UNL     1       1.533  49.679 -13.943  1.00  0.00    -0.022 C 
HETATM   23  C30 UNL     1       2.647  49.073 -13.481  1.00  0.00    -0.060 C 
HETATM   24  C31 UNL     1       4.014  49.707 -13.495  1.00  0.00     0.045 C 
BRANCH  23  25
HETATM   25  C32 UNL     1       2.597  47.653 -12.953  1.00  0.00     0.303 C 
BRANCH  25  26
HETATM   26  N1  UNL     1       3.041  46.705 -13.971  1.00  0.00     0.086 N 
HETATM   27  H50 UNL     1       3.675  47.168 -14.617  1.00  0.00     0.316 HD
BRANCH  26  28
HETATM   28  C33 UNL     1       1.934  46.110 -14.718  1.00  0.00     0.265 C 
HETATM   29  C34 UNL     1       0.675  45.929 -13.879  1.00  0.00     0.037 C 
ENDBRANCH  26  28
ENDBRANCH  25  26
ENDBRANCH  23  25
ENDBRANCH  21  22
ENDBRANCH  20  21
ENDBRANCH  18  20
ENDBRANCH  17  18
ENDBRANCH  15  16
BRANCH  14  30
HETATM   30  C7  UNL     1       0.131  53.067 -22.199  1.00  0.00     0.202 C 
BRANCH  30  31
HETATM   31  O1  UNL     1       0.182  52.776 -23.595  1.00  0.00    -0.385 OA
BRANCH  31  32
HETATM   32  C8  UNL     1       0.799  53.803 -24.382  1.00  0.00     0.194 C 
BRANCH  32  33
HETATM   33  C9  UNL     1       0.218  53.751 -25.798  1.00  0.00     0.190 C 
BRANCH  33  34
HETATM   34  O2  UNL     1       0.110  55.072 -26.331  1.00  0.00    -0.399 OA
HETATM   35  H12 UNL     1      -0.381  55.007 -27.172  1.00  0.00     0.209 HD
ENDBRANCH  33  34
ENDBRANCH  32  33
ENDBRANCH  31  32
ENDBRANCH  30  31
ENDBRANCH  14  30
ENDBRANCH   1  14
BRANCH   5  36
HETATM   36  O3  UNL     1      -3.304  51.462 -20.233  1.00  0.00    -0.394 OA
HETATM   37  H19 UNL     1      -2.589  51.671 -19.607  1.00  0.00     0.210 HD
ENDBRANCH   5  36
BRANCH   6  38
HETATM   38  C16 UNL     1      -2.957  47.467 -22.433  1.00  0.00     0.012 C 
BRANCH  38  39
HETATM   39  C17 UNL     1      -1.892  47.463 -21.336  1.00  0.00     0.027 C 
BRANCH  39  40
HETATM   40  C18 UNL     1      -2.430  46.928 -20.012  1.00  0.00     0.164 C 
BRANCH  40  41
HETATM   41  O4  UNL     1      -1.763  47.564 -18.929  1.00  0.00    -0.401 OA
HETATM   42  H27 UNL     1      -2.118  47.175 -18.110  1.00  0.00     0.209 HD
ENDBRANCH  40  41
ENDBRANCH  39  40
ENDBRANCH  38  39
ENDBRANCH   6  38
BRANCH  12  43
HETATM   43  O6  UNL     1      -5.130  48.595 -20.799  1.00  0.00    -0.389 OA
HETATM   44  H39 UNL     1      -6.003  48.432 -20.399  1.00  0.00     0.210 HD
ENDBRANCH  12  43
BRANCH   8  45
HETATM   45  C22 UNL     1      -2.507  48.699 -26.007  1.00  0.00     0.265 C 
HETATM   46  O5  UNL     1      -2.047  49.792 -26.324  1.00  0.00    -0.302 OA
ENDBRANCH   8  45
TORSDOF 21
ENDMDL
MODEL 8
REMARK minimizedAffinity -7.50230408
REMARK CNNscore 0.247543573
REMARK CNNaffinity 6.82615662
REMARK  21 active torsions:
REMARK  status: ('A' for Active; 'I' for Inactive)
REMARK    1  A    between atoms: C2_2  and  C3_3 
REMARK    2  A    between atoms: C2_2  and  C27_33 
REMARK    3  A    between atoms: C4_4  and  C5_5 
REMARK    4  A    between atoms: C6_6  and  C7_7 
REMARK    5  A    between atoms: C6_6  and  C10_12 
REMARK    6  A    between atoms: C7_7  and  O1_8 
REMARK    7  A    between atoms: O1_8  and  C8_9 
REMARK    8  A    between atoms: C8_9  and  C9_10 
REMARK    9  A    between atoms: C9_10  and  O2_11 
REMARK   10  A    between atoms: C14_16  and  O3_17 
REMARK   11  A    between atoms: C15_18  and  C16_19 
REMARK   12  A    between atoms: C16_19  and  C17_20 
REMARK   13  A    between atoms: C17_20  and  C18_21 
REMARK   14  A    between atoms: C18_21  and  O4_22 
REMARK   15  A    between atoms: C20_24  and  C22_26 
REMARK   16  A    between atoms: C25_30  and  O6_32 
REMARK   17  A    between atoms: C27_33  and  C28_34 
REMARK   18  A    between atoms: C28_34  and  C29_35 
REMARK   19  A    between atoms: C30_36  and  C32_38 
REMARK   20  A    between atoms: C32_38  and  N1_39 
REMARK   21  A    between atoms: N1_39  and  C33_40 
ROOT
HETATM    1  C10 UNL     1      -1.015  50.373 -22.321  1.00  0.00     0.046 C 
HETATM    2  C11 UNL     1      -0.852  51.892 -22.324  1.00  0.00     0.013 C 
HETATM    3  C12 UNL     1      -1.526  52.349 -23.628  1.00  0.00     0.017 C 
HETATM    4  C13 UNL     1      -2.325  51.121 -24.234  1.00  0.00     0.024 C 
HETATM    5  C14 UNL     1      -2.396  50.182 -22.982  1.00  0.00     0.138 C 
HETATM    6  C15 UNL     1      -1.432  50.476 -25.408  1.00  0.00     0.029 C 
HETATM    7  C19 UNL     1      -1.199  51.510 -26.533  1.00  0.00    -0.066 C 
HETATM    8  C20 UNL     1       0.024  51.906 -26.970  1.00  0.00    -0.021 C 
HETATM    9  C21 UNL     1       0.293  52.942 -28.026  1.00  0.00     0.052 C 
HETATM   10  C23 UNL     1      -2.503  52.049 -27.090  1.00  0.00     0.038 C 
HETATM   11  C24 UNL     1      -3.450  52.572 -26.009  1.00  0.00     0.042 C 
HETATM   12  C25 UNL     1      -3.699  51.586 -24.839  1.00  0.00     0.065 C 
HETATM   13  C26 UNL     1      -4.697  52.258 -23.873  1.00  0.00     0.047 C 
ENDROOT
BRANCH   1  14
HETATM   14  C6  UNL     1      -0.704  49.577 -21.058  1.00  0.00    -0.050 C 
HETATM   15  C5  UNL     1      -0.981  48.287 -20.764  1.00  0.00     0.005 C 
BRANCH  15  16
HETATM   16  C4  UNL     1      -1.576  47.269 -21.594  1.00  0.00     0.001 C 
HETATM   17  C3  UNL     1      -2.851  46.847 -21.677  1.00  0.00     0.006 C 
BRANCH  17  18
HETATM   18  C2  UNL     1      -4.106  47.259 -21.038  1.00  0.00    -0.067 C 
HETATM   19  C1  UNL     1      -4.017  47.802 -19.807  1.00  0.00     0.019 C 
BRANCH  18  20
HETATM   20  C27 UNL     1      -5.434  47.063 -21.751  1.00  0.00     0.041 C 
BRANCH  20  21
HETATM   21  C28 UNL     1      -5.958  48.157 -22.703  1.00  0.00     0.032 C 
BRANCH  21  22
HETATM   22  C29 UNL     1      -6.362  47.629 -24.055  1.00  0.00    -0.022 C 
HETATM   23  C30 UNL     1      -7.372  48.074 -24.832  1.00  0.00    -0.060 C 
HETATM   24  C31 UNL     1      -8.340  49.150 -24.415  1.00  0.00     0.045 C 
BRANCH  23  25
HETATM   25  C32 UNL     1      -7.635  47.458 -26.193  1.00  0.00     0.303 C 
BRANCH  25  26
HETATM   26  N1  UNL     1      -8.355  48.391 -27.054  1.00  0.00     0.086 N 
HETATM   27  H50 UNL     1      -8.932  49.007 -26.486  1.00  0.00     0.316 HD
BRANCH  26  28
HETATM   28  C33 UNL     1      -9.191  47.720 -28.048  1.00  0.00     0.265 C 
HETATM   29  C34 UNL     1     -10.166  46.723 -27.435  1.00  0.00     0.037 C 
ENDBRANCH  26  28
ENDBRANCH  25  26
ENDBRANCH  23  25
ENDBRANCH  21  22
ENDBRANCH  20  21
ENDBRANCH  18  20
ENDBRANCH  17  18
ENDBRANCH  15  16
BRANCH  14  30
HETATM   30  C7  UNL     1      -0.027  50.409 -19.967  1.00  0.00     0.202 C 
BRANCH  30  31
HETATM   31  O1  UNL     1      -0.965  50.984 -19.058  1.00  0.00    -0.385 OA
BRANCH  31  32
HETATM   32  C8  UNL     1      -0.399  51.965 -18.179  1.00  0.00     0.194 C 
BRANCH  32  33
HETATM   33  C9  UNL     1       0.039  53.174 -19.011  1.00  0.00     0.190 C 
BRANCH  33  34
HETATM   34  O2  UNL     1       1.456  53.337 -18.931  1.00  0.00    -0.399 OA
HETATM   35  H12 UNL     1       1.677  54.185 -19.361  1.00  0.00     0.209 HD
ENDBRANCH  33  34
ENDBRANCH  32  33
ENDBRANCH  31  32
ENDBRANCH  30  31
ENDBRANCH  14  30
ENDBRANCH   1  14
BRANCH   5  36
HETATM   36  O3  UNL     1      -3.407  50.586 -22.061  1.00  0.00    -0.394 OA
HETATM   37  H19 UNL     1      -3.412  49.927 -21.346  1.00  0.00     0.210 HD
ENDBRANCH   5  36
BRANCH   6  38
HETATM   38  C16 UNL     1      -1.847  49.150 -26.115  1.00  0.00     0.012 C 
BRANCH  38  39
HETATM   39  C17 UNL     1      -3.148  48.489 -25.658  1.00  0.00     0.027 C 
BRANCH  39  40
HETATM   40  C18 UNL     1      -4.078  48.175 -26.826  1.00  0.00     0.164 C 
BRANCH  40  41
HETATM   41  O4  UNL     1      -3.662  48.893 -27.980  1.00  0.00    -0.401 OA
HETATM   42  H27 UNL     1      -4.296  48.683 -28.689  1.00  0.00     0.209 HD
ENDBRANCH  40  41
ENDBRANCH  39  40
ENDBRANCH  38  39
ENDBRANCH   6  38
BRANCH  12  43
HETATM   43  O6  UNL     1      -4.386  50.437 -25.362  1.00  0.00    -0.389 OA
HETATM   44  H39 UNL     1      -5.262  50.729 -25.671  1.00  0.00     0.210 HD
ENDBRANCH  12  43
BRANCH   8  45
HETATM   45  C22 UNL     1       1.284  51.291 -26.434  1.00  0.00     0.265 C 
HETATM   46  O5  UNL     1       2.328  51.919 -26.286  1.00  0.00    -0.302 OA
ENDBRANCH   8  45
TORSDOF 21
ENDMDL
MODEL 9
REMARK minimizedAffinity -7.74336958
REMARK CNNscore 0.242097944
REMARK CNNaffinity 6.37141991
REMARK  21 active torsions:
REMARK  status: ('A' for Active; 'I' for Inactive)
REMARK    1  A    between atoms: C2_2  and  C3_3 
REMARK    2  A    between atoms: C2_2  and  C27_33 
REMARK    3  A    between atoms: C4_4  and  C5_5 
REMARK    4  A    between atoms: C6_6  and  C7_7 
REMARK    5  A    between atoms: C6_6  and  C10_12 
REMARK    6  A    between atoms: C7_7  and  O1_8 
REMARK    7  A    between atoms: O1_8  and  C8_9 
REMARK    8  A    between atoms: C8_9  and  C9_10 
REMARK    9  A    between atoms: C9_10  and  O2_11 
REMARK   10  A    between atoms: C14_16  and  O3_17 
REMARK   11  A    between atoms: C15_18  and  C16_19 
REMARK   12  A    between atoms: C16_19  and  C17_20 
REMARK   13  A    between atoms: C17_20  and  C18_21 
REMARK   14  A    between atoms: C18_21  and  O4_22 
REMARK   15  A    between atoms: C20_24  and  C22_26 
REMARK   16  A    between atoms: C25_30  and  O6_32 
REMARK   17  A    between atoms: C27_33  and  C28_34 
REMARK   18  A    between atoms: C28_34  and  C29_35 
REMARK   19  A    between atoms: C30_36  and  C32_38 
REMARK   20  A    between atoms: C32_38  and  N1_39 
REMARK   21  A    between atoms: N1_39  and  C33_40 
ROOT
HETATM    1  C10 UNL     1      -6.823  47.275 -28.719  1.00  0.00     0.046 C 
HETATM    2  C11 UNL     1      -7.394  46.248 -29.695  1.00  0.00     0.013 C 
HETATM    3  C12 UNL     1      -8.790  45.922 -29.137  1.00  0.00     0.017 C 
HETATM    4  C13 UNL     1      -9.131  46.973 -27.999  1.00  0.00     0.024 C 
HETATM    5  C14 UNL     1      -8.072  48.084 -28.311  1.00  0.00     0.138 C 
HETATM    6  C15 UNL     1      -8.853  46.273 -26.577  1.00  0.00     0.029 C 
HETATM    7  C19 UNL     1      -9.770  45.043 -26.396  1.00  0.00    -0.066 C 
HETATM    8  C20 UNL     1      -9.326  43.783 -26.154  1.00  0.00    -0.021 C 
HETATM    9  C21 UNL     1     -10.181  42.553 -26.021  1.00  0.00     0.052 C 
HETATM   10  C23 UNL     1     -11.238  45.401 -26.537  1.00  0.00     0.038 C 
HETATM   11  C24 UNL     1     -11.550  46.174 -27.819  1.00  0.00     0.042 C 
HETATM   12  C25 UNL     1     -10.640  47.405 -28.067  1.00  0.00     0.065 C 
HETATM   13  C26 UNL     1     -11.118  48.078 -29.370  1.00  0.00     0.047 C 
ENDROOT
BRANCH   1  14
HETATM   14  C6  UNL     1      -5.553  48.041 -29.076  1.00  0.00    -0.050 C 
HETATM   15  C5  UNL     1      -4.566  48.495 -28.271  1.00  0.00     0.005 C 
BRANCH  15  16
HETATM   16  C4  UNL     1      -4.390  48.312 -26.852  1.00  0.00     0.001 C 
HETATM   17  C3  UNL     1      -3.714  49.052 -25.954  1.00  0.00     0.006 C 
BRANCH  17  18
HETATM   18  C2  UNL     1      -2.965  50.312 -26.028  1.00  0.00    -0.067 C 
HETATM   19  C1  UNL     1      -1.719  50.255 -26.542  1.00  0.00     0.019 C 
BRANCH  18  20
HETATM   20  C27 UNL     1      -3.587  51.607 -25.533  1.00  0.00     0.041 C 
BRANCH  20  21
HETATM   21  C28 UNL     1      -3.455  51.997 -24.047  1.00  0.00     0.032 C 
BRANCH  21  22
HETATM   22  C29 UNL     1      -2.060  52.417 -23.660  1.00  0.00    -0.022 C 
HETATM   23  C30 UNL     1      -1.113  51.650 -23.081  1.00  0.00    -0.060 C 
HETATM   24  C31 UNL     1      -1.340  50.228 -22.637  1.00  0.00     0.045 C 
BRANCH  23  25
HETATM   25  C32 UNL     1       0.265  52.209 -22.783  1.00  0.00     0.303 C 
BRANCH  25  26
HETATM   26  N1  UNL     1       0.701  51.831 -21.442  1.00  0.00     0.086 N 
HETATM   27  H50 UNL     1       0.404  50.879 -21.242  1.00  0.00     0.316 HD
BRANCH  26  28
HETATM   28  C33 UNL     1       0.195  52.727 -20.404  1.00  0.00     0.265 C 
HETATM   29  C34 UNL     1       0.904  54.075 -20.381  1.00  0.00     0.037 C 
ENDBRANCH  26  28
ENDBRANCH  25  26
ENDBRANCH  23  25
ENDBRANCH  21  22
ENDBRANCH  20  21
ENDBRANCH  18  20
ENDBRANCH  17  18
ENDBRANCH  15  16
BRANCH  14  30
HETATM   30  C7  UNL     1      -5.443  48.371 -30.566  1.00  0.00     0.202 C 
BRANCH  30  31
HETATM   31  O1  UNL     1      -4.436  47.602 -31.223  1.00  0.00    -0.385 OA
BRANCH  31  32
HETATM   32  C8  UNL     1      -4.911  46.871 -32.360  1.00  0.00     0.194 C 
BRANCH  32  33
HETATM   33  C9  UNL     1      -4.020  47.200 -33.561  1.00  0.00     0.190 C 
BRANCH  33  34
HETATM   34  O2  UNL     1      -2.918  48.009 -33.146  1.00  0.00    -0.399 OA
HETATM   35  H12 UNL     1      -2.452  48.304 -33.952  1.00  0.00     0.209 HD
ENDBRANCH  33  34
ENDBRANCH  32  33
ENDBRANCH  31  32
ENDBRANCH  30  31
ENDBRANCH  14  30
ENDBRANCH   1  14
BRANCH   5  36
HETATM   36  O3  UNL     1      -8.463  48.909 -29.407  1.00  0.00    -0.394 OA
HETATM   37  H19 UNL     1      -7.778  49.594 -29.499  1.00  0.00     0.210 HD
ENDBRANCH   5  36
BRANCH   6  38
HETATM   38  C16 UNL     1      -8.935  47.076 -25.242  1.00  0.00     0.012 C 
BRANCH  38  39
HETATM   39  C17 UNL     1      -7.623  47.344 -24.504  1.00  0.00     0.027 C 
BRANCH  39  40
HETATM   40  C18 UNL     1      -7.284  48.830 -24.453  1.00  0.00     0.164 C 
BRANCH  40  41
HETATM   41  O4  UNL     1      -8.406  49.597 -24.871  1.00  0.00    -0.401 OA
HETATM   42  H27 UNL     1      -8.136  50.532 -24.847  1.00  0.00     0.209 HD
ENDBRANCH  40  41
ENDBRANCH  39  40
ENDBRANCH  38  39
ENDBRANCH   6  38
BRANCH  12  43
HETATM   43  O6  UNL     1     -10.893  48.362 -27.025  1.00  0.00    -0.389 OA
HETATM   44  H39 UNL     1     -11.811  48.672 -27.121  1.00  0.00     0.210 HD
ENDBRANCH  12  43
BRANCH   8  45
HETATM   45  C22 UNL     1      -7.867  43.492 -25.954  1.00  0.00     0.265 C 
HETATM   46  O5  UNL     1      -7.454  42.603 -25.216  1.00  0.00    -0.302 OA
ENDBRANCH   8  45
TORSDOF 21
ENDMDL
