MODEL 1
REMARK minimizedAffinity -9.76113129
REMARK  11 active torsions:
REMARK  status: ('A' for Active; 'I' for Inactive)
REMARK    1  A    between atoms: C2_2  and  C3_3 
REMARK    2  A    between atoms: C2_2  and  C4_5 
REMARK    3  A    between atoms: C3_3  and  O1_4 
REMARK    4  A    between atoms: C8_9  and  O2_10 
REMARK    5  A    between atoms: C9_11  and  C10_12 
REMARK    6  A    between atoms: C10_12  and  O3_13 
REMARK    7  A    between atoms: O3_13  and  C11_14 
REMARK    8  A    between atoms: C11_14  and  C12_16 
REMARK    9  A    between atoms: C19_23  and  O5_24 
REMARK   10  A    between atoms: C24_29  and  C25_30 
REMARK   11  A    between atoms: C25_30  and  O6_31 
ROOT
HETATM    1  C4  UNL     1      -5.574   4.760  12.966  1.00  0.00    -0.070 C 
HETATM    2  C5  UNL     1      -5.402   5.641  13.974  1.00  0.00    -0.061 C 
HETATM    3  C6  UNL     1      -4.182   6.270  14.636  1.00  0.00     0.029 C 
HETATM    4  C7  UNL     1      -2.808   5.598  14.481  1.00  0.00     0.046 C 
HETATM    5  C8  UNL     1      -1.820   6.139  13.449  1.00  0.00     0.149 C 
HETATM    6  C9  UNL     1      -1.160   7.476  13.751  1.00  0.00    -0.029 C 
HETATM    7  C18 UNL     1      -1.687   8.433  14.545  1.00  0.00     0.013 C 
HETATM    8  C19 UNL     1      -3.040   8.514  15.199  1.00  0.00     0.150 C 
HETATM    9  C20 UNL     1      -4.244   7.822  14.493  1.00  0.00    -0.007 C 
HETATM   10  C21 UNL     1      -4.331   8.310  13.020  1.00  0.00     0.019 C 
HETATM   11  C22 UNL     1      -5.560   8.277  15.219  1.00  0.00     0.014 C 
HETATM   12  C23 UNL     1      -6.831   7.623  14.656  1.00  0.00     0.017 C 
HETATM   13  C24 UNL     1      -6.751   6.079  14.565  1.00  0.00     0.005 C 
HETATM   14  C26 UNL     1      -7.753   5.553  13.519  1.00  0.00     0.020 C 
HETATM   15  C27 UNL     1      -7.035   4.429  12.786  1.00  0.00     0.036 C 
ENDROOT
BRANCH   6  16
HETATM   16  C10 UNL     1       0.166   7.675  13.020  1.00  0.00     0.215 C 
BRANCH  16  17
HETATM   17  O3  UNL     1       0.171   7.090  11.708  1.00  0.00    -0.313 OA
BRANCH  17  18
HETATM   18  C11 UNL     1       0.044   7.951  10.669  1.00  0.00     0.293 C 
HETATM   19  O4  UNL     1      -0.659   8.949  10.636  1.00  0.00    -0.259 OA
BRANCH  18  20
HETATM   20  C12 UNL     1       0.879   7.501   9.520  1.00  0.00     0.039 A 
HETATM   21  C13 UNL     1       0.622   8.060   8.259  1.00  0.00     0.017 A 
HETATM   22  C14 UNL     1       1.372   7.666   7.149  1.00  0.00     0.001 A 
HETATM   23  C15 UNL     1       2.381   6.715   7.291  1.00  0.00     0.000 A 
HETATM   24  C16 UNL     1       2.643   6.155   8.541  1.00  0.00     0.001 A 
HETATM   25  C17 UNL     1       1.895   6.545   9.654  1.00  0.00     0.017 A 
ENDBRANCH  18  20
ENDBRANCH  17  18
ENDBRANCH  16  17
ENDBRANCH   6  16
BRANCH   5  26
HETATM   26  O2  UNL     1      -0.778   5.155  13.360  1.00  0.00    -0.391 OA
HETATM   27  H12 UNL     1      -0.420   5.036  14.257  1.00  0.00     0.210 HD
ENDBRANCH   5  26
BRANCH   8  28
HETATM   28  O5  UNL     1      -2.909   8.056  16.542  1.00  0.00    -0.391 OA
HETATM   29  H22 UNL     1      -2.036   8.333  16.867  1.00  0.00     0.210 HD
ENDBRANCH   8  28
BRANCH   1  30
HETATM   30  C2  UNL     1      -4.568   4.079  12.069  1.00  0.00     0.034 C 
HETATM   31  C1  UNL     1      -3.805   2.989  12.831  1.00  0.00     0.017 C 
BRANCH  30  32
HETATM   32  C3  UNL     1      -5.224   3.521  10.792  1.00  0.00     0.172 C 
BRANCH  32  33
HETATM   33  O1  UNL     1      -4.287   3.424   9.722  1.00  0.00    -0.400 OA
HETATM   34  H7  UNL     1      -3.588   2.806   9.994  1.00  0.00     0.209 HD
ENDBRANCH  32  33
ENDBRANCH  30  32
ENDBRANCH   1  30
BRANCH  13  35
HETATM   35  C25 UNL     1      -7.031   5.455  15.960  1.00  0.00     0.178 C 
BRANCH  35  36
HETATM   36  O6  UNL     1      -8.235   4.693  15.978  1.00  0.00    -0.400 OA
HETATM   37  H32 UNL     1      -8.267   4.234  16.835  1.00  0.00     0.209 HD
ENDBRANCH  35  36
ENDBRANCH  13  35
TORSDOF 11
ENDMDL
MODEL 2
REMARK minimizedAffinity -9.34880924
REMARK  11 active torsions:
REMARK  status: ('A' for Active; 'I' for Inactive)
REMARK    1  A    between atoms: C2_2  and  C3_3 
REMARK    2  A    between atoms: C2_2  and  C4_5 
REMARK    3  A    between atoms: C3_3  and  O1_4 
REMARK    4  A    between atoms: C8_9  and  O2_10 
REMARK    5  A    between atoms: C9_11  and  C10_12 
REMARK    6  A    between atoms: C10_12  and  O3_13 
REMARK    7  A    between atoms: O3_13  and  C11_14 
REMARK    8  A    between atoms: C11_14  and  C12_16 
REMARK    9  A    between atoms: C19_23  and  O5_24 
REMARK   10  A    between atoms: C24_29  and  C25_30 
REMARK   11  A    between atoms: C25_30  and  O6_31 
ROOT
HETATM    1  C4  UNL     1       3.224   8.409  13.042  1.00  0.00    -0.070 C 
HETATM    2  C5  UNL     1       2.821   7.450  12.184  1.00  0.00    -0.061 C 
HETATM    3  C6  UNL     1       1.730   6.386  12.218  1.00  0.00     0.029 C 
HETATM    4  C7  UNL     1       1.131   5.963  13.568  1.00  0.00     0.046 C 
HETATM    5  C8  UNL     1      -0.213   6.543  14.009  1.00  0.00     0.149 C 
HETATM    6  C9  UNL     1      -1.454   6.058  13.277  1.00  0.00    -0.029 C 
HETATM    7  C18 UNL     1      -1.465   5.572  12.016  1.00  0.00     0.013 C 
HETATM    8  C19 UNL     1      -0.363   5.506  10.994  1.00  0.00     0.150 C 
HETATM    9  C20 UNL     1       0.744   6.601  11.029  1.00  0.00    -0.007 C 
HETATM   10  C21 UNL     1       0.082   8.008  11.014  1.00  0.00     0.019 C 
HETATM   11  C22 UNL     1       1.601   6.469   9.719  1.00  0.00     0.014 C 
HETATM   12  C23 UNL     1       2.772   7.461   9.647  1.00  0.00     0.017 C 
HETATM   13  C24 UNL     1       3.675   7.453  10.906  1.00  0.00     0.005 C 
HETATM   14  C26 UNL     1       4.436   8.788  11.025  1.00  0.00     0.020 C 
HETATM   15  C27 UNL     1       4.433   9.136  12.506  1.00  0.00     0.036 C 
ENDROOT
BRANCH   6  16
HETATM   16  C10 UNL     1      -2.737   6.215  14.090  1.00  0.00     0.215 C 
BRANCH  16  17
HETATM   17  O3  UNL     1      -3.612   5.082  13.972  1.00  0.00    -0.313 OA
BRANCH  17  18
HETATM   18  C11 UNL     1      -4.849   5.330  13.478  1.00  0.00     0.293 C 
HETATM   19  O4  UNL     1      -5.451   6.391  13.532  1.00  0.00    -0.259 OA
BRANCH  18  20
HETATM   20  C12 UNL     1      -5.418   4.098  12.862  1.00  0.00     0.039 A 
HETATM   21  C13 UNL     1      -4.631   3.401  11.934  1.00  0.00     0.017 A 
HETATM   22  C14 UNL     1      -5.122   2.245  11.323  1.00  0.00     0.001 A 
HETATM   23  C15 UNL     1      -6.397   1.779  11.636  1.00  0.00     0.000 A 
HETATM   24  C16 UNL     1      -7.185   2.466  12.559  1.00  0.00     0.001 A 
HETATM   25  C17 UNL     1      -6.700   3.623  13.172  1.00  0.00     0.017 A 
ENDBRANCH  18  20
ENDBRANCH  17  18
ENDBRANCH  16  17
ENDBRANCH   6  16
BRANCH   5  26
HETATM   26  O2  UNL     1      -0.357   6.178  15.390  1.00  0.00    -0.391 OA
HETATM   27  H12 UNL     1      -0.286   5.208  15.438  1.00  0.00     0.210 HD
ENDBRANCH   5  26
BRANCH   8  28
HETATM   28  O5  UNL     1       0.212   4.203  11.047  1.00  0.00    -0.391 OA
HETATM   29  H22 UNL     1      -0.500   3.572  11.246  1.00  0.00     0.210 HD
ENDBRANCH   8  28
BRANCH   1  30
HETATM   30  C2  UNL     1       2.686   8.812  14.395  1.00  0.00     0.034 C 
HETATM   31  C1  UNL     1       1.153   8.790  14.402  1.00  0.00     0.017 C 
BRANCH  30  32
HETATM   32  C3  UNL     1       3.268   7.942  15.526  1.00  0.00     0.172 C 
BRANCH  32  33
HETATM   33  O1  UNL     1       2.574   6.702  15.642  1.00  0.00    -0.400 OA
HETATM   34  H7  UNL     1       2.685   6.220  14.806  1.00  0.00     0.209 HD
ENDBRANCH  32  33
ENDBRANCH  30  32
ENDBRANCH   1  30
BRANCH  13  35
HETATM   35  C25 UNL     1       4.664   6.258  10.836  1.00  0.00     0.178 C 
BRANCH  35  36
HETATM   36  O6  UNL     1       5.969   6.660  10.427  1.00  0.00    -0.400 OA
HETATM   37  H32 UNL     1       6.551   5.889  10.537  1.00  0.00     0.209 HD
ENDBRANCH  35  36
ENDBRANCH  13  35
TORSDOF 11
ENDMDL
MODEL 3
REMARK minimizedAffinity -8.88100529
REMARK  11 active torsions:
REMARK  status: ('A' for Active; 'I' for Inactive)
REMARK    1  A    between atoms: C2_2  and  C3_3 
REMARK    2  A    between atoms: C2_2  and  C4_5 
REMARK    3  A    between atoms: C3_3  and  O1_4 
REMARK    4  A    between atoms: C8_9  and  O2_10 
REMARK    5  A    between atoms: C9_11  and  C10_12 
REMARK    6  A    between atoms: C10_12  and  O3_13 
REMARK    7  A    between atoms: O3_13  and  C11_14 
REMARK    8  A    between atoms: C11_14  and  C12_16 
REMARK    9  A    between atoms: C19_23  and  O5_24 
REMARK   10  A    between atoms: C24_29  and  C25_30 
REMARK   11  A    between atoms: C25_30  and  O6_31 
ROOT
HETATM    1  C4  UNL     1      -5.061   4.285  12.737  1.00  0.00    -0.070 C 
HETATM    2  C5  UNL     1      -4.938   5.484  13.343  1.00  0.00    -0.061 C 
HETATM    3  C6  UNL     1      -5.908   6.614  13.665  1.00  0.00     0.029 C 
HETATM    4  C7  UNL     1      -7.233   6.714  12.893  1.00  0.00     0.046 C 
HETATM    5  C8  UNL     1      -8.518   6.193  13.537  1.00  0.00     0.149 C 
HETATM    6  C9  UNL     1      -9.097   7.001  14.688  1.00  0.00    -0.029 C 
HETATM    7  C18 UNL     1      -8.382   7.814  15.496  1.00  0.00     0.013 C 
HETATM    8  C19 UNL     1      -6.896   8.033  15.580  1.00  0.00     0.150 C 
HETATM    9  C20 UNL     1      -5.953   6.851  15.206  1.00  0.00    -0.007 C 
HETATM   10  C21 UNL     1      -6.355   5.589  16.020  1.00  0.00     0.019 C 
HETATM   11  C22 UNL     1      -4.492   7.241  15.632  1.00  0.00     0.014 C 
HETATM   12  C23 UNL     1      -3.442   6.180  15.271  1.00  0.00     0.017 C 
HETATM   13  C24 UNL     1      -3.488   5.735  13.788  1.00  0.00     0.005 C 
HETATM   14  C26 UNL     1      -2.850   4.342  13.627  1.00  0.00     0.020 C 
HETATM   15  C27 UNL     1      -3.721   3.600  12.623  1.00  0.00     0.036 C 
ENDROOT
BRANCH   6  16
HETATM   16  C10 UNL     1     -10.593   6.773  14.894  1.00  0.00     0.215 C 
BRANCH  16  17
HETATM   17  O3  UNL     1     -11.383   7.921  14.544  1.00  0.00    -0.313 OA
BRANCH  17  18
HETATM   18  C11 UNL     1     -12.016   7.870  13.347  1.00  0.00     0.293 C 
HETATM   19  O4  UNL     1     -11.604   8.322  12.290  1.00  0.00    -0.259 OA
BRANCH  18  20
HETATM   20  C12 UNL     1     -13.334   7.191  13.487  1.00  0.00     0.039 A 
HETATM   21  C13 UNL     1     -14.384   7.609  12.656  1.00  0.00     0.017 A 
HETATM   22  C14 UNL     1     -15.641   7.009  12.754  1.00  0.00     0.001 A 
HETATM   23  C15 UNL     1     -15.857   5.990  13.680  1.00  0.00     0.000 A 
HETATM   24  C16 UNL     1     -14.819   5.568  14.510  1.00  0.00     0.001 A 
HETATM   25  C17 UNL     1     -13.560   6.165  14.416  1.00  0.00     0.017 A 
ENDBRANCH  18  20
ENDBRANCH  17  18
ENDBRANCH  16  17
ENDBRANCH   6  16
BRANCH   5  26
HETATM   26  O2  UNL     1      -9.497   6.176  12.486  1.00  0.00    -0.391 OA
HETATM   27  H12 UNL     1      -9.547   7.080  12.129  1.00  0.00     0.210 HD
ENDBRANCH   5  26
BRANCH   8  28
HETATM   28  O5  UNL     1      -6.577   9.195  14.820  1.00  0.00    -0.391 OA
HETATM   29  H22 UNL     1      -7.312   9.824  14.916  1.00  0.00     0.210 HD
ENDBRANCH   8  28
BRANCH   1  30
HETATM   30  C2  UNL     1      -6.274   3.589  12.166  1.00  0.00     0.034 C 
HETATM   31  C1  UNL     1      -5.862   2.537  11.129  1.00  0.00     0.017 C 
BRANCH  30  32
HETATM   32  C3  UNL     1      -7.157   2.977  13.270  1.00  0.00     0.172 C 
BRANCH  32  33
HETATM   33  O1  UNL     1      -8.130   2.087  12.728  1.00  0.00    -0.400 OA
HETATM   34  H7  UNL     1      -7.656   1.362  12.288  1.00  0.00     0.209 HD
ENDBRANCH  32  33
ENDBRANCH  30  32
ENDBRANCH   1  30
BRANCH  13  35
HETATM   35  C25 UNL     1      -2.757   6.781  12.902  1.00  0.00     0.178 C 
BRANCH  35  36
HETATM   36  O6  UNL     1      -1.446   6.359  12.538  1.00  0.00    -0.400 OA
HETATM   37  H32 UNL     1      -1.113   6.998  11.885  1.00  0.00     0.209 HD
ENDBRANCH  35  36
ENDBRANCH  13  35
TORSDOF 11
ENDMDL
MODEL 4
REMARK minimizedAffinity -8.85951805
REMARK  11 active torsions:
REMARK  status: ('A' for Active; 'I' for Inactive)
REMARK    1  A    between atoms: C2_2  and  C3_3 
REMARK    2  A    between atoms: C2_2  and  C4_5 
REMARK    3  A    between atoms: C3_3  and  O1_4 
REMARK    4  A    between atoms: C8_9  and  O2_10 
REMARK    5  A    between atoms: C9_11  and  C10_12 
REMARK    6  A    between atoms: C10_12  and  O3_13 
REMARK    7  A    between atoms: O3_13  and  C11_14 
REMARK    8  A    between atoms: C11_14  and  C12_16 
REMARK    9  A    between atoms: C19_23  and  O5_24 
REMARK   10  A    between atoms: C24_29  and  C25_30 
REMARK   11  A    between atoms: C25_30  and  O6_31 
ROOT
HETATM    1  C4  UNL     1      -3.782   5.017  13.024  1.00  0.00    -0.070 C 
HETATM    2  C5  UNL     1      -3.613   6.158  13.724  1.00  0.00    -0.061 C 
HETATM    3  C6  UNL     1      -2.403   6.868  14.318  1.00  0.00     0.029 C 
HETATM    4  C7  UNL     1      -1.109   6.076  14.566  1.00  0.00     0.046 C 
HETATM    5  C8  UNL     1       0.037   6.178  13.561  1.00  0.00     0.149 C 
HETATM    6  C9  UNL     1       0.815   7.484  13.522  1.00  0.00    -0.029 C 
HETATM    7  C18 UNL     1       0.325   8.684  13.903  1.00  0.00     0.013 C 
HETATM    8  C19 UNL     1      -1.069   9.077  14.310  1.00  0.00     0.150 C 
HETATM    9  C20 UNL     1      -2.267   8.292  13.696  1.00  0.00    -0.007 C 
HETATM   10  C21 UNL     1      -2.143   8.287  12.147  1.00  0.00     0.019 C 
HETATM   11  C22 UNL     1      -3.588   9.058  14.061  1.00  0.00     0.014 C 
HETATM   12  C23 UNL     1      -4.862   8.360  13.561  1.00  0.00     0.017 C 
HETATM   13  C24 UNL     1      -4.956   6.868  13.963  1.00  0.00     0.005 C 
HETATM   14  C26 UNL     1      -5.899   6.114  13.005  1.00  0.00     0.020 C 
HETATM   15  C27 UNL     1      -5.246   4.761  12.759  1.00  0.00     0.036 C 
ENDROOT
BRANCH   6  16
HETATM   16  C10 UNL     1       2.224   7.334  12.953  1.00  0.00     0.215 C 
BRANCH  16  17
HETATM   17  O3  UNL     1       2.297   6.353  11.904  1.00  0.00    -0.313 OA
BRANCH  17  18
HETATM   18  C11 UNL     1       3.284   6.526  10.992  1.00  0.00     0.293 C 
HETATM   19  O4  UNL     1       4.485   6.457  11.202  1.00  0.00    -0.259 OA
BRANCH  18  20
HETATM   20  C12 UNL     1       2.705   6.848   9.658  1.00  0.00     0.039 A 
HETATM   21  C13 UNL     1       2.995   5.990   8.588  1.00  0.00     0.017 A 
HETATM   22  C14 UNL     1       2.482   6.252   7.316  1.00  0.00     0.001 A 
HETATM   23  C15 UNL     1       1.678   7.371   7.106  1.00  0.00     0.000 A 
HETATM   24  C16 UNL     1       1.384   8.230   8.164  1.00  0.00     0.001 A 
HETATM   25  C17 UNL     1       1.895   7.972   9.438  1.00  0.00     0.017 A 
ENDBRANCH  18  20
ENDBRANCH  17  18
ENDBRANCH  16  17
ENDBRANCH   6  16
BRANCH   5  26
HETATM   26  O2  UNL     1       0.960   5.138  13.923  1.00  0.00    -0.391 OA
HETATM   27  H12 UNL     1       1.207   5.286  14.853  1.00  0.00     0.210 HD
ENDBRANCH   5  26
BRANCH   8  28
HETATM   28  O5  UNL     1      -1.134   9.065  15.734  1.00  0.00    -0.391 OA
HETATM   29  H22 UNL     1      -0.272   9.362  16.073  1.00  0.00     0.210 HD
ENDBRANCH   8  28
BRANCH   1  30
HETATM   30  C2  UNL     1      -2.776   4.007  12.526  1.00  0.00     0.034 C 
HETATM   31  C1  UNL     1      -3.445   2.653  12.261  1.00  0.00     0.017 C 
BRANCH  30  32
HETATM   32  C3  UNL     1      -2.020   4.515  11.284  1.00  0.00     0.172 C 
BRANCH  32  33
HETATM   33  O1  UNL     1      -0.922   3.667  10.956  1.00  0.00    -0.400 OA
HETATM   34  H7  UNL     1      -1.278   2.787  10.750  1.00  0.00     0.209 HD
ENDBRANCH  32  33
ENDBRANCH  30  32
ENDBRANCH   1  30
BRANCH  13  35
HETATM   35  C25 UNL     1      -5.450   6.748  15.430  1.00  0.00     0.178 C 
BRANCH  35  36
HETATM   36  O6  UNL     1      -4.462   6.183  16.289  1.00  0.00    -0.400 OA
HETATM   37  H32 UNL     1      -4.796   6.265  17.198  1.00  0.00     0.209 HD
ENDBRANCH  35  36
ENDBRANCH  13  35
TORSDOF 11
ENDMDL
MODEL 5
REMARK minimizedAffinity -8.70105553
REMARK  11 active torsions:
REMARK  status: ('A' for Active; 'I' for Inactive)
REMARK    1  A    between atoms: C2_2  and  C3_3 
REMARK    2  A    between atoms: C2_2  and  C4_5 
REMARK    3  A    between atoms: C3_3  and  O1_4 
REMARK    4  A    between atoms: C8_9  and  O2_10 
REMARK    5  A    between atoms: C9_11  and  C10_12 
REMARK    6  A    between atoms: C10_12  and  O3_13 
REMARK    7  A    between atoms: O3_13  and  C11_14 
REMARK    8  A    between atoms: C11_14  and  C12_16 
REMARK    9  A    between atoms: C19_23  and  O5_24 
REMARK   10  A    between atoms: C24_29  and  C25_30 
REMARK   11  A    between atoms: C25_30  and  O6_31 
ROOT
HETATM    1  C4  UNL     1       2.844   8.437  13.219  1.00  0.00    -0.070 C 
HETATM    2  C5  UNL     1       2.609   7.407  12.381  1.00  0.00    -0.061 C 
HETATM    3  C6  UNL     1       1.629   6.240  12.382  1.00  0.00     0.029 C 
HETATM    4  C7  UNL     1       0.965   5.814  13.702  1.00  0.00     0.046 C 
HETATM    5  C8  UNL     1      -0.460   6.273  14.007  1.00  0.00     0.149 C 
HETATM    6  C9  UNL     1      -1.584   5.634  13.206  1.00  0.00    -0.029 C 
HETATM    7  C18 UNL     1      -1.443   5.097  11.973  1.00  0.00     0.013 C 
HETATM    8  C19 UNL     1      -0.260   5.101  11.044  1.00  0.00     0.150 C 
HETATM    9  C20 UNL     1       0.728   6.304  11.111  1.00  0.00    -0.007 C 
HETATM   10  C21 UNL     1      -0.065   7.634  10.975  1.00  0.00     0.019 C 
HETATM   11  C22 UNL     1       1.698   6.205   9.880  1.00  0.00     0.014 C 
HETATM   12  C23 UNL     1       2.768   7.307   9.850  1.00  0.00     0.017 C 
HETATM   13  C24 UNL     1       3.560   7.444  11.173  1.00  0.00     0.005 C 
HETATM   14  C26 UNL     1       4.175   8.853  11.285  1.00  0.00     0.020 C 
HETATM   15  C27 UNL     1       4.016   9.261  12.743  1.00  0.00     0.036 C 
ENDROOT
BRANCH   6  16
HETATM   16  C10 UNL     1      -2.938   5.693  13.908  1.00  0.00     0.215 C 
BRANCH  16  17
HETATM   17  O3  UNL     1      -3.372   7.039  14.166  1.00  0.00    -0.313 OA
BRANCH  17  18
HETATM   18  C11 UNL     1      -4.583   7.383  13.665  1.00  0.00     0.293 C 
HETATM   19  O4  UNL     1      -4.805   8.264  12.849  1.00  0.00    -0.259 OA
BRANCH  18  20
HETATM   20  C12 UNL     1      -5.652   6.544  14.274  1.00  0.00     0.039 A 
HETATM   21  C13 UNL     1      -5.918   6.703  15.642  1.00  0.00     0.017 A 
HETATM   22  C14 UNL     1      -6.906   5.934  16.260  1.00  0.00     0.001 A 
HETATM   23  C15 UNL     1      -7.634   5.005  15.518  1.00  0.00     0.000 A 
HETATM   24  C16 UNL     1      -7.376   4.841  14.158  1.00  0.00     0.001 A 
HETATM   25  C17 UNL     1      -6.388   5.607  13.534  1.00  0.00     0.017 A 
ENDBRANCH  18  20
ENDBRANCH  17  18
ENDBRANCH  16  17
ENDBRANCH   6  16
BRANCH   5  26
HETATM   26  O2  UNL     1      -0.681   5.952  15.389  1.00  0.00    -0.391 OA
HETATM   27  H12 UNL     1      -0.520   4.998  15.491  1.00  0.00     0.210 HD
ENDBRANCH   5  26
BRANCH   8  28
HETATM   28  O5  UNL     1       0.434   3.867  11.207  1.00  0.00    -0.391 OA
HETATM   29  H22 UNL     1      -0.227   3.175  11.382  1.00  0.00     0.210 HD
ENDBRANCH   8  28
BRANCH   1  30
HETATM   30  C2  UNL     1       2.160   8.839  14.504  1.00  0.00     0.034 C 
HETATM   31  C1  UNL     1       0.639   8.684  14.385  1.00  0.00     0.017 C 
BRANCH  30  32
HETATM   32  C3  UNL     1       2.713   8.063  15.715  1.00  0.00     0.172 C 
BRANCH  32  33
HETATM   33  O1  UNL     1       2.967   6.699  15.390  1.00  0.00    -0.400 OA
HETATM   34  H7  UNL     1       3.641   6.681  14.690  1.00  0.00     0.209 HD
ENDBRANCH  32  33
ENDBRANCH  30  32
ENDBRANCH   1  30
BRANCH  13  35
HETATM   35  C25 UNL     1       4.665   6.355  11.241  1.00  0.00     0.178 C 
BRANCH  35  36
HETATM   36  O6  UNL     1       4.653   5.502  10.099  1.00  0.00    -0.400 OA
HETATM   37  H32 UNL     1       5.446   4.942  10.155  1.00  0.00     0.209 HD
ENDBRANCH  35  36
ENDBRANCH  13  35
TORSDOF 11
ENDMDL
MODEL 6
REMARK minimizedAffinity -8.3839798
REMARK  11 active torsions:
REMARK  status: ('A' for Active; 'I' for Inactive)
REMARK    1  A    between atoms: C2_2  and  C3_3 
REMARK    2  A    between atoms: C2_2  and  C4_5 
REMARK    3  A    between atoms: C3_3  and  O1_4 
REMARK    4  A    between atoms: C8_9  and  O2_10 
REMARK    5  A    between atoms: C9_11  and  C10_12 
REMARK    6  A    between atoms: C10_12  and  O3_13 
REMARK    7  A    between atoms: O3_13  and  C11_14 
REMARK    8  A    between atoms: C11_14  and  C12_16 
REMARK    9  A    between atoms: C19_23  and  O5_24 
REMARK   10  A    between atoms: C24_29  and  C25_30 
REMARK   11  A    between atoms: C25_30  and  O6_31 
ROOT
HETATM    1  C4  UNL     1      -6.400   4.800  13.356  1.00  0.00    -0.070 C 
HETATM    2  C5  UNL     1      -5.159   4.982  12.859  1.00  0.00    -0.061 C 
HETATM    3  C6  UNL     1      -4.161   6.133  12.894  1.00  0.00     0.029 C 
HETATM    4  C7  UNL     1      -4.659   7.555  13.201  1.00  0.00     0.046 C 
HETATM    5  C8  UNL     1      -4.495   8.119  14.611  1.00  0.00     0.149 C 
HETATM    6  C9  UNL     1      -3.088   8.490  15.054  1.00  0.00    -0.029 C 
HETATM    7  C18 UNL     1      -1.956   7.945  14.556  1.00  0.00     0.013 C 
HETATM    8  C19 UNL     1      -1.771   6.801  13.597  1.00  0.00     0.150 C 
HETATM    9  C20 UNL     1      -2.841   5.669  13.583  1.00  0.00    -0.007 C 
HETATM   10  C21 UNL     1      -3.046   5.131  15.026  1.00  0.00     0.019 C 
HETATM   11  C22 UNL     1      -2.285   4.486  12.712  1.00  0.00     0.014 C 
HETATM   12  C23 UNL     1      -3.269   3.315  12.566  1.00  0.00     0.017 C 
HETATM   13  C24 UNL     1      -4.680   3.740  12.091  1.00  0.00     0.005 C 
HETATM   14  C26 UNL     1      -5.723   2.681  12.497  1.00  0.00     0.020 C 
HETATM   15  C27 UNL     1      -6.954   3.459  12.937  1.00  0.00     0.036 C 
ENDROOT
BRANCH   6  16
HETATM   16  C10 UNL     1      -3.058   9.525  16.176  1.00  0.00     0.215 C 
BRANCH  16  17
HETATM   17  O3  UNL     1      -1.799   9.559  16.867  1.00  0.00    -0.313 OA
BRANCH  17  18
HETATM   18  C11 UNL     1      -1.166  10.756  16.899  1.00  0.00     0.293 C 
HETATM   19  O4  UNL     1      -1.380  11.708  16.165  1.00  0.00    -0.259 OA
BRANCH  18  20
HETATM   20  C12 UNL     1      -0.122  10.762  17.961  1.00  0.00     0.039 A 
HETATM   21  C13 UNL     1       1.196  10.454  17.593  1.00  0.00     0.017 A 
HETATM   22  C14 UNL     1       2.210  10.439  18.552  1.00  0.00     0.001 A 
HETATM   23  C15 UNL     1       1.915  10.732  19.883  1.00  0.00     0.000 A 
HETATM   24  C16 UNL     1       0.608  11.040  20.257  1.00  0.00     0.001 A 
HETATM   25  C17 UNL     1      -0.410  11.056  19.301  1.00  0.00     0.017 A 
ENDBRANCH  18  20
ENDBRANCH  17  18
ENDBRANCH  16  17
ENDBRANCH   6  16
BRANCH   5  26
HETATM   26  O2  UNL     1      -5.285   9.318  14.641  1.00  0.00    -0.391 OA
HETATM   27  H12 UNL     1      -4.963   9.891  13.923  1.00  0.00     0.210 HD
ENDBRANCH   5  26
BRANCH   8  28
HETATM   28  O5  UNL     1      -1.589   7.343  12.292  1.00  0.00    -0.391 OA
HETATM   29  H22 UNL     1      -1.094   8.175  12.382  1.00  0.00     0.210 HD
ENDBRANCH   8  28
BRANCH   1  30
HETATM   30  C2  UNL     1      -7.270   5.706  14.195  1.00  0.00     0.034 C 
HETATM   31  C1  UNL     1      -8.609   5.975  13.499  1.00  0.00     0.017 C 
BRANCH  30  32
HETATM   32  C3  UNL     1      -7.473   5.150  15.617  1.00  0.00     0.172 C 
BRANCH  32  33
HETATM   33  O1  UNL     1      -8.732   5.543  16.157  1.00  0.00    -0.400 OA
HETATM   34  H7  UNL     1      -9.428   5.173  15.588  1.00  0.00     0.209 HD
ENDBRANCH  32  33
ENDBRANCH  30  32
ENDBRANCH   1  30
BRANCH  13  35
HETATM   35  C25 UNL     1      -4.676   3.947  10.551  1.00  0.00     0.178 C 
BRANCH  35  36
HETATM   36  O6  UNL     1      -5.190   2.816   9.853  1.00  0.00    -0.400 OA
HETATM   37  H32 UNL     1      -5.276   3.074   8.920  1.00  0.00     0.209 HD
ENDBRANCH  35  36
ENDBRANCH  13  35
TORSDOF 11
ENDMDL
MODEL 7
REMARK minimizedAffinity -8.36992455
REMARK  11 active torsions:
REMARK  status: ('A' for Active; 'I' for Inactive)
REMARK    1  A    between atoms: C2_2  and  C3_3 
REMARK    2  A    between atoms: C2_2  and  C4_5 
REMARK    3  A    between atoms: C3_3  and  O1_4 
REMARK    4  A    between atoms: C8_9  and  O2_10 
REMARK    5  A    between atoms: C9_11  and  C10_12 
REMARK    6  A    between atoms: C10_12  and  O3_13 
REMARK    7  A    between atoms: O3_13  and  C11_14 
REMARK    8  A    between atoms: C11_14  and  C12_16 
REMARK    9  A    between atoms: C19_23  and  O5_24 
REMARK   10  A    between atoms: C24_29  and  C25_30 
REMARK   11  A    between atoms: C25_30  and  O6_31 
ROOT
HETATM    1  C4  UNL     1      -2.803   9.305  14.516  1.00  0.00    -0.070 C 
HETATM    2  C5  UNL     1      -2.883   8.103  13.910  1.00  0.00    -0.061 C 
HETATM    3  C6  UNL     1      -2.006   7.358  12.911  1.00  0.00     0.029 C 
HETATM    4  C7  UNL     1      -0.996   8.144  12.061  1.00  0.00     0.046 C 
HETATM    5  C8  UNL     1       0.476   8.165  12.473  1.00  0.00     0.149 C 
HETATM    6  C9  UNL     1       1.272   6.884  12.279  1.00  0.00    -0.029 C 
HETATM    7  C18 UNL     1       0.738   5.642  12.250  1.00  0.00     0.013 C 
HETATM    8  C19 UNL     1      -0.669   5.186  12.522  1.00  0.00     0.150 C 
HETATM    9  C20 UNL     1      -1.530   6.007  13.528  1.00  0.00    -0.007 C 
HETATM   10  C21 UNL     1      -0.752   6.171  14.864  1.00  0.00     0.019 C 
HETATM   11  C22 UNL     1      -2.832   5.184  13.838  1.00  0.00     0.014 C 
HETATM   12  C23 UNL     1      -3.805   5.906  14.782  1.00  0.00     0.017 C 
HETATM   13  C24 UNL     1      -4.152   7.348  14.338  1.00  0.00     0.005 C 
HETATM   14  C26 UNL     1      -4.635   8.177  15.544  1.00  0.00     0.020 C 
HETATM   15  C27 UNL     1      -4.022   9.560  15.369  1.00  0.00     0.036 C 
ENDROOT
BRANCH   6  16
HETATM   16  C10 UNL     1       2.776   7.116  12.165  1.00  0.00     0.215 C 
BRANCH  16  17
HETATM   17  O3  UNL     1       3.442   6.091  11.409  1.00  0.00    -0.313 OA
BRANCH  17  18
HETATM   18  C11 UNL     1       4.283   6.516  10.436  1.00  0.00     0.293 C 
HETATM   19  O4  UNL     1       5.496   6.628  10.524  1.00  0.00    -0.259 OA
BRANCH  18  20
HETATM   20  C12 UNL     1       3.517   6.869   9.208  1.00  0.00     0.039 A 
HETATM   21  C13 UNL     1       3.419   8.223   8.857  1.00  0.00     0.017 A 
HETATM   22  C14 UNL     1       2.706   8.606   7.719  1.00  0.00     0.001 A 
HETATM   23  C15 UNL     1       2.090   7.640   6.925  1.00  0.00     0.000 A 
HETATM   24  C16 UNL     1       2.183   6.291   7.266  1.00  0.00     0.001 A 
HETATM   25  C17 UNL     1       2.895   5.904   8.404  1.00  0.00     0.017 A 
ENDBRANCH  18  20
ENDBRANCH  17  18
ENDBRANCH  16  17
ENDBRANCH   6  16
BRANCH   5  26
HETATM   26  O2  UNL     1       1.089   9.180  11.661  1.00  0.00    -0.391 OA
HETATM   27  H12 UNL     1       0.920   8.943  10.732  1.00  0.00     0.210 HD
ENDBRANCH   5  26
BRANCH   8  28
HETATM   28  O5  UNL     1      -1.341   5.053  11.272  1.00  0.00    -0.391 OA
HETATM   29  H22 UNL     1      -0.692   4.739  10.619  1.00  0.00     0.210 HD
ENDBRANCH   8  28
BRANCH   1  30
HETATM   30  C2  UNL     1      -1.742  10.378  14.442  1.00  0.00     0.034 C 
HETATM   31  C1  UNL     1      -2.349  11.764  14.690  1.00  0.00     0.017 C 
BRANCH  30  32
HETATM   32  C3  UNL     1      -0.571  10.095  15.402  1.00  0.00     0.172 C 
BRANCH  32  33
HETATM   33  O1  UNL     1      -0.974   9.263  16.487  1.00  0.00    -0.400 OA
HETATM   34  H7  UNL     1      -1.270   8.415  16.118  1.00  0.00     0.209 HD
ENDBRANCH  32  33
ENDBRANCH  30  32
ENDBRANCH   1  30
BRANCH  13  35
HETATM   35  C25 UNL     1      -5.236   7.310  13.226  1.00  0.00     0.178 C 
BRANCH  35  36
HETATM   36  O6  UNL     1      -6.547   7.137  13.756  1.00  0.00    -0.400 OA
HETATM   37  H32 UNL     1      -7.170   7.256  13.019  1.00  0.00     0.209 HD
ENDBRANCH  35  36
ENDBRANCH  13  35
TORSDOF 11
ENDMDL
MODEL 8
REMARK minimizedAffinity -8.35157204
REMARK  11 active torsions:
REMARK  status: ('A' for Active; 'I' for Inactive)
REMARK    1  A    between atoms: C2_2  and  C3_3 
REMARK    2  A    between atoms: C2_2  and  C4_5 
REMARK    3  A    between atoms: C3_3  and  O1_4 
REMARK    4  A    between atoms: C8_9  and  O2_10 
REMARK    5  A    between atoms: C9_11  and  C10_12 
REMARK    6  A    between atoms: C10_12  and  O3_13 
REMARK    7  A    between atoms: O3_13  and  C11_14 
REMARK    8  A    between atoms: C11_14  and  C12_16 
REMARK    9  A    between atoms: C19_23  and  O5_24 
REMARK   10  A    between atoms: C24_29  and  C25_30 
REMARK   11  A    between atoms: C25_30  and  O6_31 
ROOT
HETATM    1  C4  UNL     1      -4.064   4.468  12.727  1.00  0.00    -0.070 C 
HETATM    2  C5  UNL     1      -5.069   5.010  13.446  1.00  0.00    -0.061 C 
HETATM    3  C6  UNL     1      -5.130   5.956  14.638  1.00  0.00     0.029 C 
HETATM    4  C7  UNL     1      -3.891   6.123  15.533  1.00  0.00     0.046 C 
HETATM    5  C8  UNL     1      -2.983   7.337  15.340  1.00  0.00     0.149 C 
HETATM    6  C9  UNL     1      -3.520   8.687  15.789  1.00  0.00    -0.029 C 
HETATM    7  C18 UNL     1      -4.831   9.004  15.878  1.00  0.00     0.013 C 
HETATM    8  C19 UNL     1      -6.047   8.225  15.457  1.00  0.00     0.150 C 
HETATM    9  C20 UNL     1      -5.916   7.246  14.252  1.00  0.00    -0.007 C 
HETATM   10  C21 UNL     1      -5.315   8.002  13.034  1.00  0.00     0.019 C 
HETATM   11  C22 UNL     1      -7.360   6.776  13.850  1.00  0.00     0.014 C 
HETATM   12  C23 UNL     1      -7.376   5.757  12.699  1.00  0.00     0.017 C 
HETATM   13  C24 UNL     1      -6.439   4.546  12.925  1.00  0.00     0.005 C 
HETATM   14  C26 UNL     1      -6.072   3.895  11.576  1.00  0.00     0.020 C 
HETATM   15  C27 UNL     1      -4.602   3.519  11.683  1.00  0.00     0.036 C 
ENDROOT
BRANCH   6  16
HETATM   16  C10 UNL     1      -2.423   9.704  16.093  1.00  0.00     0.215 C 
BRANCH  16  17
HETATM   17  O3  UNL     1      -2.860  11.062  15.916  1.00  0.00    -0.313 OA
BRANCH  17  18
HETATM   18  C11 UNL     1      -2.406  11.960  16.823  1.00  0.00     0.293 C 
HETATM   19  O4  UNL     1      -1.242  12.285  17.000  1.00  0.00    -0.259 OA
BRANCH  18  20
HETATM   20  C12 UNL     1      -3.537  12.503  17.625  1.00  0.00     0.039 A 
HETATM   21  C13 UNL     1      -4.514  13.259  16.961  1.00  0.00     0.017 A 
HETATM   22  C14 UNL     1      -5.591  13.796  17.669  1.00  0.00     0.001 A 
HETATM   23  C15 UNL     1      -5.698  13.581  19.042  1.00  0.00     0.000 A 
HETATM   24  C16 UNL     1      -4.731  12.831  19.710  1.00  0.00     0.001 A 
HETATM   25  C17 UNL     1      -3.653  12.292  19.006  1.00  0.00     0.017 A 
ENDBRANCH  18  20
ENDBRANCH  17  18
ENDBRANCH  16  17
ENDBRANCH   6  16
BRANCH   5  26
HETATM   26  O2  UNL     1      -1.804   7.064  16.113  1.00  0.00    -0.391 OA
HETATM   27  H12 UNL     1      -2.094   6.902  17.028  1.00  0.00     0.210 HD
ENDBRANCH   5  26
BRANCH   8  28
HETATM   28  O5  UNL     1      -6.559   7.550  16.603  1.00  0.00    -0.391 OA
HETATM   29  H22 UNL     1      -6.415   8.124  17.375  1.00  0.00     0.210 HD
ENDBRANCH   8  28
BRANCH   1  30
HETATM   30  C2  UNL     1      -2.568   4.644  12.835  1.00  0.00     0.034 C 
HETATM   31  C1  UNL     1      -1.831   3.541  12.066  1.00  0.00     0.017 C 
BRANCH  30  32
HETATM   32  C3  UNL     1      -2.122   6.046  12.377  1.00  0.00     0.172 C 
BRANCH  32  33
HETATM   33  O1  UNL     1      -0.742   6.065  12.020  1.00  0.00    -0.400 OA
HETATM   34  H7  UNL     1      -0.620   5.454  11.275  1.00  0.00     0.209 HD
ENDBRANCH  32  33
ENDBRANCH  30  32
ENDBRANCH   1  30
BRANCH  13  35
HETATM   35  C25 UNL     1      -7.125   3.516  13.865  1.00  0.00     0.178 C 
BRANCH  35  36
HETATM   36  O6  UNL     1      -8.497   3.317  13.537  1.00  0.00    -0.400 OA
HETATM   37  H32 UNL     1      -8.813   2.573  14.077  1.00  0.00     0.209 HD
ENDBRANCH  35  36
ENDBRANCH  13  35
TORSDOF 11
ENDMDL
MODEL 9
REMARK minimizedAffinity -8.32293987
REMARK  11 active torsions:
REMARK  status: ('A' for Active; 'I' for Inactive)
REMARK    1  A    between atoms: C2_2  and  C3_3 
REMARK    2  A    between atoms: C2_2  and  C4_5 
REMARK    3  A    between atoms: C3_3  and  O1_4 
REMARK    4  A    between atoms: C8_9  and  O2_10 
REMARK    5  A    between atoms: C9_11  and  C10_12 
REMARK    6  A    between atoms: C10_12  and  O3_13 
REMARK    7  A    between atoms: O3_13  and  C11_14 
REMARK    8  A    between atoms: C11_14  and  C12_16 
REMARK    9  A    between atoms: C19_23  and  O5_24 
REMARK   10  A    between atoms: C24_29  and  C25_30 
REMARK   11  A    between atoms: C25_30  and  O6_31 
ROOT
HETATM    1  C4  UNL     1       4.270   6.615  11.004  1.00  0.00    -0.070 C 
HETATM    2  C5  UNL     1       4.132   7.628  11.883  1.00  0.00    -0.061 C 
HETATM    3  C6  UNL     1       2.977   8.539  12.279  1.00  0.00     0.029 C 
HETATM    4  C7  UNL     1       1.781   8.699  11.327  1.00  0.00     0.046 C 
HETATM    5  C8  UNL     1       0.501   7.908  11.591  1.00  0.00     0.149 C 
HETATM    6  C9  UNL     1      -0.352   8.339  12.775  1.00  0.00    -0.029 C 
HETATM    7  C18 UNL     1       0.114   8.989  13.864  1.00  0.00     0.013 C 
HETATM    8  C19 UNL     1       1.525   9.325  14.262  1.00  0.00     0.150 C 
HETATM    9  C20 UNL     1       2.669   8.374  13.799  1.00  0.00    -0.007 C 
HETATM   10  C21 UNL     1       2.330   6.915  14.212  1.00  0.00     0.019 C 
HETATM   11  C22 UNL     1       3.981   8.786  14.559  1.00  0.00     0.014 C 
HETATM   12  C23 UNL     1       5.211   7.960  14.156  1.00  0.00     0.017 C 
HETATM   13  C24 UNL     1       5.450   7.901  12.627  1.00  0.00     0.005 C 
HETATM   14  C26 UNL     1       6.293   6.663  12.265  1.00  0.00     0.020 C 
HETATM   15  C27 UNL     1       5.695   6.117  10.976  1.00  0.00     0.036 C 
ENDROOT
BRANCH   6  16
HETATM   16  C10 UNL     1      -1.815   7.920  12.651  1.00  0.00     0.215 C 
BRANCH  16  17
HETATM   17  O3  UNL     1      -1.973   6.505  12.456  1.00  0.00    -0.313 OA
BRANCH  17  18
HETATM   18  C11 UNL     1      -2.447   5.804  13.514  1.00  0.00     0.293 C 
HETATM   19  O4  UNL     1      -1.939   5.733  14.622  1.00  0.00    -0.259 OA
BRANCH  18  20
HETATM   20  C12 UNL     1      -3.696   5.084  13.140  1.00  0.00     0.039 A 
HETATM   21  C13 UNL     1      -3.587   3.959  12.310  1.00  0.00     0.017 A 
HETATM   22  C14 UNL     1      -4.729   3.254  11.925  1.00  0.00     0.001 A 
HETATM   23  C15 UNL     1      -5.985   3.666  12.368  1.00  0.00     0.000 A 
HETATM   24  C16 UNL     1      -6.102   4.783  13.194  1.00  0.00     0.001 A 
HETATM   25  C17 UNL     1      -4.963   5.492  13.581  1.00  0.00     0.017 A 
ENDBRANCH  18  20
ENDBRANCH  17  18
ENDBRANCH  16  17
ENDBRANCH   6  16
BRANCH   5  26
HETATM   26  O2  UNL     1      -0.298   8.061  10.407  1.00  0.00    -0.391 OA
HETATM   27  H12 UNL     1      -0.420   9.016  10.266  1.00  0.00     0.210 HD
ENDBRANCH   5  26
BRANCH   8  28
HETATM   28  O5  UNL     1       1.789  10.667  13.862  1.00  0.00    -0.391 OA
HETATM   29  H22 UNL     1       0.967  11.176  13.968  1.00  0.00     0.210 HD
ENDBRANCH   8  28
BRANCH   1  30
HETATM   30  C2  UNL     1       3.266   5.969  10.078  1.00  0.00     0.034 C 
HETATM   31  C1  UNL     1       3.004   6.853   8.854  1.00  0.00     0.017 C 
BRANCH  30  32
HETATM   32  C3  UNL     1       3.697   4.548   9.666  1.00  0.00     0.172 C 
BRANCH  32  33
HETATM   33  O1  UNL     1       2.810   3.561  10.186  1.00  0.00    -0.400 OA
HETATM   34  H7  UNL     1       1.929   3.727   9.812  1.00  0.00     0.209 HD
ENDBRANCH  32  33
ENDBRANCH  30  32
ENDBRANCH   1  30
BRANCH  13  35
HETATM   35  C25 UNL     1       6.152   9.204  12.153  1.00  0.00     0.178 C 
BRANCH  35  36
HETATM   36  O6  UNL     1       7.188   8.946  11.210  1.00  0.00    -0.400 OA
HETATM   37  H32 UNL     1       7.482   9.808  10.869  1.00  0.00     0.209 HD
ENDBRANCH  35  36
ENDBRANCH  13  35
TORSDOF 11
ENDMDL
