MODEL 1
REMARK minimizedAffinity -10.0809565
REMARK CNNscore 0.844938099
REMARK CNNaffinity 7.3670001
REMARK  9 active torsions:
REMARK  status: ('A' for Active; 'I' for Inactive)
REMARK    1  A    between atoms: C2_2  and  C30_35 
REMARK    2  A    between atoms: C3_3  and  C4_4 
REMARK    3  A    between atoms: C4_4  and  O1_5 
REMARK    4  A    between atoms: C4_4  and  C5_6 
REMARK    5  A    between atoms: C5_6  and  C6_7 
REMARK    6  A    between atoms: C6_7  and  C8_9 
REMARK    7  A    between atoms: C10_11  and  O2_12 
REMARK    8  A    between atoms: C29_33  and  O5_34 
REMARK    9  A    between atoms: C30_35  and  O7_37 
ROOT
HETATM    1  C8  UNL     1      -0.638  49.569 -18.332  1.00  0.00     0.001 C 
HETATM    2  C9  UNL     1      -1.596  48.392 -17.973  1.00  0.00     0.038 C 
HETATM    3  C10 UNL     1      -2.711  48.379 -19.032  1.00  0.00     0.132 C 
HETATM    4  C11 UNL     1      -2.127  49.184 -20.221  1.00  0.00     0.017 C 
HETATM    5  C12 UNL     1      -1.129  48.261 -20.999  1.00  0.00     0.023 C 
HETATM    6  C13 UNL     1      -3.051  49.746 -21.313  1.00  0.00    -0.029 C 
HETATM    7  C14 UNL     1      -2.691  50.851 -22.022  1.00  0.00     0.002 C 
HETATM    8  C15 UNL     1      -1.443  51.621 -21.607  1.00  0.00     0.157 C 
HETATM    9  O3  UNL     1      -1.059  52.599 -22.248  1.00  0.00    -0.293 OA
HETATM   10  C16 UNL     1      -0.624  51.182 -20.399  1.00  0.00     0.094 C 
HETATM   11  C17 UNL     1      -1.449  50.356 -19.416  1.00  0.00    -0.019 C 
HETATM   12  C18 UNL     1      -2.474  51.306 -18.720  1.00  0.00     0.017 C 
HETATM   13  C19 UNL     1      -3.481  51.380 -23.250  1.00  0.00    -0.008 C 
HETATM   14  C20 UNL     1      -4.282  52.615 -22.756  1.00  0.00     0.021 C 
HETATM   15  C21 UNL     1      -2.557  51.845 -24.423  1.00  0.00     0.022 C 
HETATM   16  C22 UNL     1      -3.195  51.729 -25.800  1.00  0.00     0.080 C 
HETATM   17  C23 UNL     1      -3.542  50.294 -26.114  1.00  0.00     0.135 C 
HETATM   18  O4  UNL     1      -3.535  49.898 -27.282  1.00  0.00    -0.297 OA
HETATM   19  C24 UNL     1      -3.930  49.382 -24.937  1.00  0.00     0.018 C 
HETATM   20  C25 UNL     1      -5.015  48.410 -25.456  1.00  0.00     0.023 C 
HETATM   21  C26 UNL     1      -2.695  48.545 -24.576  1.00  0.00     0.023 C 
HETATM   22  C27 UNL     1      -4.503  50.312 -23.808  1.00  0.00     0.016 C 
HETATM   23  C28 UNL     1      -5.218  49.607 -22.653  1.00  0.00     0.043 C 
HETATM   24  C29 UNL     1      -4.283  48.935 -21.657  1.00  0.00     0.149 C 
ENDROOT
BRANCH   1  25
HETATM   25  C6  UNL     1      -0.110  50.294 -17.055  1.00  0.00    -0.011 C 
HETATM   26  C7  UNL     1      -1.239  50.672 -16.091  1.00  0.00     0.010 C 
BRANCH  25  27
HETATM   27  C5  UNL     1       0.679  51.571 -17.462  1.00  0.00     0.040 C 
BRANCH  27  28
HETATM   28  C4  UNL     1       1.270  52.401 -16.309  1.00  0.00     0.142 C 
BRANCH  28  29
HETATM   29  C3  UNL     1       2.025  51.564 -15.319  1.00  0.00     0.018 C 
HETATM   30  C2  UNL     1       3.361  51.516 -15.140  1.00  0.00     0.010 C 
HETATM   31  C1  UNL     1       4.392  52.267 -15.926  1.00  0.00     0.055 C 
BRANCH  30  32
HETATM   32  C30 UNL     1       3.836  50.620 -14.058  1.00  0.00     0.171 C 
HETATM   33  O6  UNL     1       4.791  49.863 -14.113  1.00  0.00    -0.646 OA
BRANCH  32  34
HETATM   34  O7  UNL     1       3.091  50.722 -12.944  1.00  0.00    -0.773 OA
HETATM   35  H44 UNL     1       3.514  50.092 -12.325  1.00  0.00     0.167 HD
ENDBRANCH  32  34
ENDBRANCH  30  32
ENDBRANCH  28  29
BRANCH  28  36
HETATM   36  O1  UNL     1       2.187  53.339 -16.873  1.00  0.00    -0.392 OA
HETATM   37  H6  UNL     1       3.030  52.879 -17.040  1.00  0.00     0.210 HD
ENDBRANCH  28  36
ENDBRANCH  27  28
ENDBRANCH  25  27
ENDBRANCH   1  25
BRANCH   3  38
HETATM   38  O2  UNL     1      -3.088  47.052 -19.382  1.00  0.00    -0.394 OA
HETATM   39  H17 UNL     1      -3.288  46.581 -18.550  1.00  0.00     0.210 HD
ENDBRANCH   3  38
BRANCH  24  40
HETATM   40  O5  UNL     1      -5.071  48.712 -20.496  1.00  0.00    -0.391 OA
HETATM   41  H43 UNL     1      -4.842  47.813 -20.188  1.00  0.00     0.210 HD
ENDBRANCH  24  40
TORSDOF 9
ENDMDL
MODEL 2
REMARK minimizedAffinity -7.87629604
REMARK CNNscore 0.636804044
REMARK CNNaffinity 6.25729132
REMARK  9 active torsions:
REMARK  status: ('A' for Active; 'I' for Inactive)
REMARK    1  A    between atoms: C2_2  and  C30_35 
REMARK    2  A    between atoms: C3_3  and  C4_4 
REMARK    3  A    between atoms: C4_4  and  O1_5 
REMARK    4  A    between atoms: C4_4  and  C5_6 
REMARK    5  A    between atoms: C5_6  and  C6_7 
REMARK    6  A    between atoms: C6_7  and  C8_9 
REMARK    7  A    between atoms: C10_11  and  O2_12 
REMARK    8  A    between atoms: C29_33  and  O5_34 
REMARK    9  A    between atoms: C30_35  and  O7_37 
ROOT
HETATM    1  C8  UNL     1      -1.735  52.284 -10.905  1.00  0.00     0.001 C 
HETATM    2  C9  UNL     1      -0.779  52.423 -12.129  1.00  0.00     0.038 C 
HETATM    3  C10 UNL     1       0.362  53.362 -11.704  1.00  0.00     0.132 C 
HETATM    4  C11 UNL     1       0.326  53.342 -10.155  1.00  0.00     0.017 C 
HETATM    5  C12 UNL     1       0.993  52.014  -9.662  1.00  0.00     0.023 C 
HETATM    6  C13 UNL     1       1.028  54.442  -9.342  1.00  0.00    -0.029 C 
HETATM    7  C14 UNL     1       0.591  54.766  -8.094  1.00  0.00     0.002 C 
HETATM    8  C15 UNL     1      -0.703  54.146  -7.581  1.00  0.00     0.157 C 
HETATM    9  O3  UNL     1      -1.110  54.378  -6.443  1.00  0.00    -0.293 OA
HETATM   10  C16 UNL     1      -1.514  53.200  -8.459  1.00  0.00     0.094 C 
HETATM   11  C17 UNL     1      -1.233  53.413  -9.944  1.00  0.00    -0.019 C 
HETATM   12  C18 UNL     1      -1.857  54.780 -10.368  1.00  0.00     0.017 C 
HETATM   13  C19 UNL     1       1.343  55.738  -7.145  1.00  0.00    -0.008 C 
HETATM   14  C20 UNL     1       0.563  57.080  -7.185  1.00  0.00     0.021 C 
HETATM   15  C21 UNL     1       1.376  55.246  -5.661  1.00  0.00     0.022 C 
HETATM   16  C22 UNL     1       2.580  55.737  -4.870  1.00  0.00     0.080 C 
HETATM   17  C23 UNL     1       3.867  55.237  -5.482  1.00  0.00     0.135 C 
HETATM   18  O4  UNL     1       4.852  55.032  -4.768  1.00  0.00    -0.297 OA
HETATM   19  C24 UNL     1       3.898  55.035  -7.007  1.00  0.00     0.018 C 
HETATM   20  C25 UNL     1       5.320  55.409  -7.484  1.00  0.00     0.023 C 
HETATM   21  C26 UNL     1       3.699  53.537  -7.278  1.00  0.00     0.023 C 
HETATM   22  C27 UNL     1       2.826  56.007  -7.619  1.00  0.00     0.016 C 
HETATM   23  C28 UNL     1       2.873  56.192  -9.137  1.00  0.00     0.043 C 
HETATM   24  C29 UNL     1       2.299  55.025  -9.926  1.00  0.00     0.149 C 
ENDROOT
BRANCH   1  25
HETATM   25  C6  UNL     1      -3.232  52.224 -11.345  1.00  0.00    -0.011 C 
HETATM   26  C7  UNL     1      -4.133  53.094 -10.465  1.00  0.00     0.010 C 
BRANCH  25  27
HETATM   27  C5  UNL     1      -3.732  50.751 -11.313  1.00  0.00     0.040 C 
BRANCH  27  28
HETATM   28  C4  UNL     1      -4.907  50.454 -10.365  1.00  0.00     0.142 C 
BRANCH  28  29
HETATM   29  C3  UNL     1      -5.901  49.499 -10.957  1.00  0.00     0.018 C 
HETATM   30  C2  UNL     1      -7.160  49.263 -10.533  1.00  0.00     0.010 C 
HETATM   31  C1  UNL     1      -7.829  49.881  -9.344  1.00  0.00     0.055 C 
BRANCH  30  32
HETATM   32  C30 UNL     1      -7.939  48.286 -11.333  1.00  0.00     0.171 C 
HETATM   33  O6  UNL     1      -9.082  47.920 -11.114  1.00  0.00    -0.646 OA
BRANCH  32  34
HETATM   34  O7  UNL     1      -7.245  47.817 -12.385  1.00  0.00    -0.773 OA
HETATM   35  H44 UNL     1      -7.871  47.199 -12.817  1.00  0.00     0.167 HD
ENDBRANCH  32  34
ENDBRANCH  30  32
ENDBRANCH  28  29
BRANCH  28  36
HETATM   36  O1  UNL     1      -4.374  49.850  -9.186  1.00  0.00    -0.392 OA
HETATM   37  H6  UNL     1      -4.218  48.907  -9.370  1.00  0.00     0.210 HD
ENDBRANCH  28  36
ENDBRANCH  27  28
ENDBRANCH  25  27
ENDBRANCH   1  25
BRANCH   3  38
HETATM   38  O2  UNL     1       1.612  52.948 -12.243  1.00  0.00    -0.394 OA
HETATM   39  H17 UNL     1       1.489  52.839 -13.206  1.00  0.00     0.210 HD
ENDBRANCH   3  38
BRANCH  24  40
HETATM   40  O5  UNL     1       2.056  55.537 -11.230  1.00  0.00    -0.391 OA
HETATM   41  H43 UNL     1       2.359  54.844 -11.848  1.00  0.00     0.210 HD
ENDBRANCH  24  40
TORSDOF 9
ENDMDL
MODEL 3
REMARK minimizedAffinity -8.27272511
REMARK CNNscore 0.601284802
REMARK CNNaffinity 6.03653669
REMARK  9 active torsions:
REMARK  status: ('A' for Active; 'I' for Inactive)
REMARK    1  A    between atoms: C2_2  and  C30_35 
REMARK    2  A    between atoms: C3_3  and  C4_4 
REMARK    3  A    between atoms: C4_4  and  O1_5 
REMARK    4  A    between atoms: C4_4  and  C5_6 
REMARK    5  A    between atoms: C5_6  and  C6_7 
REMARK    6  A    between atoms: C6_7  and  C8_9 
REMARK    7  A    between atoms: C10_11  and  O2_12 
REMARK    8  A    between atoms: C29_33  and  O5_34 
REMARK    9  A    between atoms: C30_35  and  O7_37 
ROOT
HETATM    1  C8  UNL     1     -13.771  46.032 -27.867  1.00  0.00     0.001 C 
HETATM    2  C9  UNL     1     -13.568  47.219 -26.876  1.00  0.00     0.038 C 
HETATM    3  C10 UNL     1     -12.052  47.445 -26.750  1.00  0.00     0.132 C 
HETATM    4  C11 UNL     1     -11.450  46.757 -28.001  1.00  0.00     0.017 C 
HETATM    5  C12 UNL     1     -11.669  47.698 -29.234  1.00  0.00     0.023 C 
HETATM    6  C13 UNL     1      -9.955  46.405 -28.056  1.00  0.00    -0.029 C 
HETATM    7  C14 UNL     1      -9.515  45.375 -28.832  1.00  0.00     0.002 C 
HETATM    8  C15 UNL     1     -10.538  44.472 -29.510  1.00  0.00     0.157 C 
HETATM    9  O3  UNL     1     -10.183  43.559 -30.254  1.00  0.00    -0.293 OA
HETATM   10  C16 UNL     1     -12.031  44.696 -29.303  1.00  0.00     0.094 C 
HETATM   11  C17 UNL     1     -12.325  45.448 -28.008  1.00  0.00    -0.019 C 
HETATM   12  C18 UNL     1     -12.023  44.493 -26.810  1.00  0.00     0.017 C 
HETATM   13  C19 UNL     1      -8.014  45.064 -29.076  1.00  0.00    -0.008 C 
HETATM   14  C20 UNL     1      -7.671  43.836 -28.189  1.00  0.00     0.021 C 
HETATM   15  C21 UNL     1      -7.697  44.687 -30.561  1.00  0.00     0.022 C 
HETATM   16  C22 UNL     1      -6.278  45.021 -30.997  1.00  0.00     0.080 C 
HETATM   17  C23 UNL     1      -6.020  46.505 -30.903  1.00  0.00     0.135 C 
HETATM   18  O4  UNL     1      -5.221  47.044 -31.673  1.00  0.00    -0.297 OA
HETATM   19  C24 UNL     1      -6.758  47.286 -29.801  1.00  0.00     0.018 C 
HETATM   20  C25 UNL     1      -5.795  48.391 -29.307  1.00  0.00     0.023 C 
HETATM   21  C26 UNL     1      -7.960  47.981 -30.455  1.00  0.00     0.023 C 
HETATM   22  C27 UNL     1      -7.077  46.264 -28.651  1.00  0.00     0.016 C 
HETATM   23  C28 UNL     1      -7.554  46.866 -27.328  1.00  0.00     0.043 C 
HETATM   24  C29 UNL     1      -9.000  47.339 -27.341  1.00  0.00     0.149 C 
ENDROOT
BRANCH   1  25
HETATM   25  C6  UNL     1     -14.957  45.115 -27.433  1.00  0.00    -0.011 C 
HETATM   26  C7  UNL     1     -15.694  44.510 -28.631  1.00  0.00     0.010 C 
BRANCH  25  27
HETATM   27  C5  UNL     1     -15.957  45.925 -26.559  1.00  0.00     0.040 C 
BRANCH  27  28
HETATM   28  C4  UNL     1     -17.241  45.190 -26.137  1.00  0.00     0.142 C 
BRANCH  28  29
HETATM   29  C3  UNL     1     -17.549  45.354 -24.677  1.00  0.00     0.018 C 
HETATM   30  C2  UNL     1     -18.750  45.618 -24.121  1.00  0.00     0.010 C 
HETATM   31  C1  UNL     1     -20.039  45.846 -24.850  1.00  0.00     0.055 C 
BRANCH  30  32
HETATM   32  C30 UNL     1     -18.773  45.694 -22.639  1.00  0.00     0.171 C 
HETATM   33  O6  UNL     1     -19.584  45.161 -21.901  1.00  0.00    -0.646 OA
BRANCH  32  34
HETATM   34  O7  UNL     1     -17.762  46.433 -22.149  1.00  0.00    -0.773 OA
HETATM   35  H44 UNL     1     -17.896  46.393 -21.180  1.00  0.00     0.167 HD
ENDBRANCH  32  34
ENDBRANCH  30  32
ENDBRANCH  28  29
BRANCH  28  36
HETATM   36  O1  UNL     1     -18.327  45.750 -26.876  1.00  0.00    -0.392 OA
HETATM   37  H6  UNL     1     -18.598  46.578 -26.440  1.00  0.00     0.210 HD
ENDBRANCH  28  36
ENDBRANCH  27  28
ENDBRANCH  25  27
ENDBRANCH   1  25
BRANCH   3  38
HETATM   38  O2  UNL     1     -11.732  48.829 -26.659  1.00  0.00    -0.394 OA
HETATM   39  H17 UNL     1     -12.278  49.204 -25.942  1.00  0.00     0.210 HD
ENDBRANCH   3  38
BRANCH  24  40
HETATM   40  O5  UNL     1      -9.364  47.469 -25.973  1.00  0.00    -0.391 OA
HETATM   41  H43 UNL     1      -9.869  48.303 -25.911  1.00  0.00     0.210 HD
ENDBRANCH  24  40
TORSDOF 9
ENDMDL
MODEL 4
REMARK minimizedAffinity -9.74099064
REMARK CNNscore 0.524299562
REMARK CNNaffinity 6.56095648
REMARK  9 active torsions:
REMARK  status: ('A' for Active; 'I' for Inactive)
REMARK    1  A    between atoms: C2_2  and  C30_35 
REMARK    2  A    between atoms: C3_3  and  C4_4 
REMARK    3  A    between atoms: C4_4  and  O1_5 
REMARK    4  A    between atoms: C4_4  and  C5_6 
REMARK    5  A    between atoms: C5_6  and  C6_7 
REMARK    6  A    between atoms: C6_7  and  C8_9 
REMARK    7  A    between atoms: C10_11  and  O2_12 
REMARK    8  A    between atoms: C29_33  and  O5_34 
REMARK    9  A    between atoms: C30_35  and  O7_37 
ROOT
HETATM    1  C8  UNL     1      -2.212  48.163 -19.023  1.00  0.00     0.001 C 
HETATM    2  C9  UNL     1      -3.044  46.854 -19.183  1.00  0.00     0.038 C 
HETATM    3  C10 UNL     1      -3.857  46.994 -20.481  1.00  0.00     0.132 C 
HETATM    4  C11 UNL     1      -3.130  48.106 -21.278  1.00  0.00     0.017 C 
HETATM    5  C12 UNL     1      -1.850  47.487 -21.934  1.00  0.00     0.023 C 
HETATM    6  C13 UNL     1      -3.837  48.828 -22.436  1.00  0.00    -0.029 C 
HETATM    7  C14 UNL     1      -3.484  50.097 -22.780  1.00  0.00     0.002 C 
HETATM    8  C15 UNL     1      -2.499  50.854 -21.896  1.00  0.00     0.157 C 
HETATM    9  O3  UNL     1      -2.120  51.986 -22.195  1.00  0.00    -0.293 OA
HETATM   10  C16 UNL     1      -1.939  50.215 -20.632  1.00  0.00     0.094 C 
HETATM   11  C17 UNL     1      -2.845  49.109 -20.098  1.00  0.00    -0.019 C 
HETATM   12  C18 UNL     1      -4.135  49.772 -19.520  1.00  0.00     0.017 C 
HETATM   13  C19 UNL     1      -4.025  50.830 -24.037  1.00  0.00    -0.008 C 
HETATM   14  C20 UNL     1      -5.094  51.836 -23.531  1.00  0.00     0.021 C 
HETATM   15  C21 UNL     1      -2.925  51.640 -24.799  1.00  0.00     0.022 C 
HETATM   16  C22 UNL     1      -3.190  51.798 -26.289  1.00  0.00     0.080 C 
HETATM   17  C23 UNL     1      -3.237  50.454 -26.974  1.00  0.00     0.135 C 
HETATM   18  O4  UNL     1      -2.891  50.349 -28.153  1.00  0.00    -0.297 OA
HETATM   19  C24 UNL     1      -3.758  49.258 -26.158  1.00  0.00     0.018 C 
HETATM   20  C25 UNL     1      -4.532  48.345 -27.137  1.00  0.00     0.023 C 
HETATM   21  C26 UNL     1      -2.537  48.472 -25.661  1.00  0.00     0.023 C 
HETATM   22  C27 UNL     1      -4.715  49.839 -25.056  1.00  0.00     0.016 C 
HETATM   23  C28 UNL     1      -5.574  48.819 -24.305  1.00  0.00     0.043 C 
HETATM   24  C29 UNL     1      -4.818  48.016 -23.257  1.00  0.00     0.149 C 
ENDROOT
BRANCH   1  25
HETATM   25  C6  UNL     1      -2.118  48.608 -17.530  1.00  0.00    -0.011 C 
HETATM   26  C7  UNL     1      -3.324  49.446 -17.095  1.00  0.00     0.010 C 
BRANCH  25  27
HETATM   27  C5  UNL     1      -0.809  49.416 -17.302  1.00  0.00     0.040 C 
BRANCH  27  28
HETATM   28  C4  UNL     1      -0.965  50.943 -17.183  1.00  0.00     0.142 C 
BRANCH  28  29
HETATM   29  C3  UNL     1      -0.443  51.674 -18.385  1.00  0.00     0.018 C 
HETATM   30  C2  UNL     1       0.709  52.369 -18.482  1.00  0.00     0.010 C 
HETATM   31  C1  UNL     1       1.707  52.596 -17.387  1.00  0.00     0.055 C 
BRANCH  30  32
HETATM   32  C30 UNL     1       0.994  52.966 -19.809  1.00  0.00     0.171 C 
HETATM   33  O6  UNL     1       0.900  52.407 -20.889  1.00  0.00    -0.646 OA
BRANCH  32  34
HETATM   34  O7  UNL     1       1.378  54.252 -19.720  1.00  0.00    -0.773 OA
HETATM   35  H44 UNL     1       1.525  54.514 -20.652  1.00  0.00     0.167 HD
ENDBRANCH  32  34
ENDBRANCH  30  32
ENDBRANCH  28  29
BRANCH  28  36
HETATM   36  O1  UNL     1      -2.359  51.231 -17.070  1.00  0.00    -0.392 OA
HETATM   37  H6  UNL     1      -2.748  51.211 -17.963  1.00  0.00     0.210 HD
ENDBRANCH  28  36
ENDBRANCH  27  28
ENDBRANCH  25  27
ENDBRANCH   1  25
BRANCH   3  38
HETATM   38  O2  UNL     1      -3.941  45.760 -21.185  1.00  0.00    -0.394 OA
HETATM   39  H17 UNL     1      -4.263  45.089 -20.553  1.00  0.00     0.210 HD
ENDBRANCH   3  38
BRANCH  24  40
HETATM   40  O5  UNL     1      -5.820  47.454 -22.420  1.00  0.00    -0.391 OA
HETATM   41  H43 UNL     1      -5.543  46.532 -22.256  1.00  0.00     0.210 HD
ENDBRANCH  24  40
TORSDOF 9
ENDMDL
MODEL 5
REMARK minimizedAffinity -8.01440334
REMARK CNNscore 0.493907362
REMARK CNNaffinity 6.20187616
REMARK  9 active torsions:
REMARK  status: ('A' for Active; 'I' for Inactive)
REMARK    1  A    between atoms: C2_2  and  C30_35 
REMARK    2  A    between atoms: C3_3  and  C4_4 
REMARK    3  A    between atoms: C4_4  and  O1_5 
REMARK    4  A    between atoms: C4_4  and  C5_6 
REMARK    5  A    between atoms: C5_6  and  C6_7 
REMARK    6  A    between atoms: C6_7  and  C8_9 
REMARK    7  A    between atoms: C10_11  and  O2_12 
REMARK    8  A    between atoms: C29_33  and  O5_34 
REMARK    9  A    between atoms: C30_35  and  O7_37 
ROOT
HETATM    1  C8  UNL     1      -8.017  47.244 -29.444  1.00  0.00     0.001 C 
HETATM    2  C9  UNL     1      -7.852  48.258 -28.271  1.00  0.00     0.038 C 
HETATM    3  C10 UNL     1      -9.114  48.146 -27.399  1.00  0.00     0.132 C 
HETATM    4  C11 UNL     1      -9.725  46.773 -27.774  1.00  0.00     0.017 C 
HETATM    5  C12 UNL     1      -8.906  45.652 -27.049  1.00  0.00     0.023 C 
HETATM    6  C13 UNL     1     -11.189  46.450 -27.434  1.00  0.00    -0.029 C 
HETATM    7  C14 UNL     1     -11.891  45.552 -28.179  1.00  0.00     0.002 C 
HETATM    8  C15 UNL     1     -11.263  44.998 -29.452  1.00  0.00     0.157 C 
HETATM    9  O3  UNL     1     -11.844  44.151 -30.129  1.00  0.00    -0.293 OA
HETATM   10  C16 UNL     1      -9.883  45.461 -29.904  1.00  0.00     0.094 C 
HETATM   11  C17 UNL     1      -9.523  46.830 -29.335  1.00  0.00    -0.019 C 
HETATM   12  C18 UNL     1     -10.415  47.902 -30.038  1.00  0.00     0.017 C 
HETATM   13  C19 UNL     1     -13.310  45.045 -27.803  1.00  0.00    -0.008 C 
HETATM   14  C20 UNL     1     -14.302  45.787 -28.739  1.00  0.00     0.021 C 
HETATM   15  C21 UNL     1     -13.494  43.508 -28.029  1.00  0.00     0.022 C 
HETATM   16  C22 UNL     1     -14.524  42.864 -27.113  1.00  0.00     0.080 C 
HETATM   17  C23 UNL     1     -14.122  43.005 -25.665  1.00  0.00     0.135 C 
HETATM   18  O4  UNL     1     -14.457  42.148 -24.844  1.00  0.00    -0.297 OA
HETATM   19  C24 UNL     1     -13.322  44.259 -25.268  1.00  0.00     0.018 C 
HETATM   20  C25 UNL     1     -13.777  44.654 -23.844  1.00  0.00     0.023 C 
HETATM   21  C26 UNL     1     -11.844  43.856 -25.185  1.00  0.00     0.023 C 
HETATM   22  C27 UNL     1     -13.687  45.381 -26.306  1.00  0.00     0.016 C 
HETATM   23  C28 UNL     1     -13.236  46.799 -25.951  1.00  0.00     0.043 C 
HETATM   24  C29 UNL     1     -11.750  47.054 -26.163  1.00  0.00     0.149 C 
ENDROOT
BRANCH   1  25
HETATM   25  C6  UNL     1      -7.445  47.811 -30.782  1.00  0.00    -0.011 C 
HETATM   26  C7  UNL     1      -8.242  49.014 -31.293  1.00  0.00     0.010 C 
BRANCH  25  27
HETATM   27  C5  UNL     1      -7.431  46.694 -31.864  1.00  0.00     0.040 C 
BRANCH  27  28
HETATM   28  C4  UNL     1      -7.284  47.162 -33.322  1.00  0.00     0.142 C 
BRANCH  28  29
HETATM   29  C3  UNL     1      -5.928  47.735 -33.614  1.00  0.00     0.018 C 
HETATM   30  C2  UNL     1      -4.731  47.185 -33.326  1.00  0.00     0.010 C 
HETATM   31  C1  UNL     1      -4.494  45.889 -32.611  1.00  0.00     0.055 C 
BRANCH  30  32
HETATM   32  C30 UNL     1      -3.542  47.959 -33.762  1.00  0.00     0.171 C 
HETATM   33  O6  UNL     1      -2.376  47.672 -33.553  1.00  0.00    -0.646 OA
BRANCH  32  34
HETATM   34  O7  UNL     1      -3.877  49.062 -34.454  1.00  0.00    -0.773 OA
HETATM   35  H44 UNL     1      -3.012  49.464 -34.678  1.00  0.00     0.167 HD
ENDBRANCH  32  34
ENDBRANCH  30  32
ENDBRANCH  28  29
BRANCH  28  36
HETATM   36  O1  UNL     1      -7.466  46.025 -34.166  1.00  0.00    -0.392 OA
HETATM   37  H6  UNL     1      -6.629  45.526 -34.190  1.00  0.00     0.210 HD
ENDBRANCH  28  36
ENDBRANCH  27  28
ENDBRANCH  25  27
ENDBRANCH   1  25
BRANCH   3  38
HETATM   38  O2  UNL     1      -8.808  48.267 -26.014  1.00  0.00    -0.394 OA
HETATM   39  H17 UNL     1      -8.288  49.086 -25.905  1.00  0.00     0.210 HD
ENDBRANCH   3  38
BRANCH  24  40
HETATM   40  O5  UNL     1     -11.612  48.468 -26.182  1.00  0.00    -0.391 OA
HETATM   41  H43 UNL     1     -10.813  48.664 -25.654  1.00  0.00     0.210 HD
ENDBRANCH  24  40
TORSDOF 9
ENDMDL
MODEL 6
REMARK minimizedAffinity -8.85545063
REMARK CNNscore 0.449155271
REMARK CNNaffinity 6.59184885
REMARK  9 active torsions:
REMARK  status: ('A' for Active; 'I' for Inactive)
REMARK    1  A    between atoms: C2_2  and  C30_35 
REMARK    2  A    between atoms: C3_3  and  C4_4 
REMARK    3  A    between atoms: C4_4  and  O1_5 
REMARK    4  A    between atoms: C4_4  and  C5_6 
REMARK    5  A    between atoms: C5_6  and  C6_7 
REMARK    6  A    between atoms: C6_7  and  C8_9 
REMARK    7  A    between atoms: C10_11  and  O2_12 
REMARK    8  A    between atoms: C29_33  and  O5_34 
REMARK    9  A    between atoms: C30_35  and  O7_37 
ROOT
HETATM    1  C8  UNL     1      -3.152  51.021 -23.640  1.00  0.00     0.001 C 
HETATM    2  C9  UNL     1      -4.457  51.040 -24.493  1.00  0.00     0.038 C 
HETATM    3  C10 UNL     1      -5.360  49.916 -23.960  1.00  0.00     0.132 C 
HETATM    4  C11 UNL     1      -4.809  49.613 -22.544  1.00  0.00     0.017 C 
HETATM    5  C12 UNL     1      -5.316  50.728 -21.568  1.00  0.00     0.023 C 
HETATM    6  C13 UNL     1      -5.164  48.298 -21.832  1.00  0.00    -0.029 C 
HETATM    7  C14 UNL     1      -4.325  47.767 -20.900  1.00  0.00     0.002 C 
HETATM    8  C15 UNL     1      -2.954  48.400 -20.695  1.00  0.00     0.157 C 
HETATM    9  O3  UNL     1      -2.184  47.979 -19.833  1.00  0.00    -0.293 OA
HETATM   10  C16 UNL     1      -2.514  49.592 -21.537  1.00  0.00     0.094 C 
HETATM   11  C17 UNL     1      -3.268  49.667 -22.862  1.00  0.00    -0.019 C 
HETATM   12  C18 UNL     1      -2.778  48.495 -23.770  1.00  0.00     0.017 C 
HETATM   13  C19 UNL     1      -4.685  46.541 -20.017  1.00  0.00    -0.008 C 
HETATM   14  C20 UNL     1      -3.921  45.330 -20.616  1.00  0.00     0.021 C 
HETATM   15  C21 UNL     1      -4.236  46.703 -18.527  1.00  0.00     0.022 C 
HETATM   16  C22 UNL     1      -5.091  45.930 -17.534  1.00  0.00     0.080 C 
HETATM   17  C23 UNL     1      -6.523  46.406 -17.569  1.00  0.00     0.135 C 
HETATM   18  O4  UNL     1      -7.219  46.348 -16.552  1.00  0.00    -0.297 OA
HETATM   19  C24 UNL     1      -7.068  46.920 -18.913  1.00  0.00     0.018 C 
HETATM   20  C25 UNL     1      -8.556  46.504 -18.987  1.00  0.00     0.023 C 
HETATM   21  C26 UNL     1      -7.020  48.454 -18.874  1.00  0.00     0.023 C 
HETATM   22  C27 UNL     1      -6.232  46.220 -20.044  1.00  0.00     0.016 C 
HETATM   23  C28 UNL     1      -6.778  46.355 -21.467  1.00  0.00     0.043 C 
HETATM   24  C29 UNL     1      -6.537  47.717 -22.101  1.00  0.00     0.149 C 
ENDROOT
BRANCH   1  25
HETATM   25  C6  UNL     1      -1.892  51.334 -24.506  1.00  0.00    -0.011 C 
HETATM   26  C7  UNL     1      -1.687  50.311 -25.627  1.00  0.00     0.010 C 
BRANCH  25  27
HETATM   27  C5  UNL     1      -0.628  51.377 -23.600  1.00  0.00     0.040 C 
BRANCH  27  28
HETATM   28  C4  UNL     1       0.494  52.332 -24.044  1.00  0.00     0.142 C 
BRANCH  28  29
HETATM   29  C3  UNL     1       0.048  53.299 -25.100  1.00  0.00     0.018 C 
HETATM   30  C2  UNL     1       0.321  53.250 -26.420  1.00  0.00     0.010 C 
HETATM   31  C1  UNL     1       1.170  52.231 -27.117  1.00  0.00     0.055 C 
BRANCH  30  32
HETATM   32  C30 UNL     1      -0.283  54.326 -27.245  1.00  0.00     0.171 C 
HETATM   33  O6  UNL     1      -1.073  54.176 -28.162  1.00  0.00    -0.646 OA
BRANCH  32  34
HETATM   34  O7  UNL     1       0.130  55.549 -26.872  1.00  0.00    -0.773 OA
HETATM   35  H44 UNL     1      -0.342  56.149 -27.486  1.00  0.00     0.167 HD
ENDBRANCH  32  34
ENDBRANCH  30  32
ENDBRANCH  28  29
BRANCH  28  36
HETATM   36  O1  UNL     1       0.897  53.090 -22.903  1.00  0.00    -0.392 OA
HETATM   37  H6  UNL     1       0.261  53.816 -22.778  1.00  0.00     0.210 HD
ENDBRANCH  28  36
ENDBRANCH  27  28
ENDBRANCH  25  27
ENDBRANCH   1  25
BRANCH   3  38
HETATM   38  O2  UNL     1      -6.731  50.297 -23.961  1.00  0.00    -0.394 OA
HETATM   39  H17 UNL     1      -6.940  50.619 -24.859  1.00  0.00     0.210 HD
ENDBRANCH   3  38
BRANCH  24  40
HETATM   40  O5  UNL     1      -6.728  47.520 -23.496  1.00  0.00    -0.391 OA
HETATM   41  H43 UNL     1      -7.241  48.291 -23.805  1.00  0.00     0.210 HD
ENDBRANCH  24  40
TORSDOF 9
ENDMDL
MODEL 7
REMARK minimizedAffinity -9.74117374
REMARK CNNscore 0.437390566
REMARK CNNaffinity 6.33328199
REMARK  9 active torsions:
REMARK  status: ('A' for Active; 'I' for Inactive)
REMARK    1  A    between atoms: C2_2  and  C30_35 
REMARK    2  A    between atoms: C3_3  and  C4_4 
REMARK    3  A    between atoms: C4_4  and  O1_5 
REMARK    4  A    between atoms: C4_4  and  C5_6 
REMARK    5  A    between atoms: C5_6  and  C6_7 
REMARK    6  A    between atoms: C6_7  and  C8_9 
REMARK    7  A    between atoms: C10_11  and  O2_12 
REMARK    8  A    between atoms: C29_33  and  O5_34 
REMARK    9  A    between atoms: C30_35  and  O7_37 
ROOT
HETATM    1  C8  UNL     1      -2.725  51.169 -23.868  1.00  0.00     0.001 C 
HETATM    2  C9  UNL     1      -4.195  51.565 -24.208  1.00  0.00     0.038 C 
HETATM    3  C10 UNL     1      -5.111  50.585 -23.456  1.00  0.00     0.132 C 
HETATM    4  C11 UNL     1      -4.213  49.991 -22.342  1.00  0.00     0.017 C 
HETATM    5  C12 UNL     1      -4.094  51.045 -21.189  1.00  0.00     0.023 C 
HETATM    6  C13 UNL     1      -4.614  48.692 -21.625  1.00  0.00    -0.029 C 
HETATM    7  C14 UNL     1      -3.666  47.882 -21.077  1.00  0.00     0.002 C 
HETATM    8  C15 UNL     1      -2.195  48.193 -21.329  1.00  0.00     0.157 C 
HETATM    9  O3  UNL     1      -1.307  47.513 -20.816  1.00  0.00    -0.293 OA
HETATM   10  C16 UNL     1      -1.788  49.372 -22.205  1.00  0.00     0.094 C 
HETATM   11  C17 UNL     1      -2.895  49.775 -23.175  1.00  0.00    -0.019 C 
HETATM   12  C18 UNL     1      -3.022  48.660 -24.261  1.00  0.00     0.017 C 
HETATM   13  C19 UNL     1      -3.994  46.649 -20.194  1.00  0.00    -0.008 C 
HETATM   14  C20 UNL     1      -3.778  45.399 -21.089  1.00  0.00     0.021 C 
HETATM   15  C21 UNL     1      -3.057  46.516 -18.948  1.00  0.00     0.022 C 
HETATM   16  C22 UNL     1      -3.694  45.806 -17.763  1.00  0.00     0.080 C 
HETATM   17  C23 UNL     1      -4.903  46.562 -17.269  1.00  0.00     0.135 C 
HETATM   18  O4  UNL     1      -5.220  46.511 -16.078  1.00  0.00    -0.297 OA
HETATM   19  C24 UNL     1      -5.723  47.351 -18.306  1.00  0.00     0.018 C 
HETATM   20  C25 UNL     1      -7.205  47.257 -17.878  1.00  0.00     0.023 C 
HETATM   21  C26 UNL     1      -5.304  48.824 -18.201  1.00  0.00     0.023 C 
HETATM   22  C27 UNL     1      -5.494  46.653 -19.695  1.00  0.00     0.016 C 
HETATM   23  C28 UNL     1      -6.428  47.085 -20.827  1.00  0.00     0.043 C 
HETATM   24  C29 UNL     1      -6.096  48.442 -21.428  1.00  0.00     0.149 C 
ENDROOT
BRANCH   1  25
HETATM   25  C6  UNL     1      -1.783  51.333 -25.102  1.00  0.00    -0.011 C 
HETATM   26  C7  UNL     1      -1.862  50.139 -26.058  1.00  0.00     0.010 C 
BRANCH  25  27
HETATM   27  C5  UNL     1      -0.316  51.522 -24.622  1.00  0.00     0.040 C 
BRANCH  27  28
HETATM   28  C4  UNL     1       0.365  52.843 -25.024  1.00  0.00     0.142 C 
BRANCH  28  29
HETATM   29  C3  UNL     1       0.823  53.643 -23.840  1.00  0.00     0.018 C 
HETATM   30  C2  UNL     1       0.877  53.239 -22.554  1.00  0.00     0.010 C 
HETATM   31  C1  UNL     1       0.450  51.906 -22.020  1.00  0.00     0.055 C 
BRANCH  30  32
HETATM   32  C30 UNL     1       1.408  54.232 -21.587  1.00  0.00     0.171 C 
HETATM   33  O6  UNL     1       1.332  54.169 -20.372  1.00  0.00    -0.646 OA
BRANCH  32  34
HETATM   34  O7  UNL     1       2.024  55.260 -22.196  1.00  0.00    -0.773 OA
HETATM   35  H44 UNL     1       2.323  55.823 -21.452  1.00  0.00     0.167 HD
ENDBRANCH  32  34
ENDBRANCH  30  32
ENDBRANCH  28  29
BRANCH  28  36
HETATM   36  O1  UNL     1       1.518  52.519 -25.802  1.00  0.00    -0.392 OA
HETATM   37  H6  UNL     1       2.238  52.275 -25.194  1.00  0.00     0.210 HD
ENDBRANCH  28  36
ENDBRANCH  27  28
ENDBRANCH  25  27
ENDBRANCH   1  25
BRANCH   3  38
HETATM   38  O2  UNL     1      -6.275  51.232 -22.956  1.00  0.00    -0.394 OA
HETATM   39  H17 UNL     1      -6.685  51.707 -23.705  1.00  0.00     0.210 HD
ENDBRANCH   3  38
BRANCH  24  40
HETATM   40  O5  UNL     1      -6.774  48.476 -22.677  1.00  0.00    -0.391 OA
HETATM   41  H43 UNL     1      -7.164  49.369 -22.744  1.00  0.00     0.210 HD
ENDBRANCH  24  40
TORSDOF 9
ENDMDL
MODEL 8
REMARK minimizedAffinity -10.028511
REMARK CNNscore 0.406442583
REMARK CNNaffinity 6.34980202
REMARK  9 active torsions:
REMARK  status: ('A' for Active; 'I' for Inactive)
REMARK    1  A    between atoms: C2_2  and  C30_35 
REMARK    2  A    between atoms: C3_3  and  C4_4 
REMARK    3  A    between atoms: C4_4  and  O1_5 
REMARK    4  A    between atoms: C4_4  and  C5_6 
REMARK    5  A    between atoms: C5_6  and  C6_7 
REMARK    6  A    between atoms: C6_7  and  C8_9 
REMARK    7  A    between atoms: C10_11  and  O2_12 
REMARK    8  A    between atoms: C29_33  and  O5_34 
REMARK    9  A    between atoms: C30_35  and  O7_37 
ROOT
HETATM    1  C8  UNL     1      -0.013  50.939 -21.527  1.00  0.00     0.001 C 
HETATM    2  C9  UNL     1      -0.028  50.824 -19.972  1.00  0.00     0.038 C 
HETATM    3  C10 UNL     1      -1.424  50.316 -19.572  1.00  0.00     0.132 C 
HETATM    4  C11 UNL     1      -1.995  49.686 -20.867  1.00  0.00     0.017 C 
HETATM    5  C12 UNL     1      -1.340  48.277 -21.061  1.00  0.00     0.023 C 
HETATM    6  C13 UNL     1      -3.503  49.425 -21.010  1.00  0.00    -0.029 C 
HETATM    7  C14 UNL     1      -4.087  49.400 -22.240  1.00  0.00     0.002 C 
HETATM    8  C15 UNL     1      -3.263  49.800 -23.458  1.00  0.00     0.157 C 
HETATM    9  O3  UNL     1      -3.740  49.748 -24.591  1.00  0.00    -0.293 OA
HETATM   10  C16 UNL     1      -1.815  50.250 -23.303  1.00  0.00     0.094 C 
HETATM   11  C17 UNL     1      -1.525  50.778 -21.900  1.00  0.00    -0.019 C 
HETATM   12  C18 UNL     1      -2.257  52.148 -21.733  1.00  0.00     0.017 C 
HETATM   13  C19 UNL     1      -5.561  48.976 -22.483  1.00  0.00    -0.008 C 
HETATM   14  C20 UNL     1      -6.360  50.287 -22.721  1.00  0.00     0.021 C 
HETATM   15  C21 UNL     1      -5.741  48.068 -23.744  1.00  0.00     0.022 C 
HETATM   16  C22 UNL     1      -6.929  47.121 -23.663  1.00  0.00     0.080 C 
HETATM   17  C23 UNL     1      -6.778  46.165 -22.505  1.00  0.00     0.135 C 
HETATM   18  O4  UNL     1      -7.271  45.035 -22.568  1.00  0.00    -0.297 OA
HETATM   19  C24 UNL     1      -6.029  46.669 -21.259  1.00  0.00     0.018 C 
HETATM   20  C25 UNL     1      -6.713  46.028 -20.029  1.00  0.00     0.023 C 
HETATM   21  C26 UNL     1      -4.597  46.121 -21.329  1.00  0.00     0.023 C 
HETATM   22  C27 UNL     1      -6.183  48.232 -21.235  1.00  0.00     0.016 C 
HETATM   23  C28 UNL     1      -5.765  48.930 -19.939  1.00  0.00     0.043 C 
HETATM   24  C29 UNL     1      -4.260  49.052 -19.752  1.00  0.00     0.149 C 
ENDROOT
BRANCH   1  25
HETATM   25  C6  UNL     1       0.794  52.186 -22.006  1.00  0.00    -0.011 C 
HETATM   26  C7  UNL     1       1.046  53.186 -20.874  1.00  0.00     0.010 C 
BRANCH  25  27
HETATM   27  C5  UNL     1       0.036  52.890 -23.167  1.00  0.00     0.040 C 
BRANCH  27  28
HETATM   28  C4  UNL     1       0.909  53.481 -24.289  1.00  0.00     0.142 C 
BRANCH  28  29
HETATM   29  C3  UNL     1       0.163  53.639 -25.581  1.00  0.00     0.018 C 
HETATM   30  C2  UNL     1      -0.113  52.678 -26.487  1.00  0.00     0.010 C 
HETATM   31  C1  UNL     1       0.303  51.240 -26.415  1.00  0.00     0.055 C 
BRANCH  30  32
HETATM   32  C30 UNL     1      -0.902  53.110 -27.667  1.00  0.00     0.171 C 
HETATM   33  O6  UNL     1      -2.061  53.488 -27.663  1.00  0.00    -0.646 OA
BRANCH  32  34
HETATM   34  O7  UNL     1      -0.190  53.054 -28.806  1.00  0.00    -0.773 OA
HETATM   35  H44 UNL     1      -0.821  53.366 -29.487  1.00  0.00     0.167 HD
ENDBRANCH  32  34
ENDBRANCH  30  32
ENDBRANCH  28  29
BRANCH  28  36
HETATM   36  O1  UNL     1       1.334  54.779 -23.871  1.00  0.00    -0.392 OA
HETATM   37  H6  UNL     1       0.608  55.406 -24.037  1.00  0.00     0.210 HD
ENDBRANCH  28  36
ENDBRANCH  27  28
ENDBRANCH  25  27
ENDBRANCH   1  25
BRANCH   3  38
HETATM   38  O2  UNL     1      -1.359  49.403 -18.483  1.00  0.00    -0.394 OA
HETATM   39  H17 UNL     1      -0.845  49.836 -17.774  1.00  0.00     0.210 HD
ENDBRANCH   3  38
BRANCH  24  40
HETATM   40  O5  UNL     1      -4.086  50.049 -18.754  1.00  0.00    -0.391 OA
HETATM   41  H43 UNL     1      -3.385  49.712 -18.162  1.00  0.00     0.210 HD
ENDBRANCH  24  40
TORSDOF 9
ENDMDL
MODEL 9
REMARK minimizedAffinity -8.93265247
REMARK CNNscore 0.402553231
REMARK CNNaffinity 6.2770977
REMARK  9 active torsions:
REMARK  status: ('A' for Active; 'I' for Inactive)
REMARK    1  A    between atoms: C2_2  and  C30_35 
REMARK    2  A    between atoms: C3_3  and  C4_4 
REMARK    3  A    between atoms: C4_4  and  O1_5 
REMARK    4  A    between atoms: C4_4  and  C5_6 
REMARK    5  A    between atoms: C5_6  and  C6_7 
REMARK    6  A    between atoms: C6_7  and  C8_9 
REMARK    7  A    between atoms: C10_11  and  O2_12 
REMARK    8  A    between atoms: C29_33  and  O5_34 
REMARK    9  A    between atoms: C30_35  and  O7_37 
ROOT
HETATM    1  C8  UNL     1      -3.123  51.292 -23.366  1.00  0.00     0.001 C 
HETATM    2  C9  UNL     1      -4.578  51.526 -23.875  1.00  0.00     0.038 C 
HETATM    3  C10 UNL     1      -5.455  50.426 -23.253  1.00  0.00     0.132 C 
HETATM    4  C11 UNL     1      -4.632  49.908 -22.047  1.00  0.00     0.017 C 
HETATM    5  C12 UNL     1      -4.774  50.936 -20.874  1.00  0.00     0.023 C 
HETATM    6  C13 UNL     1      -4.959  48.551 -21.402  1.00  0.00    -0.029 C 
HETATM    7  C14 UNL     1      -3.994  47.842 -20.755  1.00  0.00     0.002 C 
HETATM    8  C15 UNL     1      -2.550  48.326 -20.824  1.00  0.00     0.157 C 
HETATM    9  O3  UNL     1      -1.655  47.739 -20.217  1.00  0.00    -0.293 OA
HETATM   10  C16 UNL     1      -2.184  49.569 -21.627  1.00  0.00     0.094 C 
HETATM   11  C17 UNL     1      -3.208  49.868 -22.718  1.00  0.00    -0.019 C 
HETATM   12  C18 UNL     1      -3.074  48.777 -23.827  1.00  0.00     0.017 C 
HETATM   13  C19 UNL     1      -4.277  46.554 -19.935  1.00  0.00    -0.008 C 
HETATM   14  C20 UNL     1      -3.811  45.363 -20.816  1.00  0.00     0.021 C 
HETATM   15  C21 UNL     1      -3.484  46.496 -18.588  1.00  0.00     0.022 C 
HETATM   16  C22 UNL     1      -4.169  45.684 -17.499  1.00  0.00     0.080 C 
HETATM   17  C23 UNL     1      -5.509  46.281 -17.143  1.00  0.00     0.135 C 
HETATM   18  O4  UNL     1      -5.955  46.161 -16.000  1.00  0.00    -0.297 OA
HETATM   19  C24 UNL     1      -6.287  46.999 -18.261  1.00  0.00     0.018 C 
HETATM   20  C25 UNL     1      -7.788  46.724 -18.016  1.00  0.00     0.023 C 
HETATM   21  C26 UNL     1      -6.059  48.507 -18.085  1.00  0.00     0.023 C 
HETATM   22  C27 UNL     1      -5.815  46.372 -19.621  1.00  0.00     0.016 C 
HETATM   23  C28 UNL     1      -6.653  46.724 -20.852  1.00  0.00     0.043 C 
HETATM   24  C29 UNL     1      -6.414  48.128 -21.389  1.00  0.00     0.149 C 
ENDROOT
BRANCH   1  25
HETATM   25  C6  UNL     1      -2.068  51.597 -24.474  1.00  0.00    -0.011 C 
HETATM   26  C7  UNL     1      -1.009  52.601 -24.009  1.00  0.00     0.010 C 
BRANCH  25  27
HETATM   27  C5  UNL     1      -2.781  52.140 -25.745  1.00  0.00     0.040 C 
BRANCH  27  28
HETATM   28  C4  UNL     1      -2.300  51.569 -27.091  1.00  0.00     0.142 C 
BRANCH  28  29
HETATM   29  C3  UNL     1      -3.311  50.665 -27.731  1.00  0.00     0.018 C 
HETATM   30  C2  UNL     1      -3.424  49.329 -27.579  1.00  0.00     0.010 C 
HETATM   31  C1  UNL     1      -2.531  48.447 -26.761  1.00  0.00     0.055 C 
BRANCH  30  32
HETATM   32  C30 UNL     1      -4.546  48.688 -28.309  1.00  0.00     0.171 C 
HETATM   33  O6  UNL     1      -5.324  47.864 -27.859  1.00  0.00    -0.646 OA
BRANCH  32  34
HETATM   34  O7  UNL     1      -4.646  49.123 -29.577  1.00  0.00    -0.773 OA
HETATM   35  H44 UNL     1      -5.416  48.630 -29.930  1.00  0.00     0.167 HD
ENDBRANCH  32  34
ENDBRANCH  30  32
ENDBRANCH  28  29
BRANCH  28  36
HETATM   36  O1  UNL     1      -2.077  52.667 -27.975  1.00  0.00    -0.392 OA
HETATM   37  H6  UNL     1      -2.936  52.942 -28.343  1.00  0.00     0.210 HD
ENDBRANCH  28  36
ENDBRANCH  27  28
ENDBRANCH  25  27
ENDBRANCH   1  25
BRANCH   3  38
HETATM   38  O2  UNL     1      -6.739  50.920 -22.888  1.00  0.00    -0.394 OA
HETATM   39  H17 UNL     1      -7.110  51.365 -23.674  1.00  0.00     0.210 HD
ENDBRANCH   3  38
BRANCH  24  40
HETATM   40  O5  UNL     1      -6.939  48.118 -22.710  1.00  0.00    -0.391 OA
HETATM   41  H43 UNL     1      -7.421  48.962 -22.811  1.00  0.00     0.210 HD
ENDBRANCH  24  40
TORSDOF 9
ENDMDL
