MODEL 1
REMARK minimizedAffinity -8.71257973
REMARK  11 active torsions:
REMARK  status: ('A' for Active; 'I' for Inactive)
REMARK    1  A    between atoms: C2_2  and  C3_3 
REMARK    2  A    between atoms: C2_2  and  C4_5 
REMARK    3  A    between atoms: C3_3  and  O1_4 
REMARK    4  A    between atoms: C13_14  and  C14_15 
REMARK    5  A    between atoms: C14_15  and  C16_17 
REMARK    6  A    between atoms: C16_17  and  C17_18 
REMARK    7  A    between atoms: C17_18  and  C18_19 
REMARK    8  A    between atoms: C27_28  and  C28_29 
REMARK    9  A    between atoms: C28_29  and  C29_30 
REMARK   10  A    between atoms: C29_30  and  C30_31 
REMARK   11  A    between atoms: C30_31  and  O3_33 
ROOT
HETATM    1  C4  UNL     1       3.784   8.517  10.976  1.00  0.00     0.025 C 
HETATM    2  C5  UNL     1       3.360   9.207  12.302  1.00  0.00     0.010 C 
HETATM    3  C6  UNL     1       1.871   9.152  12.655  1.00  0.00     0.007 C 
HETATM    4  C7  UNL     1       1.020   8.448  11.602  1.00  0.00     0.004 C 
HETATM    5  C8  UNL     1       1.592   7.067  11.211  1.00  0.00    -0.027 A 
HETATM    6  C9  UNL     1       0.565   6.143  10.559  1.00  0.00     0.011 C 
HETATM    7  C10 UNL     1      -0.718   5.932  11.389  1.00  0.00     0.011 C 
HETATM    8  C11 UNL     1      -0.980   7.009  12.461  1.00  0.00    -0.032 C 
HETATM    9  C12 UNL     1      -0.255   6.590  13.774  1.00  0.00     0.016 C 
HETATM   10  C13 UNL     1      -2.484   7.292  12.801  1.00  0.00    -0.002 C 
HETATM   11  C22 UNL     1      -2.434   8.741  13.375  1.00  0.00     0.006 C 
HETATM   12  C23 UNL     1      -1.076   9.354  12.977  1.00  0.00     0.011 C 
HETATM   13  C24 UNL     1      -0.518   8.404  11.902  1.00  0.00    -0.032 C 
HETATM   14  C25 UNL     1      -1.242   8.821  10.570  1.00  0.00     0.016 C 
HETATM   15  C26 UNL     1       2.711   6.330  11.936  1.00  0.00     0.022 A 
HETATM   16  C27 UNL     1       3.074   7.152  10.726  1.00  0.00    -0.024 A 
ENDROOT
BRANCH  10  17
HETATM   17  C14 UNL     1      -3.280   6.321  13.728  1.00  0.00    -0.014 C 
HETATM   18  C15 UNL     1      -2.837   4.865  13.552  1.00  0.00     0.010 C 
BRANCH  17  19
HETATM   19  C16 UNL     1      -4.804   6.451  13.450  1.00  0.00     0.008 C 
BRANCH  19  20
HETATM   20  C17 UNL     1      -5.605   5.173  13.723  1.00  0.00     0.028 C 
BRANCH  20  21
HETATM   21  C18 UNL     1      -5.448   4.182  12.601  1.00  0.00    -0.025 C 
HETATM   22  C19 UNL     1      -6.262   3.150  12.302  1.00  0.00    -0.091 C 
HETATM   23  C20 UNL     1      -5.970   2.257  11.126  1.00  0.00     0.042 C 
HETATM   24  C21 UNL     1      -7.490   2.769  13.082  1.00  0.00     0.042 C 
ENDBRANCH  20  21
ENDBRANCH  19  20
ENDBRANCH  17  19
ENDBRANCH  10  17
BRANCH  16  25
HETATM   25  C28 UNL     1       3.332   6.511   9.350  1.00  0.00     0.021 C 
BRANCH  25  26
HETATM   26  C29 UNL     1       2.443   6.889   8.168  1.00  0.00     0.111 C 
BRANCH  26  27
HETATM   27  C30 UNL     1       2.169   8.362   8.027  1.00  0.00     0.139 C 
HETATM   28  O2  UNL     1       1.128   8.961   8.221  1.00  0.00    -0.650 OA
BRANCH  27  29
HETATM   29  O3  UNL     1       3.260   9.031   7.601  1.00  0.00    -0.776 OA
HETATM   30  H48 UNL     1       2.954   9.959   7.522  1.00  0.00     0.167 HD
ENDBRANCH  27  29
ENDBRANCH  26  27
ENDBRANCH  25  26
ENDBRANCH  16  25
BRANCH   1  31
HETATM   31  C2  UNL     1       5.314   8.506  10.932  1.00  0.00    -0.061 C 
HETATM   32  C1  UNL     1       5.986   9.602  10.524  1.00  0.00     0.017 C 
BRANCH  31  33
HETATM   33  C3  UNL     1       6.002   7.230  11.363  1.00  0.00     0.198 C 
BRANCH  33  34
HETATM   34  O1  UNL     1       7.072   6.896  10.485  1.00  0.00    -0.397 OA
HETATM   35  H5  UNL     1       7.394   6.029  10.776  1.00  0.00     0.209 HD
ENDBRANCH  33  34
ENDBRANCH  31  33
ENDBRANCH   1  31
TORSDOF 11
ENDMDL
MODEL 2
REMARK minimizedAffinity -8.58610249
REMARK  11 active torsions:
REMARK  status: ('A' for Active; 'I' for Inactive)
REMARK    1  A    between atoms: C2_2  and  C3_3 
REMARK    2  A    between atoms: C2_2  and  C4_5 
REMARK    3  A    between atoms: C3_3  and  O1_4 
REMARK    4  A    between atoms: C13_14  and  C14_15 
REMARK    5  A    between atoms: C14_15  and  C16_17 
REMARK    6  A    between atoms: C16_17  and  C17_18 
REMARK    7  A    between atoms: C17_18  and  C18_19 
REMARK    8  A    between atoms: C27_28  and  C28_29 
REMARK    9  A    between atoms: C28_29  and  C29_30 
REMARK   10  A    between atoms: C29_30  and  C30_31 
REMARK   11  A    between atoms: C30_31  and  O3_33 
ROOT
HETATM    1  C4  UNL     1      -5.513   7.426  15.429  1.00  0.00     0.025 C 
HETATM    2  C5  UNL     1      -4.813   8.796  15.644  1.00  0.00     0.010 C 
HETATM    3  C6  UNL     1      -3.339   8.882  15.240  1.00  0.00     0.007 C 
HETATM    4  C7  UNL     1      -2.772   7.565  14.718  1.00  0.00     0.004 C 
HETATM    5  C8  UNL     1      -3.657   6.940  13.617  1.00  0.00    -0.027 A 
HETATM    6  C9  UNL     1      -2.922   5.924  12.746  1.00  0.00     0.011 C 
HETATM    7  C10 UNL     1      -1.628   6.459  12.097  1.00  0.00     0.011 C 
HETATM    8  C11 UNL     1      -1.033   7.708  12.778  1.00  0.00    -0.032 C 
HETATM    9  C12 UNL     1      -1.682   8.974  12.144  1.00  0.00     0.016 C 
HETATM   10  C13 UNL     1       0.525   7.862  12.694  1.00  0.00    -0.002 C 
HETATM   11  C22 UNL     1       0.839   8.779  13.916  1.00  0.00     0.006 C 
HETATM   12  C23 UNL     1      -0.396   8.768  14.837  1.00  0.00     0.011 C 
HETATM   13  C24 UNL     1      -1.253   7.595  14.330  1.00  0.00    -0.032 C 
HETATM   14  C25 UNL     1      -0.607   6.310  14.967  1.00  0.00     0.016 C 
HETATM   15  C26 UNL     1      -4.819   7.629  12.912  1.00  0.00     0.022 A 
HETATM   16  C27 UNL     1      -5.133   6.734  14.084  1.00  0.00    -0.024 A 
ENDROOT
BRANCH  10  17
HETATM   17  C14 UNL     1       1.198   8.380  11.384  1.00  0.00    -0.014 C 
HETATM   18  C15 UNL     1       0.213   8.429  10.212  1.00  0.00     0.010 C 
BRANCH  17  19
HETATM   19  C16 UNL     1       2.414   7.481  11.021  1.00  0.00     0.008 C 
BRANCH  19  20
HETATM   20  C17 UNL     1       3.357   8.091   9.978  1.00  0.00     0.028 C 
BRANCH  20  21
HETATM   21  C18 UNL     1       2.752   8.036   8.600  1.00  0.00    -0.025 C 
HETATM   22  C19 UNL     1       2.554   6.943   7.836  1.00  0.00    -0.091 C 
HETATM   23  C20 UNL     1       1.916   7.061   6.478  1.00  0.00     0.042 C 
HETATM   24  C21 UNL     1       2.950   5.544   8.219  1.00  0.00     0.042 C 
ENDBRANCH  20  21
ENDBRANCH  19  20
ENDBRANCH  17  19
ENDBRANCH  10  17
BRANCH  16  25
HETATM   25  C28 UNL     1      -5.666   5.302  13.900  1.00  0.00     0.021 C 
BRANCH  25  26
HETATM   26  C29 UNL     1      -6.810   5.047  12.922  1.00  0.00     0.111 C 
BRANCH  26  27
HETATM   27  C30 UNL     1      -7.391   3.660  12.975  1.00  0.00     0.139 C 
HETATM   28  O2  UNL     1      -6.913   2.621  12.559  1.00  0.00    -0.650 OA
BRANCH  27  29
HETATM   29  O3  UNL     1      -8.612   3.655  13.549  1.00  0.00    -0.776 OA
HETATM   30  H48 UNL     1      -8.893   2.717  13.501  1.00  0.00     0.167 HD
ENDBRANCH  27  29
ENDBRANCH  26  27
ENDBRANCH  25  26
ENDBRANCH  16  25
BRANCH   1  31
HETATM   31  C2  UNL     1      -7.007   7.626  15.693  1.00  0.00    -0.061 C 
HETATM   32  C1  UNL     1      -7.671   8.634  15.092  1.00  0.00     0.017 C 
BRANCH  31  33
HETATM   33  C3  UNL     1      -7.671   6.649  16.637  1.00  0.00     0.198 C 
BRANCH  33  34
HETATM   34  O1  UNL     1      -8.495   5.725  15.932  1.00  0.00    -0.397 OA
HETATM   35  H5  UNL     1      -8.948   5.202  16.610  1.00  0.00     0.209 HD
ENDBRANCH  33  34
ENDBRANCH  31  33
ENDBRANCH   1  31
TORSDOF 11
ENDMDL
MODEL 3
REMARK minimizedAffinity -8.41941452
REMARK  11 active torsions:
REMARK  status: ('A' for Active; 'I' for Inactive)
REMARK    1  A    between atoms: C2_2  and  C3_3 
REMARK    2  A    between atoms: C2_2  and  C4_5 
REMARK    3  A    between atoms: C3_3  and  O1_4 
REMARK    4  A    between atoms: C13_14  and  C14_15 
REMARK    5  A    between atoms: C14_15  and  C16_17 
REMARK    6  A    between atoms: C16_17  and  C17_18 
REMARK    7  A    between atoms: C17_18  and  C18_19 
REMARK    8  A    between atoms: C27_28  and  C28_29 
REMARK    9  A    between atoms: C28_29  and  C29_30 
REMARK   10  A    between atoms: C29_30  and  C30_31 
REMARK   11  A    between atoms: C30_31  and  O3_33 
ROOT
HETATM    1  C4  UNL     1      -5.343   4.405  12.417  1.00  0.00     0.025 C 
HETATM    2  C5  UNL     1      -3.919   4.016  12.901  1.00  0.00     0.010 C 
HETATM    3  C6  UNL     1      -2.985   5.170  13.274  1.00  0.00     0.007 C 
HETATM    4  C7  UNL     1      -3.605   6.549  13.066  1.00  0.00     0.004 C 
HETATM    5  C8  UNL     1      -4.998   6.672  13.723  1.00  0.00    -0.027 A 
HETATM    6  C9  UNL     1      -5.434   8.115  13.965  1.00  0.00     0.011 C 
HETATM    7  C10 UNL     1      -4.427   8.957  14.776  1.00  0.00     0.011 C 
HETATM    8  C11 UNL     1      -2.990   8.401  14.798  1.00  0.00    -0.032 C 
HETATM    9  C12 UNL     1      -2.862   7.401  15.985  1.00  0.00     0.016 C 
HETATM   10  C13 UNL     1      -1.842   9.462  14.926  1.00  0.00    -0.002 C 
HETATM   11  C22 UNL     1      -0.618   8.711  14.316  1.00  0.00     0.006 C 
HETATM   12  C23 UNL     1      -1.159   7.501  13.528  1.00  0.00     0.011 C 
HETATM   13  C24 UNL     1      -2.670   7.763  13.397  1.00  0.00    -0.032 C 
HETATM   14  C25 UNL     1      -2.810   8.771  12.198  1.00  0.00     0.016 C 
HETATM   15  C26 UNL     1      -5.616   5.671  14.693  1.00  0.00     0.022 A 
HETATM   16  C27 UNL     1      -5.987   5.566  13.236  1.00  0.00    -0.024 A 
ENDROOT
BRANCH  10  17
HETATM   17  C14 UNL     1      -1.508  10.100  16.311  1.00  0.00    -0.014 C 
HETATM   18  C15 UNL     1      -0.174   9.594  16.870  1.00  0.00     0.010 C 
BRANCH  17  19
HETATM   19  C16 UNL     1      -2.653   9.808  17.320  1.00  0.00     0.008 C 
BRANCH  19  20
HETATM   20  C17 UNL     1      -2.498  10.517  18.670  1.00  0.00     0.028 C 
BRANCH  20  21
HETATM   21  C18 UNL     1      -3.723  11.325  19.005  1.00  0.00    -0.025 C 
HETATM   22  C19 UNL     1      -3.811  12.665  19.126  1.00  0.00    -0.091 C 
HETATM   23  C20 UNL     1      -5.126  13.322  19.450  1.00  0.00     0.042 C 
HETATM   24  C21 UNL     1      -2.658  13.619  18.982  1.00  0.00     0.042 C 
ENDBRANCH  20  21
ENDBRANCH  19  20
ENDBRANCH  17  19
ENDBRANCH  10  17
BRANCH  16  25
HETATM   25  C28 UNL     1      -7.323   6.100  12.691  1.00  0.00     0.021 C 
BRANCH  25  26
HETATM   26  C29 UNL     1      -8.614   5.808  13.452  1.00  0.00     0.111 C 
BRANCH  26  27
HETATM   27  C30 UNL     1      -8.874   6.711  14.627  1.00  0.00     0.139 C 
HETATM   28  O2  UNL     1      -8.887   7.928  14.661  1.00  0.00    -0.650 OA
BRANCH  27  29
HETATM   29  O3  UNL     1      -9.085   6.005  15.758  1.00  0.00    -0.776 OA
HETATM   30  H48 UNL     1      -9.214   6.692  16.446  1.00  0.00     0.167 HD
ENDBRANCH  27  29
ENDBRANCH  26  27
ENDBRANCH  25  26
ENDBRANCH  16  25
BRANCH   1  31
HETATM   31  C2  UNL     1      -6.160   3.116  12.307  1.00  0.00    -0.061 C 
HETATM   32  C1  UNL     1      -5.839   2.189  11.382  1.00  0.00     0.017 C 
BRANCH  31  33
HETATM   33  C3  UNL     1      -7.312   2.951  13.273  1.00  0.00     0.198 C 
BRANCH  33  34
HETATM   34  O1  UNL     1      -8.264   2.009  12.788  1.00  0.00    -0.397 OA
HETATM   35  H5  UNL     1      -9.003   2.032  13.414  1.00  0.00     0.209 HD
ENDBRANCH  33  34
ENDBRANCH  31  33
ENDBRANCH   1  31
TORSDOF 11
ENDMDL
MODEL 4
REMARK minimizedAffinity -8.25572491
REMARK  11 active torsions:
REMARK  status: ('A' for Active; 'I' for Inactive)
REMARK    1  A    between atoms: C2_2  and  C3_3 
REMARK    2  A    between atoms: C2_2  and  C4_5 
REMARK    3  A    between atoms: C3_3  and  O1_4 
REMARK    4  A    between atoms: C13_14  and  C14_15 
REMARK    5  A    between atoms: C14_15  and  C16_17 
REMARK    6  A    between atoms: C16_17  and  C17_18 
REMARK    7  A    between atoms: C17_18  and  C18_19 
REMARK    8  A    between atoms: C27_28  and  C28_29 
REMARK    9  A    between atoms: C28_29  and  C29_30 
REMARK   10  A    between atoms: C29_30  and  C30_31 
REMARK   11  A    between atoms: C30_31  and  O3_33 
ROOT
HETATM    1  C4  UNL     1      -5.381   4.636  12.692  1.00  0.00     0.025 C 
HETATM    2  C5  UNL     1      -3.934   4.137  12.952  1.00  0.00     0.010 C 
HETATM    3  C6  UNL     1      -2.875   5.212  13.210  1.00  0.00     0.007 C 
HETATM    4  C7  UNL     1      -3.418   6.636  13.126  1.00  0.00     0.004 C 
HETATM    5  C8  UNL     1      -4.688   6.831  13.984  1.00  0.00    -0.027 A 
HETATM    6  C9  UNL     1      -4.981   8.292  14.319  1.00  0.00     0.011 C 
HETATM    7  C10 UNL     1      -3.809   9.037  14.992  1.00  0.00     0.011 C 
HETATM    8  C11 UNL     1      -2.427   8.385  14.789  1.00  0.00    -0.032 C 
HETATM    9  C12 UNL     1      -2.200   7.340  15.922  1.00  0.00     0.016 C 
HETATM   10  C13 UNL     1      -1.200   9.361  14.771  1.00  0.00    -0.002 C 
HETATM   11  C22 UNL     1      -0.135   8.549  13.971  1.00  0.00     0.006 C 
HETATM   12  C23 UNL     1      -0.870   7.406  13.243  1.00  0.00     0.011 C 
HETATM   13  C24 UNL     1      -2.361   7.772  13.343  1.00  0.00    -0.032 C 
HETATM   14  C25 UNL     1      -2.601   8.826  12.200  1.00  0.00     0.016 C 
HETATM   15  C26 UNL     1      -5.229   5.843  15.011  1.00  0.00     0.022 A 
HETATM   16  C27 UNL     1      -5.814   5.810  13.623  1.00  0.00    -0.024 A 
ENDROOT
BRANCH  10  17
HETATM   17  C14 UNL     1      -0.623   9.929  16.105  1.00  0.00    -0.014 C 
HETATM   18  C15 UNL     1       0.628   9.171  16.560  1.00  0.00     0.010 C 
BRANCH  17  19
HETATM   19  C16 UNL     1      -1.709   9.880  17.216  1.00  0.00     0.008 C 
BRANCH  19  20
HETATM   20  C17 UNL     1      -1.748  11.123  18.113  1.00  0.00     0.028 C 
BRANCH  20  21
HETATM   21  C18 UNL     1      -0.785  10.994  19.263  1.00  0.00    -0.025 C 
HETATM   22  C19 UNL     1       0.426  11.573  19.385  1.00  0.00    -0.091 C 
HETATM   23  C20 UNL     1       1.262  11.355  20.618  1.00  0.00     0.042 C 
HETATM   24  C21 UNL     1       1.070  12.446  18.344  1.00  0.00     0.042 C 
ENDBRANCH  20  21
ENDBRANCH  19  20
ENDBRANCH  17  19
ENDBRANCH  10  17
BRANCH  16  25
HETATM   25  C28 UNL     1      -7.174   6.452  13.293  1.00  0.00     0.021 C 
BRANCH  25  26
HETATM   26  C29 UNL     1      -8.181   6.692  14.415  1.00  0.00     0.111 C 
BRANCH  26  27
HETATM   27  C30 UNL     1      -7.770   6.160  15.761  1.00  0.00     0.139 C 
HETATM   28  O2  UNL     1      -7.111   6.709  16.624  1.00  0.00    -0.650 OA
BRANCH  27  29
HETATM   29  O3  UNL     1      -8.203   4.896  15.948  1.00  0.00    -0.776 OA
HETATM   30  H48 UNL     1      -7.856   4.655  16.833  1.00  0.00     0.167 HD
ENDBRANCH  27  29
ENDBRANCH  26  27
ENDBRANCH  25  26
ENDBRANCH  16  25
BRANCH   1  31
HETATM   31  C2  UNL     1      -6.295   3.409  12.675  1.00  0.00    -0.061 C 
HETATM   32  C1  UNL     1      -6.169   2.486  11.700  1.00  0.00     0.017 C 
BRANCH  31  33
HETATM   33  C3  UNL     1      -7.315   3.300  13.787  1.00  0.00     0.198 C 
BRANCH  33  34
HETATM   34  O1  UNL     1      -8.643   3.303  13.274  1.00  0.00    -0.397 OA
HETATM   35  H5  UNL     1      -9.227   3.322  14.047  1.00  0.00     0.209 HD
ENDBRANCH  33  34
ENDBRANCH  31  33
ENDBRANCH   1  31
TORSDOF 11
ENDMDL
MODEL 5
REMARK minimizedAffinity -8.14159584
REMARK  11 active torsions:
REMARK  status: ('A' for Active; 'I' for Inactive)
REMARK    1  A    between atoms: C2_2  and  C3_3 
REMARK    2  A    between atoms: C2_2  and  C4_5 
REMARK    3  A    between atoms: C3_3  and  O1_4 
REMARK    4  A    between atoms: C13_14  and  C14_15 
REMARK    5  A    between atoms: C14_15  and  C16_17 
REMARK    6  A    between atoms: C16_17  and  C17_18 
REMARK    7  A    between atoms: C17_18  and  C18_19 
REMARK    8  A    between atoms: C27_28  and  C28_29 
REMARK    9  A    between atoms: C28_29  and  C29_30 
REMARK   10  A    between atoms: C29_30  and  C30_31 
REMARK   11  A    between atoms: C30_31  and  O3_33 
ROOT
HETATM    1  C4  UNL     1       2.819   6.809  11.595  1.00  0.00     0.025 C 
HETATM    2  C5  UNL     1       1.707   6.423  10.582  1.00  0.00     0.010 C 
HETATM    3  C6  UNL     1       0.294   6.255  11.149  1.00  0.00     0.007 C 
HETATM    4  C7  UNL     1       0.215   6.460  12.659  1.00  0.00     0.004 C 
HETATM    5  C8  UNL     1       0.887   7.776  13.110  1.00  0.00    -0.027 A 
HETATM    6  C9  UNL     1       0.427   8.257  14.485  1.00  0.00     0.011 C 
HETATM    7  C10 UNL     1      -1.101   8.407  14.628  1.00  0.00     0.011 C 
HETATM    8  C11 UNL     1      -1.928   7.623  13.589  1.00  0.00    -0.032 C 
HETATM    9  C12 UNL     1      -2.120   8.517  12.329  1.00  0.00     0.016 C 
HETATM   10  C13 UNL     1      -3.340   7.131  14.061  1.00  0.00    -0.002 C 
HETATM   11  C22 UNL     1      -3.616   5.930  13.105  1.00  0.00     0.006 C 
HETATM   12  C23 UNL     1      -2.276   5.533  12.456  1.00  0.00     0.011 C 
HETATM   13  C24 UNL     1      -1.205   6.259  13.291  1.00  0.00    -0.032 C 
HETATM   14  C25 UNL     1      -1.002   5.361  14.565  1.00  0.00     0.016 C 
HETATM   15  C26 UNL     1       1.355   8.896  12.190  1.00  0.00     0.022 A 
HETATM   16  C27 UNL     1       2.372   7.879  12.638  1.00  0.00    -0.024 A 
ENDROOT
BRANCH  10  17
HETATM   17  C14 UNL     1      -4.543   8.124  14.118  1.00  0.00    -0.014 C 
HETATM   18  C15 UNL     1      -4.130   9.498  14.657  1.00  0.00     0.010 C 
BRANCH  17  19
HETATM   19  C16 UNL     1      -5.682   7.529  14.994  1.00  0.00     0.008 C 
BRANCH  19  20
HETATM   20  C17 UNL     1      -6.919   7.089  14.203  1.00  0.00     0.028 C 
BRANCH  20  21
HETATM   21  C18 UNL     1      -7.044   5.589  14.178  1.00  0.00    -0.025 C 
HETATM   22  C19 UNL     1      -7.692   4.837  13.266  1.00  0.00    -0.091 C 
HETATM   23  C20 UNL     1      -7.706   3.336  13.378  1.00  0.00     0.042 C 
HETATM   24  C21 UNL     1      -8.463   5.380  12.096  1.00  0.00     0.042 C 
ENDBRANCH  20  21
ENDBRANCH  19  20
ENDBRANCH  17  19
ENDBRANCH  10  17
BRANCH  16  25
HETATM   25  C28 UNL     1       3.381   8.171  13.763  1.00  0.00     0.021 C 
BRANCH  25  26
HETATM   26  C29 UNL     1       4.876   8.133  13.460  1.00  0.00     0.111 C 
BRANCH  26  27
HETATM   27  C30 UNL     1       5.744   7.698  14.609  1.00  0.00     0.139 C 
HETATM   28  O2  UNL     1       5.938   8.264  15.670  1.00  0.00    -0.650 OA
BRANCH  27  29
HETATM   29  O3  UNL     1       6.378   6.537  14.342  1.00  0.00    -0.776 OA
HETATM   30  H48 UNL     1       6.924   6.376  15.140  1.00  0.00     0.167 HD
ENDBRANCH  27  29
ENDBRANCH  26  27
ENDBRANCH  25  26
ENDBRANCH  16  25
BRANCH   1  31
HETATM   31  C2  UNL     1       4.082   7.128  10.791  1.00  0.00    -0.061 C 
HETATM   32  C1  UNL     1       4.124   8.221  10.003  1.00  0.00     0.017 C 
BRANCH  31  33
HETATM   33  C3  UNL     1       5.245   6.171  10.935  1.00  0.00     0.198 C 
BRANCH  33  34
HETATM   34  O1  UNL     1       5.050   4.998  10.153  1.00  0.00    -0.397 OA
HETATM   35  H5  UNL     1       5.786   4.406  10.372  1.00  0.00     0.209 HD
ENDBRANCH  33  34
ENDBRANCH  31  33
ENDBRANCH   1  31
TORSDOF 11
ENDMDL
MODEL 6
REMARK minimizedAffinity -8.06429291
REMARK  11 active torsions:
REMARK  status: ('A' for Active; 'I' for Inactive)
REMARK    1  A    between atoms: C2_2  and  C3_3 
REMARK    2  A    between atoms: C2_2  and  C4_5 
REMARK    3  A    between atoms: C3_3  and  O1_4 
REMARK    4  A    between atoms: C13_14  and  C14_15 
REMARK    5  A    between atoms: C14_15  and  C16_17 
REMARK    6  A    between atoms: C16_17  and  C17_18 
REMARK    7  A    between atoms: C17_18  and  C18_19 
REMARK    8  A    between atoms: C27_28  and  C28_29 
REMARK    9  A    between atoms: C28_29  and  C29_30 
REMARK   10  A    between atoms: C29_30  and  C30_31 
REMARK   11  A    between atoms: C30_31  and  O3_33 
ROOT
HETATM    1  C4  UNL     1      -5.813   7.531  15.481  1.00  0.00     0.025 C 
HETATM    2  C5  UNL     1      -5.073   8.884  15.664  1.00  0.00     0.010 C 
HETATM    3  C6  UNL     1      -3.594   8.915  15.267  1.00  0.00     0.007 C 
HETATM    4  C7  UNL     1      -3.065   7.569  14.783  1.00  0.00     0.004 C 
HETATM    5  C8  UNL     1      -3.963   6.942  13.693  1.00  0.00    -0.027 A 
HETATM    6  C9  UNL     1      -3.255   5.881  12.853  1.00  0.00     0.011 C 
HETATM    7  C10 UNL     1      -1.942   6.359  12.199  1.00  0.00     0.011 C 
HETATM    8  C11 UNL     1      -1.313   7.607  12.849  1.00  0.00    -0.032 C 
HETATM    9  C12 UNL     1      -1.920   8.875  12.179  1.00  0.00     0.016 C 
HETATM   10  C13 UNL     1       0.250   7.712  12.771  1.00  0.00    -0.002 C 
HETATM   11  C22 UNL     1       0.585   8.651  13.970  1.00  0.00     0.006 C 
HETATM   12  C23 UNL     1      -0.655   8.702  14.884  1.00  0.00     0.011 C 
HETATM   13  C24 UNL     1      -1.545   7.542  14.403  1.00  0.00    -0.032 C 
HETATM   14  C25 UNL     1      -0.941   6.255  15.077  1.00  0.00     0.016 C 
HETATM   15  C26 UNL     1      -5.100   7.646  12.964  1.00  0.00     0.022 A 
HETATM   16  C27 UNL     1      -5.447   6.793  14.157  1.00  0.00    -0.024 A 
ENDROOT
BRANCH  10  17
HETATM   17  C14 UNL     1       0.945   8.174  11.452  1.00  0.00    -0.014 C 
HETATM   18  C15 UNL     1      -0.070   8.485  10.346  1.00  0.00     0.010 C 
BRANCH  17  19
HETATM   19  C16 UNL     1       1.943   7.086  10.968  1.00  0.00     0.008 C 
BRANCH  19  20
HETATM   20  C17 UNL     1       3.036   7.608  10.029  1.00  0.00     0.028 C 
BRANCH  20  21
HETATM   21  C18 UNL     1       4.391   7.085  10.426  1.00  0.00    -0.025 C 
HETATM   22  C19 UNL     1       5.510   7.802  10.651  1.00  0.00    -0.091 C 
HETATM   23  C20 UNL     1       6.788   7.122  11.063  1.00  0.00     0.042 C 
HETATM   24  C21 UNL     1       5.619   9.294  10.504  1.00  0.00     0.042 C 
ENDBRANCH  20  21
ENDBRANCH  19  20
ENDBRANCH  17  19
ENDBRANCH  10  17
BRANCH  16  25
HETATM   25  C28 UNL     1      -6.023   5.373  14.007  1.00  0.00     0.021 C 
BRANCH  25  26
HETATM   26  C29 UNL     1      -7.140   5.119  12.999  1.00  0.00     0.111 C 
BRANCH  26  27
HETATM   27  C30 UNL     1      -7.437   3.667  12.736  1.00  0.00     0.139 C 
HETATM   28  O2  UNL     1      -6.721   2.826  12.225  1.00  0.00    -0.650 OA
BRANCH  27  29
HETATM   29  O3  UNL     1      -8.689   3.340  13.120  1.00  0.00    -0.776 OA
HETATM   30  H48 UNL     1      -8.771   2.394  12.877  1.00  0.00     0.167 HD
ENDBRANCH  27  29
ENDBRANCH  26  27
ENDBRANCH  25  26
ENDBRANCH  16  25
BRANCH   1  31
HETATM   31  C2  UNL     1      -7.301   7.783  15.731  1.00  0.00    -0.061 C 
HETATM   32  C1  UNL     1      -7.933   8.791  15.096  1.00  0.00     0.017 C 
BRANCH  31  33
HETATM   33  C3  UNL     1      -7.998   6.856  16.702  1.00  0.00     0.198 C 
BRANCH  33  34
HETATM   34  O1  UNL     1      -9.201   6.334  16.148  1.00  0.00    -0.397 OA
HETATM   35  H5  UNL     1      -9.626   5.831  16.860  1.00  0.00     0.209 HD
ENDBRANCH  33  34
ENDBRANCH  31  33
ENDBRANCH   1  31
TORSDOF 11
ENDMDL
MODEL 7
REMARK minimizedAffinity -8.01979733
REMARK  11 active torsions:
REMARK  status: ('A' for Active; 'I' for Inactive)
REMARK    1  A    between atoms: C2_2  and  C3_3 
REMARK    2  A    between atoms: C2_2  and  C4_5 
REMARK    3  A    between atoms: C3_3  and  O1_4 
REMARK    4  A    between atoms: C13_14  and  C14_15 
REMARK    5  A    between atoms: C14_15  and  C16_17 
REMARK    6  A    between atoms: C16_17  and  C17_18 
REMARK    7  A    between atoms: C17_18  and  C18_19 
REMARK    8  A    between atoms: C27_28  and  C28_29 
REMARK    9  A    between atoms: C28_29  and  C29_30 
REMARK   10  A    between atoms: C29_30  and  C30_31 
REMARK   11  A    between atoms: C30_31  and  O3_33 
ROOT
HETATM    1  C4  UNL     1      -7.516   7.430  15.300  1.00  0.00     0.025 C 
HETATM    2  C5  UNL     1      -6.886   8.849  15.318  1.00  0.00     0.010 C 
HETATM    3  C6  UNL     1      -5.360   8.922  15.211  1.00  0.00     0.007 C 
HETATM    4  C7  UNL     1      -4.688   7.554  15.146  1.00  0.00     0.004 C 
HETATM    5  C8  UNL     1      -5.318   6.640  14.071  1.00  0.00    -0.027 A 
HETATM    6  C9  UNL     1      -4.410   5.492  13.636  1.00  0.00     0.011 C 
HETATM    7  C10 UNL     1      -3.013   5.934  13.154  1.00  0.00     0.011 C 
HETATM    8  C11 UNL     1      -2.582   7.339  13.620  1.00  0.00    -0.032 C 
HETATM    9  C12 UNL     1      -3.092   8.383  12.584  1.00  0.00     0.016 C 
HETATM   10  C13 UNL     1      -1.042   7.557  13.818  1.00  0.00    -0.002 C 
HETATM   11  C22 UNL     1      -0.997   8.750  14.822  1.00  0.00     0.006 C 
HETATM   12  C23 UNL     1      -2.398   8.884  15.450  1.00  0.00     0.011 C 
HETATM   13  C24 UNL     1      -3.122   7.578  15.077  1.00  0.00    -0.032 C 
HETATM   14  C25 UNL     1      -2.615   6.516  16.120  1.00  0.00     0.016 C 
HETATM   15  C26 UNL     1      -6.311   7.079  13.002  1.00  0.00     0.022 A 
HETATM   16  C27 UNL     1      -6.858   6.466  14.266  1.00  0.00    -0.024 A 
ENDROOT
BRANCH  10  17
HETATM   17  C14 UNL     1      -0.113   7.792  12.586  1.00  0.00    -0.014 C 
HETATM   18  C15 UNL     1      -0.703   8.814  11.608  1.00  0.00     0.010 C 
BRANCH  17  19
HETATM   19  C16 UNL     1       0.151   6.446  11.856  1.00  0.00     0.008 C 
BRANCH  19  20
HETATM   20  C17 UNL     1       1.603   6.250  11.404  1.00  0.00     0.028 C 
BRANCH  20  21
HETATM   21  C18 UNL     1       1.689   6.067   9.912  1.00  0.00    -0.025 C 
HETATM   22  C19 UNL     1       2.455   6.760   9.046  1.00  0.00    -0.091 C 
HETATM   23  C20 UNL     1       2.437   6.436   7.576  1.00  0.00     0.042 C 
HETATM   24  C21 UNL     1       3.360   7.900   9.421  1.00  0.00     0.042 C 
ENDBRANCH  20  21
ENDBRANCH  19  20
ENDBRANCH  17  19
ENDBRANCH  10  17
BRANCH  16  25
HETATM   25  C28 UNL     1      -7.331   5.003  14.327  1.00  0.00     0.021 C 
BRANCH  25  26
HETATM   26  C29 UNL     1      -7.932   4.356  13.082  1.00  0.00     0.111 C 
BRANCH  26  27
HETATM   27  C30 UNL     1      -7.299   3.052  12.678  1.00  0.00     0.139 C 
HETATM   28  O2  UNL     1      -6.156   2.844  12.314  1.00  0.00    -0.650 OA
BRANCH  27  29
HETATM   29  O3  UNL     1      -8.184   2.034  12.725  1.00  0.00    -0.776 OA
HETATM   30  H48 UNL     1      -7.669   1.258  12.420  1.00  0.00     0.167 HD
ENDBRANCH  27  29
ENDBRANCH  26  27
ENDBRANCH  25  26
ENDBRANCH  16  25
BRANCH   1  31
HETATM   31  C2  UNL     1      -9.033   7.600  15.202  1.00  0.00    -0.061 C 
HETATM   32  C1  UNL     1      -9.757   6.774  14.419  1.00  0.00     0.017 C 
BRANCH  31  33
HETATM   33  C3  UNL     1      -9.651   8.717  16.014  1.00  0.00     0.198 C 
BRANCH  33  34
HETATM   34  O1  UNL     1     -10.320   8.212  17.165  1.00  0.00    -0.397 OA
HETATM   35  H5  UNL     1     -10.760   8.973  17.573  1.00  0.00     0.209 HD
ENDBRANCH  33  34
ENDBRANCH  31  33
ENDBRANCH   1  31
TORSDOF 11
ENDMDL
MODEL 8
REMARK minimizedAffinity -7.94800758
REMARK  11 active torsions:
REMARK  status: ('A' for Active; 'I' for Inactive)
REMARK    1  A    between atoms: C2_2  and  C3_3 
REMARK    2  A    between atoms: C2_2  and  C4_5 
REMARK    3  A    between atoms: C3_3  and  O1_4 
REMARK    4  A    between atoms: C13_14  and  C14_15 
REMARK    5  A    between atoms: C14_15  and  C16_17 
REMARK    6  A    between atoms: C16_17  and  C17_18 
REMARK    7  A    between atoms: C17_18  and  C18_19 
REMARK    8  A    between atoms: C27_28  and  C28_29 
REMARK    9  A    between atoms: C28_29  and  C29_30 
REMARK   10  A    between atoms: C29_30  and  C30_31 
REMARK   11  A    between atoms: C30_31  and  O3_33 
ROOT
HETATM    1  C4  UNL     1      -3.932   4.717  12.170  1.00  0.00     0.025 C 
HETATM    2  C5  UNL     1      -2.491   4.254  11.819  1.00  0.00     0.010 C 
HETATM    3  C6  UNL     1      -1.376   5.286  12.010  1.00  0.00     0.007 C 
HETATM    4  C7  UNL     1      -1.879   6.646  12.485  1.00  0.00     0.004 C 
HETATM    5  C8  UNL     1      -2.804   6.533  13.717  1.00  0.00    -0.027 A 
HETATM    6  C9  UNL     1      -2.934   7.834  14.506  1.00  0.00     0.011 C 
HETATM    7  C10 UNL     1      -1.589   8.446  14.951  1.00  0.00     0.011 C 
HETATM    8  C11 UNL     1      -0.362   7.953  14.158  1.00  0.00    -0.032 C 
HETATM    9  C12 UNL     1       0.184   6.664  14.839  1.00  0.00     0.016 C 
HETATM   10  C13 UNL     1       0.822   8.972  14.018  1.00  0.00    -0.002 C 
HETATM   11  C22 UNL     1       1.554   8.464  12.738  1.00  0.00     0.006 C 
HETATM   12  C23 UNL     1       0.596   7.510  12.000  1.00  0.00     0.011 C 
HETATM   13  C24 UNL     1      -0.776   7.747  12.656  1.00  0.00    -0.032 C 
HETATM   14  C25 UNL     1      -1.338   9.048  11.972  1.00  0.00     0.016 C 
HETATM   15  C26 UNL     1      -3.017   5.280  14.558  1.00  0.00     0.022 A 
HETATM   16  C27 UNL     1      -4.014   5.577  13.468  1.00  0.00    -0.024 A 
ENDROOT
BRANCH  10  17
HETATM   17  C14 UNL     1       1.809   9.204  15.205  1.00  0.00    -0.014 C 
HETATM   18  C15 UNL     1       2.614   7.943  15.538  1.00  0.00     0.010 C 
BRANCH  17  19
HETATM   19  C16 UNL     1       1.026   9.682  16.461  1.00  0.00     0.008 C 
BRANCH  19  20
HETATM   20  C17 UNL     1       1.626  10.917  17.143  1.00  0.00     0.028 C 
BRANCH  20  21
HETATM   21  C18 UNL     1       2.051  10.607  18.553  1.00  0.00    -0.025 C 
HETATM   22  C19 UNL     1       1.321  10.749  19.677  1.00  0.00    -0.091 C 
HETATM   23  C20 UNL     1       1.895  10.373  21.018  1.00  0.00     0.042 C 
HETATM   24  C21 UNL     1      -0.078  11.295  19.731  1.00  0.00     0.042 C 
ENDBRANCH  20  21
ENDBRANCH  19  20
ENDBRANCH  17  19
ENDBRANCH  10  17
BRANCH  16  25
HETATM   25  C28 UNL     1      -5.390   6.200  13.766  1.00  0.00     0.021 C 
BRANCH  25  26
HETATM   26  C29 UNL     1      -6.064   5.923  15.107  1.00  0.00     0.111 C 
BRANCH  26  27
HETATM   27  C30 UNL     1      -7.527   5.583  15.022  1.00  0.00     0.139 C 
HETATM   28  O2  UNL     1      -8.362   6.012  14.247  1.00  0.00    -0.650 OA
BRANCH  27  29
HETATM   29  O3  UNL     1      -7.889   4.703  15.979  1.00  0.00    -0.776 OA
HETATM   30  H48 UNL     1      -8.852   4.584  15.839  1.00  0.00     0.167 HD
ENDBRANCH  27  29
ENDBRANCH  26  27
ENDBRANCH  25  26
ENDBRANCH  16  25
BRANCH   1  31
HETATM   31  C2  UNL     1      -4.838   3.485  12.112  1.00  0.00    -0.061 C 
HETATM   32  C1  UNL     1      -6.171   3.618  12.265  1.00  0.00     0.017 C 
BRANCH  31  33
HETATM   33  C3  UNL     1      -4.165   2.151  11.875  1.00  0.00     0.198 C 
BRANCH  33  34
HETATM   34  O1  UNL     1      -5.016   1.261  11.160  1.00  0.00    -0.397 OA
HETATM   35  H5  UNL     1      -4.550   0.412  11.132  1.00  0.00     0.209 HD
ENDBRANCH  33  34
ENDBRANCH  31  33
ENDBRANCH   1  31
TORSDOF 11
ENDMDL
MODEL 9
REMARK minimizedAffinity -7.94796133
REMARK  11 active torsions:
REMARK  status: ('A' for Active; 'I' for Inactive)
REMARK    1  A    between atoms: C2_2  and  C3_3 
REMARK    2  A    between atoms: C2_2  and  C4_5 
REMARK    3  A    between atoms: C3_3  and  O1_4 
REMARK    4  A    between atoms: C13_14  and  C14_15 
REMARK    5  A    between atoms: C14_15  and  C16_17 
REMARK    6  A    between atoms: C16_17  and  C17_18 
REMARK    7  A    between atoms: C17_18  and  C18_19 
REMARK    8  A    between atoms: C27_28  and  C28_29 
REMARK    9  A    between atoms: C28_29  and  C29_30 
REMARK   10  A    between atoms: C29_30  and  C30_31 
REMARK   11  A    between atoms: C30_31  and  O3_33 
ROOT
HETATM    1  C4  UNL     1      -3.561   4.302  11.747  1.00  0.00     0.025 C 
HETATM    2  C5  UNL     1      -2.015   4.176  11.825  1.00  0.00     0.010 C 
HETATM    3  C6  UNL     1      -1.254   5.396  12.351  1.00  0.00     0.007 C 
HETATM    4  C7  UNL     1      -2.157   6.581  12.682  1.00  0.00     0.004 C 
HETATM    5  C8  UNL     1      -3.343   6.181  13.587  1.00  0.00    -0.027 A 
HETATM    6  C9  UNL     1      -3.973   7.360  14.325  1.00  0.00     0.011 C 
HETATM    7  C10 UNL     1      -2.977   8.198  15.154  1.00  0.00     0.011 C 
HETATM    8  C11 UNL     1      -1.500   8.034  14.747  1.00  0.00    -0.032 C 
HETATM    9  C12 UNL     1      -0.897   6.834  15.536  1.00  0.00     0.016 C 
HETATM   10  C13 UNL     1      -0.579   9.283  14.976  1.00  0.00    -0.002 C 
HETATM   11  C22 UNL     1       0.577   9.041  13.958  1.00  0.00     0.006 C 
HETATM   12  C23 UNL     1       0.100   7.972  12.955  1.00  0.00     0.011 C 
HETATM   13  C24 UNL     1      -1.418   7.868  13.186  1.00  0.00    -0.032 C 
HETATM   14  C25 UNL     1      -2.037   9.076  12.390  1.00  0.00     0.016 C 
HETATM   15  C26 UNL     1      -3.502   4.848  14.308  1.00  0.00     0.022 A 
HETATM   16  C27 UNL     1      -4.193   5.020  12.979  1.00  0.00    -0.024 A 
ENDROOT
BRANCH  10  17
HETATM   17  C14 UNL     1      -0.043   9.617  16.403  1.00  0.00    -0.014 C 
HETATM   18  C15 UNL     1      -0.921  10.648  17.121  1.00  0.00     0.010 C 
BRANCH  17  19
HETATM   19  C16 UNL     1       1.421  10.135  16.313  1.00  0.00     0.008 C 
BRANCH  19  20
HETATM   20  C17 UNL     1       1.761  11.235  17.323  1.00  0.00     0.028 C 
BRANCH  20  21
HETATM   21  C18 UNL     1       2.502  10.677  18.509  1.00  0.00    -0.025 C 
HETATM   22  C19 UNL     1       2.055  10.568  19.776  1.00  0.00    -0.091 C 
HETATM   23  C20 UNL     1       2.923   9.964  20.847  1.00  0.00     0.042 C 
HETATM   24  C21 UNL     1       0.710  11.035  20.256  1.00  0.00     0.042 C 
ENDBRANCH  20  21
ENDBRANCH  19  20
ENDBRANCH  17  19
ENDBRANCH  10  17
BRANCH  16  25
HETATM   25  C28 UNL     1      -5.698   5.320  12.873  1.00  0.00     0.021 C 
BRANCH  25  26
HETATM   26  C29 UNL     1      -6.691   4.465  13.655  1.00  0.00     0.111 C 
BRANCH  26  27
HETATM   27  C30 UNL     1      -8.070   4.390  13.058  1.00  0.00     0.139 C 
HETATM   28  O2  UNL     1      -8.737   5.285  12.573  1.00  0.00    -0.650 OA
BRANCH  27  29
HETATM   29  O3  UNL     1      -8.577   3.141  13.133  1.00  0.00    -0.776 OA
HETATM   30  H48 UNL     1      -9.473   3.225  12.744  1.00  0.00     0.167 HD
ENDBRANCH  27  29
ENDBRANCH  26  27
ENDBRANCH  25  26
ENDBRANCH  16  25
BRANCH   1  31
HETATM   31  C2  UNL     1      -4.119   2.919  11.406  1.00  0.00    -0.061 C 
HETATM   32  C1  UNL     1      -3.481   1.809  11.830  1.00  0.00     0.017 C 
BRANCH  31  33
HETATM   33  C3  UNL     1      -5.393   2.877  10.592  1.00  0.00     0.198 C 
BRANCH  33  34
HETATM   34  O1  UNL     1      -5.908   1.552  10.503  1.00  0.00    -0.397 OA
HETATM   35  H5  UNL     1      -6.662   1.600   9.896  1.00  0.00     0.209 HD
ENDBRANCH  33  34
ENDBRANCH  31  33
ENDBRANCH   1  31
TORSDOF 11
ENDMDL
