MODEL 1
REMARK minimizedAffinity -10.3480024
REMARK  9 active torsions:
REMARK  status: ('A' for Active; 'I' for Inactive)
REMARK    1  A    between atoms: C2_2  and  C29_32 
REMARK    2  A    between atoms: C3_3  and  C4_4 
REMARK    3  A    between atoms: C4_4  and  C5_5 
REMARK    4  A    between atoms: C5_5  and  C6_6 
REMARK    5  A    between atoms: C6_6  and  C8_8 
REMARK    6  A    between atoms: C19_19  and  O1_20 
REMARK    7  A    between atoms: C23_24  and  O2_25 
REMARK    8  A    between atoms: C25_27  and  O3_28 
REMARK    9  A    between atoms: C29_32  and  O4_33 
ROOT
HETATM    1  C8  UNL     1      -4.668   4.432  13.606  1.00  0.00    -0.002 C 
HETATM    2  C9  UNL     1      -5.017   3.922  12.184  1.00  0.00     0.007 C 
HETATM    3  C10 UNL     1      -6.483   4.337  11.906  1.00  0.00     0.015 C 
HETATM    4  C11 UNL     1      -7.014   4.884  13.254  1.00  0.00    -0.013 C 
HETATM    5  C12 UNL     1      -7.522   3.638  14.053  1.00  0.00     0.021 C 
HETATM    6  C13 UNL     1      -8.173   5.878  13.242  1.00  0.00    -0.068 C 
HETATM    7  C14 UNL     1      -9.148   5.793  12.321  1.00  0.00    -0.022 C 
HETATM    8  C15 UNL     1     -10.405   6.598  12.339  1.00  0.00     0.033 C 
HETATM    9  C16 UNL     1     -10.449   7.748  13.365  1.00  0.00     0.006 C 
HETATM   10  C17 UNL     1      -9.699   7.388  14.678  1.00  0.00     0.030 C 
HETATM   11  C18 UNL     1      -8.223   6.921  14.372  1.00  0.00     0.051 C 
HETATM   12  C19 UNL     1      -7.389   6.473  15.623  1.00  0.00     0.127 C 
HETATM   13  C20 UNL     1      -5.962   5.935  15.310  1.00  0.00     0.043 C 
HETATM   14  C21 UNL     1      -5.729   5.558  13.835  1.00  0.00    -0.026 C 
HETATM   15  C22 UNL     1      -5.287   6.834  13.054  1.00  0.00     0.016 C 
HETATM   16  C23 UNL     1      -9.693   8.597  15.652  1.00  0.00     0.126 C 
HETATM   17  C24 UNL     1     -10.825   9.607  15.480  1.00  0.00     0.064 C 
HETATM   18  C25 UNL     1     -12.095   8.919  15.009  1.00  0.00     0.128 C 
HETATM   19  C26 UNL     1     -11.917   8.316  13.584  1.00  0.00    -0.017 C 
HETATM   20  C27 UNL     1     -12.134   9.444  12.537  1.00  0.00     0.018 C 
HETATM   21  C28 UNL     1     -13.041   7.280  13.341  1.00  0.00     0.018 C 
ENDROOT
BRANCH   1  22
HETATM   22  C6  UNL     1      -3.182   4.780  13.907  1.00  0.00    -0.014 C 
HETATM   23  C7  UNL     1      -2.928   5.887  14.940  1.00  0.00     0.010 C 
BRANCH  22  24
HETATM   24  C5  UNL     1      -2.366   5.023  12.609  1.00  0.00     0.008 C 
BRANCH  24  25
HETATM   25  C4  UNL     1      -2.701   4.196  11.361  1.00  0.00     0.028 C 
BRANCH  25  26
HETATM   26  C3  UNL     1      -1.694   3.140  11.006  1.00  0.00    -0.022 C 
HETATM   27  C2  UNL     1      -1.834   1.807  11.122  1.00  0.00    -0.064 C 
HETATM   28  C1  UNL     1      -3.085   1.134  11.622  1.00  0.00     0.045 C 
BRANCH  27  29
HETATM   29  C29 UNL     1      -0.713   0.880  10.718  1.00  0.00     0.197 C 
BRANCH  29  30
HETATM   30  O4  UNL     1      -0.666   0.750   9.303  1.00  0.00    -0.397 OA
HETATM   31  H48 UNL     1      -0.992   1.579   8.918  1.00  0.00     0.209 HD
ENDBRANCH  29  30
ENDBRANCH  27  29
ENDBRANCH  25  26
ENDBRANCH  24  25
ENDBRANCH  22  24
ENDBRANCH   1  22
BRANCH  12  32
HETATM   32  O1  UNL     1      -7.183   7.539  16.557  1.00  0.00    -0.395 OA
HETATM   33  H28 UNL     1      -8.033   7.663  17.034  1.00  0.00     0.210 HD
ENDBRANCH  12  32
BRANCH  16  34
HETATM   34  O2  UNL     1      -9.751   8.071  16.989  1.00  0.00    -0.395 OA
HETATM   35  H35 UNL     1     -10.679   7.763  17.097  1.00  0.00     0.210 HD
ENDBRANCH  16  34
BRANCH  18  36
HETATM   36  O3  UNL     1     -12.408   7.916  15.988  1.00  0.00    -0.395 OA
HETATM   37  H39 UNL     1     -13.341   7.668  15.858  1.00  0.00     0.210 HD
ENDBRANCH  18  36
TORSDOF 9
ENDMDL
MODEL 2
REMARK minimizedAffinity -9.65722275
REMARK  9 active torsions:
REMARK  status: ('A' for Active; 'I' for Inactive)
REMARK    1  A    between atoms: C2_2  and  C29_32 
REMARK    2  A    between atoms: C3_3  and  C4_4 
REMARK    3  A    between atoms: C4_4  and  C5_5 
REMARK    4  A    between atoms: C5_5  and  C6_6 
REMARK    5  A    between atoms: C6_6  and  C8_8 
REMARK    6  A    between atoms: C19_19  and  O1_20 
REMARK    7  A    between atoms: C23_24  and  O2_25 
REMARK    8  A    between atoms: C25_27  and  O3_28 
REMARK    9  A    between atoms: C29_32  and  O4_33 
ROOT
HETATM    1  C8  UNL     1       0.151   7.529  13.858  1.00  0.00    -0.002 C 
HETATM    2  C9  UNL     1       0.455   6.564  12.683  1.00  0.00     0.007 C 
HETATM    3  C10 UNL     1      -0.826   5.725  12.448  1.00  0.00     0.015 C 
HETATM    4  C11 UNL     1      -1.762   6.073  13.632  1.00  0.00    -0.013 C 
HETATM    5  C12 UNL     1      -1.353   5.115  14.800  1.00  0.00     0.021 C 
HETATM    6  C13 UNL     1      -3.269   5.902  13.455  1.00  0.00    -0.068 C 
HETATM    7  C14 UNL     1      -3.769   4.908  12.700  1.00  0.00    -0.022 C 
HETATM    8  C15 UNL     1      -5.216   4.552  12.617  1.00  0.00     0.033 C 
HETATM    9  C16 UNL     1      -6.191   5.551  13.272  1.00  0.00     0.006 C 
HETATM   10  C17 UNL     1      -5.590   6.200  14.550  1.00  0.00     0.030 C 
HETATM   11  C18 UNL     1      -4.187   6.854  14.241  1.00  0.00     0.051 C 
HETATM   12  C19 UNL     1      -3.457   7.488  15.477  1.00  0.00     0.127 C 
HETATM   13  C20 UNL     1      -2.038   8.059  15.186  1.00  0.00     0.043 C 
HETATM   14  C21 UNL     1      -1.412   7.578  13.864  1.00  0.00    -0.026 C 
HETATM   15  C22 UNL     1      -1.892   8.514  12.711  1.00  0.00     0.016 C 
HETATM   16  C23 UNL     1      -6.564   7.258  15.134  1.00  0.00     0.126 C 
HETATM   17  C24 UNL     1      -8.042   7.073  14.797  1.00  0.00     0.064 C 
HETATM   18  C25 UNL     1      -8.386   5.599  14.673  1.00  0.00     0.128 C 
HETATM   19  C26 UNL     1      -7.647   4.945  13.468  1.00  0.00    -0.017 C 
HETATM   20  C27 UNL     1      -8.449   5.246  12.171  1.00  0.00     0.018 C 
HETATM   21  C28 UNL     1      -7.676   3.407  13.646  1.00  0.00     0.018 C 
ENDROOT
BRANCH   1  22
HETATM   22  C6  UNL     1       0.908   8.887  13.895  1.00  0.00    -0.014 C 
HETATM   23  C7  UNL     1       0.093  10.120  14.313  1.00  0.00     0.010 C 
BRANCH  22  24
HETATM   24  C5  UNL     1       1.696   9.151  12.584  1.00  0.00     0.008 C 
BRANCH  24  25
HETATM   25  C4  UNL     1       2.125   7.953  11.727  1.00  0.00     0.028 C 
BRANCH  25  26
HETATM   26  C3  UNL     1       3.604   7.698  11.683  1.00  0.00    -0.022 C 
HETATM   27  C2  UNL     1       4.241   6.697  11.049  1.00  0.00    -0.064 C 
HETATM   28  C1  UNL     1       3.544   5.643  10.229  1.00  0.00     0.045 C 
BRANCH  27  29
HETATM   29  C29 UNL     1       5.746   6.586  11.108  1.00  0.00     0.197 C 
BRANCH  29  30
HETATM   30  O4  UNL     1       6.162   5.289  10.700  1.00  0.00    -0.397 OA
HETATM   31  H48 UNL     1       5.512   4.957  10.061  1.00  0.00     0.209 HD
ENDBRANCH  29  30
ENDBRANCH  27  29
ENDBRANCH  25  26
ENDBRANCH  24  25
ENDBRANCH  22  24
ENDBRANCH   1  22
BRANCH  12  32
HETATM   32  O1  UNL     1      -4.186   8.583  16.042  1.00  0.00    -0.395 OA
HETATM   33  H28 UNL     1      -4.932   8.194  16.549  1.00  0.00     0.210 HD
ENDBRANCH  12  32
BRANCH  16  34
HETATM   34  O2  UNL     1      -6.416   7.235  16.564  1.00  0.00    -0.395 OA
HETATM   35  H35 UNL     1      -6.864   6.408  16.849  1.00  0.00     0.210 HD
ENDBRANCH  16  34
BRANCH  18  36
HETATM   36  O3  UNL     1      -8.034   4.986  15.923  1.00  0.00    -0.395 OA
HETATM   37  H39 UNL     1      -8.496   4.130  15.965  1.00  0.00     0.210 HD
ENDBRANCH  18  36
TORSDOF 9
ENDMDL
MODEL 3
REMARK minimizedAffinity -9.6288414
REMARK  9 active torsions:
REMARK  status: ('A' for Active; 'I' for Inactive)
REMARK    1  A    between atoms: C2_2  and  C29_32 
REMARK    2  A    between atoms: C3_3  and  C4_4 
REMARK    3  A    between atoms: C4_4  and  C5_5 
REMARK    4  A    between atoms: C5_5  and  C6_6 
REMARK    5  A    between atoms: C6_6  and  C8_8 
REMARK    6  A    between atoms: C19_19  and  O1_20 
REMARK    7  A    between atoms: C23_24  and  O2_25 
REMARK    8  A    between atoms: C25_27  and  O3_28 
REMARK    9  A    between atoms: C29_32  and  O4_33 
ROOT
HETATM    1  C8  UNL     1       0.636   6.579  12.586  1.00  0.00    -0.002 C 
HETATM    2  C9  UNL     1       0.672   5.472  11.501  1.00  0.00     0.007 C 
HETATM    3  C10 UNL     1      -0.709   4.769  11.532  1.00  0.00     0.015 C 
HETATM    4  C11 UNL     1      -1.428   5.341  12.779  1.00  0.00    -0.013 C 
HETATM    5  C12 UNL     1      -0.958   4.464  13.987  1.00  0.00     0.021 C 
HETATM    6  C13 UNL     1      -2.954   5.330  12.820  1.00  0.00    -0.068 C 
HETATM    7  C14 UNL     1      -3.654   4.331  12.255  1.00  0.00    -0.022 C 
HETATM    8  C15 UNL     1      -5.128   4.139  12.400  1.00  0.00     0.033 C 
HETATM    9  C16 UNL     1      -5.893   5.305  13.056  1.00  0.00     0.006 C 
HETATM   10  C17 UNL     1      -5.055   6.005  14.163  1.00  0.00     0.030 C 
HETATM   11  C18 UNL     1      -3.650   6.457  13.602  1.00  0.00     0.051 C 
HETATM   12  C19 UNL     1      -2.692   7.122  14.651  1.00  0.00     0.127 C 
HETATM   13  C20 UNL     1      -1.278   7.492  14.116  1.00  0.00     0.043 C 
HETATM   14  C21 UNL     1      -0.897   6.811  12.789  1.00  0.00    -0.026 C 
HETATM   15  C22 UNL     1      -1.437   7.676  11.607  1.00  0.00     0.016 C 
HETATM   16  C23 UNL     1      -5.823   7.223  14.742  1.00  0.00     0.126 C 
HETATM   17  C24 UNL     1      -7.345   7.179  14.622  1.00  0.00     0.064 C 
HETATM   18  C25 UNL     1      -7.852   5.749  14.715  1.00  0.00     0.128 C 
HETATM   19  C26 UNL     1      -7.361   4.896  13.508  1.00  0.00    -0.017 C 
HETATM   20  C27 UNL     1      -8.303   5.157  12.299  1.00  0.00     0.018 C 
HETATM   21  C28 UNL     1      -7.521   3.398  13.864  1.00  0.00     0.018 C 
ENDROOT
BRANCH   1  22
HETATM   22  C6  UNL     1       1.525   7.836  12.369  1.00  0.00    -0.014 C 
HETATM   23  C7  UNL     1       1.035   9.146  13.003  1.00  0.00     0.010 C 
BRANCH  22  24
HETATM   24  C5  UNL     1       1.893   8.038  10.874  1.00  0.00     0.008 C 
BRANCH  24  25
HETATM   25  C4  UNL     1       3.351   7.834  10.439  1.00  0.00     0.028 C 
BRANCH  25  26
HETATM   26  C3  UNL     1       3.734   6.412  10.144  1.00  0.00    -0.022 C 
HETATM   27  C2  UNL     1       3.378   5.677   9.075  1.00  0.00    -0.064 C 
HETATM   28  C1  UNL     1       2.525   6.192   7.946  1.00  0.00     0.045 C 
BRANCH  27  29
HETATM   29  C29 UNL     1       3.854   4.251   8.932  1.00  0.00     0.197 C 
BRANCH  29  30
HETATM   30  O4  UNL     1       3.172   3.409   9.852  1.00  0.00    -0.397 OA
HETATM   31  H48 UNL     1       2.291   3.786  10.002  1.00  0.00     0.209 HD
ENDBRANCH  29  30
ENDBRANCH  27  29
ENDBRANCH  25  26
ENDBRANCH  24  25
ENDBRANCH  22  24
ENDBRANCH   1  22
BRANCH  12  32
HETATM   32  O1  UNL     1      -3.218   8.346  15.176  1.00  0.00    -0.395 OA
HETATM   33  H28 UNL     1      -3.922   8.099  15.816  1.00  0.00     0.210 HD
ENDBRANCH  12  32
BRANCH  16  34
HETATM   34  O2  UNL     1      -5.478   7.326  16.134  1.00  0.00    -0.395 OA
HETATM   35  H35 UNL     1      -5.964   6.590  16.568  1.00  0.00     0.210 HD
ENDBRANCH  16  34
BRANCH  18  36
HETATM   36  O3  UNL     1      -7.391   5.229  15.971  1.00  0.00    -0.395 OA
HETATM   37  H39 UNL     1      -7.928   4.440  16.171  1.00  0.00     0.210 HD
ENDBRANCH  18  36
TORSDOF 9
ENDMDL
MODEL 4
REMARK minimizedAffinity -9.48896027
REMARK  9 active torsions:
REMARK  status: ('A' for Active; 'I' for Inactive)
REMARK    1  A    between atoms: C2_2  and  C29_32 
REMARK    2  A    between atoms: C3_3  and  C4_4 
REMARK    3  A    between atoms: C4_4  and  C5_5 
REMARK    4  A    between atoms: C5_5  and  C6_6 
REMARK    5  A    between atoms: C6_6  and  C8_8 
REMARK    6  A    between atoms: C19_19  and  O1_20 
REMARK    7  A    between atoms: C23_24  and  O2_25 
REMARK    8  A    between atoms: C25_27  and  O3_28 
REMARK    9  A    between atoms: C29_32  and  O4_33 
ROOT
HETATM    1  C8  UNL     1       0.942   7.904  13.367  1.00  0.00    -0.002 C 
HETATM    2  C9  UNL     1       0.174   8.886  14.289  1.00  0.00     0.007 C 
HETATM    3  C10 UNL     1      -1.326   8.511  14.193  1.00  0.00     0.015 C 
HETATM    4  C11 UNL     1      -1.412   7.467  13.053  1.00  0.00    -0.013 C 
HETATM    5  C12 UNL     1      -1.535   8.287  11.726  1.00  0.00     0.021 C 
HETATM    6  C13 UNL     1      -2.574   6.477  13.045  1.00  0.00    -0.068 C 
HETATM    7  C14 UNL     1      -3.793   6.837  13.482  1.00  0.00    -0.022 C 
HETATM    8  C15 UNL     1      -5.025   6.005  13.345  1.00  0.00     0.033 C 
HETATM    9  C16 UNL     1      -4.803   4.554  12.872  1.00  0.00     0.006 C 
HETATM   10  C17 UNL     1      -3.633   4.444  11.854  1.00  0.00     0.030 C 
HETATM   11  C18 UNL     1      -2.316   5.086  12.440  1.00  0.00     0.051 C 
HETATM   12  C19 UNL     1      -1.082   5.085  11.471  1.00  0.00     0.127 C 
HETATM   13  C20 UNL     1       0.192   5.793  12.020  1.00  0.00     0.043 C 
HETATM   14  C21 UNL     1      -0.057   6.708  13.233  1.00  0.00    -0.026 C 
HETATM   15  C22 UNL     1       0.007   5.848  14.534  1.00  0.00     0.016 C 
HETATM   16  C23 UNL     1      -3.386   2.962  11.465  1.00  0.00     0.126 C 
HETATM   17  C24 UNL     1      -4.579   2.018  11.611  1.00  0.00     0.064 C 
HETATM   18  C25 UNL     1      -5.882   2.749  11.334  1.00  0.00     0.128 C 
HETATM   19  C26 UNL     1      -6.149   3.852  12.402  1.00  0.00    -0.017 C 
HETATM   20  C27 UNL     1      -6.782   3.186  13.655  1.00  0.00     0.018 C 
HETATM   21  C28 UNL     1      -7.214   4.829  11.847  1.00  0.00     0.018 C 
ENDROOT
BRANCH   1  22
HETATM   22  C6  UNL     1       2.415   7.566  13.736  1.00  0.00    -0.014 C 
HETATM   23  C7  UNL     1       2.866   7.909  15.163  1.00  0.00     0.010 C 
BRANCH  22  24
HETATM   24  C5  UNL     1       3.418   8.109  12.683  1.00  0.00     0.008 C 
BRANCH  24  25
HETATM   25  C4  UNL     1       3.192   7.768  11.204  1.00  0.00     0.028 C 
BRANCH  25  26
HETATM   26  C3  UNL     1       3.609   6.384  10.797  1.00  0.00    -0.022 C 
HETATM   27  C2  UNL     1       3.303   5.741   9.655  1.00  0.00    -0.064 C 
HETATM   28  C1  UNL     1       2.480   6.344   8.547  1.00  0.00     0.045 C 
BRANCH  27  29
HETATM   29  C29 UNL     1       3.808   4.341   9.404  1.00  0.00     0.197 C 
BRANCH  29  30
HETATM   30  O4  UNL     1       2.912   3.387   9.959  1.00  0.00    -0.397 OA
HETATM   31  H48 UNL     1       2.020   3.768   9.935  1.00  0.00     0.209 HD
ENDBRANCH  29  30
ENDBRANCH  27  29
ENDBRANCH  25  26
ENDBRANCH  24  25
ENDBRANCH  22  24
ENDBRANCH   1  22
BRANCH  12  32
HETATM   32  O1  UNL     1      -0.651   3.763  11.131  1.00  0.00    -0.395 OA
HETATM   33  H28 UNL     1      -1.299   3.415  10.479  1.00  0.00     0.210 HD
ENDBRANCH  12  32
BRANCH  16  34
HETATM   34  O2  UNL     1      -2.957   2.943  10.093  1.00  0.00    -0.395 OA
HETATM   35  H35 UNL     1      -3.771   3.128   9.573  1.00  0.00     0.210 HD
ENDBRANCH  16  34
BRANCH  18  36
HETATM   36  O3  UNL     1      -5.778   3.291  10.009  1.00  0.00    -0.395 OA
HETATM   37  H39 UNL     1      -6.681   3.509   9.715  1.00  0.00     0.210 HD
ENDBRANCH  18  36
TORSDOF 9
ENDMDL
MODEL 5
REMARK minimizedAffinity -9.41739082
REMARK  9 active torsions:
REMARK  status: ('A' for Active; 'I' for Inactive)
REMARK    1  A    between atoms: C2_2  and  C29_32 
REMARK    2  A    between atoms: C3_3  and  C4_4 
REMARK    3  A    between atoms: C4_4  and  C5_5 
REMARK    4  A    between atoms: C5_5  and  C6_6 
REMARK    5  A    between atoms: C6_6  and  C8_8 
REMARK    6  A    between atoms: C19_19  and  O1_20 
REMARK    7  A    between atoms: C23_24  and  O2_25 
REMARK    8  A    between atoms: C25_27  and  O3_28 
REMARK    9  A    between atoms: C29_32  and  O4_33 
ROOT
HETATM    1  C8  UNL     1      -2.832   7.335  13.910  1.00  0.00    -0.002 C 
HETATM    2  C9  UNL     1      -2.682   8.483  14.941  1.00  0.00     0.007 C 
HETATM    3  C10 UNL     1      -1.175   8.836  15.003  1.00  0.00     0.015 C 
HETATM    4  C11 UNL     1      -0.466   7.739  14.171  1.00  0.00    -0.013 C 
HETATM    5  C12 UNL     1      -0.223   6.544  15.152  1.00  0.00     0.021 C 
HETATM    6  C13 UNL     1       0.891   8.051  13.543  1.00  0.00    -0.068 C 
HETATM    7  C14 UNL     1       1.773   8.853  14.163  1.00  0.00    -0.022 C 
HETATM    8  C15 UNL     1       3.182   9.068  13.721  1.00  0.00     0.033 C 
HETATM    9  C16 UNL     1       3.542   8.497  12.335  1.00  0.00     0.006 C 
HETATM   10  C17 UNL     1       2.795   7.167  12.038  1.00  0.00     0.030 C 
HETATM   11  C18 UNL     1       1.238   7.345  12.220  1.00  0.00     0.051 C 
HETATM   12  C19 UNL     1       0.385   6.046  12.005  1.00  0.00     0.127 C 
HETATM   13  C20 UNL     1      -1.142   6.205  12.266  1.00  0.00     0.043 C 
HETATM   14  C21 UNL     1      -1.528   7.469  13.057  1.00  0.00    -0.026 C 
HETATM   15  C22 UNL     1      -1.699   8.655  12.057  1.00  0.00     0.016 C 
HETATM   16  C23 UNL     1       3.118   6.667  10.604  1.00  0.00     0.126 C 
HETATM   17  C24 UNL     1       4.445   7.136  10.010  1.00  0.00     0.064 C 
HETATM   18  C25 UNL     1       5.495   7.298  11.096  1.00  0.00     0.128 C 
HETATM   19  C26 UNL     1       5.111   8.435  12.088  1.00  0.00    -0.017 C 
HETATM   20  C27 UNL     1       5.534   9.797  11.470  1.00  0.00     0.018 C 
HETATM   21  C28 UNL     1       5.950   8.269  13.379  1.00  0.00     0.018 C 
ENDROOT
BRANCH   1  22
HETATM   22  C6  UNL     1      -4.180   7.223  13.141  1.00  0.00    -0.014 C 
HETATM   23  C7  UNL     1      -5.209   8.335  13.387  1.00  0.00     0.010 C 
BRANCH  22  24
HETATM   24  C5  UNL     1      -4.822   5.818  13.293  1.00  0.00     0.008 C 
BRANCH  24  25
HETATM   25  C4  UNL     1      -4.018   4.587  12.851  1.00  0.00     0.028 C 
BRANCH  25  26
HETATM   26  C3  UNL     1      -4.841   3.386  12.486  1.00  0.00    -0.022 C 
HETATM   27  C2  UNL     1      -6.180   3.318  12.371  1.00  0.00    -0.064 C 
HETATM   28  C1  UNL     1      -7.102   4.493  12.573  1.00  0.00     0.045 C 
BRANCH  27  29
HETATM   29  C29 UNL     1      -6.853   2.021  11.994  1.00  0.00     0.197 C 
BRANCH  29  30
HETATM   30  O4  UNL     1      -8.097   1.894  12.671  1.00  0.00    -0.397 OA
HETATM   31  H48 UNL     1      -8.447   2.788  12.817  1.00  0.00     0.209 HD
ENDBRANCH  29  30
ENDBRANCH  27  29
ENDBRANCH  25  26
ENDBRANCH  24  25
ENDBRANCH  22  24
ENDBRANCH   1  22
BRANCH  12  32
HETATM   32  O1  UNL     1       0.479   5.542  10.668  1.00  0.00    -0.395 OA
HETATM   33  H28 UNL     1       1.357   5.107  10.592  1.00  0.00     0.210 HD
ENDBRANCH  12  32
BRANCH  16  34
HETATM   34  O2  UNL     1       3.118   5.230  10.641  1.00  0.00    -0.395 OA
HETATM   35  H35 UNL     1       3.953   4.990  11.103  1.00  0.00     0.210 HD
ENDBRANCH  16  34
BRANCH  18  36
HETATM   36  O3  UNL     1       5.613   6.025  11.749  1.00  0.00    -0.395 OA
HETATM   37  H39 UNL     1       6.456   6.029  12.239  1.00  0.00     0.210 HD
ENDBRANCH  18  36
TORSDOF 9
ENDMDL
MODEL 6
REMARK minimizedAffinity -9.27605534
REMARK  9 active torsions:
REMARK  status: ('A' for Active; 'I' for Inactive)
REMARK    1  A    between atoms: C2_2  and  C29_32 
REMARK    2  A    between atoms: C3_3  and  C4_4 
REMARK    3  A    between atoms: C4_4  and  C5_5 
REMARK    4  A    between atoms: C5_5  and  C6_6 
REMARK    5  A    between atoms: C6_6  and  C8_8 
REMARK    6  A    between atoms: C19_19  and  O1_20 
REMARK    7  A    between atoms: C23_24  and  O2_25 
REMARK    8  A    between atoms: C25_27  and  O3_28 
REMARK    9  A    between atoms: C29_32  and  O4_33 
ROOT
HETATM    1  C8  UNL     1       0.224   7.599  13.601  1.00  0.00    -0.002 C 
HETATM    2  C9  UNL     1       0.518   6.620  12.436  1.00  0.00     0.007 C 
HETATM    3  C10 UNL     1      -0.751   5.751  12.250  1.00  0.00     0.015 C 
HETATM    4  C11 UNL     1      -1.663   6.100  13.452  1.00  0.00    -0.013 C 
HETATM    5  C12 UNL     1      -1.203   5.172  14.625  1.00  0.00     0.021 C 
HETATM    6  C13 UNL     1      -3.170   5.895  13.318  1.00  0.00    -0.068 C 
HETATM    7  C14 UNL     1      -3.669   4.878  12.594  1.00  0.00    -0.022 C 
HETATM    8  C15 UNL     1      -5.110   4.490  12.555  1.00  0.00     0.033 C 
HETATM    9  C16 UNL     1      -6.087   5.480  13.218  1.00  0.00     0.006 C 
HETATM   10  C17 UNL     1      -5.467   6.165  14.468  1.00  0.00     0.030 C 
HETATM   11  C18 UNL     1      -4.087   6.842  14.111  1.00  0.00     0.051 C 
HETATM   12  C19 UNL     1      -3.339   7.513  15.316  1.00  0.00     0.127 C 
HETATM   13  C20 UNL     1      -1.940   8.108  14.978  1.00  0.00     0.043 C 
HETATM   14  C21 UNL     1      -1.339   7.616  13.648  1.00  0.00    -0.026 C 
HETATM   15  C22 UNL     1      -1.869   8.521  12.492  1.00  0.00     0.016 C 
HETATM   16  C23 UNL     1      -6.448   7.213  15.059  1.00  0.00     0.126 C 
HETATM   17  C24 UNL     1      -7.930   6.991  14.765  1.00  0.00     0.064 C 
HETATM   18  C25 UNL     1      -8.246   5.508  14.676  1.00  0.00     0.128 C 
HETATM   19  C26 UNL     1      -7.525   4.848  13.464  1.00  0.00    -0.017 C 
HETATM   20  C27 UNL     1      -8.367   5.109  12.183  1.00  0.00     0.018 C 
HETATM   21  C28 UNL     1      -7.517   3.313  13.668  1.00  0.00     0.018 C 
ENDROOT
BRANCH   1  22
HETATM   22  C6  UNL     1       0.952   8.974  13.595  1.00  0.00    -0.014 C 
HETATM   23  C7  UNL     1       2.013   9.187  12.506  1.00  0.00     0.010 C 
BRANCH  22  24
HETATM   24  C5  UNL     1       1.503   9.348  14.998  1.00  0.00     0.008 C 
BRANCH  24  25
HETATM   25  C4  UNL     1       2.302   8.298  15.781  1.00  0.00     0.028 C 
BRANCH  25  26
HETATM   26  C3  UNL     1       3.548   7.807  15.100  1.00  0.00    -0.022 C 
HETATM   27  C2  UNL     1       4.712   8.467  14.955  1.00  0.00    -0.064 C 
HETATM   28  C1  UNL     1       4.967   9.849  15.496  1.00  0.00     0.045 C 
BRANCH  27  29
HETATM   29  C29 UNL     1       5.873   7.824  14.237  1.00  0.00     0.197 C 
BRANCH  29  30
HETATM   30  O4  UNL     1       6.114   6.522  14.754  1.00  0.00    -0.397 OA
HETATM   31  H48 UNL     1       5.267   6.165  15.065  1.00  0.00     0.209 HD
ENDBRANCH  29  30
ENDBRANCH  27  29
ENDBRANCH  25  26
ENDBRANCH  24  25
ENDBRANCH  22  24
ENDBRANCH   1  22
BRANCH  12  32
HETATM   32  O1  UNL     1      -4.075   8.603  15.881  1.00  0.00    -0.395 OA
HETATM   33  H28 UNL     1      -4.800   8.207  16.414  1.00  0.00     0.210 HD
ENDBRANCH  12  32
BRANCH  16  34
HETATM   34  O2  UNL     1      -6.262   7.218  16.485  1.00  0.00    -0.395 OA
HETATM   35  H35 UNL     1      -6.686   6.387  16.796  1.00  0.00     0.210 HD
ENDBRANCH  16  34
BRANCH  18  36
HETATM   36  O3  UNL     1      -7.848   4.925  15.927  1.00  0.00    -0.395 OA
HETATM   37  H39 UNL     1      -8.291   4.060  15.996  1.00  0.00     0.210 HD
ENDBRANCH  18  36
TORSDOF 9
ENDMDL
MODEL 7
REMARK minimizedAffinity -9.2432909
REMARK  9 active torsions:
REMARK  status: ('A' for Active; 'I' for Inactive)
REMARK    1  A    between atoms: C2_2  and  C29_32 
REMARK    2  A    between atoms: C3_3  and  C4_4 
REMARK    3  A    between atoms: C4_4  and  C5_5 
REMARK    4  A    between atoms: C5_5  and  C6_6 
REMARK    5  A    between atoms: C6_6  and  C8_8 
REMARK    6  A    between atoms: C19_19  and  O1_20 
REMARK    7  A    between atoms: C23_24  and  O2_25 
REMARK    8  A    between atoms: C25_27  and  O3_28 
REMARK    9  A    between atoms: C29_32  and  O4_33 
ROOT
HETATM    1  C8  UNL     1       0.253   7.522  13.703  1.00  0.00    -0.002 C 
HETATM    2  C9  UNL     1       0.548   6.537  12.543  1.00  0.00     0.007 C 
HETATM    3  C10 UNL     1      -0.732   5.689  12.338  1.00  0.00     0.015 C 
HETATM    4  C11 UNL     1      -1.656   6.054  13.526  1.00  0.00    -0.013 C 
HETATM    5  C12 UNL     1      -1.229   5.119  14.706  1.00  0.00     0.021 C 
HETATM    6  C13 UNL     1      -3.164   5.873  13.370  1.00  0.00    -0.068 C 
HETATM    7  C14 UNL     1      -3.668   4.864  12.639  1.00  0.00    -0.022 C 
HETATM    8  C15 UNL     1      -5.115   4.500  12.578  1.00  0.00     0.033 C 
HETATM    9  C16 UNL     1      -6.086   5.507  13.226  1.00  0.00     0.006 C 
HETATM   10  C17 UNL     1      -5.473   6.182  14.486  1.00  0.00     0.030 C 
HETATM   11  C18 UNL     1      -4.077   6.836  14.149  1.00  0.00     0.051 C 
HETATM   12  C19 UNL     1      -3.336   7.495  15.364  1.00  0.00     0.127 C 
HETATM   13  C20 UNL     1      -1.922   8.067  15.047  1.00  0.00     0.043 C 
HETATM   14  C21 UNL     1      -1.310   7.565  13.727  1.00  0.00    -0.026 C 
HETATM   15  C22 UNL     1      -1.807   8.478  12.563  1.00  0.00     0.016 C 
HETATM   16  C23 UNL     1      -6.445   7.246  15.062  1.00  0.00     0.126 C 
HETATM   17  C24 UNL     1      -7.926   7.048  14.746  1.00  0.00     0.064 C 
HETATM   18  C25 UNL     1      -8.265   5.570  14.652  1.00  0.00     0.128 C 
HETATM   19  C26 UNL     1      -7.537   4.898  13.451  1.00  0.00    -0.017 C 
HETATM   20  C27 UNL     1      -8.355   5.173  12.158  1.00  0.00     0.018 C 
HETATM   21  C28 UNL     1      -7.557   3.364  13.656  1.00  0.00     0.018 C 
ENDROOT
BRANCH   1  22
HETATM   22  C6  UNL     1       1.004   8.884  13.707  1.00  0.00    -0.014 C 
HETATM   23  C7  UNL     1       1.904   9.180  12.498  1.00  0.00     0.010 C 
BRANCH  22  24
HETATM   24  C5  UNL     1       1.758   9.129  15.043  1.00  0.00     0.008 C 
BRANCH  24  25
HETATM   25  C4  UNL     1       1.040   9.890  16.166  1.00  0.00     0.028 C 
BRANCH  25  26
HETATM   26  C3  UNL     1       1.856  10.117  17.405  1.00  0.00    -0.022 C 
HETATM   27  C2  UNL     1       1.438  10.639  18.573  1.00  0.00    -0.064 C 
HETATM   28  C1  UNL     1       0.021  11.073  18.841  1.00  0.00     0.045 C 
BRANCH  27  29
HETATM   29  C29 UNL     1       2.397  10.800  19.727  1.00  0.00     0.197 C 
BRANCH  29  30
HETATM   30  O4  UNL     1       2.744   9.529  20.263  1.00  0.00    -0.397 OA
HETATM   31  H48 UNL     1       2.702   8.882  19.541  1.00  0.00     0.209 HD
ENDBRANCH  29  30
ENDBRANCH  27  29
ENDBRANCH  25  26
ENDBRANCH  24  25
ENDBRANCH  22  24
ENDBRANCH   1  22
BRANCH  12  32
HETATM   32  O1  UNL     1      -4.062   8.597  15.919  1.00  0.00    -0.395 OA
HETATM   33  H28 UNL     1      -4.801   8.213  16.440  1.00  0.00     0.210 HD
ENDBRANCH  12  32
BRANCH  16  34
HETATM   34  O2  UNL     1      -6.281   7.249  16.490  1.00  0.00    -0.395 OA
HETATM   35  H35 UNL     1      -6.722   6.425  16.795  1.00  0.00     0.210 HD
ENDBRANCH  16  34
BRANCH  18  36
HETATM   36  O3  UNL     1      -7.896   4.982  15.909  1.00  0.00    -0.395 OA
HETATM   37  H39 UNL     1      -8.354   4.124  15.971  1.00  0.00     0.210 HD
ENDBRANCH  18  36
TORSDOF 9
ENDMDL
MODEL 8
REMARK minimizedAffinity -9.22797775
REMARK  9 active torsions:
REMARK  status: ('A' for Active; 'I' for Inactive)
REMARK    1  A    between atoms: C2_2  and  C29_32 
REMARK    2  A    between atoms: C3_3  and  C4_4 
REMARK    3  A    between atoms: C4_4  and  C5_5 
REMARK    4  A    between atoms: C5_5  and  C6_6 
REMARK    5  A    between atoms: C6_6  and  C8_8 
REMARK    6  A    between atoms: C19_19  and  O1_20 
REMARK    7  A    between atoms: C23_24  and  O2_25 
REMARK    8  A    between atoms: C25_27  and  O3_28 
REMARK    9  A    between atoms: C29_32  and  O4_33 
ROOT
HETATM    1  C8  UNL     1      -1.457   5.926  12.113  1.00  0.00    -0.002 C 
HETATM    2  C9  UNL     1      -0.823   4.664  11.474  1.00  0.00     0.007 C 
HETATM    3  C10 UNL     1       0.659   5.005  11.181  1.00  0.00     0.015 C 
HETATM    4  C11 UNL     1       0.788   6.524  11.456  1.00  0.00    -0.013 C 
HETATM    5  C12 UNL     1       0.365   7.239  10.130  1.00  0.00     0.021 C 
HETATM    6  C13 UNL     1       2.157   7.093  11.823  1.00  0.00    -0.068 C 
HETATM    7  C14 UNL     1       3.283   6.586  11.292  1.00  0.00    -0.022 C 
HETATM    8  C15 UNL     1       4.640   7.188  11.446  1.00  0.00     0.033 C 
HETATM    9  C16 UNL     1       4.752   8.333  12.472  1.00  0.00     0.006 C 
HETATM   10  C17 UNL     1       3.468   9.209  12.513  1.00  0.00     0.030 C 
HETATM   11  C18 UNL     1       2.188   8.319  12.753  1.00  0.00     0.051 C 
HETATM   12  C19 UNL     1       0.824   9.093  12.752  1.00  0.00     0.127 C 
HETATM   13  C20 UNL     1      -0.444   8.202  12.906  1.00  0.00     0.043 C 
HETATM   14  C21 UNL     1      -0.209   6.703  12.646  1.00  0.00    -0.026 C 
HETATM   15  C22 UNL     1       0.275   6.033  13.970  1.00  0.00     0.016 C 
HETATM   16  C23 UNL     1       3.585  10.297  13.613  1.00  0.00     0.126 C 
HETATM   17  C24 UNL     1       5.002  10.713  14.004  1.00  0.00     0.064 C 
HETATM   18  C25 UNL     1       5.937  10.628  12.809  1.00  0.00     0.128 C 
HETATM   19  C26 UNL     1       6.103   9.157  12.324  1.00  0.00    -0.017 C 
HETATM   20  C27 UNL     1       7.168   8.457  13.214  1.00  0.00     0.018 C 
HETATM   21  C28 UNL     1       6.682   9.172  10.889  1.00  0.00     0.018 C 
ENDROOT
BRANCH   1  22
HETATM   22  C6  UNL     1      -2.644   5.722  13.097  1.00  0.00    -0.014 C 
HETATM   23  C7  UNL     1      -2.408   6.132  14.558  1.00  0.00     0.010 C 
BRANCH  22  24
HETATM   24  C5  UNL     1      -3.239   4.291  13.004  1.00  0.00     0.008 C 
BRANCH  24  25
HETATM   25  C4  UNL     1      -4.104   3.929  11.788  1.00  0.00     0.028 C 
BRANCH  25  26
HETATM   26  C3  UNL     1      -5.344   3.143  12.099  1.00  0.00    -0.022 C 
HETATM   27  C2  UNL     1      -6.448   3.578  12.734  1.00  0.00    -0.064 C 
HETATM   28  C1  UNL     1      -6.631   4.988  13.232  1.00  0.00     0.045 C 
BRANCH  27  29
HETATM   29  C29 UNL     1      -7.614   2.649  12.968  1.00  0.00     0.197 C 
BRANCH  29  30
HETATM   30  O4  UNL     1      -8.806   3.396  13.179  1.00  0.00    -0.397 OA
HETATM   31  H48 UNL     1      -8.728   4.225  12.681  1.00  0.00     0.209 HD
ENDBRANCH  29  30
ENDBRANCH  27  29
ENDBRANCH  25  26
ENDBRANCH  24  25
ENDBRANCH  22  24
ENDBRANCH   1  22
BRANCH  12  32
HETATM   32  O1  UNL     1       0.733  10.049  13.813  1.00  0.00    -0.395 OA
HETATM   33  H28 UNL     1       1.290  10.815  13.552  1.00  0.00     0.210 HD
ENDBRANCH  12  32
BRANCH  16  34
HETATM   34  O2  UNL     1       2.883  11.460  13.143  1.00  0.00    -0.395 OA
HETATM   35  H35 UNL     1       3.469  11.845  12.453  1.00  0.00     0.210 HD
ENDBRANCH  16  34
BRANCH  18  36
HETATM   36  O3  UNL     1       5.385  11.476  11.791  1.00  0.00    -0.395 OA
HETATM   37  H39 UNL     1       6.094  11.654  11.147  1.00  0.00     0.210 HD
ENDBRANCH  18  36
TORSDOF 9
ENDMDL
MODEL 9
REMARK minimizedAffinity -8.76875591
REMARK  9 active torsions:
REMARK  status: ('A' for Active; 'I' for Inactive)
REMARK    1  A    between atoms: C2_2  and  C29_32 
REMARK    2  A    between atoms: C3_3  and  C4_4 
REMARK    3  A    between atoms: C4_4  and  C5_5 
REMARK    4  A    between atoms: C5_5  and  C6_6 
REMARK    5  A    between atoms: C6_6  and  C8_8 
REMARK    6  A    between atoms: C19_19  and  O1_20 
REMARK    7  A    between atoms: C23_24  and  O2_25 
REMARK    8  A    between atoms: C25_27  and  O3_28 
REMARK    9  A    between atoms: C29_32  and  O4_33 
ROOT
HETATM    1  C8  UNL     1       1.250   6.966  12.179  1.00  0.00    -0.002 C 
HETATM    2  C9  UNL     1       1.100   5.794  11.176  1.00  0.00     0.007 C 
HETATM    3  C10 UNL     1      -0.311   5.193  11.395  1.00  0.00     0.015 C 
HETATM    4  C11 UNL     1      -0.857   5.891  12.665  1.00  0.00    -0.013 C 
HETATM    5  C12 UNL     1      -0.320   5.060  13.877  1.00  0.00     0.021 C 
HETATM    6  C13 UNL     1      -2.368   5.991  12.859  1.00  0.00    -0.068 C 
HETATM    7  C14 UNL     1      -3.186   5.010  12.439  1.00  0.00    -0.022 C 
HETATM    8  C15 UNL     1      -4.645   4.933  12.745  1.00  0.00     0.033 C 
HETATM    9  C16 UNL     1      -5.261   6.189  13.392  1.00  0.00     0.006 C 
HETATM   10  C17 UNL     1      -4.268   6.896  14.357  1.00  0.00     0.030 C 
HETATM   11  C18 UNL     1      -2.905   7.211  13.628  1.00  0.00     0.051 C 
HETATM   12  C19 UNL     1      -1.801   7.872  14.526  1.00  0.00     0.127 C 
HETATM   13  C20 UNL     1      -0.430   8.106  13.827  1.00  0.00     0.043 C 
HETATM   14  C21 UNL     1      -0.236   7.318  12.519  1.00  0.00    -0.026 C 
HETATM   15  C22 UNL     1      -0.840   8.143  11.340  1.00  0.00     0.016 C 
HETATM   16  C23 UNL     1      -4.892   8.199  14.924  1.00  0.00     0.126 C 
HETATM   17  C24 UNL     1      -6.418   8.255  14.962  1.00  0.00     0.064 C 
HETATM   18  C25 UNL     1      -7.003   6.874  15.205  1.00  0.00     0.128 C 
HETATM   19  C26 UNL     1      -6.697   5.914  14.017  1.00  0.00    -0.017 C 
HETATM   20  C27 UNL     1      -7.742   6.165  12.894  1.00  0.00     0.018 C 
HETATM   21  C28 UNL     1      -6.914   4.456  14.490  1.00  0.00     0.018 C 
ENDROOT
BRANCH   1  22
HETATM   22  C6  UNL     1       2.190   8.141  11.786  1.00  0.00    -0.014 C 
HETATM   23  C7  UNL     1       2.982   7.985  10.480  1.00  0.00     0.010 C 
BRANCH  22  24
HETATM   24  C5  UNL     1       3.116   8.564  12.959  1.00  0.00     0.008 C 
BRANCH  24  25
HETATM   25  C4  UNL     1       4.507   9.124  12.635  1.00  0.00     0.028 C 
BRANCH  25  26
HETATM   26  C3  UNL     1       5.376   9.401  13.828  1.00  0.00    -0.022 C 
HETATM   27  C2  UNL     1       6.261   8.567  14.404  1.00  0.00    -0.064 C 
HETATM   28  C1  UNL     1       6.551   7.175  13.906  1.00  0.00     0.045 C 
BRANCH  27  29
HETATM   29  C29 UNL     1       7.059   9.007  15.607  1.00  0.00     0.197 C 
BRANCH  29  30
HETATM   30  O4  UNL     1       7.063   7.986  16.597  1.00  0.00    -0.397 OA
HETATM   31  H48 UNL     1       6.995   7.132  16.142  1.00  0.00     0.209 HD
ENDBRANCH  29  30
ENDBRANCH  27  29
ENDBRANCH  25  26
ENDBRANCH  24  25
ENDBRANCH  22  24
ENDBRANCH   1  22
BRANCH  12  32
HETATM   32  O1  UNL     1      -2.190   9.160  15.015  1.00  0.00    -0.395 OA
HETATM   33  H28 UNL     1      -2.836   9.004  15.739  1.00  0.00     0.210 HD
ENDBRANCH  12  32
BRANCH  16  34
HETATM   34  O2  UNL     1      -4.397   8.365  16.264  1.00  0.00    -0.395 OA
HETATM   35  H35 UNL     1      -4.880   7.693  16.795  1.00  0.00     0.210 HD
ENDBRANCH  16  34
BRANCH  18  36
HETATM   36  O3  UNL     1      -6.446   6.401  16.441  1.00  0.00    -0.395 OA
HETATM   37  H39 UNL     1      -7.009   5.667  16.748  1.00  0.00     0.210 HD
ENDBRANCH  18  36
TORSDOF 9
ENDMDL
