MODEL 1
REMARK minimizedAffinity -8.94555855
REMARK  6 active torsions:
REMARK  status: ('A' for Active; 'I' for Inactive)
REMARK    1  A    between atoms: C2_2  and  C30_31 
REMARK    2  A    between atoms: C3_3  and  C4_4 
REMARK    3  A    between atoms: C4_4  and  C5_5 
REMARK    4  A    between atoms: C5_5  and  C6_6 
REMARK    5  A    between atoms: C6_6  and  C8_8 
REMARK    6  A    between atoms: C30_31  and  O3_33 
ROOT
HETATM    1  C8  UNL     1      -5.243   7.097  14.657  1.00  0.00    -0.002 C 
HETATM    2  C9  UNL     1      -5.642   8.055  13.490  1.00  0.00     0.007 C 
HETATM    3  C10 UNL     1      -4.344   8.567  12.840  1.00  0.00     0.015 C 
HETATM    4  C11 UNL     1      -3.239   8.213  13.851  1.00  0.00    -0.013 C 
HETATM    5  C12 UNL     1      -3.261   9.344  14.932  1.00  0.00     0.021 C 
HETATM    6  C13 UNL     1      -1.789   8.149  13.373  1.00  0.00    -0.070 C 
HETATM    7  C14 UNL     1      -1.364   8.866  12.321  1.00  0.00    -0.022 C 
HETATM    8  C15 UNL     1       0.084   9.056  12.039  1.00  0.00     0.034 C 
HETATM    9  C16 UNL     1       0.897   7.766  12.221  1.00  0.00     0.013 C 
HETATM   10  C17 UNL     1       0.775   6.736  11.026  1.00  0.00     0.018 C 
HETATM   11  C18 UNL     1       2.185   6.244  10.607  1.00  0.00     0.023 C 
HETATM   12  C19 UNL     1       0.147   7.310   9.735  1.00  0.00     0.023 C 
HETATM   13  C20 UNL     1      -0.026   5.509  11.450  1.00  0.00     0.135 C 
HETATM   14  O1  UNL     1      -0.952   5.056  10.772  1.00  0.00    -0.297 OA
HETATM   15  C21 UNL     1       0.430   4.771  12.681  1.00  0.00     0.080 C 
HETATM   16  C22 UNL     1       1.110   5.675  13.700  1.00  0.00     0.017 C 
HETATM   17  C23 UNL     1       0.672   7.166  13.680  1.00  0.00    -0.031 C 
HETATM   18  C24 UNL     1       1.675   7.895  14.634  1.00  0.00     0.016 C 
HETATM   19  C25 UNL     1      -0.788   7.456  14.301  1.00  0.00     0.024 C 
HETATM   20  C26 UNL     1      -1.379   6.282  15.134  1.00  0.00     0.010 C 
HETATM   21  C27 UNL     1      -2.855   6.407  15.549  1.00  0.00     0.011 C 
HETATM   22  C28 UNL     1      -3.737   6.811  14.352  1.00  0.00    -0.029 C 
HETATM   23  C29 UNL     1      -3.637   5.715  13.246  1.00  0.00     0.016 C 
ENDROOT
BRANCH   1  24
HETATM   24  C6  UNL     1      -6.253   5.913  14.805  1.00  0.00    -0.014 C 
HETATM   25  C7  UNL     1      -6.796   5.808  16.234  1.00  0.00     0.010 C 
BRANCH  24  26
HETATM   26  C5  UNL     1      -7.434   6.077  13.805  1.00  0.00     0.008 C 
BRANCH  26  27
HETATM   27  C4  UNL     1      -7.611   4.915  12.813  1.00  0.00     0.028 C 
BRANCH  27  28
HETATM   28  C3  UNL     1      -6.337   4.363  12.236  1.00  0.00    -0.013 C 
HETATM   29  C2  UNL     1      -6.048   3.085  11.911  1.00  0.00     0.008 C 
HETATM   30  C1  UNL     1      -4.712   2.718  11.327  1.00  0.00     0.055 C 
BRANCH  29  31
HETATM   31  C30 UNL     1      -7.005   1.974  12.154  1.00  0.00     0.171 C 
HETATM   32  O2  UNL     1      -7.939   1.953  12.936  1.00  0.00    -0.646 OA
BRANCH  31  33
HETATM   33  O3  UNL     1      -6.725   0.898  11.397  1.00  0.00    -0.773 OA
HETATM   34  H46 UNL     1      -7.411   0.253  11.669  1.00  0.00     0.167 HD
ENDBRANCH  31  33
ENDBRANCH  29  31
ENDBRANCH  27  28
ENDBRANCH  26  27
ENDBRANCH  24  26
ENDBRANCH   1  24
TORSDOF 6
ENDMDL
MODEL 2
REMARK minimizedAffinity -8.21563911
REMARK  6 active torsions:
REMARK  status: ('A' for Active; 'I' for Inactive)
REMARK    1  A    between atoms: C2_2  and  C30_31 
REMARK    2  A    between atoms: C3_3  and  C4_4 
REMARK    3  A    between atoms: C4_4  and  C5_5 
REMARK    4  A    between atoms: C5_5  and  C6_6 
REMARK    5  A    between atoms: C6_6  and  C8_8 
REMARK    6  A    between atoms: C30_31  and  O3_33 
ROOT
HETATM    1  C8  UNL     1      -1.760   6.686  14.096  1.00  0.00    -0.002 C 
HETATM    2  C9  UNL     1      -0.501   6.128  14.833  1.00  0.00     0.007 C 
HETATM    3  C10 UNL     1       0.222   7.317  15.491  1.00  0.00     0.015 C 
HETATM    4  C11 UNL     1      -0.395   8.561  14.826  1.00  0.00    -0.013 C 
HETATM    5  C12 UNL     1       0.349   8.737  13.460  1.00  0.00     0.021 C 
HETATM    6  C13 UNL     1      -0.269   9.914  15.524  1.00  0.00    -0.070 C 
HETATM    7  C14 UNL     1       0.748  10.183  16.358  1.00  0.00    -0.022 C 
HETATM    8  C15 UNL     1       1.056  11.571  16.793  1.00  0.00     0.034 C 
HETATM    9  C16 UNL     1      -0.204  12.374  17.148  1.00  0.00     0.013 C 
HETATM   10  C17 UNL     1      -0.820  12.041  18.566  1.00  0.00     0.018 C 
HETATM   11  C18 UNL     1      -1.120  13.354  19.334  1.00  0.00     0.023 C 
HETATM   12  C19 UNL     1       0.106  11.228  19.502  1.00  0.00     0.023 C 
HETATM   13  C20 UNL     1      -2.140  11.289  18.419  1.00  0.00     0.135 C 
HETATM   14  O1  UNL     1      -2.388  10.257  19.049  1.00  0.00    -0.297 OA
HETATM   15  C21 UNL     1      -3.208  11.919  17.563  1.00  0.00     0.080 C 
HETATM   16  C22 UNL     1      -2.641  12.772  16.437  1.00  0.00     0.017 C 
HETATM   17  C23 UNL     1      -1.229  12.370  15.927  1.00  0.00    -0.031 C 
HETATM   18  C24 UNL     1      -0.802  13.528  14.967  1.00  0.00     0.016 C 
HETATM   19  C25 UNL     1      -1.185  11.034  15.025  1.00  0.00     0.024 C 
HETATM   20  C26 UNL     1      -2.574  10.558  14.511  1.00  0.00     0.010 C 
HETATM   21  C27 UNL     1      -2.623   9.169  13.850  1.00  0.00     0.011 C 
HETATM   22  C28 UNL     1      -1.897   8.117  14.709  1.00  0.00    -0.029 C 
HETATM   23  C29 UNL     1      -2.596   8.016  16.100  1.00  0.00     0.016 C 
ENDROOT
BRANCH   1  24
HETATM   24  C6  UNL     1      -2.959   5.686  14.163  1.00  0.00    -0.014 C 
HETATM   25  C7  UNL     1      -3.722   5.805  15.487  1.00  0.00     0.010 C 
BRANCH  24  26
HETATM   26  C5  UNL     1      -3.933   5.924  12.973  1.00  0.00     0.008 C 
BRANCH  26  27
HETATM   27  C4  UNL     1      -5.234   5.104  13.024  1.00  0.00     0.028 C 
BRANCH  27  28
HETATM   28  C3  UNL     1      -5.224   3.835  12.216  1.00  0.00    -0.013 C 
HETATM   29  C2  UNL     1      -6.145   2.848  12.194  1.00  0.00     0.008 C 
HETATM   30  C1  UNL     1      -5.972   1.648  11.304  1.00  0.00     0.055 C 
BRANCH  29  31
HETATM   31  C30 UNL     1      -7.343   2.868  13.073  1.00  0.00     0.171 C 
HETATM   32  O2  UNL     1      -7.495   3.485  14.112  1.00  0.00    -0.646 OA
BRANCH  31  33
HETATM   33  O3  UNL     1      -8.320   2.071  12.605  1.00  0.00    -0.773 OA
HETATM   34  H46 UNL     1      -9.026   2.168  13.279  1.00  0.00     0.167 HD
ENDBRANCH  31  33
ENDBRANCH  29  31
ENDBRANCH  27  28
ENDBRANCH  26  27
ENDBRANCH  24  26
ENDBRANCH   1  24
TORSDOF 6
ENDMDL
MODEL 3
REMARK minimizedAffinity -8.11168957
REMARK  6 active torsions:
REMARK  status: ('A' for Active; 'I' for Inactive)
REMARK    1  A    between atoms: C2_2  and  C30_31 
REMARK    2  A    between atoms: C3_3  and  C4_4 
REMARK    3  A    between atoms: C4_4  and  C5_5 
REMARK    4  A    between atoms: C5_5  and  C6_6 
REMARK    5  A    between atoms: C6_6  and  C8_8 
REMARK    6  A    between atoms: C30_31  and  O3_33 
ROOT
HETATM    1  C8  UNL     1      -0.326   6.356  12.055  1.00  0.00    -0.002 C 
HETATM    2  C9  UNL     1       0.458   5.150  11.446  1.00  0.00     0.007 C 
HETATM    3  C10 UNL     1       1.932   5.571  11.310  1.00  0.00     0.015 C 
HETATM    4  C11 UNL     1       1.915   7.101  11.478  1.00  0.00    -0.013 C 
HETATM    5  C12 UNL     1       1.515   7.687  10.082  1.00  0.00     0.021 C 
HETATM    6  C13 UNL     1       3.209   7.820  11.854  1.00  0.00    -0.070 C 
HETATM    7  C14 UNL     1       4.412   7.314  11.538  1.00  0.00    -0.022 C 
HETATM    8  C15 UNL     1       5.649   8.136  11.616  1.00  0.00     0.034 C 
HETATM    9  C16 UNL     1       5.706   9.003  12.881  1.00  0.00     0.013 C 
HETATM   10  C17 UNL     1       6.113   8.224  14.197  1.00  0.00     0.018 C 
HETATM   11  C18 UNL     1       7.214   9.009  14.956  1.00  0.00     0.023 C 
HETATM   12  C19 UNL     1       6.708   6.817  13.960  1.00  0.00     0.023 C 
HETATM   13  C20 UNL     1       4.918   8.094  15.137  1.00  0.00     0.135 C 
HETATM   14  O1  UNL     1       4.600   7.020  15.657  1.00  0.00    -0.297 OA
HETATM   15  C21 UNL     1       4.196   9.357  15.526  1.00  0.00     0.080 C 
HETATM   16  C22 UNL     1       4.253  10.430  14.448  1.00  0.00     0.017 C 
HETATM   17  C23 UNL     1       4.405   9.918  12.989  1.00  0.00    -0.031 C 
HETATM   18  C24 UNL     1       4.676  11.201  12.136  1.00  0.00     0.016 C 
HETATM   19  C25 UNL     1       3.076   9.261  12.356  1.00  0.00     0.024 C 
HETATM   20  C26 UNL     1       1.770   9.555  13.149  1.00  0.00     0.010 C 
HETATM   21  C27 UNL     1       0.518   8.765  12.731  1.00  0.00     0.011 C 
HETATM   22  C28 UNL     1       0.826   7.262  12.598  1.00  0.00    -0.029 C 
HETATM   23  C29 UNL     1       1.307   6.711  13.976  1.00  0.00     0.016 C 
ENDROOT
BRANCH   1  24
HETATM   24  C6  UNL     1      -1.467   5.880  13.012  1.00  0.00    -0.014 C 
HETATM   25  C7  UNL     1      -2.566   6.939  13.152  1.00  0.00     0.010 C 
BRANCH  24  26
HETATM   26  C5  UNL     1      -2.085   4.546  12.502  1.00  0.00     0.008 C 
BRANCH  26  27
HETATM   27  C4  UNL     1      -3.621   4.526  12.435  1.00  0.00     0.028 C 
BRANCH  27  28
HETATM   28  C3  UNL     1      -4.224   3.256  11.901  1.00  0.00    -0.013 C 
HETATM   29  C2  UNL     1      -5.510   2.850  11.954  1.00  0.00     0.008 C 
HETATM   30  C1  UNL     1      -5.935   1.541  11.347  1.00  0.00     0.055 C 
BRANCH  29  31
HETATM   31  C30 UNL     1      -6.558   3.641  12.651  1.00  0.00     0.171 C 
HETATM   32  O2  UNL     1      -6.779   4.835  12.553  1.00  0.00    -0.646 OA
BRANCH  31  33
HETATM   33  O3  UNL     1      -7.292   2.878  13.481  1.00  0.00    -0.773 OA
HETATM   34  H46 UNL     1      -7.917   3.520  13.876  1.00  0.00     0.167 HD
ENDBRANCH  31  33
ENDBRANCH  29  31
ENDBRANCH  27  28
ENDBRANCH  26  27
ENDBRANCH  24  26
ENDBRANCH   1  24
TORSDOF 6
ENDMDL
MODEL 4
REMARK minimizedAffinity -8.08015728
REMARK  6 active torsions:
REMARK  status: ('A' for Active; 'I' for Inactive)
REMARK    1  A    between atoms: C2_2  and  C30_31 
REMARK    2  A    between atoms: C3_3  and  C4_4 
REMARK    3  A    between atoms: C4_4  and  C5_5 
REMARK    4  A    between atoms: C5_5  and  C6_6 
REMARK    5  A    between atoms: C6_6  and  C8_8 
REMARK    6  A    between atoms: C30_31  and  O3_33 
ROOT
HETATM    1  C8  UNL     1      -0.578   6.385  12.375  1.00  0.00    -0.002 C 
HETATM    2  C9  UNL     1       0.278   5.366  11.557  1.00  0.00     0.007 C 
HETATM    3  C10 UNL     1       1.686   5.965  11.391  1.00  0.00     0.015 C 
HETATM    4  C11 UNL     1       1.523   7.448  11.771  1.00  0.00    -0.013 C 
HETATM    5  C12 UNL     1       0.962   8.164  10.498  1.00  0.00     0.021 C 
HETATM    6  C13 UNL     1       2.761   8.252  12.165  1.00  0.00    -0.070 C 
HETATM    7  C14 UNL     1       3.982   7.931  11.709  1.00  0.00    -0.022 C 
HETATM    8  C15 UNL     1       5.131   8.869  11.825  1.00  0.00     0.034 C 
HETATM    9  C16 UNL     1       5.194   9.563  13.193  1.00  0.00     0.013 C 
HETATM   10  C17 UNL     1       5.777   8.668  14.360  1.00  0.00     0.018 C 
HETATM   11  C18 UNL     1       6.845   9.464  15.153  1.00  0.00     0.023 C 
HETATM   12  C19 UNL     1       6.495   7.380  13.894  1.00  0.00     0.023 C 
HETATM   13  C20 UNL     1       4.677   8.281  15.344  1.00  0.00     0.135 C 
HETATM   14  O1  UNL     1       4.511   7.119  15.727  1.00  0.00    -0.297 OA
HETATM   15  C21 UNL     1       3.859   9.392  15.948  1.00  0.00     0.080 C 
HETATM   16  C22 UNL     1       3.724  10.598  15.029  1.00  0.00     0.017 C 
HETATM   17  C23 UNL     1       3.817  10.303  13.506  1.00  0.00    -0.031 C 
HETATM   18  C24 UNL     1       3.888  11.709  12.825  1.00  0.00     0.016 C 
HETATM   19  C25 UNL     1       2.518   9.589  12.869  1.00  0.00     0.024 C 
HETATM   20  C26 UNL     1       1.253   9.628  13.774  1.00  0.00     0.010 C 
HETATM   21  C27 UNL     1       0.061   8.764  13.326  1.00  0.00     0.011 C 
HETATM   22  C28 UNL     1       0.512   7.336  12.967  1.00  0.00    -0.029 C 
HETATM   23  C29 UNL     1       1.150   6.666  14.223  1.00  0.00     0.016 C 
ENDROOT
BRANCH   1  24
HETATM   24  C6  UNL     1      -1.588   5.662  13.323  1.00  0.00    -0.014 C 
HETATM   25  C7  UNL     1      -1.578   6.272  14.730  1.00  0.00     0.010 C 
BRANCH  24  26
HETATM   26  C5  UNL     1      -3.027   5.723  12.735  1.00  0.00     0.008 C 
BRANCH  26  27
HETATM   27  C4  UNL     1      -3.639   4.359  12.371  1.00  0.00     0.028 C 
BRANCH  27  28
HETATM   28  C3  UNL     1      -5.059   4.152  12.821  1.00  0.00    -0.013 C 
HETATM   29  C2  UNL     1      -5.931   3.197  12.433  1.00  0.00     0.008 C 
HETATM   30  C1  UNL     1      -7.319   3.137  13.007  1.00  0.00     0.055 C 
BRANCH  29  31
HETATM   31  C30 UNL     1      -5.588   2.193  11.392  1.00  0.00     0.171 C 
HETATM   32  O2  UNL     1      -5.444   0.992  11.533  1.00  0.00    -0.646 OA
BRANCH  31  33
HETATM   33  O3  UNL     1      -5.416   2.763  10.185  1.00  0.00    -0.773 OA
HETATM   34  H46 UNL     1      -5.184   2.002   9.613  1.00  0.00     0.167 HD
ENDBRANCH  31  33
ENDBRANCH  29  31
ENDBRANCH  27  28
ENDBRANCH  26  27
ENDBRANCH  24  26
ENDBRANCH   1  24
TORSDOF 6
ENDMDL
MODEL 5
REMARK minimizedAffinity -7.80729342
REMARK  6 active torsions:
REMARK  status: ('A' for Active; 'I' for Inactive)
REMARK    1  A    between atoms: C2_2  and  C30_31 
REMARK    2  A    between atoms: C3_3  and  C4_4 
REMARK    3  A    between atoms: C4_4  and  C5_5 
REMARK    4  A    between atoms: C5_5  and  C6_6 
REMARK    5  A    between atoms: C6_6  and  C8_8 
REMARK    6  A    between atoms: C30_31  and  O3_33 
ROOT
HETATM    1  C8  UNL     1       5.677  13.090  22.900  1.00  0.00    -0.002 C 
HETATM    2  C9  UNL     1       5.641  11.541  23.095  1.00  0.00     0.007 C 
HETATM    3  C10 UNL     1       4.362  11.014  22.419  1.00  0.00     0.015 C 
HETATM    4  C11 UNL     1       3.504  12.270  22.181  1.00  0.00    -0.013 C 
HETATM    5  C12 UNL     1       2.783  12.567  23.537  1.00  0.00     0.021 C 
HETATM    6  C13 UNL     1       2.387  12.218  21.140  1.00  0.00    -0.070 C 
HETATM    7  C14 UNL     1       1.777  11.066  20.821  1.00  0.00    -0.022 C 
HETATM    8  C15 UNL     1       0.501  11.043  20.057  1.00  0.00     0.034 C 
HETATM    9  C16 UNL     1       0.491  12.041  18.890  1.00  0.00     0.013 C 
HETATM   10  C17 UNL     1       1.292  11.566  17.611  1.00  0.00     0.018 C 
HETATM   11  C18 UNL     1       0.429  11.779  16.339  1.00  0.00     0.023 C 
HETATM   12  C19 UNL     1       1.668  10.066  17.599  1.00  0.00     0.023 C 
HETATM   13  C20 UNL     1       2.566  12.387  17.437  1.00  0.00     0.135 C 
HETATM   14  O1  UNL     1       3.666  11.865  17.232  1.00  0.00    -0.297 OA
HETATM   15  C21 UNL     1       2.430  13.886  17.394  1.00  0.00     0.080 C 
HETATM   16  C22 UNL     1       1.252  14.399  18.210  1.00  0.00     0.017 C 
HETATM   17  C23 UNL     1       0.820  13.511  19.410  1.00  0.00    -0.031 C 
HETATM   18  C24 UNL     1      -0.525  14.132  19.910  1.00  0.00     0.016 C 
HETATM   19  C25 UNL     1       1.809  13.560  20.684  1.00  0.00     0.024 C 
HETATM   20  C26 UNL     1       2.828  14.735  20.664  1.00  0.00     0.010 C 
HETATM   21  C27 UNL     1       3.943  14.697  21.724  1.00  0.00     0.011 C 
HETATM   22  C28 UNL     1       4.611  13.310  21.779  1.00  0.00    -0.029 C 
HETATM   23  C29 UNL     1       5.250  12.990  20.392  1.00  0.00     0.016 C 
ENDROOT
BRANCH   1  24
HETATM   24  C6  UNL     1       7.137  13.615  22.708  1.00  0.00    -0.014 C 
HETATM   25  C7  UNL     1       7.381  14.908  23.494  1.00  0.00     0.010 C 
BRANCH  24  26
HETATM   26  C5  UNL     1       8.166  12.533  23.145  1.00  0.00     0.008 C 
BRANCH  26  27
HETATM   27  C4  UNL     1       9.377  12.373  22.210  1.00  0.00     0.028 C 
BRANCH  27  28
HETATM   28  C3  UNL     1       9.056  11.905  20.817  1.00  0.00    -0.013 C 
HETATM   29  C2  UNL     1       9.909  11.530  19.840  1.00  0.00     0.008 C 
HETATM   30  C1  UNL     1       9.399  11.073  18.501  1.00  0.00     0.055 C 
BRANCH  29  31
HETATM   31  C30 UNL     1      11.383  11.594  20.014  1.00  0.00     0.171 C 
HETATM   32  O2  UNL     1      12.059  12.567  20.295  1.00  0.00    -0.646 OA
BRANCH  31  33
HETATM   33  O3  UNL     1      11.964  10.399  19.803  1.00  0.00    -0.773 OA
HETATM   34  H46 UNL     1      12.917  10.591  19.932  1.00  0.00     0.167 HD
ENDBRANCH  31  33
ENDBRANCH  29  31
ENDBRANCH  27  28
ENDBRANCH  26  27
ENDBRANCH  24  26
ENDBRANCH   1  24
TORSDOF 6
ENDMDL
MODEL 6
REMARK minimizedAffinity -7.79459238
REMARK  6 active torsions:
REMARK  status: ('A' for Active; 'I' for Inactive)
REMARK    1  A    between atoms: C2_2  and  C30_31 
REMARK    2  A    between atoms: C3_3  and  C4_4 
REMARK    3  A    between atoms: C4_4  and  C5_5 
REMARK    4  A    between atoms: C5_5  and  C6_6 
REMARK    5  A    between atoms: C6_6  and  C8_8 
REMARK    6  A    between atoms: C30_31  and  O3_33 
ROOT
HETATM    1  C8  UNL     1      -2.866   6.234  13.448  1.00  0.00    -0.002 C 
HETATM    2  C9  UNL     1      -4.206   6.793  12.871  1.00  0.00     0.007 C 
HETATM    3  C10 UNL     1      -4.576   8.050  13.680  1.00  0.00     0.015 C 
HETATM    4  C11 UNL     1      -3.675   7.986  14.927  1.00  0.00    -0.013 C 
HETATM    5  C12 UNL     1      -4.385   7.013  15.926  1.00  0.00     0.021 C 
HETATM    6  C13 UNL     1      -3.425   9.264  15.727  1.00  0.00    -0.070 C 
HETATM    7  C14 UNL     1      -4.314  10.270  15.740  1.00  0.00    -0.022 C 
HETATM    8  C15 UNL     1      -4.237  11.367  16.741  1.00  0.00     0.034 C 
HETATM    9  C16 UNL     1      -2.802  11.866  16.964  1.00  0.00     0.013 C 
HETATM   10  C17 UNL     1      -2.255  12.827  15.834  1.00  0.00     0.018 C 
HETATM   11  C18 UNL     1      -1.602  14.079  16.476  1.00  0.00     0.023 C 
HETATM   12  C19 UNL     1      -3.334  13.381  14.873  1.00  0.00     0.023 C 
HETATM   13  C20 UNL     1      -1.181  12.130  15.005  1.00  0.00     0.135 C 
HETATM   14  O1  UNL     1      -1.193  12.131  13.771  1.00  0.00    -0.297 OA
HETATM   15  C21 UNL     1      -0.010  11.534  15.742  1.00  0.00     0.080 C 
HETATM   16  C22 UNL     1      -0.366  11.068  17.147  1.00  0.00     0.017 C 
HETATM   17  C23 UNL     1      -1.848  10.654  17.368  1.00  0.00    -0.031 C 
HETATM   18  C24 UNL     1      -1.986  10.459  18.914  1.00  0.00     0.016 C 
HETATM   19  C25 UNL     1      -2.263   9.236  16.723  1.00  0.00     0.024 C 
HETATM   20  C26 UNL     1      -1.061   8.345  16.296  1.00  0.00     0.010 C 
HETATM   21  C27 UNL     1      -1.393   7.095  15.464  1.00  0.00     0.011 C 
HETATM   22  C28 UNL     1      -2.345   7.436  14.301  1.00  0.00    -0.029 C 
HETATM   23  C29 UNL     1      -1.657   8.473  13.360  1.00  0.00     0.016 C 
ENDROOT
BRANCH   1  24
HETATM   24  C6  UNL     1      -1.967   5.618  12.328  1.00  0.00    -0.014 C 
HETATM   25  C7  UNL     1      -0.646   5.085  12.893  1.00  0.00     0.010 C 
BRANCH  24  26
HETATM   26  C5  UNL     1      -2.722   4.475  11.590  1.00  0.00     0.008 C 
BRANCH  26  27
HETATM   27  C4  UNL     1      -3.402   3.446  12.510  1.00  0.00     0.028 C 
BRANCH  27  28
HETATM   28  C3  UNL     1      -4.864   3.686  12.770  1.00  0.00    -0.013 C 
HETATM   29  C2  UNL     1      -5.928   3.097  12.182  1.00  0.00     0.008 C 
HETATM   30  C1  UNL     1      -7.331   3.457  12.584  1.00  0.00     0.055 C 
BRANCH  29  31
HETATM   31  C30 UNL     1      -5.774   2.109  11.083  1.00  0.00     0.171 C 
HETATM   32  O2  UNL     1      -5.861   0.896  11.153  1.00  0.00    -0.646 OA
BRANCH  31  33
HETATM   33  O3  UNL     1      -5.489   2.705   9.911  1.00  0.00    -0.773 OA
HETATM   34  H46 UNL     1      -5.401   1.948   9.294  1.00  0.00     0.167 HD
ENDBRANCH  31  33
ENDBRANCH  29  31
ENDBRANCH  27  28
ENDBRANCH  26  27
ENDBRANCH  24  26
ENDBRANCH   1  24
TORSDOF 6
ENDMDL
MODEL 7
REMARK minimizedAffinity -7.77099419
REMARK  6 active torsions:
REMARK  status: ('A' for Active; 'I' for Inactive)
REMARK    1  A    between atoms: C2_2  and  C30_31 
REMARK    2  A    between atoms: C3_3  and  C4_4 
REMARK    3  A    between atoms: C4_4  and  C5_5 
REMARK    4  A    between atoms: C5_5  and  C6_6 
REMARK    5  A    between atoms: C6_6  and  C8_8 
REMARK    6  A    between atoms: C30_31  and  O3_33 
ROOT
HETATM    1  C8  UNL     1      -1.728   7.086  13.315  1.00  0.00    -0.002 C 
HETATM    2  C9  UNL     1      -3.226   7.249  12.905  1.00  0.00     0.007 C 
HETATM    3  C10 UNL     1      -3.840   8.341  13.801  1.00  0.00     0.015 C 
HETATM    4  C11 UNL     1      -2.824   8.520  14.943  1.00  0.00    -0.013 C 
HETATM    5  C12 UNL     1      -3.117   7.375  15.969  1.00  0.00     0.021 C 
HETATM    6  C13 UNL     1      -2.854   9.808  15.766  1.00  0.00    -0.070 C 
HETATM    7  C14 UNL     1      -3.981  10.521  15.914  1.00  0.00    -0.022 C 
HETATM    8  C15 UNL     1      -4.103  11.584  16.947  1.00  0.00     0.034 C 
HETATM    9  C16 UNL     1      -2.849  12.466  17.041  1.00  0.00     0.013 C 
HETATM   10  C17 UNL     1      -2.723  13.555  15.902  1.00  0.00     0.018 C 
HETATM   11  C18 UNL     1      -2.379  14.933  16.524  1.00  0.00     0.023 C 
HETATM   12  C19 UNL     1      -4.014  13.792  15.083  1.00  0.00     0.023 C 
HETATM   13  C20 UNL     1      -1.596  13.199  14.936  1.00  0.00     0.135 C 
HETATM   14  O1  UNL     1      -1.746  13.211  13.712  1.00  0.00    -0.297 OA
HETATM   15  C21 UNL     1      -0.231  12.950  15.521  1.00  0.00     0.080 C 
HETATM   16  C22 UNL     1      -0.283  12.387  16.935  1.00  0.00     0.017 C 
HETATM   17  C23 UNL     1      -1.555  11.569  17.292  1.00  0.00    -0.031 C 
HETATM   18  C24 UNL     1      -1.460  11.325  18.834  1.00  0.00     0.016 C 
HETATM   19  C25 UNL     1      -1.627  10.099  16.633  1.00  0.00     0.024 C 
HETATM   20  C26 UNL     1      -0.279   9.589  16.046  1.00  0.00     0.010 C 
HETATM   21  C27 UNL     1      -0.339   8.305  15.201  1.00  0.00     0.011 C 
HETATM   22  C28 UNL     1      -1.471   8.376  14.159  1.00  0.00    -0.029 C 
HETATM   23  C29 UNL     1      -1.212   9.576  13.197  1.00  0.00     0.016 C 
ENDROOT
BRANCH   1  24
HETATM   24  C6  UNL     1      -0.824   6.762  12.082  1.00  0.00    -0.014 C 
HETATM   25  C7  UNL     1       0.192   7.879  11.817  1.00  0.00     0.010 C 
BRANCH  24  26
HETATM   26  C5  UNL     1      -0.077   5.413  12.294  1.00  0.00     0.008 C 
BRANCH  26  27
HETATM   27  C4  UNL     1      -0.447   4.302  11.297  1.00  0.00     0.028 C 
BRANCH  27  28
HETATM   28  C3  UNL     1      -1.751   3.604  11.568  1.00  0.00    -0.013 C 
HETATM   29  C2  UNL     1      -2.070   2.310  11.352  1.00  0.00     0.008 C 
HETATM   30  C1  UNL     1      -3.433   1.780  11.703  1.00  0.00     0.055 C 
BRANCH  29  31
HETATM   31  C30 UNL     1      -1.120   1.359  10.719  1.00  0.00     0.171 C 
HETATM   32  O2  UNL     1      -0.276   0.672  11.266  1.00  0.00    -0.646 OA
BRANCH  31  33
HETATM   33  O3  UNL     1      -1.263   1.326   9.382  1.00  0.00    -0.773 OA
HETATM   34  H46 UNL     1      -0.577   0.683   9.102  1.00  0.00     0.167 HD
ENDBRANCH  31  33
ENDBRANCH  29  31
ENDBRANCH  27  28
ENDBRANCH  26  27
ENDBRANCH  24  26
ENDBRANCH   1  24
TORSDOF 6
ENDMDL
MODEL 8
REMARK minimizedAffinity -7.68107462
REMARK  6 active torsions:
REMARK  status: ('A' for Active; 'I' for Inactive)
REMARK    1  A    between atoms: C2_2  and  C30_31 
REMARK    2  A    between atoms: C3_3  and  C4_4 
REMARK    3  A    between atoms: C4_4  and  C5_5 
REMARK    4  A    between atoms: C5_5  and  C6_6 
REMARK    5  A    between atoms: C6_6  and  C8_8 
REMARK    6  A    between atoms: C30_31  and  O3_33 
ROOT
HETATM    1  C8  UNL     1      -1.094   7.045  13.154  1.00  0.00    -0.002 C 
HETATM    2  C9  UNL     1      -2.333   7.386  12.267  1.00  0.00     0.007 C 
HETATM    3  C10 UNL     1      -3.192   8.408  13.035  1.00  0.00     0.015 C 
HETATM    4  C11 UNL     1      -2.655   8.358  14.477  1.00  0.00    -0.013 C 
HETATM    5  C12 UNL     1      -3.342   7.125  15.153  1.00  0.00     0.021 C 
HETATM    6  C13 UNL     1      -2.937   9.532  15.413  1.00  0.00    -0.070 C 
HETATM    7  C14 UNL     1      -4.015  10.316  15.253  1.00  0.00    -0.022 C 
HETATM    8  C15 UNL     1      -4.466  11.250  16.318  1.00  0.00     0.034 C 
HETATM    9  C16 UNL     1      -3.302  12.003  16.979  1.00  0.00     0.013 C 
HETATM   10  C17 UNL     1      -2.731  13.209  16.130  1.00  0.00     0.018 C 
HETATM   11  C18 UNL     1      -2.589  14.466  17.028  1.00  0.00     0.023 C 
HETATM   12  C19 UNL     1      -3.626  13.654  14.950  1.00  0.00     0.023 C 
HETATM   13  C20 UNL     1      -1.344  12.879  15.588  1.00  0.00     0.135 C 
HETATM   14  O1  UNL     1      -1.037  13.054  14.406  1.00  0.00    -0.297 OA
HETATM   15  C21 UNL     1      -0.295  12.444  16.577  1.00  0.00     0.080 C 
HETATM   16  C22 UNL     1      -0.878  11.718  17.781  1.00  0.00     0.017 C 
HETATM   17  C23 UNL     1      -2.221  10.975  17.540  1.00  0.00    -0.031 C 
HETATM   18  C24 UNL     1      -2.702  10.535  18.962  1.00  0.00     0.016 C 
HETATM   19  C25 UNL     1      -2.100   9.608  16.693  1.00  0.00     0.024 C 
HETATM   20  C26 UNL     1      -0.650   9.060  16.555  1.00  0.00     0.010 C 
HETATM   21  C27 UNL     1      -0.444   7.900  15.567  1.00  0.00     0.011 C 
HETATM   22  C28 UNL     1      -1.116   8.195  14.213  1.00  0.00    -0.029 C 
HETATM   23  C29 UNL     1      -0.482   9.477  13.591  1.00  0.00     0.016 C 
ENDROOT
BRANCH   1  24
HETATM   24  C6  UNL     1       0.185   6.799  12.290  1.00  0.00    -0.014 C 
HETATM   25  C7  UNL     1       0.683   5.354  12.416  1.00  0.00     0.010 C 
BRANCH  24  26
HETATM   26  C5  UNL     1      -0.094   7.130  10.796  1.00  0.00     0.008 C 
BRANCH  26  27
HETATM   27  C4  UNL     1       0.897   8.114  10.152  1.00  0.00     0.028 C 
BRANCH  27  28
HETATM   28  C3  UNL     1       1.033   8.002   8.658  1.00  0.00    -0.013 C 
HETATM   29  C2  UNL     1       1.868   7.213   7.949  1.00  0.00     0.008 C 
HETATM   30  C1  UNL     1       1.854   7.226   6.445  1.00  0.00     0.055 C 
BRANCH  29  31
HETATM   31  C30 UNL     1       2.871   6.335   8.606  1.00  0.00     0.171 C 
HETATM   32  O2  UNL     1       2.870   5.118   8.667  1.00  0.00    -0.646 OA
BRANCH  31  33
HETATM   33  O3  UNL     1       3.850   7.046   9.193  1.00  0.00    -0.773 OA
HETATM   34  H46 UNL     1       4.418   6.352   9.591  1.00  0.00     0.167 HD
ENDBRANCH  31  33
ENDBRANCH  29  31
ENDBRANCH  27  28
ENDBRANCH  26  27
ENDBRANCH  24  26
ENDBRANCH   1  24
TORSDOF 6
ENDMDL
MODEL 9
REMARK minimizedAffinity -7.59162092
REMARK  6 active torsions:
REMARK  status: ('A' for Active; 'I' for Inactive)
REMARK    1  A    between atoms: C2_2  and  C30_31 
REMARK    2  A    between atoms: C3_3  and  C4_4 
REMARK    3  A    between atoms: C4_4  and  C5_5 
REMARK    4  A    between atoms: C5_5  and  C6_6 
REMARK    5  A    between atoms: C6_6  and  C8_8 
REMARK    6  A    between atoms: C30_31  and  O3_33 
ROOT
HETATM    1  C8  UNL     1      -1.307   7.133  13.304  1.00  0.00    -0.002 C 
HETATM    2  C9  UNL     1      -1.261   8.146  12.116  1.00  0.00     0.007 C 
HETATM    3  C10 UNL     1      -1.610   9.538  12.674  1.00  0.00     0.015 C 
HETATM    4  C11 UNL     1      -2.213   9.258  14.063  1.00  0.00    -0.013 C 
HETATM    5  C12 UNL     1      -3.709   8.872  13.817  1.00  0.00     0.021 C 
HETATM    6  C13 UNL     1      -2.257  10.386  15.092  1.00  0.00    -0.070 C 
HETATM    7  C14 UNL     1      -2.305  11.675  14.720  1.00  0.00    -0.022 C 
HETATM    8  C15 UNL     1      -2.659  12.754  15.681  1.00  0.00     0.034 C 
HETATM    9  C16 UNL     1      -1.982  12.575  17.048  1.00  0.00     0.013 C 
HETATM   10  C17 UNL     1      -0.460  13.005  17.090  1.00  0.00     0.018 C 
HETATM   11  C18 UNL     1      -0.200  13.905  18.327  1.00  0.00     0.023 C 
HETATM   12  C19 UNL     1       0.014  13.838  15.876  1.00  0.00     0.023 C 
HETATM   13  C20 UNL     1       0.443  11.783  17.221  1.00  0.00     0.135 C 
HETATM   14  O1  UNL     1       1.427  11.607  16.496  1.00  0.00    -0.297 OA
HETATM   15  C21 UNL     1       0.175  10.837  18.362  1.00  0.00     0.080 C 
HETATM   16  C22 UNL     1      -1.291  10.797  18.770  1.00  0.00     0.017 C 
HETATM   17  C23 UNL     1      -2.315  11.138  17.651  1.00  0.00    -0.031 C 
HETATM   18  C24 UNL     1      -3.690  11.257  18.385  1.00  0.00     0.016 C 
HETATM   19  C25 UNL     1      -2.523   9.983  16.544  1.00  0.00     0.024 C 
HETATM   20  C26 UNL     1      -1.954   8.593  16.948  1.00  0.00     0.010 C 
HETATM   21  C27 UNL     1      -1.912   7.520  15.846  1.00  0.00     0.011 C 
HETATM   22  C28 UNL     1      -1.297   8.079  14.549  1.00  0.00    -0.029 C 
HETATM   23  C29 UNL     1       0.167   8.541  14.830  1.00  0.00     0.016 C 
ENDROOT
BRANCH   1  24
HETATM   24  C6  UNL     1      -0.222   6.018  13.157  1.00  0.00    -0.014 C 
HETATM   25  C7  UNL     1      -0.821   4.713  12.619  1.00  0.00     0.010 C 
BRANCH  24  26
HETATM   26  C5  UNL     1       0.925   6.495  12.219  1.00  0.00     0.008 C 
BRANCH  26  27
HETATM   27  C4  UNL     1       0.977   5.797  10.850  1.00  0.00     0.028 C 
BRANCH  27  28
HETATM   28  C3  UNL     1       1.178   6.709   9.671  1.00  0.00    -0.013 C 
HETATM   29  C2  UNL     1       2.151   6.669   8.736  1.00  0.00     0.008 C 
HETATM   30  C1  UNL     1       2.184   7.666   7.610  1.00  0.00     0.055 C 
BRANCH  29  31
HETATM   31  C30 UNL     1       3.258   5.680   8.793  1.00  0.00     0.171 C 
HETATM   32  O2  UNL     1       3.392   4.671   8.123  1.00  0.00    -0.646 OA
BRANCH  31  33
HETATM   33  O3  UNL     1       4.168   6.001   9.731  1.00  0.00    -0.773 OA
HETATM   34  H46 UNL     1       4.817   5.268   9.668  1.00  0.00     0.167 HD
ENDBRANCH  31  33
ENDBRANCH  29  31
ENDBRANCH  27  28
ENDBRANCH  26  27
ENDBRANCH  24  26
ENDBRANCH   1  24
TORSDOF 6
ENDMDL
