MODEL 1
REMARK minimizedAffinity -9.34525013
REMARK CNNscore 0.786816835
REMARK CNNaffinity 7.37237358
REMARK  12 active torsions:
REMARK  status: ('A' for Active; 'I' for Inactive)
REMARK    1  A    between atoms: O1_2  and  C2_3 
REMARK    2  A    between atoms: C4_5  and  O2_6 
REMARK    3  A    between atoms: O2_6  and  C5_7 
REMARK    4  A    between atoms: C8_10  and  C9_11 
REMARK    5  A    between atoms: N1_12  and  C10_14 
REMARK    6  A    between atoms: C10_14  and  C11_15 
REMARK    7  A    between atoms: C11_15  and  C12_16 
REMARK    8  A    between atoms: C12_16  and  O3_17 
REMARK    9  A    between atoms: C18_23  and  C19_24 
REMARK   10  A    between atoms: C25_32  and  O6_33 
REMARK   11  A    between atoms: C29_37  and  O7_38 
REMARK   12  A    between atoms: C33_43  and  O9_44 
ROOT
HETATM    1  C5  UNL     1      -6.708   7.089  14.569  1.00  0.00     0.127 C 
HETATM    2  C6  UNL     1      -6.026   7.666  13.347  1.00  0.00     0.033 C 
HETATM    3  C7  UNL     1      -4.910   8.612  13.756  1.00  0.00     0.021 C 
HETATM    4  C8  UNL     1      -3.880   8.001  14.760  1.00  0.00     0.026 C 
HETATM    5  C13 UNL     1      -2.473   8.035  14.026  1.00  0.00     0.009 C 
HETATM    6  C14 UNL     1      -1.860   9.436  13.954  1.00  0.00     0.007 C 
HETATM    7  C15 UNL     1      -0.699   9.395  12.969  1.00  0.00     0.013 C 
HETATM    8  C16 UNL     1       0.477   8.544  13.491  1.00  0.00    -0.005 C 
HETATM    9  C17 UNL     1       1.260   9.436  14.495  1.00  0.00     0.019 C 
HETATM   10  C18 UNL     1       1.489   8.151  12.332  1.00  0.00     0.028 C 
HETATM   11  C23 UNL     1       1.943   6.740  12.733  1.00  0.00     0.013 C 
HETATM   12  C24 UNL     1       0.674   6.085  13.280  1.00  0.00     0.040 C 
HETATM   13  C25 UNL     1       0.042   7.171  14.169  1.00  0.00     0.070 C 
HETATM   14  C26 UNL     1      -1.471   7.004  14.578  1.00  0.00     0.026 C 
HETATM   15  C27 UNL     1      -2.044   5.582  14.325  1.00  0.00     0.011 C 
HETATM   16  C28 UNL     1      -3.584   5.499  14.319  1.00  0.00     0.039 C 
HETATM   17  C29 UNL     1      -4.236   6.541  15.242  1.00  0.00     0.073 C 
HETATM   18  C30 UNL     1      -5.754   6.275  15.432  1.00  0.00     0.071 C 
ENDROOT
BRANCH   1  19
HETATM   19  O2  UNL     1      -7.803   6.289  14.111  1.00  0.00    -0.356 OA
BRANCH  19  20
HETATM   20  C4  UNL     1      -9.068   6.772  14.564  1.00  0.00     0.263 C 
HETATM   21  C3  UNL     1      -8.825   8.034  15.388  1.00  0.00     0.095 C 
HETATM   22  C2  UNL     1     -10.162   8.544  15.926  1.00  0.00     0.156 C 
HETATM   23  C33 UNL     1     -11.146   8.767  14.767  1.00  0.00     0.175 C 
HETATM   24  C31 UNL     1     -11.224   7.560  13.814  1.00  0.00     0.151 C 
HETATM   25  O8  UNL     1      -9.930   7.056  13.461  1.00  0.00    -0.354 OA
HETATM   26  C32 UNL     1     -12.100   6.424  14.351  1.00  0.00     0.042 C 
BRANCH  22  27
HETATM   27  O1  UNL     1     -10.028   9.809  16.601  1.00  0.00    -0.388 OA
HETATM   28  C1  UNL     1     -10.939   9.989  17.682  1.00  0.00     0.202 C 
ENDBRANCH  22  27
BRANCH  23  29
HETATM   29  O9  UNL     1     -10.716   9.917  14.015  1.00  0.00    -0.390 OA
HETATM   30  H51 UNL     1     -10.424  10.564  14.689  1.00  0.00     0.210 HD
ENDBRANCH  23  29
ENDBRANCH  19  20
ENDBRANCH   1  19
BRANCH  17  31
HETATM   31  O7  UNL     1      -3.602   6.271  16.519  1.00  0.00    -0.389 OA
HETATM   32  H43 UNL     1      -4.218   5.738  17.054  1.00  0.00     0.210 HD
ENDBRANCH  17  31
BRANCH   4  33
HETATM   33  C9  UNL     1      -3.860   8.826  16.057  1.00  0.00     0.068 C 
HETATM   34  N1  UNL     1      -2.782   8.934  16.759  1.00  0.00    -0.401 N 
ATOM     35  H1  UNL     1      -1.930   8.412  16.552  1.00  0.00     0.158 HD
BRANCH  34  36
HETATM   36  C10 UNL     1      -2.891   9.877  17.883  1.00  0.00     0.121 C 
BRANCH  36  37
HETATM   37  C11 UNL     1      -1.851  10.985  17.718  1.00  0.00     0.045 C 
BRANCH  37  38
HETATM   38  C12 UNL     1      -0.808  10.957  18.825  1.00  0.00     0.165 C 
BRANCH  38  39
HETATM   39  O3  UNL     1       0.385  10.312  18.391  1.00  0.00    -0.401 OA
HETATM   40  H20 UNL     1       0.746  10.829  17.646  1.00  0.00     0.209 HD
ENDBRANCH  38  39
ENDBRANCH  37  38
ENDBRANCH  36  37
ENDBRANCH  34  36
ENDBRANCH   4  33
BRANCH  13  41
HETATM   41  O6  UNL     1       0.779   7.021  15.418  1.00  0.00    -0.389 OA
HETATM   42  H37 UNL     1       0.511   6.175  15.817  1.00  0.00     0.210 HD
ENDBRANCH  13  41
BRANCH  10  43
HETATM   43  C19 UNL     1       1.000   8.209  10.896  1.00  0.00    -0.045 A 
HETATM   44  C20 UNL     1       1.716   7.901   9.806  1.00  0.00     0.087 A 
HETATM   45  C21 UNL     1       0.842   8.078   8.645  1.00  0.00     0.283 A 
HETATM   46  O4  UNL     1       1.161   7.870   7.484  1.00  0.00    -0.260 OA
HETATM   47  O5  UNL     1      -0.379   8.503   9.068  1.00  0.00    -0.314 OA
HETATM   48  C22 UNL     1      -0.380   8.583  10.491  1.00  0.00     0.213 A 
ENDBRANCH  10  43
TORSDOF 12
ENDMDL
MODEL 2
REMARK minimizedAffinity -9.38061428
REMARK CNNscore 0.68773061
REMARK CNNaffinity 7.62998819
REMARK  12 active torsions:
REMARK  status: ('A' for Active; 'I' for Inactive)
REMARK    1  A    between atoms: O1_2  and  C2_3 
REMARK    2  A    between atoms: C4_5  and  O2_6 
REMARK    3  A    between atoms: O2_6  and  C5_7 
REMARK    4  A    between atoms: C8_10  and  C9_11 
REMARK    5  A    between atoms: N1_12  and  C10_14 
REMARK    6  A    between atoms: C10_14  and  C11_15 
REMARK    7  A    between atoms: C11_15  and  C12_16 
REMARK    8  A    between atoms: C12_16  and  O3_17 
REMARK    9  A    between atoms: C18_23  and  C19_24 
REMARK   10  A    between atoms: C25_32  and  O6_33 
REMARK   11  A    between atoms: C29_37  and  O7_38 
REMARK   12  A    between atoms: C33_43  and  O9_44 
ROOT
HETATM    1  C5  UNL     1      -6.259   7.812  15.331  1.00  0.00     0.127 C 
HETATM    2  C6  UNL     1      -5.685   8.396  14.057  1.00  0.00     0.033 C 
HETATM    3  C7  UNL     1      -4.363   9.089  14.338  1.00  0.00     0.021 C 
HETATM    4  C8  UNL     1      -3.317   8.208  15.094  1.00  0.00     0.026 C 
HETATM    5  C13 UNL     1      -2.063   8.083  14.128  1.00  0.00     0.009 C 
HETATM    6  C14 UNL     1      -1.221   9.361  14.062  1.00  0.00     0.007 C 
HETATM    7  C15 UNL     1      -0.259   9.232  12.888  1.00  0.00     0.013 C 
HETATM    8  C16 UNL     1       0.807   8.144  13.125  1.00  0.00    -0.005 C 
HETATM    9  C17 UNL     1       1.891   8.775  14.044  1.00  0.00     0.019 C 
HETATM   10  C18 UNL     1       1.532   7.715  11.778  1.00  0.00     0.028 C 
HETATM   11  C23 UNL     1       1.775   6.213  11.980  1.00  0.00     0.013 C 
HETATM   12  C24 UNL     1       0.510   5.725  12.688  1.00  0.00     0.040 C 
HETATM   13  C25 UNL     1       0.239   6.798  13.757  1.00  0.00     0.070 C 
HETATM   14  C26 UNL     1      -1.194   6.844  14.412  1.00  0.00     0.026 C 
HETATM   15  C27 UNL     1      -2.053   5.576  14.151  1.00  0.00     0.011 C 
HETATM   16  C28 UNL     1      -3.562   5.755  14.409  1.00  0.00     0.039 C 
HETATM   17  C29 UNL     1      -3.856   6.784  15.513  1.00  0.00     0.073 C 
HETATM   18  C30 UNL     1      -5.347   6.759  15.945  1.00  0.00     0.071 C 
ENDROOT
BRANCH   1  19
HETATM   19  O2  UNL     1      -7.541   7.263  15.010  1.00  0.00    -0.356 OA
BRANCH  19  20
HETATM   20  C4  UNL     1      -7.534   6.514  13.794  1.00  0.00     0.263 C 
HETATM   21  C3  UNL     1      -6.727   5.240  14.030  1.00  0.00     0.095 C 
HETATM   22  C2  UNL     1      -6.663   4.442  12.726  1.00  0.00     0.156 C 
HETATM   23  C33 UNL     1      -8.084   4.163  12.209  1.00  0.00     0.175 C 
HETATM   24  C31 UNL     1      -8.962   5.428  12.178  1.00  0.00     0.151 C 
HETATM   25  O8  UNL     1      -8.865   6.193  13.386  1.00  0.00    -0.354 OA
HETATM   26  C32 UNL     1      -8.687   6.324  10.967  1.00  0.00     0.042 C 
BRANCH  22  27
HETATM   27  O1  UNL     1      -6.032   3.161  12.906  1.00  0.00    -0.388 OA
HETATM   28  C1  UNL     1      -5.524   2.590  11.703  1.00  0.00     0.202 C 
ENDBRANCH  22  27
BRANCH  23  29
HETATM   29  O9  UNL     1      -8.705   3.195  13.073  1.00  0.00    -0.390 OA
HETATM   30  H51 UNL     1      -8.000   2.546  13.273  1.00  0.00     0.210 HD
ENDBRANCH  23  29
ENDBRANCH  19  20
ENDBRANCH   1  19
BRANCH  17  31
HETATM   31  O7  UNL     1      -3.088   6.273  16.633  1.00  0.00    -0.389 OA
HETATM   32  H43 UNL     1      -3.699   5.796  17.224  1.00  0.00     0.210 HD
ENDBRANCH  17  31
BRANCH   4  33
HETATM   33  C9  UNL     1      -2.940   8.870  16.428  1.00  0.00     0.068 C 
HETATM   34  N1  UNL     1      -3.639   9.843  16.908  1.00  0.00    -0.401 N 
ATOM     35  H1  UNL     1      -4.405  10.282  16.396  1.00  0.00     0.158 HD
BRANCH  34  36
HETATM   36  C10 UNL     1      -3.234  10.261  18.260  1.00  0.00     0.121 C 
BRANCH  36  37
HETATM   37  C11 UNL     1      -2.708  11.695  18.210  1.00  0.00     0.045 C 
BRANCH  37  38
HETATM   38  C12 UNL     1      -3.830  12.718  18.312  1.00  0.00     0.165 C 
BRANCH  38  39
HETATM   39  O3  UNL     1      -4.622  12.498  19.475  1.00  0.00    -0.401 OA
HETATM   40  H20 UNL     1      -4.042  12.606  20.252  1.00  0.00     0.209 HD
ENDBRANCH  38  39
ENDBRANCH  37  38
ENDBRANCH  36  37
ENDBRANCH  34  36
ENDBRANCH   4  33
BRANCH  13  41
HETATM   41  O6  UNL     1       1.125   6.390  14.842  1.00  0.00    -0.389 OA
HETATM   42  H37 UNL     1       0.772   5.562  15.213  1.00  0.00     0.210 HD
ENDBRANCH  13  41
BRANCH  10  43
HETATM   43  C19 UNL     1       0.841   8.012  10.460  1.00  0.00    -0.045 A 
HETATM   44  C20 UNL     1       1.295   7.692   9.242  1.00  0.00     0.087 A 
HETATM   45  C21 UNL     1       0.299   8.148   8.270  1.00  0.00     0.283 A 
HETATM   46  O4  UNL     1       0.379   8.005   7.059  1.00  0.00    -0.260 OA
HETATM   47  O5  UNL     1      -0.727   8.746   8.932  1.00  0.00    -0.314 OA
HETATM   48  C22 UNL     1      -0.483   8.676  10.335  1.00  0.00     0.213 A 
ENDBRANCH  10  43
TORSDOF 12
ENDMDL
MODEL 3
REMARK minimizedAffinity -8.70008278
REMARK CNNscore 0.629571736
REMARK CNNaffinity 7.07743979
REMARK  12 active torsions:
REMARK  status: ('A' for Active; 'I' for Inactive)
REMARK    1  A    between atoms: O1_2  and  C2_3 
REMARK    2  A    between atoms: C4_5  and  O2_6 
REMARK    3  A    between atoms: O2_6  and  C5_7 
REMARK    4  A    between atoms: C8_10  and  C9_11 
REMARK    5  A    between atoms: N1_12  and  C10_14 
REMARK    6  A    between atoms: C10_14  and  C11_15 
REMARK    7  A    between atoms: C11_15  and  C12_16 
REMARK    8  A    between atoms: C12_16  and  O3_17 
REMARK    9  A    between atoms: C18_23  and  C19_24 
REMARK   10  A    between atoms: C25_32  and  O6_33 
REMARK   11  A    between atoms: C29_37  and  O7_38 
REMARK   12  A    between atoms: C33_43  and  O9_44 
ROOT
HETATM    1  C5  UNL     1       0.587   8.388  13.946  1.00  0.00     0.127 C 
HETATM    2  C6  UNL     1       0.008   7.003  13.751  1.00  0.00     0.033 C 
HETATM    3  C7  UNL     1      -1.009   6.693  14.836  1.00  0.00     0.021 C 
HETATM    4  C8  UNL     1      -2.129   7.772  14.999  1.00  0.00     0.026 C 
HETATM    5  C13 UNL     1      -3.502   7.032  14.699  1.00  0.00     0.009 C 
HETATM    6  C14 UNL     1      -3.956   6.114  15.838  1.00  0.00     0.007 C 
HETATM    7  C15 UNL     1      -5.085   5.236  15.314  1.00  0.00     0.013 C 
HETATM    8  C16 UNL     1      -6.361   6.047  15.012  1.00  0.00    -0.005 C 
HETATM    9  C17 UNL     1      -7.072   6.282  16.375  1.00  0.00     0.019 C 
HETATM   10  C18 UNL     1      -7.376   5.242  14.093  1.00  0.00     0.028 C 
HETATM   11  C23 UNL     1      -7.992   6.341  13.215  1.00  0.00     0.013 C 
HETATM   12  C24 UNL     1      -6.819   7.274  12.911  1.00  0.00     0.040 C 
HETATM   13  C25 UNL     1      -6.099   7.426  14.263  1.00  0.00     0.070 C 
HETATM   14  C26 UNL     1      -4.626   7.988  14.257  1.00  0.00     0.026 C 
HETATM   15  C27 UNL     1      -4.204   8.650  12.916  1.00  0.00     0.011 C 
HETATM   16  C28 UNL     1      -2.683   8.827  12.735  1.00  0.00     0.039 C 
HETATM   17  C29 UNL     1      -1.948   9.035  14.069  1.00  0.00     0.073 C 
HETATM   18  C30 UNL     1      -0.475   9.475  13.856  1.00  0.00     0.071 C 
ENDROOT
BRANCH   1  19
HETATM   19  O2  UNL     1       1.602   8.571  12.953  1.00  0.00    -0.356 OA
BRANCH  19  20
HETATM   20  C4  UNL     1       1.495   7.640  11.875  1.00  0.00     0.263 C 
HETATM   21  C3  UNL     1       1.682   8.407  10.569  1.00  0.00     0.095 C 
HETATM   22  C2  UNL     1       1.523   7.439   9.395  1.00  0.00     0.156 C 
HETATM   23  C33 UNL     1       2.504   6.265   9.544  1.00  0.00     0.175 C 
HETATM   24  C31 UNL     1       2.460   5.631  10.946  1.00  0.00     0.151 C 
HETATM   25  O8  UNL     1       2.478   6.610  11.993  1.00  0.00    -0.354 OA
HETATM   26  C32 UNL     1       1.276   4.679  11.141  1.00  0.00     0.042 C 
BRANCH  22  27
HETATM   27  O1  UNL     1       1.820   8.065   8.133  1.00  0.00    -0.388 OA
HETATM   28  C1  UNL     1       1.678   7.201   7.009  1.00  0.00     0.202 C 
ENDBRANCH  22  27
BRANCH  23  29
HETATM   29  O9  UNL     1       3.838   6.748   9.302  1.00  0.00    -0.390 OA
HETATM   30  H51 UNL     1       3.749   7.365   8.547  1.00  0.00     0.210 HD
ENDBRANCH  23  29
ENDBRANCH  19  20
ENDBRANCH   1  19
BRANCH  17  31
HETATM   31  O7  UNL     1      -2.645  10.174  14.639  1.00  0.00    -0.389 OA
HETATM   32  H43 UNL     1      -2.107  10.969  14.474  1.00  0.00     0.210 HD
ENDBRANCH  17  31
BRANCH   4  33
HETATM   33  C9  UNL     1      -2.097   8.349  16.422  1.00  0.00     0.068 C 
HETATM   34  N1  UNL     1      -1.779   9.583  16.632  1.00  0.00    -0.401 N 
ATOM     35  H1  UNL     1      -1.443  10.203  15.894  1.00  0.00     0.158 HD
BRANCH  34  36
HETATM   36  C10 UNL     1      -1.943  10.015  18.029  1.00  0.00     0.121 C 
BRANCH  36  37
HETATM   37  C11 UNL     1      -1.402  11.436  18.187  1.00  0.00     0.045 C 
BRANCH  37  38
HETATM   38  C12 UNL     1       0.106  11.452  18.382  1.00  0.00     0.165 C 
BRANCH  38  39
HETATM   39  O3  UNL     1       0.665  10.157  18.184  1.00  0.00    -0.401 OA
HETATM   40  H20 UNL     1       0.480   9.894  17.263  1.00  0.00     0.209 HD
ENDBRANCH  38  39
ENDBRANCH  37  38
ENDBRANCH  36  37
ENDBRANCH  34  36
ENDBRANCH   4  33
BRANCH  13  41
HETATM   41  O6  UNL     1      -6.884   8.464  14.920  1.00  0.00    -0.389 OA
HETATM   42  H37 UNL     1      -6.722   9.299  14.447  1.00  0.00     0.210 HD
ENDBRANCH  13  41
BRANCH  10  43
HETATM   43  C19 UNL     1      -6.841   4.084  13.270  1.00  0.00    -0.045 A 
HETATM   44  C20 UNL     1      -5.678   4.058  12.607  1.00  0.00     0.087 A 
HETATM   45  C21 UNL     1      -5.563   2.742  11.976  1.00  0.00     0.283 A 
HETATM   46  O4  UNL     1      -4.616   2.363  11.303  1.00  0.00    -0.260 OA
HETATM   47  O5  UNL     1      -6.673   2.011  12.266  1.00  0.00    -0.314 OA
HETATM   48  C22 UNL     1      -7.528   2.776  13.113  1.00  0.00     0.213 A 
ENDBRANCH  10  43
TORSDOF 12
ENDMDL
MODEL 4
REMARK minimizedAffinity -8.58169746
REMARK CNNscore 0.508941352
REMARK CNNaffinity 6.80622292
REMARK  12 active torsions:
REMARK  status: ('A' for Active; 'I' for Inactive)
REMARK    1  A    between atoms: O1_2  and  C2_3 
REMARK    2  A    between atoms: C4_5  and  O2_6 
REMARK    3  A    between atoms: O2_6  and  C5_7 
REMARK    4  A    between atoms: C8_10  and  C9_11 
REMARK    5  A    between atoms: N1_12  and  C10_14 
REMARK    6  A    between atoms: C10_14  and  C11_15 
REMARK    7  A    between atoms: C11_15  and  C12_16 
REMARK    8  A    between atoms: C12_16  and  O3_17 
REMARK    9  A    between atoms: C18_23  and  C19_24 
REMARK   10  A    between atoms: C25_32  and  O6_33 
REMARK   11  A    between atoms: C29_37  and  O7_38 
REMARK   12  A    between atoms: C33_43  and  O9_44 
ROOT
HETATM    1  C5  UNL     1       0.723   8.996  14.021  1.00  0.00     0.127 C 
HETATM    2  C6  UNL     1       0.294   7.563  13.784  1.00  0.00     0.033 C 
HETATM    3  C7  UNL     1      -0.706   7.126  14.840  1.00  0.00     0.021 C 
HETATM    4  C8  UNL     1      -1.934   8.079  15.003  1.00  0.00     0.026 C 
HETATM    5  C13 UNL     1      -3.217   7.211  14.659  1.00  0.00     0.009 C 
HETATM    6  C14 UNL     1      -3.596   6.224  15.768  1.00  0.00     0.007 C 
HETATM    7  C15 UNL     1      -4.618   5.247  15.202  1.00  0.00     0.013 C 
HETATM    8  C16 UNL     1      -5.966   5.929  14.891  1.00  0.00    -0.005 C 
HETATM    9  C17 UNL     1      -6.721   6.058  16.244  1.00  0.00     0.019 C 
HETATM   10  C18 UNL     1      -6.874   5.047  13.933  1.00  0.00     0.028 C 
HETATM   11  C23 UNL     1      -7.584   6.097  13.066  1.00  0.00     0.013 C 
HETATM   12  C24 UNL     1      -6.508   7.153  12.807  1.00  0.00     0.040 C 
HETATM   13  C25 UNL     1      -5.832   7.346  14.177  1.00  0.00     0.070 C 
HETATM   14  C26 UNL     1      -4.426   8.056  14.214  1.00  0.00     0.026 C 
HETATM   15  C27 UNL     1      -4.049   8.789  12.897  1.00  0.00     0.011 C 
HETATM   16  C28 UNL     1      -2.552   9.125  12.751  1.00  0.00     0.039 C 
HETATM   17  C29 UNL     1      -1.867   9.376  14.105  1.00  0.00     0.073 C 
HETATM   18  C30 UNL     1      -0.444   9.970  13.932  1.00  0.00     0.071 C 
ENDROOT
BRANCH   1  19
HETATM   19  O2  UNL     1       1.732   9.306  13.053  1.00  0.00    -0.356 OA
BRANCH  19  20
HETATM   20  C4  UNL     1       1.549   8.608  11.820  1.00  0.00     0.263 C 
HETATM   21  C3  UNL     1       2.323   7.295  11.902  1.00  0.00     0.095 C 
HETATM   22  C2  UNL     1       2.183   6.551  10.573  1.00  0.00     0.156 C 
HETATM   23  C33 UNL     1       0.697   6.349  10.236  1.00  0.00     0.175 C 
HETATM   24  C31 UNL     1      -0.122   7.646  10.366  1.00  0.00     0.151 C 
HETATM   25  O8  UNL     1       0.164   8.356  11.578  1.00  0.00    -0.354 OA
HETATM   26  C32 UNL     1       0.033   8.581   9.163  1.00  0.00     0.042 C 
BRANCH  22  27
HETATM   27  O1  UNL     1       2.775   5.239  10.622  1.00  0.00    -0.388 OA
HETATM   28  C1  UNL     1       3.600   4.933   9.502  1.00  0.00     0.202 C 
ENDBRANCH  22  27
BRANCH  23  29
HETATM   29  O9  UNL     1       0.150   5.370  11.139  1.00  0.00    -0.390 OA
HETATM   30  H51 UNL     1       0.847   4.686  11.221  1.00  0.00     0.210 HD
ENDBRANCH  23  29
ENDBRANCH  19  20
ENDBRANCH   1  19
BRANCH  17  31
HETATM   31  O7  UNL     1      -2.688  10.423  14.684  1.00  0.00    -0.389 OA
HETATM   32  H43 UNL     1      -2.232  11.274  14.548  1.00  0.00     0.210 HD
ENDBRANCH  17  31
BRANCH   4  33
HETATM   33  C9  UNL     1      -1.988   8.624  16.439  1.00  0.00     0.068 C 
HETATM   34  N1  UNL     1      -1.150   9.519  16.842  1.00  0.00    -0.401 N 
ATOM     35  H1  UNL     1      -0.362   9.837  16.278  1.00  0.00     0.158 HD
BRANCH  34  36
HETATM   36  C10 UNL     1      -1.432  10.040  18.190  1.00  0.00     0.121 C 
BRANCH  36  37
HETATM   37  C11 UNL     1      -2.941  10.216  18.359  1.00  0.00     0.045 C 
BRANCH  37  38
HETATM   38  C12 UNL     1      -3.369  11.666  18.183  1.00  0.00     0.165 C 
BRANCH  38  39
HETATM   39  O3  UNL     1      -4.173  12.100  19.276  1.00  0.00    -0.401 OA
HETATM   40  H20 UNL     1      -3.630  12.039  20.085  1.00  0.00     0.209 HD
ENDBRANCH  38  39
ENDBRANCH  37  38
ENDBRANCH  36  37
ENDBRANCH  34  36
ENDBRANCH   4  33
BRANCH  13  41
HETATM   41  O6  UNL     1      -6.733   8.282  14.840  1.00  0.00    -0.389 OA
HETATM   42  H37 UNL     1      -6.649   9.140  14.389  1.00  0.00     0.210 HD
ENDBRANCH  13  41
BRANCH  10  43
HETATM   43  C19 UNL     1      -6.208   3.970  13.097  1.00  0.00    -0.045 A 
HETATM   44  C20 UNL     1      -6.789   2.851  12.644  1.00  0.00     0.087 A 
HETATM   45  C21 UNL     1      -5.785   2.120  11.868  1.00  0.00     0.283 A 
HETATM   46  O4  UNL     1      -5.975   1.059  11.292  1.00  0.00    -0.260 OA
HETATM   47  O5  UNL     1      -4.616   2.815  11.886  1.00  0.00    -0.314 OA
HETATM   48  C22 UNL     1      -4.802   4.024  12.620  1.00  0.00     0.213 A 
ENDBRANCH  10  43
TORSDOF 12
ENDMDL
MODEL 5
REMARK minimizedAffinity -8.53238392
REMARK CNNscore 0.433402628
REMARK CNNaffinity 6.62033892
REMARK  12 active torsions:
REMARK  status: ('A' for Active; 'I' for Inactive)
REMARK    1  A    between atoms: O1_2  and  C2_3 
REMARK    2  A    between atoms: C4_5  and  O2_6 
REMARK    3  A    between atoms: O2_6  and  C5_7 
REMARK    4  A    between atoms: C8_10  and  C9_11 
REMARK    5  A    between atoms: N1_12  and  C10_14 
REMARK    6  A    between atoms: C10_14  and  C11_15 
REMARK    7  A    between atoms: C11_15  and  C12_16 
REMARK    8  A    between atoms: C12_16  and  O3_17 
REMARK    9  A    between atoms: C18_23  and  C19_24 
REMARK   10  A    between atoms: C25_32  and  O6_33 
REMARK   11  A    between atoms: C29_37  and  O7_38 
REMARK   12  A    between atoms: C33_43  and  O9_44 
ROOT
HETATM    1  C5  UNL     1       2.410   7.564  11.608  1.00  0.00     0.127 C 
HETATM    2  C6  UNL     1       1.592   6.298  11.472  1.00  0.00     0.033 C 
HETATM    3  C7  UNL     1       0.889   5.975  12.780  1.00  0.00     0.021 C 
HETATM    4  C8  UNL     1       0.045   7.151  13.368  1.00  0.00     0.026 C 
HETATM    5  C13 UNL     1      -1.454   6.631  13.429  1.00  0.00     0.009 C 
HETATM    6  C14 UNL     1      -1.703   5.632  14.564  1.00  0.00     0.007 C 
HETATM    7  C15 UNL     1      -3.057   4.976  14.327  1.00  0.00     0.013 C 
HETATM    8  C16 UNL     1      -4.224   5.969  14.496  1.00  0.00    -0.005 C 
HETATM    9  C17 UNL     1      -4.472   6.107  16.025  1.00  0.00     0.019 C 
HETATM   10  C18 UNL     1      -5.570   5.423  13.855  1.00  0.00     0.028 C 
HETATM   11  C23 UNL     1      -6.232   6.694  13.305  1.00  0.00     0.013 C 
HETATM   12  C24 UNL     1      -5.063   7.509  12.749  1.00  0.00     0.040 C 
HETATM   13  C25 UNL     1      -3.974   7.393  13.830  1.00  0.00     0.070 C 
HETATM   14  C26 UNL     1      -2.495   7.766  13.433  1.00  0.00     0.026 C 
HETATM   15  C27 UNL     1      -2.374   8.543  12.093  1.00  0.00     0.011 C 
HETATM   16  C28 UNL     1      -0.959   8.555  11.480  1.00  0.00     0.039 C 
HETATM   17  C29 UNL     1       0.148   8.494  12.545  1.00  0.00     0.073 C 
HETATM   18  C30 UNL     1       1.549   8.775  11.940  1.00  0.00     0.071 C 
ENDROOT
BRANCH   1  19
HETATM   19  O2  UNL     1       3.116   7.752  10.377  1.00  0.00    -0.356 OA
BRANCH  19  20
HETATM   20  C4  UNL     1       4.525   7.560  10.512  1.00  0.00     0.263 C 
HETATM   21  C3  UNL     1       5.200   8.924  10.404  1.00  0.00     0.095 C 
HETATM   22  C2  UNL     1       6.715   8.740  10.496  1.00  0.00     0.156 C 
HETATM   23  C33 UNL     1       7.077   7.995  11.791  1.00  0.00     0.175 C 
HETATM   24  C31 UNL     1       6.234   6.724  11.999  1.00  0.00     0.151 C 
HETATM   25  O8  UNL     1       4.838   6.947  11.764  1.00  0.00    -0.354 OA
HETATM   26  C32 UNL     1       6.721   5.533  11.168  1.00  0.00     0.042 C 
BRANCH  22  27
HETATM   27  O1  UNL     1       7.413   9.999  10.537  1.00  0.00    -0.388 OA
HETATM   28  C1  UNL     1       6.688  11.043  11.180  1.00  0.00     0.202 C 
ENDBRANCH  22  27
BRANCH  23  29
HETATM   29  O9  UNL     1       6.857   8.879  12.906  1.00  0.00    -0.390 OA
HETATM   30  H51 UNL     1       7.181   9.752  12.603  1.00  0.00     0.210 HD
ENDBRANCH  23  29
ENDBRANCH  19  20
ENDBRANCH   1  19
BRANCH  17  31
HETATM   31  O7  UNL     1      -0.173   9.624  13.398  1.00  0.00    -0.389 OA
HETATM   32  H43 UNL     1       0.413  10.362  13.151  1.00  0.00     0.210 HD
ENDBRANCH  17  31
BRANCH   4  33
HETATM   33  C9  UNL     1       0.569   7.527  14.762  1.00  0.00     0.068 C 
HETATM   34  N1  UNL     1       1.728   7.126  15.167  1.00  0.00    -0.401 N 
ATOM     35  H1  UNL     1       2.305   6.472  14.638  1.00  0.00     0.158 HD
BRANCH  34  36
HETATM   36  C10 UNL     1       2.142   7.697  16.459  1.00  0.00     0.121 C 
BRANCH  36  37
HETATM   37  C11 UNL     1       2.801   9.055  16.225  1.00  0.00     0.045 C 
BRANCH  37  38
HETATM   38  C12 UNL     1       2.070  10.176  16.948  1.00  0.00     0.165 C 
BRANCH  38  39
HETATM   39  O3  UNL     1       1.170   9.658  17.922  1.00  0.00    -0.401 OA
HETATM   40  H20 UNL     1       1.698   9.166  18.580  1.00  0.00     0.209 HD
ENDBRANCH  38  39
ENDBRANCH  37  38
ENDBRANCH  36  37
ENDBRANCH  34  36
ENDBRANCH   4  33
BRANCH  13  41
HETATM   41  O6  UNL     1      -4.369   8.423  14.784  1.00  0.00    -0.389 OA
HETATM   42  H37 UNL     1      -4.220   9.287  14.361  1.00  0.00     0.210 HD
ENDBRANCH  13  41
BRANCH  10  43
HETATM   43  C19 UNL     1      -5.479   4.327  12.809  1.00  0.00    -0.045 A 
HETATM   44  C20 UNL     1      -6.194   3.195  12.788  1.00  0.00     0.087 A 
HETATM   45  C21 UNL     1      -5.797   2.448  11.593  1.00  0.00     0.283 A 
HETATM   46  O4  UNL     1      -6.261   1.371  11.248  1.00  0.00    -0.260 OA
HETATM   47  O5  UNL     1      -4.838   3.148  10.930  1.00  0.00    -0.314 OA
HETATM   48  C22 UNL     1      -4.595   4.374  11.616  1.00  0.00     0.213 A 
ENDBRANCH  10  43
TORSDOF 12
ENDMDL
MODEL 6
REMARK minimizedAffinity -6.81736946
REMARK CNNscore 0.305224806
REMARK CNNaffinity 6.30600119
REMARK  12 active torsions:
REMARK  status: ('A' for Active; 'I' for Inactive)
REMARK    1  A    between atoms: O1_2  and  C2_3 
REMARK    2  A    between atoms: C4_5  and  O2_6 
REMARK    3  A    between atoms: O2_6  and  C5_7 
REMARK    4  A    between atoms: C8_10  and  C9_11 
REMARK    5  A    between atoms: N1_12  and  C10_14 
REMARK    6  A    between atoms: C10_14  and  C11_15 
REMARK    7  A    between atoms: C11_15  and  C12_16 
REMARK    8  A    between atoms: C12_16  and  O3_17 
REMARK    9  A    between atoms: C18_23  and  C19_24 
REMARK   10  A    between atoms: C25_32  and  O6_33 
REMARK   11  A    between atoms: C29_37  and  O7_38 
REMARK   12  A    between atoms: C33_43  and  O9_44 
ROOT
HETATM    1  C5  UNL     1      -3.369  11.736  17.536  1.00  0.00     0.127 C 
HETATM    2  C6  UNL     1      -4.156  10.794  16.651  1.00  0.00     0.033 C 
HETATM    3  C7  UNL     1      -3.572  10.768  15.249  1.00  0.00     0.021 C 
HETATM    4  C8  UNL     1      -2.039  10.471  15.192  1.00  0.00     0.026 C 
HETATM    5  C13 UNL     1      -1.879   9.131  14.356  1.00  0.00     0.009 C 
HETATM    6  C14 UNL     1      -2.090   9.327  12.851  1.00  0.00     0.007 C 
HETATM    7  C15 UNL     1      -2.228   7.952  12.211  1.00  0.00     0.013 C 
HETATM    8  C16 UNL     1      -0.911   7.151  12.260  1.00  0.00    -0.005 C 
HETATM    9  C17 UNL     1      -0.022   7.686  11.102  1.00  0.00     0.019 C 
HETATM   10  C18 UNL     1      -1.143   5.603  11.990  1.00  0.00     0.028 C 
HETATM   11  C23 UNL     1      -0.109   4.934  12.907  1.00  0.00     0.013 C 
HETATM   12  C24 UNL     1      -0.129   5.790  14.175  1.00  0.00     0.040 C 
HETATM   13  C25 UNL     1      -0.144   7.237  13.652  1.00  0.00     0.070 C 
HETATM   14  C26 UNL     1      -0.567   8.380  14.652  1.00  0.00     0.026 C 
HETATM   15  C27 UNL     1      -0.580   7.946  16.144  1.00  0.00     0.011 C 
HETATM   16  C28 UNL     1      -1.370   8.882  17.081  1.00  0.00     0.039 C 
HETATM   17  C29 UNL     1      -1.353  10.345  16.608  1.00  0.00     0.073 C 
HETATM   18  C30 UNL     1      -1.916  11.308  17.687  1.00  0.00     0.071 C 
ENDROOT
BRANCH   1  19
HETATM   19  O2  UNL     1      -4.029  11.784  18.805  1.00  0.00    -0.356 OA
BRANCH  19  20
HETATM   20  C4  UNL     1      -4.567  13.074  19.101  1.00  0.00     0.263 C 
HETATM   21  C3  UNL     1      -5.162  13.027  20.505  1.00  0.00     0.095 C 
HETATM   22  C2  UNL     1      -5.789  14.384  20.827  1.00  0.00     0.156 C 
HETATM   23  C33 UNL     1      -4.746  15.501  20.656  1.00  0.00     0.175 C 
HETATM   24  C31 UNL     1      -3.996  15.411  19.314  1.00  0.00     0.151 C 
HETATM   25  O8  UNL     1      -3.555  14.078  19.021  1.00  0.00    -0.354 OA
HETATM   26  C32 UNL     1      -4.799  15.968  18.135  1.00  0.00     0.042 C 
BRANCH  22  27
HETATM   27  O1  UNL     1      -6.251  14.459  22.189  1.00  0.00    -0.388 OA
HETATM   28  C1  UNL     1      -7.130  13.402  22.562  1.00  0.00     0.202 C 
ENDBRANCH  22  27
BRANCH  23  29
HETATM   29  O9  UNL     1      -3.787  15.400  21.724  1.00  0.00    -0.390 OA
HETATM   30  H51 UNL     1      -4.317  15.189  22.520  1.00  0.00     0.210 HD
ENDBRANCH  23  29
ENDBRANCH  19  20
ENDBRANCH   1  19
BRANCH  17  31
HETATM   31  O7  UNL     1       0.067  10.624  16.498  1.00  0.00    -0.389 OA
HETATM   32  H43 UNL     1       0.340  11.112  17.296  1.00  0.00     0.210 HD
ENDBRANCH  17  31
BRANCH   4  33
HETATM   33  C9  UNL     1      -1.303  11.644  14.525  1.00  0.00     0.068 C 
HETATM   34  N1  UNL     1      -1.739  12.854  14.642  1.00  0.00    -0.401 N 
ATOM     35  H1  UNL     1      -2.627  13.084  15.088  1.00  0.00     0.158 HD
BRANCH  34  36
HETATM   36  C10 UNL     1      -0.839  13.872  14.074  1.00  0.00     0.121 C 
BRANCH  36  37
HETATM   37  C11 UNL     1      -1.662  14.894  13.291  1.00  0.00     0.045 C 
BRANCH  37  38
HETATM   38  C12 UNL     1      -0.783  15.804  12.444  1.00  0.00     0.165 C 
BRANCH  38  39
HETATM   39  O3  UNL     1      -1.558  16.525  11.491  1.00  0.00    -0.401 OA
HETATM   40  H20 UNL     1      -2.188  17.084  11.985  1.00  0.00     0.209 HD
ENDBRANCH  38  39
ENDBRANCH  37  38
ENDBRANCH  36  37
ENDBRANCH  34  36
ENDBRANCH   4  33
BRANCH  13  41
HETATM   41  O6  UNL     1       1.268   7.488  13.385  1.00  0.00    -0.389 OA
HETATM   42  H37 UNL     1       1.726   7.529  14.243  1.00  0.00     0.210 HD
ENDBRANCH  13  41
BRANCH  10  43
HETATM   43  C19 UNL     1      -2.537   5.037  12.190  1.00  0.00    -0.045 A 
HETATM   44  C20 UNL     1      -3.413   5.410  13.131  1.00  0.00     0.087 A 
HETATM   45  C21 UNL     1      -4.629   4.619  12.936  1.00  0.00     0.283 A 
HETATM   46  O4  UNL     1      -5.646   4.711  13.609  1.00  0.00    -0.260 OA
HETATM   47  O5  UNL     1      -4.447   3.776  11.884  1.00  0.00    -0.314 OA
HETATM   48  C22 UNL     1      -3.153   3.996  11.327  1.00  0.00     0.213 A 
ENDBRANCH  10  43
TORSDOF 12
ENDMDL
MODEL 7
REMARK minimizedAffinity -8.44870567
REMARK CNNscore 0.269923449
REMARK CNNaffinity 6.13641357
REMARK  12 active torsions:
REMARK  status: ('A' for Active; 'I' for Inactive)
REMARK    1  A    between atoms: O1_2  and  C2_3 
REMARK    2  A    between atoms: C4_5  and  O2_6 
REMARK    3  A    between atoms: O2_6  and  C5_7 
REMARK    4  A    between atoms: C8_10  and  C9_11 
REMARK    5  A    between atoms: N1_12  and  C10_14 
REMARK    6  A    between atoms: C10_14  and  C11_15 
REMARK    7  A    between atoms: C11_15  and  C12_16 
REMARK    8  A    between atoms: C12_16  and  O3_17 
REMARK    9  A    between atoms: C18_23  and  C19_24 
REMARK   10  A    between atoms: C25_32  and  O6_33 
REMARK   11  A    between atoms: C29_37  and  O7_38 
REMARK   12  A    between atoms: C33_43  and  O9_44 
ROOT
HETATM    1  C5  UNL     1       2.186   8.360  13.988  1.00  0.00     0.127 C 
HETATM    2  C6  UNL     1       1.431   7.049  13.927  1.00  0.00     0.033 C 
HETATM    3  C7  UNL     1       0.338   7.014  14.982  1.00  0.00     0.021 C 
HETATM    4  C8  UNL     1      -0.629   8.241  14.952  1.00  0.00     0.026 C 
HETATM    5  C13 UNL     1      -2.077   7.656  14.666  1.00  0.00     0.009 C 
HETATM    6  C14 UNL     1      -2.698   6.955  15.878  1.00  0.00     0.007 C 
HETATM    7  C15 UNL     1      -3.914   6.174  15.400  1.00  0.00     0.013 C 
HETATM    8  C16 UNL     1      -5.055   7.100  14.932  1.00  0.00    -0.005 C 
HETATM    9  C17 UNL     1      -5.780   7.595  16.215  1.00  0.00     0.019 C 
HETATM   10  C18 UNL     1      -6.132   6.327  14.059  1.00  0.00     0.028 C 
HETATM   11  C23 UNL     1      -6.557   7.378  13.023  1.00  0.00     0.013 C 
HETATM   12  C24 UNL     1      -5.256   8.104  12.677  1.00  0.00     0.040 C 
HETATM   13  C25 UNL     1      -4.576   8.329  14.040  1.00  0.00     0.070 C 
HETATM   14  C26 UNL     1      -3.041   8.688  14.050  1.00  0.00     0.026 C 
HETATM   15  C27 UNL     1      -2.479   9.116  12.667  1.00  0.00     0.011 C 
HETATM   16  C28 UNL     1      -0.943   9.068  12.552  1.00  0.00     0.039 C 
HETATM   17  C29 UNL     1      -0.240   9.344  13.891  1.00  0.00     0.073 C 
HETATM   18  C30 UNL     1       1.286   9.557  13.710  1.00  0.00     0.071 C 
ENDROOT
BRANCH   1  19
HETATM   19  O2  UNL     1       3.254   8.283  13.039  1.00  0.00    -0.356 OA
BRANCH  19  20
HETATM   20  C4  UNL     1       2.842   7.738  11.785  1.00  0.00     0.263 C 
HETATM   21  C3  UNL     1       3.841   6.652  11.392  1.00  0.00     0.095 C 
HETATM   22  C2  UNL     1       3.449   6.085  10.027  1.00  0.00     0.156 C 
HETATM   23  C33 UNL     1       1.998   5.578  10.063  1.00  0.00     0.175 C 
HETATM   24  C31 UNL     1       1.025   6.609  10.665  1.00  0.00     0.151 C 
HETATM   25  O8  UNL     1       1.524   7.194  11.875  1.00  0.00    -0.354 OA
HETATM   26  C32 UNL     1       0.626   7.709   9.677  1.00  0.00     0.042 C 
BRANCH  22  27
HETATM   27  O1  UNL     1       4.267   4.961   9.652  1.00  0.00    -0.388 OA
HETATM   28  C1  UNL     1       3.881   4.345   8.427  1.00  0.00     0.202 C 
ENDBRANCH  22  27
BRANCH  23  29
HETATM   29  O9  UNL     1       1.949   4.382  10.863  1.00  0.00    -0.390 OA
HETATM   30  H51 UNL     1       2.755   3.883  10.618  1.00  0.00     0.210 HD
ENDBRANCH  23  29
ENDBRANCH  19  20
ENDBRANCH   1  19
BRANCH  17  31
HETATM   31  O7  UNL     1      -0.797  10.626  14.281  1.00  0.00    -0.389 OA
HETATM   32  H43 UNL     1      -0.149  11.317  14.053  1.00  0.00     0.210 HD
ENDBRANCH  17  31
BRANCH   4  33
HETATM   33  C9  UNL     1      -0.575   8.984  16.297  1.00  0.00     0.068 C 
HETATM   34  N1  UNL     1       0.315   9.892  16.519  1.00  0.00    -0.401 N 
ATOM     35  H1  UNL     1       1.075  10.096  15.869  1.00  0.00     0.158 HD
BRANCH  34  36
HETATM   36  C10 UNL     1       0.134  10.608  17.792  1.00  0.00     0.121 C 
BRANCH  36  37
HETATM   37  C11 UNL     1       1.320  11.545  18.019  1.00  0.00     0.045 C 
BRANCH  37  38
HETATM   38  C12 UNL     1       2.651  10.819  17.898  1.00  0.00     0.165 C 
BRANCH  38  39
HETATM   39  O3  UNL     1       2.577   9.512  18.460  1.00  0.00    -0.401 OA
HETATM   40  H20 UNL     1       1.910   9.011  17.954  1.00  0.00     0.209 HD
ENDBRANCH  38  39
ENDBRANCH  37  38
ENDBRANCH  36  37
ENDBRANCH  34  36
ENDBRANCH   4  33
BRANCH  13  41
HETATM   41  O6  UNL     1      -5.238   9.535  14.524  1.00  0.00    -0.389 OA
HETATM   42  H37 UNL     1      -4.945  10.275  13.966  1.00  0.00     0.210 HD
ENDBRANCH  13  41
BRANCH  10  43
HETATM   43  C19 UNL     1      -5.729   5.015  13.411  1.00  0.00    -0.045 A 
HETATM   44  C20 UNL     1      -6.562   4.055  12.989  1.00  0.00     0.087 A 
HETATM   45  C21 UNL     1      -5.742   2.987  12.413  1.00  0.00     0.283 A 
HETATM   46  O4  UNL     1      -6.174   1.958  11.914  1.00  0.00    -0.260 OA
HETATM   47  O5  UNL     1      -4.430   3.328  12.515  1.00  0.00    -0.314 OA
HETATM   48  C22 UNL     1      -4.328   4.621  13.110  1.00  0.00     0.213 A 
ENDBRANCH  10  43
TORSDOF 12
ENDMDL
MODEL 8
REMARK minimizedAffinity -7.13830519
REMARK CNNscore 0.269009709
REMARK CNNaffinity 6.92338562
REMARK  12 active torsions:
REMARK  status: ('A' for Active; 'I' for Inactive)
REMARK    1  A    between atoms: O1_2  and  C2_3 
REMARK    2  A    between atoms: C4_5  and  O2_6 
REMARK    3  A    between atoms: O2_6  and  C5_7 
REMARK    4  A    between atoms: C8_10  and  C9_11 
REMARK    5  A    between atoms: N1_12  and  C10_14 
REMARK    6  A    between atoms: C10_14  and  C11_15 
REMARK    7  A    between atoms: C11_15  and  C12_16 
REMARK    8  A    between atoms: C12_16  and  O3_17 
REMARK    9  A    between atoms: C18_23  and  C19_24 
REMARK   10  A    between atoms: C25_32  and  O6_33 
REMARK   11  A    between atoms: C29_37  and  O7_38 
REMARK   12  A    between atoms: C33_43  and  O9_44 
ROOT
HETATM    1  C5  UNL     1     -10.433   6.670  13.068  1.00  0.00     0.127 C 
HETATM    2  C6  UNL     1     -10.939   7.835  12.245  1.00  0.00     0.033 C 
HETATM    3  C7  UNL     1     -12.222   8.390  12.840  1.00  0.00     0.021 C 
HETATM    4  C8  UNL     1     -12.129   8.750  14.357  1.00  0.00     0.026 C 
HETATM    5  C13 UNL     1     -12.421  10.308  14.461  1.00  0.00     0.009 C 
HETATM    6  C14 UNL     1     -13.900  10.660  14.273  1.00  0.00     0.007 C 
HETATM    7  C15 UNL     1     -14.005  12.167  14.075  1.00  0.00     0.013 C 
HETATM    8  C16 UNL     1     -13.637  12.949  15.352  1.00  0.00    -0.005 C 
HETATM    9  C17 UNL     1     -14.886  12.905  16.276  1.00  0.00     0.019 C 
HETATM   10  C18 UNL     1     -13.336  14.479  15.048  1.00  0.00     0.028 C 
HETATM   11  C23 UNL     1     -12.214  14.814  16.041  1.00  0.00     0.013 C 
HETATM   12  C24 UNL     1     -11.340  13.558  16.050  1.00  0.00     0.040 C 
HETATM   13  C25 UNL     1     -12.350  12.398  16.109  1.00  0.00     0.070 C 
HETATM   14  C26 UNL     1     -11.840  10.955  15.732  1.00  0.00     0.026 C 
HETATM   15  C27 UNL     1     -10.293  10.819  15.685  1.00  0.00     0.011 C 
HETATM   16  C28 UNL     1      -9.777   9.577  14.932  1.00  0.00     0.039 C 
HETATM   17  C29 UNL     1     -10.745   8.385  15.023  1.00  0.00     0.073 C 
HETATM   18  C30 UNL     1     -10.101   7.075  14.498  1.00  0.00     0.071 C 
ENDROOT
BRANCH   1  19
HETATM   19  O2  UNL     1      -9.284   6.140  12.399  1.00  0.00    -0.356 OA
BRANCH  19  20
HETATM   20  C4  UNL     1      -8.229   5.798  13.299  1.00  0.00     0.263 C 
HETATM   21  C3  UNL     1      -7.350   4.751  12.620  1.00  0.00     0.095 C 
HETATM   22  C2  UNL     1      -6.240   4.331  13.584  1.00  0.00     0.156 C 
HETATM   23  C33 UNL     1      -5.450   5.566  14.048  1.00  0.00     0.175 C 
HETATM   24  C31 UNL     1      -6.363   6.705  14.535  1.00  0.00     0.151 C 
HETATM   25  O8  UNL     1      -7.458   6.950  13.642  1.00  0.00    -0.354 OA
HETATM   26  C32 UNL     1      -6.886   6.493  15.958  1.00  0.00     0.042 C 
BRANCH  22  27
HETATM   27  O1  UNL     1      -5.290   3.445  12.963  1.00  0.00    -0.388 OA
HETATM   28  C1  UNL     1      -5.741   2.878  11.736  1.00  0.00     0.202 C 
ENDBRANCH  22  27
BRANCH  23  29
HETATM   29  O9  UNL     1      -4.663   6.049  12.943  1.00  0.00    -0.390 OA
HETATM   30  H51 UNL     1      -4.318   5.243  12.508  1.00  0.00     0.210 HD
ENDBRANCH  23  29
ENDBRANCH  19  20
ENDBRANCH   1  19
BRANCH  17  31
HETATM   31  O7  UNL     1     -10.911   8.223  16.456  1.00  0.00    -0.389 OA
HETATM   32  H43 UNL     1     -10.336   7.492  16.745  1.00  0.00     0.210 HD
ENDBRANCH  17  31
BRANCH   4  33
HETATM   33  C9  UNL     1     -13.154   7.929  15.155  1.00  0.00     0.068 C 
HETATM   34  N1  UNL     1     -13.962   7.117  14.560  1.00  0.00    -0.401 N 
ATOM     35  H1  UNL     1     -14.032   7.048  13.544  1.00  0.00     0.158 HD
BRANCH  34  36
HETATM   36  C10 UNL     1     -14.772   6.299  15.477  1.00  0.00     0.121 C 
BRANCH  36  37
HETATM   37  C11 UNL     1     -15.790   5.492  14.671  1.00  0.00     0.045 C 
BRANCH  37  38
HETATM   38  C12 UNL     1     -15.922   4.066  15.185  1.00  0.00     0.165 C 
BRANCH  38  39
HETATM   39  O3  UNL     1     -14.799   3.277  14.807  1.00  0.00    -0.401 OA
HETATM   40  H20 UNL     1     -14.007   3.676  15.216  1.00  0.00     0.209 HD
ENDBRANCH  38  39
ENDBRANCH  37  38
ENDBRANCH  36  37
ENDBRANCH  34  36
ENDBRANCH   4  33
BRANCH  13  41
HETATM   41  O6  UNL     1     -12.653  12.319  17.534  1.00  0.00    -0.389 OA
HETATM   42  H37 UNL     1     -11.856  11.990  17.985  1.00  0.00     0.210 HD
ENDBRANCH  13  41
BRANCH  10  43
HETATM   43  C19 UNL     1     -12.982  14.877  13.627  1.00  0.00    -0.045 A 
HETATM   44  C20 UNL     1     -13.357  14.237  12.512  1.00  0.00     0.087 A 
HETATM   45  C21 UNL     1     -12.811  14.981  11.376  1.00  0.00     0.283 A 
HETATM   46  O4  UNL     1     -12.971  14.690  10.200  1.00  0.00    -0.260 OA
HETATM   47  O5  UNL     1     -12.106  16.047  11.840  1.00  0.00    -0.314 OA
HETATM   48  C22 UNL     1     -12.188  16.079  13.263  1.00  0.00     0.213 A 
ENDBRANCH  10  43
TORSDOF 12
ENDMDL
MODEL 9
REMARK minimizedAffinity -6.98896408
REMARK CNNscore 0.263361871
REMARK CNNaffinity 5.63090706
REMARK  12 active torsions:
REMARK  status: ('A' for Active; 'I' for Inactive)
REMARK    1  A    between atoms: O1_2  and  C2_3 
REMARK    2  A    between atoms: C4_5  and  O2_6 
REMARK    3  A    between atoms: O2_6  and  C5_7 
REMARK    4  A    between atoms: C8_10  and  C9_11 
REMARK    5  A    between atoms: N1_12  and  C10_14 
REMARK    6  A    between atoms: C10_14  and  C11_15 
REMARK    7  A    between atoms: C11_15  and  C12_16 
REMARK    8  A    between atoms: C12_16  and  O3_17 
REMARK    9  A    between atoms: C18_23  and  C19_24 
REMARK   10  A    between atoms: C25_32  and  O6_33 
REMARK   11  A    between atoms: C29_37  and  O7_38 
REMARK   12  A    between atoms: C33_43  and  O9_44 
ROOT
HETATM    1  C5  UNL     1      -2.584   9.713  14.643  1.00  0.00     0.127 C 
HETATM    2  C6  UNL     1      -3.796   9.619  15.544  1.00  0.00     0.033 C 
HETATM    3  C7  UNL     1      -3.471  10.147  16.931  1.00  0.00     0.021 C 
HETATM    4  C8  UNL     1      -2.847  11.579  16.948  1.00  0.00     0.026 C 
HETATM    5  C13 UNL     1      -3.851  12.490  17.775  1.00  0.00     0.009 C 
HETATM    6  C14 UNL     1      -3.793  12.240  19.285  1.00  0.00     0.007 C 
HETATM    7  C15 UNL     1      -4.997  12.919  19.923  1.00  0.00     0.013 C 
HETATM    8  C16 UNL     1      -4.913  14.456  19.838  1.00  0.00    -0.005 C 
HETATM    9  C17 UNL     1      -3.955  14.912  20.974  1.00  0.00     0.019 C 
HETATM   10  C18 UNL     1      -6.317  15.147  20.108  1.00  0.00     0.028 C 
HETATM   11  C23 UNL     1      -6.294  16.357  19.162  1.00  0.00     0.013 C 
HETATM   12  C24 UNL     1      -5.615  15.827  17.898  1.00  0.00     0.040 C 
HETATM   13  C25 UNL     1      -4.423  15.007  18.427  1.00  0.00     0.070 C 
HETATM   14  C26 UNL     1      -3.732  13.989  17.442  1.00  0.00     0.026 C 
HETATM   15  C27 UNL     1      -4.115  14.189  15.949  1.00  0.00     0.011 C 
HETATM   16  C28 UNL     1      -3.801  12.987  15.036  1.00  0.00     0.039 C 
HETATM   17  C29 UNL     1      -2.580  12.184  15.514  1.00  0.00     0.073 C 
HETATM   18  C30 UNL     1      -2.116  11.150  14.453  1.00  0.00     0.071 C 
ENDROOT
BRANCH   1  19
HETATM   19  O2  UNL     1      -2.933   9.113  13.392  1.00  0.00    -0.356 OA
BRANCH  19  20
HETATM   20  C4  UNL     1      -2.349   7.820  13.217  1.00  0.00     0.263 C 
HETATM   21  C3  UNL     1      -0.849   7.942  13.469  1.00  0.00     0.095 C 
HETATM   22  C2  UNL     1      -0.193   6.579  13.240  1.00  0.00     0.156 C 
HETATM   23  C33 UNL     1      -0.865   5.515  14.123  1.00  0.00     0.175 C 
HETATM   24  C31 UNL     1      -2.401   5.544  14.022  1.00  0.00     0.151 C 
HETATM   25  O8  UNL     1      -2.931   6.873  14.113  1.00  0.00    -0.354 OA
HETATM   26  C32 UNL     1      -2.936   4.852  12.765  1.00  0.00     0.042 C 
BRANCH  22  27
HETATM   27  O1  UNL     1       1.203   6.584  13.591  1.00  0.00    -0.388 OA
HETATM   28  C1  UNL     1       2.080   6.749  12.481  1.00  0.00     0.202 C 
ENDBRANCH  22  27
BRANCH  23  29
HETATM   29  O9  UNL     1      -0.491   5.753  15.493  1.00  0.00    -0.390 OA
HETATM   30  H51 UNL     1       0.457   5.994  15.457  1.00  0.00     0.210 HD
ENDBRANCH  23  29
ENDBRANCH  19  20
ENDBRANCH   1  19
BRANCH  17  31
HETATM   31  O7  UNL     1      -1.545  13.198  15.588  1.00  0.00    -0.389 OA
HETATM   32  H43 UNL     1      -0.997  13.128  14.785  1.00  0.00     0.210 HD
ENDBRANCH  17  31
BRANCH   4  33
HETATM   33  C9  UNL     1      -1.456  11.538  17.599  1.00  0.00     0.068 C 
HETATM   34  N1  UNL     1      -1.001  12.550  18.258  1.00  0.00    -0.401 N 
ATOM     35  H1  UNL     1      -1.483  13.448  18.301  1.00  0.00     0.158 HD
BRANCH  34  36
HETATM   36  C10 UNL     1       0.277  12.294  18.944  1.00  0.00     0.121 C 
BRANCH  36  37
HETATM   37  C11 UNL     1       0.147  11.036  19.802  1.00  0.00     0.045 C 
BRANCH  37  38
HETATM   38  C12 UNL     1       1.459  10.673  20.482  1.00  0.00     0.165 C 
BRANCH  38  39
HETATM   39  O3  UNL     1       2.289   9.902  19.619  1.00  0.00    -0.401 OA
HETATM   40  H20 UNL     1       2.493  10.450  18.838  1.00  0.00     0.209 HD
ENDBRANCH  38  39
ENDBRANCH  37  38
ENDBRANCH  36  37
ENDBRANCH  34  36
ENDBRANCH   4  33
BRANCH  13  41
HETATM   41  O6  UNL     1      -3.415  16.035  18.658  1.00  0.00    -0.389 OA
HETATM   42  H37 UNL     1      -3.132  16.370  17.789  1.00  0.00     0.210 HD
ENDBRANCH  13  41
BRANCH  10  43
HETATM   43  C19 UNL     1      -7.575  14.314  19.942  1.00  0.00    -0.045 A 
HETATM   44  C20 UNL     1      -8.190  13.615  20.904  1.00  0.00     0.087 A 
HETATM   45  C21 UNL     1      -9.369  12.988  20.304  1.00  0.00     0.283 A 
HETATM   46  O4  UNL     1     -10.175  12.287  20.898  1.00  0.00    -0.260 OA
HETATM   47  O5  UNL     1      -9.426  13.318  18.986  1.00  0.00    -0.314 OA
HETATM   48  C22 UNL     1      -8.339  14.188  18.674  1.00  0.00     0.213 A 
ENDBRANCH  10  43
TORSDOF 12
ENDMDL
