MODEL 1
REMARK minimizedAffinity -8.84690285
REMARK CNNscore 0.283466578
REMARK CNNaffinity 6.61831427
REMARK  11 active torsions:
REMARK  status: ('A' for Active; 'I' for Inactive)
REMARK    1  A    between atoms: C2_2  and  C4_4 
REMARK    2  A    between atoms: C4_4  and  C6_6 
REMARK    3  A    between atoms: C7_7  and  C8_8 
REMARK    4  A    between atoms: C8_8  and  C10_10 
REMARK    5  A    between atoms: C24_24  and  O1_25 
REMARK    6  A    between atoms: O1_25  and  C25_26 
REMARK    7  A    between atoms: C26_28  and  C27_29 
REMARK    8  A    between atoms: C27_29  and  O3_30 
REMARK    9  A    between atoms: C28_31  and  O4_32 
REMARK   10  A    between atoms: C29_33  and  O5_34 
REMARK   11  A    between atoms: C30_35  and  O6_36 
ROOT
HETATM    1  C10 UNL     1      -4.113  12.684  18.074  1.00  0.00     0.001 C 
HETATM    2  C11 UNL     1      -4.723  12.703  16.657  1.00  0.00     0.006 C 
HETATM    3  C12 UNL     1      -3.586  13.123  15.757  1.00  0.00     0.009 C 
HETATM    4  C13 UNL     1      -2.330  12.437  16.319  1.00  0.00     0.036 C 
HETATM    5  C14 UNL     1      -2.646  12.116  17.823  1.00  0.00    -0.033 C 
HETATM    6  C15 UNL     1      -1.540  12.729  18.706  1.00  0.00     0.016 C 
HETATM    7  C16 UNL     1      -2.606  10.585  18.107  1.00  0.00     0.010 C 
HETATM    8  C17 UNL     1      -3.275   9.711  17.055  1.00  0.00     0.010 C 
HETATM    9  C18 UNL     1      -2.757   9.961  15.627  1.00  0.00     0.039 C 
HETATM   10  C19 UNL     1      -1.844  11.221  15.490  1.00  0.00     0.123 C 
HETATM   11  C20 UNL     1      -0.381  10.910  15.733  1.00  0.00     0.014 C 
HETATM   12  C21 UNL     1       0.117   9.983  14.903  1.00  0.00     0.014 C 
HETATM   13  C22 UNL     1      -0.927   9.347  14.007  1.00  0.00     0.124 C 
HETATM   14  C23 UNL     1      -0.300   8.364  13.014  1.00  0.00     0.078 C 
HETATM   15  C24 UNL     1      -1.317   7.458  12.302  1.00  0.00     0.128 C 
HETATM   16  C31 UNL     1      -2.773   7.859  12.548  1.00  0.00     0.033 C 
HETATM   17  C32 UNL     1      -3.112   7.951  14.037  1.00  0.00     0.015 C 
HETATM   18  C33 UNL     1      -2.060   8.722  14.898  1.00  0.00     0.001 C 
HETATM   19  C34 UNL     1      -1.441   7.697  15.892  1.00  0.00     0.019 C 
HETATM   20  O7  UNL     1      -1.542  10.409  13.228  1.00  0.00    -0.223 OA
HETATM   21  O8  UNL     1      -1.856  11.593  14.082  1.00  0.00    -0.224 OA
ENDROOT
BRANCH  15  22
HETATM   22  O1  UNL     1      -1.096   6.129  12.789  1.00  0.00    -0.353 OA
BRANCH  22  23
HETATM   23  C25 UNL     1      -1.426   5.088  11.873  1.00  0.00     0.292 C 
HETATM   24  O2  UNL     1      -2.625   4.469  12.343  1.00  0.00    -0.348 OA
HETATM   25  C26 UNL     1      -3.041   3.356  11.545  1.00  0.00     0.179 C 
HETATM   26  C28 UNL     1      -1.968   2.257  11.570  1.00  0.00     0.180 C 
HETATM   27  C29 UNL     1      -0.653   2.830  11.047  1.00  0.00     0.183 C 
HETATM   28  C30 UNL     1      -0.251   4.080  11.831  1.00  0.00     0.204 C 
BRANCH  25  29
HETATM   29  C27 UNL     1      -4.384   2.834  12.075  1.00  0.00     0.198 C 
BRANCH  29  30
HETATM   30  O3  UNL     1      -4.966   1.874  11.199  1.00  0.00    -0.398 OA
HETATM   31  H41 UNL     1      -4.245   1.261  10.931  1.00  0.00     0.209 HD
ENDBRANCH  29  30
ENDBRANCH  25  29
BRANCH  26  32
HETATM   32  O4  UNL     1      -2.350   1.133  10.769  1.00  0.00    -0.390 OA
HETATM   33  H43 UNL     1      -1.536   0.587  10.698  1.00  0.00     0.210 HD
ENDBRANCH  26  32
BRANCH  27  34
HETATM   34  O5  UNL     1       0.366   1.819  11.143  1.00  0.00    -0.390 OA
HETATM   35  H45 UNL     1       1.221   2.295  11.107  1.00  0.00     0.210 HD
ENDBRANCH  27  34
BRANCH  28  36
HETATM   36  O6  UNL     1       0.945   4.614  11.234  1.00  0.00    -0.388 OA
HETATM   37  H47 UNL     1       0.702   5.081  10.416  1.00  0.00     0.210 HD
ENDBRANCH  28  36
ENDBRANCH  22  23
ENDBRANCH  15  22
BRANCH   1  38
HETATM   38  C8  UNL     1      -4.228  14.070  18.799  1.00  0.00     0.008 C 
HETATM   39  C9  UNL     1      -3.116  14.276  19.841  1.00  0.00     0.014 C 
BRANCH  38  40
HETATM   40  C7  UNL     1      -5.527  14.232  19.567  1.00  0.00    -0.026 C 
HETATM   41  C6  UNL     1      -5.955  13.367  20.503  1.00  0.00    -0.026 C 
BRANCH  41  42
HETATM   42  C4  UNL     1      -7.257  13.528  21.258  1.00  0.00     0.007 C 
HETATM   43  C5  UNL     1      -7.951  14.817  20.807  1.00  0.00     0.014 C 
BRANCH  42  44
HETATM   44  C2  UNL     1      -7.027  13.430  22.792  1.00  0.00    -0.015 C 
HETATM   45  C1  UNL     1      -6.533  14.730  23.437  1.00  0.00     0.010 C 
HETATM   46  C3  UNL     1      -8.284  12.944  23.520  1.00  0.00     0.010 C 
ENDBRANCH  42  44
ENDBRANCH  41  42
ENDBRANCH  38  40
ENDBRANCH   1  38
TORSDOF 11
ENDMDL
MODEL 2
REMARK minimizedAffinity -9.8779583
REMARK CNNscore 0.268277019
REMARK CNNaffinity 6.80418587
REMARK  11 active torsions:
REMARK  status: ('A' for Active; 'I' for Inactive)
REMARK    1  A    between atoms: C2_2  and  C4_4 
REMARK    2  A    between atoms: C4_4  and  C6_6 
REMARK    3  A    between atoms: C7_7  and  C8_8 
REMARK    4  A    between atoms: C8_8  and  C10_10 
REMARK    5  A    between atoms: C24_24  and  O1_25 
REMARK    6  A    between atoms: O1_25  and  C25_26 
REMARK    7  A    between atoms: C26_28  and  C27_29 
REMARK    8  A    between atoms: C27_29  and  O3_30 
REMARK    9  A    between atoms: C28_31  and  O4_32 
REMARK   10  A    between atoms: C29_33  and  O5_34 
REMARK   11  A    between atoms: C30_35  and  O6_36 
ROOT
HETATM    1  C10 UNL     1      -4.971   6.575  15.186  1.00  0.00     0.001 C 
HETATM    2  C11 UNL     1      -3.976   5.398  15.118  1.00  0.00     0.006 C 
HETATM    3  C12 UNL     1      -3.554   5.338  13.669  1.00  0.00     0.009 C 
HETATM    4  C13 UNL     1      -3.443   6.799  13.203  1.00  0.00     0.036 C 
HETATM    5  C14 UNL     1      -4.336   7.638  14.184  1.00  0.00    -0.033 C 
HETATM    6  C15 UNL     1      -5.351   8.455  13.358  1.00  0.00     0.016 C 
HETATM    7  C16 UNL     1      -3.498   8.688  14.973  1.00  0.00     0.010 C 
HETATM    8  C17 UNL     1      -2.163   8.187  15.506  1.00  0.00     0.010 C 
HETATM    9  C18 UNL     1      -1.268   7.553  14.426  1.00  0.00     0.039 C 
HETATM   10  C19 UNL     1      -1.987   7.311  13.061  1.00  0.00     0.123 C 
HETATM   11  C20 UNL     1      -1.888   8.505  12.132  1.00  0.00     0.014 C 
HETATM   12  C21 UNL     1      -0.628   8.861  11.846  1.00  0.00     0.014 C 
HETATM   13  C22 UNL     1       0.414   8.088  12.628  1.00  0.00     0.124 C 
HETATM   14  C23 UNL     1       1.837   8.461  12.202  1.00  0.00     0.078 C 
HETATM   15  C24 UNL     1       2.929   7.960  13.159  1.00  0.00     0.128 C 
HETATM   16  C31 UNL     1       2.413   6.995  14.228  1.00  0.00     0.033 C 
HETATM   17  C32 UNL     1       1.248   7.578  15.030  1.00  0.00     0.015 C 
HETATM   18  C33 UNL     1       0.140   8.261  14.165  1.00  0.00     0.001 C 
HETATM   19  C34 UNL     1       0.139   9.774  14.531  1.00  0.00     0.019 C 
HETATM   20  O7  UNL     1       0.232   6.678  12.325  1.00  0.00    -0.223 OA
HETATM   21  O8  UNL     1      -1.212   6.301  12.355  1.00  0.00    -0.224 OA
ENDROOT
BRANCH  15  22
HETATM   22  O1  UNL     1       3.489   9.119  13.787  1.00  0.00    -0.353 OA
BRANCH  22  23
HETATM   23  C25 UNL     1       4.913   9.139  13.857  1.00  0.00     0.292 C 
HETATM   24  O2  UNL     1       5.398   8.095  13.011  1.00  0.00    -0.348 OA
HETATM   25  C26 UNL     1       6.823   7.961  13.034  1.00  0.00     0.179 C 
HETATM   26  C28 UNL     1       7.297   7.601  14.450  1.00  0.00     0.180 C 
HETATM   27  C29 UNL     1       6.846   8.691  15.420  1.00  0.00     0.183 C 
HETATM   28  C30 UNL     1       5.335   8.912  15.330  1.00  0.00     0.204 C 
BRANCH  25  29
HETATM   29  C27 UNL     1       7.241   6.887  12.019  1.00  0.00     0.198 C 
BRANCH  29  30
HETATM   30  O3  UNL     1       6.259   5.863  11.891  1.00  0.00    -0.398 OA
HETATM   31  H41 UNL     1       5.387   6.312  11.835  1.00  0.00     0.209 HD
ENDBRANCH  29  30
ENDBRANCH  25  29
BRANCH  26  32
HETATM   32  O4  UNL     1       8.722   7.472  14.509  1.00  0.00    -0.390 OA
HETATM   33  H43 UNL     1       8.931   7.434  15.468  1.00  0.00     0.210 HD
ENDBRANCH  26  32
BRANCH  27  34
HETATM   34  O5  UNL     1       7.227   8.313  16.754  1.00  0.00    -0.390 OA
HETATM   35  H45 UNL     1       6.666   8.846  17.355  1.00  0.00     0.210 HD
ENDBRANCH  27  34
BRANCH  28  36
HETATM   36  O6  UNL     1       4.993  10.004  16.202  1.00  0.00    -0.388 OA
HETATM   37  H47 UNL     1       5.243  10.838  15.769  1.00  0.00     0.210 HD
ENDBRANCH  28  36
ENDBRANCH  22  23
ENDBRANCH  15  22
BRANCH   1  38
HETATM   38  C8  UNL     1      -6.450   6.131  14.914  1.00  0.00     0.008 C 
HETATM   39  C9  UNL     1      -7.246   5.928  16.215  1.00  0.00     0.014 C 
BRANCH  38  40
HETATM   40  C7  UNL     1      -6.546   4.806  14.180  1.00  0.00    -0.026 C 
HETATM   41  C6  UNL     1      -6.729   4.697  12.853  1.00  0.00    -0.026 C 
BRANCH  41  42
HETATM   42  C4  UNL     1      -6.835   3.372  12.129  1.00  0.00     0.007 C 
HETATM   43  C5  UNL     1      -7.708   2.414  12.945  1.00  0.00     0.014 C 
BRANCH  42  44
HETATM   44  C2  UNL     1      -5.427   2.813  11.782  1.00  0.00    -0.015 C 
HETATM   45  C1  UNL     1      -5.420   1.333  11.386  1.00  0.00     0.010 C 
HETATM   46  C3  UNL     1      -4.748   3.639  10.685  1.00  0.00     0.010 C 
ENDBRANCH  42  44
ENDBRANCH  41  42
ENDBRANCH  38  40
ENDBRANCH   1  38
TORSDOF 11
ENDMDL
MODEL 3
REMARK minimizedAffinity -8.38175011
REMARK CNNscore 0.222136855
REMARK CNNaffinity 6.57558107
REMARK  11 active torsions:
REMARK  status: ('A' for Active; 'I' for Inactive)
REMARK    1  A    between atoms: C2_2  and  C4_4 
REMARK    2  A    between atoms: C4_4  and  C6_6 
REMARK    3  A    between atoms: C7_7  and  C8_8 
REMARK    4  A    between atoms: C8_8  and  C10_10 
REMARK    5  A    between atoms: C24_24  and  O1_25 
REMARK    6  A    between atoms: O1_25  and  C25_26 
REMARK    7  A    between atoms: C26_28  and  C27_29 
REMARK    8  A    between atoms: C27_29  and  O3_30 
REMARK    9  A    between atoms: C28_31  and  O4_32 
REMARK   10  A    between atoms: C29_33  and  O5_34 
REMARK   11  A    between atoms: C30_35  and  O6_36 
ROOT
HETATM    1  C10 UNL     1      -6.134   6.027  15.103  1.00  0.00     0.001 C 
HETATM    2  C11 UNL     1      -7.098   5.606  16.231  1.00  0.00     0.006 C 
HETATM    3  C12 UNL     1      -7.538   6.906  16.862  1.00  0.00     0.009 C 
HETATM    4  C13 UNL     1      -7.695   7.904  15.703  1.00  0.00     0.036 C 
HETATM    5  C14 UNL     1      -6.811   7.350  14.530  1.00  0.00    -0.033 C 
HETATM    6  C15 UNL     1      -5.829   8.452  14.082  1.00  0.00     0.016 C 
HETATM    7  C16 UNL     1      -7.665   7.015  13.271  1.00  0.00     0.010 C 
HETATM    8  C17 UNL     1      -8.978   6.298  13.549  1.00  0.00     0.010 C 
HETATM    9  C18 UNL     1      -9.871   7.022  14.572  1.00  0.00     0.039 C 
HETATM   10  C19 UNL     1      -9.165   8.201  15.315  1.00  0.00     0.123 C 
HETATM   11  C20 UNL     1      -9.308   9.520  14.582  1.00  0.00     0.014 C 
HETATM   12  C21 UNL     1     -10.581   9.894  14.391  1.00  0.00     0.014 C 
HETATM   13  C22 UNL     1     -11.591   8.847  14.816  1.00  0.00     0.124 C 
HETATM   14  C23 UNL     1     -13.030   9.353  14.666  1.00  0.00     0.078 C 
HETATM   15  C24 UNL     1     -14.095   8.251  14.774  1.00  0.00     0.128 C 
HETATM   16  C31 UNL     1     -13.539   6.902  15.233  1.00  0.00     0.033 C 
HETATM   17  C32 UNL     1     -12.379   6.419  14.360  1.00  0.00     0.015 C 
HETATM   18  C33 UNL     1     -11.301   7.508  14.049  1.00  0.00     0.001 C 
HETATM   19  C34 UNL     1     -11.335   7.763  12.514  1.00  0.00     0.019 C 
HETATM   20  O7  UNL     1     -11.376   8.579  16.229  1.00  0.00    -0.223 OA
HETATM   21  O8  UNL     1      -9.922   8.438  16.536  1.00  0.00    -0.224 OA
ENDROOT
BRANCH  15  22
HETATM   22  O1  UNL     1     -14.677   8.113  13.472  1.00  0.00    -0.353 OA
BRANCH  22  23
HETATM   23  C25 UNL     1     -15.908   8.807  13.284  1.00  0.00     0.292 C 
HETATM   24  O2  UNL     1     -16.688   8.622  14.468  1.00  0.00    -0.348 OA
HETATM   25  C26 UNL     1     -17.986   9.219  14.392  1.00  0.00     0.179 C 
HETATM   26  C28 UNL     1     -18.797   8.578  13.255  1.00  0.00     0.180 C 
HETATM   27  C29 UNL     1     -18.045   8.761  11.939  1.00  0.00     0.183 C 
HETATM   28  C30 UNL     1     -16.620   8.215  12.043  1.00  0.00     0.204 C 
BRANCH  25  29
HETATM   29  C27 UNL     1     -18.695   9.050  15.743  1.00  0.00     0.198 C 
BRANCH  29  30
HETATM   30  O3  UNL     1     -17.787   9.137  16.836  1.00  0.00    -0.398 OA
HETATM   31  H41 UNL     1     -17.200   9.904  16.656  1.00  0.00     0.209 HD
ENDBRANCH  29  30
ENDBRANCH  25  29
BRANCH  26  32
HETATM   32  O4  UNL     1     -20.100   9.163  13.145  1.00  0.00    -0.390 OA
HETATM   33  H43 UNL     1     -20.454   8.829  12.291  1.00  0.00     0.210 HD
ENDBRANCH  26  32
BRANCH  27  34
HETATM   34  O5  UNL     1     -18.771   8.095  10.891  1.00  0.00    -0.390 OA
HETATM   35  H45 UNL     1     -18.130   7.962  10.163  1.00  0.00     0.210 HD
ENDBRANCH  27  34
BRANCH  28  36
HETATM   36  O6  UNL     1     -15.945   8.497  10.803  1.00  0.00    -0.388 OA
HETATM   37  H47 UNL     1     -15.693   9.436  10.793  1.00  0.00     0.210 HD
ENDBRANCH  28  36
ENDBRANCH  22  23
ENDBRANCH  15  22
BRANCH   1  38
HETATM   38  C8  UNL     1      -4.647   6.137  15.590  1.00  0.00     0.008 C 
HETATM   39  C9  UNL     1      -4.122   7.582  15.535  1.00  0.00     0.014 C 
BRANCH  38  40
HETATM   40  C7  UNL     1      -3.682   5.332  14.740  1.00  0.00    -0.026 C 
HETATM   41  C6  UNL     1      -3.922   4.981  13.464  1.00  0.00    -0.026 C 
BRANCH  41  42
HETATM   42  C4  UNL     1      -2.960   4.168  12.625  1.00  0.00     0.007 C 
HETATM   43  C5  UNL     1      -1.922   5.101  11.993  1.00  0.00     0.014 C 
BRANCH  42  44
HETATM   44  C2  UNL     1      -3.724   3.279  11.606  1.00  0.00    -0.015 C 
HETATM   45  C1  UNL     1      -3.380   1.788  11.692  1.00  0.00     0.010 C 
HETATM   46  C3  UNL     1      -5.240   3.462  11.724  1.00  0.00     0.010 C 
ENDBRANCH  42  44
ENDBRANCH  41  42
ENDBRANCH  38  40
ENDBRANCH   1  38
TORSDOF 11
ENDMDL
MODEL 4
REMARK minimizedAffinity -9.17185307
REMARK CNNscore 0.222036943
REMARK CNNaffinity 7.08120394
REMARK  11 active torsions:
REMARK  status: ('A' for Active; 'I' for Inactive)
REMARK    1  A    between atoms: C2_2  and  C4_4 
REMARK    2  A    between atoms: C4_4  and  C6_6 
REMARK    3  A    between atoms: C7_7  and  C8_8 
REMARK    4  A    between atoms: C8_8  and  C10_10 
REMARK    5  A    between atoms: C24_24  and  O1_25 
REMARK    6  A    between atoms: O1_25  and  C25_26 
REMARK    7  A    between atoms: C26_28  and  C27_29 
REMARK    8  A    between atoms: C27_29  and  O3_30 
REMARK    9  A    between atoms: C28_31  and  O4_32 
REMARK   10  A    between atoms: C29_33  and  O5_34 
REMARK   11  A    between atoms: C30_35  and  O6_36 
ROOT
HETATM    1  C10 UNL     1      -6.499   7.525  15.020  1.00  0.00     0.001 C 
HETATM    2  C11 UNL     1      -5.486   7.511  16.185  1.00  0.00     0.006 C 
HETATM    3  C12 UNL     1      -4.722   6.220  16.010  1.00  0.00     0.009 C 
HETATM    4  C13 UNL     1      -4.538   6.041  14.494  1.00  0.00     0.036 C 
HETATM    5  C14 UNL     1      -5.666   6.897  13.816  1.00  0.00    -0.033 C 
HETATM    6  C15 UNL     1      -6.470   5.993  12.859  1.00  0.00     0.016 C 
HETATM    7  C16 UNL     1      -5.074   8.029  12.924  1.00  0.00     0.010 C 
HETATM    8  C17 UNL     1      -3.897   8.783  13.526  1.00  0.00     0.010 C 
HETATM    9  C18 UNL     1      -2.749   7.867  13.987  1.00  0.00     0.039 C 
HETATM   10  C19 UNL     1      -3.106   6.346  13.988  1.00  0.00     0.123 C 
HETATM   11  C20 UNL     1      -2.815   5.679  12.658  1.00  0.00     0.014 C 
HETATM   12  C21 UNL     1      -1.533   5.773  12.279  1.00  0.00     0.014 C 
HETATM   13  C22 UNL     1      -0.694   6.649  13.187  1.00  0.00     0.124 C 
HETATM   14  C23 UNL     1       0.780   6.652  12.769  1.00  0.00     0.078 C 
HETATM   15  C24 UNL     1       1.618   7.752  13.438  1.00  0.00     0.128 C 
HETATM   16  C31 UNL     1       0.882   8.489  14.559  1.00  0.00     0.033 C 
HETATM   17  C32 UNL     1      -0.458   9.066  14.099  1.00  0.00     0.015 C 
HETATM   18  C33 UNL     1      -1.339   8.079  13.265  1.00  0.00     0.001 C 
HETATM   19  C34 UNL     1      -1.469   8.677  11.834  1.00  0.00     0.019 C 
HETATM   20  O7  UNL     1      -0.759   6.083  14.524  1.00  0.00    -0.223 OA
HETATM   21  O8  UNL     1      -2.156   5.696  14.879  1.00  0.00    -0.224 OA
ENDROOT
BRANCH  15  22
HETATM   22  O1  UNL     1       1.977   8.680  12.408  1.00  0.00    -0.353 OA
BRANCH  22  23
HETATM   23  C25 UNL     1       3.132   8.324  11.650  1.00  0.00     0.292 C 
HETATM   24  O2  UNL     1       2.827   7.118  10.947  1.00  0.00    -0.348 OA
HETATM   25  C26 UNL     1       3.928   6.609  10.188  1.00  0.00     0.179 C 
HETATM   26  C28 UNL     1       5.098   6.262  11.121  1.00  0.00     0.180 C 
HETATM   27  C29 UNL     1       5.512   7.514  11.891  1.00  0.00     0.183 C 
HETATM   28  C30 UNL     1       4.317   8.123  12.627  1.00  0.00     0.204 C 
BRANCH  25  29
HETATM   29  C27 UNL     1       3.464   5.378   9.397  1.00  0.00     0.198 C 
BRANCH  29  30
HETATM   30  O3  UNL     1       2.800   4.430  10.227  1.00  0.00    -0.398 OA
HETATM   31  H41 UNL     1       2.182   4.938  10.797  1.00  0.00     0.209 HD
ENDBRANCH  29  30
ENDBRANCH  25  29
BRANCH  26  32
HETATM   32  O4  UNL     1       6.223   5.761  10.388  1.00  0.00    -0.390 OA
HETATM   33  H43 UNL     1       6.961   5.754  11.036  1.00  0.00     0.210 HD
ENDBRANCH  26  32
BRANCH  27  34
HETATM   34  O5  UNL     1       6.557   7.168  12.816  1.00  0.00    -0.390 OA
HETATM   35  H45 UNL     1       6.571   7.882  13.486  1.00  0.00     0.210 HD
ENDBRANCH  27  34
BRANCH  28  36
HETATM   36  O6  UNL     1       4.756   9.340  13.258  1.00  0.00    -0.388 OA
HETATM   37  H47 UNL     1       4.823  10.035  12.580  1.00  0.00     0.210 HD
ENDBRANCH  28  36
ENDBRANCH  22  23
ENDBRANCH  15  22
BRANCH   1  38
HETATM   38  C8  UNL     1      -7.854   6.829  15.392  1.00  0.00     0.008 C 
HETATM   39  C9  UNL     1      -7.781   5.300  15.250  1.00  0.00     0.014 C 
BRANCH  38  40
HETATM   40  C7  UNL     1      -9.004   7.257  14.499  1.00  0.00    -0.026 C 
HETATM   41  C6  UNL     1     -10.145   7.801  14.957  1.00  0.00    -0.026 C 
BRANCH  41  42
HETATM   42  C4  UNL     1     -11.293   8.215  14.061  1.00  0.00     0.007 C 
HETATM   43  C5  UNL     1     -11.323   7.314  12.823  1.00  0.00     0.014 C 
BRANCH  42  44
HETATM   44  C2  UNL     1     -11.231   9.735  13.744  1.00  0.00    -0.015 C 
HETATM   45  C1  UNL     1     -12.600  10.381  13.505  1.00  0.00     0.010 C 
HETATM   46  C3  UNL     1     -10.483  10.508  14.834  1.00  0.00     0.010 C 
ENDBRANCH  42  44
ENDBRANCH  41  42
ENDBRANCH  38  40
ENDBRANCH   1  38
TORSDOF 11
ENDMDL
MODEL 5
REMARK minimizedAffinity -8.44767284
REMARK CNNscore 0.206598848
REMARK CNNaffinity 6.7760601
REMARK  11 active torsions:
REMARK  status: ('A' for Active; 'I' for Inactive)
REMARK    1  A    between atoms: C2_2  and  C4_4 
REMARK    2  A    between atoms: C4_4  and  C6_6 
REMARK    3  A    between atoms: C7_7  and  C8_8 
REMARK    4  A    between atoms: C8_8  and  C10_10 
REMARK    5  A    between atoms: C24_24  and  O1_25 
REMARK    6  A    between atoms: O1_25  and  C25_26 
REMARK    7  A    between atoms: C26_28  and  C27_29 
REMARK    8  A    between atoms: C27_29  and  O3_30 
REMARK    9  A    between atoms: C28_31  and  O4_32 
REMARK   10  A    between atoms: C29_33  and  O5_34 
REMARK   11  A    between atoms: C30_35  and  O6_36 
ROOT
HETATM    1  C10 UNL     1      -5.087   5.751  13.126  1.00  0.00     0.001 C 
HETATM    2  C11 UNL     1      -5.596   6.799  14.137  1.00  0.00     0.006 C 
HETATM    3  C12 UNL     1      -4.848   6.494  15.412  1.00  0.00     0.009 C 
HETATM    4  C13 UNL     1      -3.426   6.096  14.982  1.00  0.00     0.036 C 
HETATM    5  C14 UNL     1      -3.540   5.629  13.488  1.00  0.00    -0.033 C 
HETATM    6  C15 UNL     1      -2.944   4.212  13.363  1.00  0.00     0.016 C 
HETATM    7  C16 UNL     1      -2.692   6.524  12.537  1.00  0.00     0.010 C 
HETATM    8  C17 UNL     1      -2.778   8.020  12.804  1.00  0.00     0.010 C 
HETATM    9  C18 UNL     1      -2.456   8.405  14.259  1.00  0.00     0.039 C 
HETATM   10  C19 UNL     1      -2.357   7.189  15.235  1.00  0.00     0.123 C 
HETATM   11  C20 UNL     1      -0.957   6.613  15.307  1.00  0.00     0.014 C 
HETATM   12  C21 UNL     1      -0.031   7.499  15.701  1.00  0.00     0.014 C 
HETATM   13  C22 UNL     1      -0.563   8.911  15.843  1.00  0.00     0.124 C 
HETATM   14  C23 UNL     1       0.504   9.868  16.383  1.00  0.00     0.078 C 
HETATM   15  C24 UNL     1       0.136  11.353  16.252  1.00  0.00     0.128 C 
HETATM   16  C31 UNL     1      -1.311  11.592  15.819  1.00  0.00     0.033 C 
HETATM   17  C32 UNL     1      -1.664  10.854  14.526  1.00  0.00     0.015 C 
HETATM   18  C33 UNL     1      -1.197   9.363  14.479  1.00  0.00     0.001 C 
HETATM   19  C34 UNL     1      -0.138   9.250  13.344  1.00  0.00     0.019 C 
HETATM   20  O7  UNL     1      -1.641   8.876  16.818  1.00  0.00    -0.223 OA
HETATM   21  O8  UNL     1      -2.549   7.716  16.578  1.00  0.00    -0.224 OA
ENDROOT
BRANCH  15  22
HETATM   22  O1  UNL     1       1.028  11.914  15.281  1.00  0.00    -0.353 OA
BRANCH  22  23
HETATM   23  C25 UNL     1       1.063  13.339  15.244  1.00  0.00     0.292 C 
HETATM   24  O2  UNL     1      -0.087  13.776  14.516  1.00  0.00    -0.348 OA
HETATM   25  C26 UNL     1      -0.146  15.196  14.348  1.00  0.00     0.179 C 
HETATM   26  C28 UNL     1       1.066  15.683  13.541  1.00  0.00     0.180 C 
HETATM   27  C29 UNL     1       2.347  15.283  14.270  1.00  0.00     0.183 C 
HETATM   28  C30 UNL     1       2.373  13.779  14.544  1.00  0.00     0.204 C 
BRANCH  25  29
HETATM   29  C27 UNL     1      -1.463  15.563  13.649  1.00  0.00     0.198 C 
BRANCH  29  30
HETATM   30  O3  UNL     1      -1.435  15.250  12.260  1.00  0.00    -0.398 OA
HETATM   31  H41 UNL     1      -1.042  14.352  12.180  1.00  0.00     0.209 HD
ENDBRANCH  29  30
ENDBRANCH  25  29
BRANCH  26  32
HETATM   32  O4  UNL     1       1.043  17.105  13.365  1.00  0.00    -0.390 OA
HETATM   33  H43 UNL     1       1.933  17.330  13.016  1.00  0.00     0.210 HD
ENDBRANCH  26  32
BRANCH  27  34
HETATM   34  O5  UNL     1       3.478  15.676  13.474  1.00  0.00    -0.390 OA
HETATM   35  H45 UNL     1       4.233  15.143  13.798  1.00  0.00     0.210 HD
ENDBRANCH  27  34
BRANCH  28  36
HETATM   36  O6  UNL     1       3.558  13.486  15.305  1.00  0.00    -0.388 OA
HETATM   37  H47 UNL     1       3.410  13.755  16.228  1.00  0.00     0.210 HD
ENDBRANCH  28  36
ENDBRANCH  22  23
ENDBRANCH  15  22
BRANCH   1  38
HETATM   38  C8  UNL     1      -5.933   4.431  13.147  1.00  0.00     0.008 C 
HETATM   39  C9  UNL     1      -5.423   3.396  12.130  1.00  0.00     0.014 C 
BRANCH  38  40
HETATM   40  C7  UNL     1      -7.391   4.655  12.788  1.00  0.00    -0.026 C 
HETATM   41  C6  UNL     1      -8.073   5.773  13.093  1.00  0.00    -0.026 C 
BRANCH  41  42
HETATM   42  C4  UNL     1      -9.530   5.985  12.741  1.00  0.00     0.007 C 
HETATM   43  C5  UNL     1      -9.648   6.348  11.258  1.00  0.00     0.014 C 
BRANCH  42  44
HETATM   44  C2  UNL     1     -10.192   7.009  13.704  1.00  0.00    -0.015 C 
HETATM   45  C1  UNL     1     -11.677   6.745  13.977  1.00  0.00     0.010 C 
HETATM   46  C3  UNL     1      -9.437   7.101  15.034  1.00  0.00     0.010 C 
ENDBRANCH  42  44
ENDBRANCH  41  42
ENDBRANCH  38  40
ENDBRANCH   1  38
TORSDOF 11
ENDMDL
MODEL 6
REMARK minimizedAffinity -7.90958977
REMARK CNNscore 0.189609408
REMARK CNNaffinity 6.51433945
REMARK  11 active torsions:
REMARK  status: ('A' for Active; 'I' for Inactive)
REMARK    1  A    between atoms: C2_2  and  C4_4 
REMARK    2  A    between atoms: C4_4  and  C6_6 
REMARK    3  A    between atoms: C7_7  and  C8_8 
REMARK    4  A    between atoms: C8_8  and  C10_10 
REMARK    5  A    between atoms: C24_24  and  O1_25 
REMARK    6  A    between atoms: O1_25  and  C25_26 
REMARK    7  A    between atoms: C26_28  and  C27_29 
REMARK    8  A    between atoms: C27_29  and  O3_30 
REMARK    9  A    between atoms: C28_31  and  O4_32 
REMARK   10  A    between atoms: C29_33  and  O5_34 
REMARK   11  A    between atoms: C30_35  and  O6_36 
ROOT
HETATM    1  C10 UNL     1      -3.798  12.268  18.388  1.00  0.00     0.001 C 
HETATM    2  C11 UNL     1      -4.507  12.308  17.018  1.00  0.00     0.006 C 
HETATM    3  C12 UNL     1      -3.466  12.843  16.064  1.00  0.00     0.009 C 
HETATM    4  C13 UNL     1      -2.132  12.219  16.506  1.00  0.00     0.036 C 
HETATM    5  C14 UNL     1      -2.319  11.812  18.010  1.00  0.00    -0.033 C 
HETATM    6  C15 UNL     1      -1.195  12.459  18.845  1.00  0.00     0.016 C 
HETATM    7  C16 UNL     1      -2.161  10.276  18.216  1.00  0.00     0.010 C 
HETATM    8  C17 UNL     1      -2.844   9.406  17.171  1.00  0.00     0.010 C 
HETATM    9  C18 UNL     1      -2.446   9.753  15.725  1.00  0.00     0.039 C 
HETATM   10  C19 UNL     1      -1.629  11.077  15.587  1.00  0.00     0.123 C 
HETATM   11  C20 UNL     1      -0.135  10.855  15.715  1.00  0.00     0.014 C 
HETATM   12  C21 UNL     1       0.361  10.001  14.809  1.00  0.00     0.014 C 
HETATM   13  C22 UNL     1      -0.701   9.336  13.957  1.00  0.00     0.124 C 
HETATM   14  C23 UNL     1      -0.084   8.442  12.876  1.00  0.00     0.078 C 
HETATM   15  C24 UNL     1      -1.088   7.502  12.193  1.00  0.00     0.128 C 
HETATM   16  C31 UNL     1      -2.546   7.792  12.555  1.00  0.00     0.033 C 
HETATM   17  C32 UNL     1      -2.784   7.795  14.067  1.00  0.00     0.015 C 
HETATM   18  C33 UNL     1      -1.725   8.597  14.891  1.00  0.00     0.001 C 
HETATM   19  C34 UNL     1      -0.972   7.573  15.790  1.00  0.00     0.019 C 
HETATM   20  O7  UNL     1      -1.436  10.387  13.273  1.00  0.00    -0.223 OA
HETATM   21  O8  UNL     1      -1.764  11.508  14.203  1.00  0.00    -0.224 OA
ENDROOT
BRANCH  15  22
HETATM   22  O1  UNL     1      -0.748   6.171  12.598  1.00  0.00    -0.353 OA
BRANCH  22  23
HETATM   23  C25 UNL     1      -1.263   5.135  11.764  1.00  0.00     0.292 C 
HETATM   24  O2  UNL     1      -2.480   4.675  12.354  1.00  0.00    -0.348 OA
HETATM   25  C26 UNL     1      -3.077   3.584  11.648  1.00  0.00     0.179 C 
HETATM   26  C28 UNL     1      -2.132   2.373  11.648  1.00  0.00     0.180 C 
HETATM   27  C29 UNL     1      -0.808   2.771  10.999  1.00  0.00     0.183 C 
HETATM   28  C30 UNL     1      -0.211   4.001  11.685  1.00  0.00     0.204 C 
BRANCH  25  29
HETATM   29  C27 UNL     1      -4.422   3.239  12.303  1.00  0.00     0.198 C 
BRANCH  29  30
HETATM   30  O3  UNL     1      -5.297   2.565  11.404  1.00  0.00    -0.398 OA
HETATM   31  H41 UNL     1      -4.759   1.884  10.943  1.00  0.00     0.209 HD
ENDBRANCH  29  30
ENDBRANCH  25  29
BRANCH  26  32
HETATM   32  O4  UNL     1      -2.697   1.266  10.936  1.00  0.00    -0.390 OA
HETATM   33  H43 UNL     1      -1.956   0.629  10.832  1.00  0.00     0.210 HD
ENDBRANCH  26  32
BRANCH  27  34
HETATM   34  O5  UNL     1       0.098   1.658  11.069  1.00  0.00    -0.390 OA
HETATM   35  H45 UNL     1       0.995   2.032  10.944  1.00  0.00     0.210 HD
ENDBRANCH  27  34
BRANCH  28  36
HETATM   36  O6  UNL     1       0.983   4.371  10.973  1.00  0.00    -0.388 OA
HETATM   37  H47 UNL     1       0.728   4.827  10.153  1.00  0.00     0.210 HD
ENDBRANCH  28  36
ENDBRANCH  22  23
ENDBRANCH  15  22
BRANCH   1  38
HETATM   38  C8  UNL     1      -3.950  13.610  19.185  1.00  0.00     0.008 C 
HETATM   39  C9  UNL     1      -5.082  13.544  20.224  1.00  0.00     0.014 C 
BRANCH  38  40
HETATM   40  C7  UNL     1      -4.295  14.792  18.298  1.00  0.00    -0.026 C 
HETATM   41  C6  UNL     1      -3.403  15.717  17.903  1.00  0.00    -0.026 C 
BRANCH  41  42
HETATM   42  C4  UNL     1      -3.757  16.899  17.027  1.00  0.00     0.007 C 
HETATM   43  C5  UNL     1      -5.280  17.008  16.908  1.00  0.00     0.014 C 
BRANCH  42  44
HETATM   44  C2  UNL     1      -3.014  16.824  15.664  1.00  0.00    -0.015 C 
HETATM   45  C1  UNL     1      -3.905  16.416  14.486  1.00  0.00     0.010 C 
HETATM   46  C3  UNL     1      -2.303  18.141  15.336  1.00  0.00     0.010 C 
ENDBRANCH  42  44
ENDBRANCH  41  42
ENDBRANCH  38  40
ENDBRANCH   1  38
TORSDOF 11
ENDMDL
MODEL 7
REMARK minimizedAffinity -9.49815273
REMARK CNNscore 0.1788771
REMARK CNNaffinity 6.77713776
REMARK  11 active torsions:
REMARK  status: ('A' for Active; 'I' for Inactive)
REMARK    1  A    between atoms: C2_2  and  C4_4 
REMARK    2  A    between atoms: C4_4  and  C6_6 
REMARK    3  A    between atoms: C7_7  and  C8_8 
REMARK    4  A    between atoms: C8_8  and  C10_10 
REMARK    5  A    between atoms: C24_24  and  O1_25 
REMARK    6  A    between atoms: O1_25  and  C25_26 
REMARK    7  A    between atoms: C26_28  and  C27_29 
REMARK    8  A    between atoms: C27_29  and  O3_30 
REMARK    9  A    between atoms: C28_31  and  O4_32 
REMARK   10  A    between atoms: C29_33  and  O5_34 
REMARK   11  A    between atoms: C30_35  and  O6_36 
ROOT
HETATM    1  C10 UNL     1      -5.691   6.308  13.873  1.00  0.00     0.001 C 
HETATM    2  C11 UNL     1      -5.411   7.489  12.920  1.00  0.00     0.006 C 
HETATM    3  C12 UNL     1      -4.599   8.459  13.743  1.00  0.00     0.009 C 
HETATM    4  C13 UNL     1      -3.662   7.598  14.606  1.00  0.00     0.036 C 
HETATM    5  C14 UNL     1      -4.331   6.181  14.693  1.00  0.00    -0.033 C 
HETATM    6  C15 UNL     1      -4.490   5.795  16.178  1.00  0.00     0.016 C 
HETATM    7  C16 UNL     1      -3.427   5.077  14.068  1.00  0.00     0.010 C 
HETATM    8  C17 UNL     1      -2.760   5.450  12.752  1.00  0.00     0.010 C 
HETATM    9  C18 UNL     1      -1.960   6.763  12.818  1.00  0.00     0.039 C 
HETATM   10  C19 UNL     1      -2.189   7.586  14.126  1.00  0.00     0.123 C 
HETATM   11  C20 UNL     1      -1.229   7.199  15.233  1.00  0.00     0.014 C 
HETATM   12  C21 UNL     1       0.062   7.352  14.904  1.00  0.00     0.014 C 
HETATM   13  C22 UNL     1       0.277   7.734  13.454  1.00  0.00     0.124 C 
HETATM   14  C23 UNL     1       1.756   7.988  13.147  1.00  0.00     0.078 C 
HETATM   15  C24 UNL     1       2.080   8.066  11.648  1.00  0.00     0.128 C 
HETATM   16  C31 UNL     1       0.840   8.102  10.753  1.00  0.00     0.033 C 
HETATM   17  C32 UNL     1      -0.108   6.931  11.018  1.00  0.00     0.015 C 
HETATM   18  C33 UNL     1      -0.392   6.654  12.530  1.00  0.00     0.001 C 
HETATM   19  C34 UNL     1       0.193   5.249  12.856  1.00  0.00     0.019 C 
HETATM   20  O7  UNL     1      -0.429   8.983  13.221  1.00  0.00    -0.223 OA
HETATM   21  O8  UNL     1      -1.791   8.956  13.831  1.00  0.00    -0.224 OA
ENDROOT
BRANCH  15  22
HETATM   22  O1  UNL     1       2.865   6.908  11.336  1.00  0.00    -0.353 OA
BRANCH  22  23
HETATM   23  C25 UNL     1       4.267   7.142  11.219  1.00  0.00     0.292 C 
HETATM   24  O2  UNL     1       4.815   7.120  12.539  1.00  0.00    -0.348 OA
HETATM   25  C26 UNL     1       6.217   7.405  12.576  1.00  0.00     0.179 C 
HETATM   26  C28 UNL     1       6.484   8.819  12.038  1.00  0.00     0.180 C 
HETATM   27  C29 UNL     1       5.954   8.919  10.609  1.00  0.00     0.183 C 
HETATM   28  C30 UNL     1       4.480   8.519  10.544  1.00  0.00     0.204 C 
BRANCH  25  29
HETATM   29  C27 UNL     1       6.720   7.255  14.019  1.00  0.00     0.198 C 
BRANCH  29  30
HETATM   30  O3  UNL     1       5.659   6.986  14.928  1.00  0.00    -0.398 OA
HETATM   31  H41 UNL     1       5.092   6.302  14.508  1.00  0.00     0.209 HD
ENDBRANCH  29  30
ENDBRANCH  25  29
BRANCH  26  32
HETATM   32  O4  UNL     1       7.882   9.130  12.050  1.00  0.00    -0.390 OA
HETATM   33  H43 UNL     1       7.960   9.955  11.522  1.00  0.00     0.210 HD
ENDBRANCH  26  32
BRANCH  27  34
HETATM   34  O5  UNL     1       6.139  10.265  10.137  1.00  0.00    -0.390 OA
HETATM   35  H45 UNL     1       5.527  10.371   9.380  1.00  0.00     0.210 HD
ENDBRANCH  27  34
BRANCH  28  36
HETATM   36  O6  UNL     1       4.071   8.553   9.164  1.00  0.00    -0.388 OA
HETATM   37  H47 UNL     1       4.412   7.758   8.719  1.00  0.00     0.210 HD
ENDBRANCH  28  36
ENDBRANCH  22  23
ENDBRANCH  15  22
BRANCH   1  38
HETATM   38  C8  UNL     1      -7.010   6.500  14.700  1.00  0.00     0.008 C 
HETATM   39  C9  UNL     1      -7.237   5.359  15.706  1.00  0.00     0.014 C 
BRANCH  38  40
HETATM   40  C7  UNL     1      -8.256   6.521  13.834  1.00  0.00    -0.026 C 
HETATM   41  C6  UNL     1      -9.433   7.038  14.228  1.00  0.00    -0.026 C 
BRANCH  41  42
HETATM   42  C4  UNL     1     -10.674   7.045  13.363  1.00  0.00     0.007 C 
HETATM   43  C5  UNL     1     -10.275   6.851  11.897  1.00  0.00     0.014 C 
BRANCH  42  44
HETATM   44  C2  UNL     1     -11.531   8.314  13.629  1.00  0.00    -0.015 C 
HETATM   45  C1  UNL     1     -10.963   9.238  14.712  1.00  0.00     0.010 C 
HETATM   46  C3  UNL     1     -11.766   9.115  12.344  1.00  0.00     0.010 C 
ENDBRANCH  42  44
ENDBRANCH  41  42
ENDBRANCH  38  40
ENDBRANCH   1  38
TORSDOF 11
ENDMDL
MODEL 8
REMARK minimizedAffinity -9.73597431
REMARK CNNscore 0.166357309
REMARK CNNaffinity 6.56768751
REMARK  11 active torsions:
REMARK  status: ('A' for Active; 'I' for Inactive)
REMARK    1  A    between atoms: C2_2  and  C4_4 
REMARK    2  A    between atoms: C4_4  and  C6_6 
REMARK    3  A    between atoms: C7_7  and  C8_8 
REMARK    4  A    between atoms: C8_8  and  C10_10 
REMARK    5  A    between atoms: C24_24  and  O1_25 
REMARK    6  A    between atoms: O1_25  and  C25_26 
REMARK    7  A    between atoms: C26_28  and  C27_29 
REMARK    8  A    between atoms: C27_29  and  O3_30 
REMARK    9  A    between atoms: C28_31  and  O4_32 
REMARK   10  A    between atoms: C29_33  and  O5_34 
REMARK   11  A    between atoms: C30_35  and  O6_36 
ROOT
HETATM    1  C10 UNL     1      -4.647   6.464  15.048  1.00  0.00     0.001 C 
HETATM    2  C11 UNL     1      -3.955   5.837  13.820  1.00  0.00     0.006 C 
HETATM    3  C12 UNL     1      -3.708   6.999  12.888  1.00  0.00     0.009 C 
HETATM    4  C13 UNL     1      -3.317   8.184  13.787  1.00  0.00     0.036 C 
HETATM    5  C14 UNL     1      -3.894   7.858  15.209  1.00  0.00    -0.033 C 
HETATM    6  C15 UNL     1      -4.777   9.036  15.671  1.00  0.00     0.016 C 
HETATM    7  C16 UNL     1      -2.765   7.740  16.276  1.00  0.00     0.010 C 
HETATM    8  C17 UNL     1      -1.531   6.967  15.834  1.00  0.00     0.010 C 
HETATM    9  C18 UNL     1      -0.916   7.486  14.523  1.00  0.00     0.039 C 
HETATM   10  C19 UNL     1      -1.806   8.525  13.767  1.00  0.00     0.123 C 
HETATM   11  C20 UNL     1      -1.535   9.951  14.205  1.00  0.00     0.014 C 
HETATM   12  C21 UNL     1      -0.263  10.335  14.030  1.00  0.00     0.014 C 
HETATM   13  C22 UNL     1       0.652   9.216  13.574  1.00  0.00     0.124 C 
HETATM   14  C23 UNL     1       2.072   9.720  13.298  1.00  0.00     0.078 C 
HETATM   15  C24 UNL     1       3.114   8.602  13.143  1.00  0.00     0.128 C 
HETATM   16  C31 UNL     1       2.505   7.201  13.068  1.00  0.00     0.033 C 
HETATM   17  C32 UNL     1       1.589   6.896  14.255  1.00  0.00     0.015 C 
HETATM   18  C33 UNL     1       0.581   8.037  14.610  1.00  0.00     0.001 C 
HETATM   19  C34 UNL     1       0.959   8.558  16.026  1.00  0.00     0.019 C 
HETATM   20  O7  UNL     1       0.127   8.705  12.318  1.00  0.00    -0.223 OA
HETATM   21  O8  UNL     1      -1.355   8.532  12.383  1.00  0.00    -0.224 OA
ENDROOT
BRANCH  15  22
HETATM   22  O1  UNL     1       3.982   8.688  14.280  1.00  0.00    -0.353 OA
BRANCH  22  23
HETATM   23  C25 UNL     1       5.328   8.283  14.044  1.00  0.00     0.292 C 
HETATM   24  O2  UNL     1       6.070   8.547  15.237  1.00  0.00    -0.348 OA
HETATM   25  C26 UNL     1       7.463   8.242  15.118  1.00  0.00     0.179 C 
HETATM   26  C28 UNL     1       8.104   9.115  14.029  1.00  0.00     0.180 C 
HETATM   27  C29 UNL     1       7.388   8.867  12.703  1.00  0.00     0.183 C 
HETATM   28  C30 UNL     1       5.882   9.094  12.846  1.00  0.00     0.204 C 
BRANCH  25  29
HETATM   29  C27 UNL     1       8.141   8.464  16.478  1.00  0.00     0.198 C 
BRANCH  29  30
HETATM   30  O3  UNL     1       9.057   7.420  16.794  1.00  0.00    -0.398 OA
HETATM   31  H41 UNL     1       9.580   7.247  15.980  1.00  0.00     0.209 HD
ENDBRANCH  29  30
ENDBRANCH  25  29
BRANCH  26  32
HETATM   32  O4  UNL     1       9.499   8.824  13.877  1.00  0.00    -0.390 OA
HETATM   33  H43 UNL     1       9.762   9.283  13.049  1.00  0.00     0.210 HD
ENDBRANCH  26  32
BRANCH  27  34
HETATM   34  O5  UNL     1       7.942   9.740  11.704  1.00  0.00    -0.390 OA
HETATM   35  H45 UNL     1       7.277   9.785  10.987  1.00  0.00     0.210 HD
ENDBRANCH  27  34
BRANCH  28  36
HETATM   36  O6  UNL     1       5.262   8.762  11.590  1.00  0.00    -0.388 OA
HETATM   37  H47 UNL     1       5.212   7.793  11.514  1.00  0.00     0.210 HD
ENDBRANCH  28  36
ENDBRANCH  22  23
ENDBRANCH  15  22
BRANCH   1  38
HETATM   38  C8  UNL     1      -6.209   6.507  14.904  1.00  0.00     0.008 C 
HETATM   39  C9  UNL     1      -6.922   6.389  16.262  1.00  0.00     0.014 C 
BRANCH  38  40
HETATM   40  C7  UNL     1      -6.759   5.367  14.067  1.00  0.00    -0.026 C 
HETATM   41  C6  UNL     1      -6.045   4.710  13.136  1.00  0.00    -0.026 C 
BRANCH  41  42
HETATM   42  C4  UNL     1      -6.604   3.581  12.297  1.00  0.00     0.007 C 
HETATM   43  C5  UNL     1      -7.684   2.841  13.093  1.00  0.00     0.014 C 
BRANCH  42  44
HETATM   44  C2  UNL     1      -5.466   2.667  11.763  1.00  0.00    -0.015 C 
HETATM   45  C1  UNL     1      -5.939   1.292  11.282  1.00  0.00     0.010 C 
HETATM   46  C3  UNL     1      -4.669   3.353  10.649  1.00  0.00     0.010 C 
ENDBRANCH  42  44
ENDBRANCH  41  42
ENDBRANCH  38  40
ENDBRANCH   1  38
TORSDOF 11
ENDMDL
MODEL 9
REMARK minimizedAffinity -8.07787132
REMARK CNNscore 0.133021086
REMARK CNNaffinity 6.40206671
REMARK  11 active torsions:
REMARK  status: ('A' for Active; 'I' for Inactive)
REMARK    1  A    between atoms: C2_2  and  C4_4 
REMARK    2  A    between atoms: C4_4  and  C6_6 
REMARK    3  A    between atoms: C7_7  and  C8_8 
REMARK    4  A    between atoms: C8_8  and  C10_10 
REMARK    5  A    between atoms: C24_24  and  O1_25 
REMARK    6  A    between atoms: O1_25  and  C25_26 
REMARK    7  A    between atoms: C26_28  and  C27_29 
REMARK    8  A    between atoms: C27_29  and  O3_30 
REMARK    9  A    between atoms: C28_31  and  O4_32 
REMARK   10  A    between atoms: C29_33  and  O5_34 
REMARK   11  A    between atoms: C30_35  and  O6_36 
ROOT
HETATM    1  C10 UNL     1      -4.747   7.065  15.330  1.00  0.00     0.001 C 
HETATM    2  C11 UNL     1      -3.778   5.910  15.660  1.00  0.00     0.006 C 
HETATM    3  C12 UNL     1      -3.223   5.484  14.322  1.00  0.00     0.009 C 
HETATM    4  C13 UNL     1      -3.032   6.778  13.514  1.00  0.00     0.036 C 
HETATM    5  C14 UNL     1      -3.994   7.838  14.158  1.00  0.00    -0.033 C 
HETATM    6  C15 UNL     1      -4.907   8.417  13.057  1.00  0.00     0.016 C 
HETATM    7  C16 UNL     1      -3.210   9.055  14.733  1.00  0.00     0.010 C 
HETATM    8  C17 UNL     1      -1.945   8.707  15.504  1.00  0.00     0.010 C 
HETATM    9  C18 UNL     1      -0.966   7.820  14.713  1.00  0.00     0.039 C 
HETATM   10  C19 UNL     1      -1.558   7.238  13.389  1.00  0.00     0.123 C 
HETATM   11  C20 UNL     1      -1.343   8.157  12.203  1.00  0.00     0.014 C 
HETATM   12  C21 UNL     1      -0.053   8.429  11.960  1.00  0.00     0.014 C 
HETATM   13  C22 UNL     1       0.891   7.882  13.011  1.00  0.00     0.124 C 
HETATM   14  C23 UNL     1       2.357   8.135  12.646  1.00  0.00     0.078 C 
HETATM   15  C24 UNL     1       3.341   7.895  13.800  1.00  0.00     0.128 C 
HETATM   16  C31 UNL     1       2.703   7.234  15.023  1.00  0.00     0.033 C 
HETATM   17  C32 UNL     1       1.481   8.001  15.534  1.00  0.00     0.015 C 
HETATM   18  C33 UNL     1       0.476   8.440  14.420  1.00  0.00     0.001 C 
HETATM   19  C34 UNL     1       0.477   9.996  14.388  1.00  0.00     0.019 C 
HETATM   20  O7  UNL     1       0.705   6.440  13.059  1.00  0.00    -0.223 OA
HETATM   21  O8  UNL     1      -0.744   6.082  13.042  1.00  0.00    -0.224 OA
ENDROOT
BRANCH  15  22
HETATM   22  O1  UNL     1       3.866   9.177  14.166  1.00  0.00    -0.353 OA
BRANCH  22  23
HETATM   23  C25 UNL     1       5.161   9.151  14.764  1.00  0.00     0.292 C 
HETATM   24  O2  UNL     1       5.508  10.498  15.091  1.00  0.00    -0.348 OA
HETATM   25  C26 UNL     1       6.821  10.627  15.646  1.00  0.00     0.179 C 
HETATM   26  C28 UNL     1       7.873  10.161  14.629  1.00  0.00     0.180 C 
HETATM   27  C29 UNL     1       7.593   8.709  14.248  1.00  0.00     0.183 C 
HETATM   28  C30 UNL     1       6.158   8.543  13.747  1.00  0.00     0.204 C 
BRANCH  25  29
HETATM   29  C27 UNL     1       7.050  12.090  16.053  1.00  0.00     0.198 C 
BRANCH  29  30
HETATM   30  O3  UNL     1       8.066  12.214  17.043  1.00  0.00    -0.398 OA
HETATM   31  H41 UNL     1       8.809  11.636  16.760  1.00  0.00     0.209 HD
ENDBRANCH  29  30
ENDBRANCH  25  29
BRANCH  26  32
HETATM   32  O4  UNL     1       9.199  10.267  15.160  1.00  0.00    -0.390 OA
HETATM   33  H43 UNL     1       9.765   9.777  14.523  1.00  0.00     0.210 HD
ENDBRANCH  26  32
BRANCH  27  34
HETATM   34  O5  UNL     1       8.536   8.302  13.241  1.00  0.00    -0.390 OA
HETATM   35  H45 UNL     1       8.144   7.516  12.809  1.00  0.00     0.210 HD
ENDBRANCH  27  34
BRANCH  28  36
HETATM   36  O6  UNL     1       5.937   7.144  13.489  1.00  0.00    -0.388 OA
HETATM   37  H47 UNL     1       5.801   6.689  14.338  1.00  0.00     0.210 HD
ENDBRANCH  28  36
ENDBRANCH  22  23
ENDBRANCH  15  22
BRANCH   1  38
HETATM   38  C8  UNL     1      -6.204   6.564  15.036  1.00  0.00     0.008 C 
HETATM   39  C9  UNL     1      -6.324   5.905  13.652  1.00  0.00     0.014 C 
BRANCH  38  40
HETATM   40  C7  UNL     1      -7.227   7.684  15.033  1.00  0.00    -0.026 C 
HETATM   41  C6  UNL     1      -8.555   7.486  15.108  1.00  0.00    -0.026 C 
BRANCH  41  42
HETATM   42  C4  UNL     1      -9.570   8.608  15.094  1.00  0.00     0.007 C 
HETATM   43  C5  UNL     1      -9.992   8.933  16.530  1.00  0.00     0.014 C 
BRANCH  42  44
HETATM   44  C2  UNL     1     -10.752   8.278  14.141  1.00  0.00    -0.015 C 
HETATM   45  C1  UNL     1     -10.679   6.882  13.512  1.00  0.00     0.010 C 
HETATM   46  C3  UNL     1     -12.104   8.454  14.838  1.00  0.00     0.010 C 
ENDBRANCH  42  44
ENDBRANCH  41  42
ENDBRANCH  38  40
ENDBRANCH   1  38
TORSDOF 11
ENDMDL
