MODEL 1
REMARK minimizedAffinity -6.24053001
REMARK CNNscore 0.879796028
REMARK CNNaffinity 7.5366497
REMARK  12 active torsions:
REMARK  status: ('A' for Active; 'I' for Inactive)
REMARK    1  A    between atoms: C5_5  and  C6_6 
REMARK    2  A    between atoms: C6_6  and  C8_8 
REMARK    3  A    between atoms: C8_8  and  O1_9 
REMARK    4  A    between atoms: C13_15  and  O3_17 
REMARK    5  A    between atoms: C18_21  and  O4_23 
REMARK    6  A    between atoms: O4_23  and  C20_24 
REMARK    7  A    between atoms: C20_24  and  C21_26 
REMARK    8  A    between atoms: C21_26  and  C22_27 
REMARK    9  A    between atoms: C21_26  and  O6_29 
REMARK   10  A    between atoms: O6_29  and  C24_30 
REMARK   11  A    between atoms: C24_30  and  C25_32 
REMARK   12  A    between atoms: C25_32  and  C26_33 
ROOT
HETATM    1  C1  UNL     1       0.648  48.146 -13.499  1.00  0.00     0.015 C 
HETATM    2  C2  UNL     1       0.501  49.473 -13.662  1.00  0.00    -0.077 C 
HETATM    3  C3  UNL     1       1.114  50.188 -14.839  1.00  0.00     0.034 C 
HETATM    4  C4  UNL     1       1.507  51.631 -14.509  1.00  0.00     0.010 C 
HETATM    5  C5  UNL     1       1.876  51.845 -13.029  1.00  0.00    -0.001 C 
HETATM    6  C9  UNL     1       0.596  51.576 -12.148  1.00  0.00     0.037 C 
HETATM    7  C10 UNL     1      -0.238  50.342 -12.658  1.00  0.00     0.090 C 
HETATM    8  C11 UNL     1      -1.631  50.654 -13.236  1.00  0.00     0.138 C 
HETATM    9  O2  UNL     1      -1.782  51.084 -14.385  1.00  0.00    -0.297 OA
HETATM   10  C12 UNL     1      -2.867  50.351 -12.385  1.00  0.00     0.119 C 
HETATM   11  C13 UNL     1      -2.777  50.635 -10.867  1.00  0.00     0.087 C 
HETATM   12  C14 UNL     1      -4.203  50.667 -10.284  1.00  0.00     0.049 C 
HETATM   13  C15 UNL     1      -2.049  51.981 -10.502  1.00  0.00     0.156 C 
HETATM   14  C16 UNL     1      -0.963  51.857  -9.421  1.00  0.00     0.038 C 
HETATM   15  C17 UNL     1       0.031  53.019  -9.364  1.00  0.00     0.043 C 
HETATM   16  C18 UNL     1       0.193  53.801 -10.694  1.00  0.00     0.093 C 
HETATM   17  C19 UNL     1      -0.725  55.049 -10.584  1.00  0.00     0.049 C 
HETATM   18  C28 UNL     1      -0.239  52.889 -11.886  1.00  0.00     0.162 C 
HETATM   19  O8  UNL     1      -1.634  52.626 -11.705  1.00  0.00    -0.374 OA
ENDROOT
BRANCH  16  20
HETATM   20  O4  UNL     1       1.581  54.230 -10.728  1.00  0.00    -0.306 OA
BRANCH  20  21
HETATM   21  C20 UNL     1       2.329  54.209  -9.585  1.00  0.00     0.289 C 
HETATM   22  O5  UNL     1       2.716  53.196  -9.016  1.00  0.00    -0.262 OA
BRANCH  21  23
HETATM   23  C21 UNL     1       2.642  55.639  -9.124  1.00  0.00     0.231 C 
BRANCH  23  24
HETATM   24  C22 UNL     1       3.436  56.398 -10.196  1.00  0.00     0.038 C 
HETATM   25  C23 UNL     1       4.562  55.580 -10.820  1.00  0.00     0.008 C 
ENDBRANCH  23  24
BRANCH  23  26
HETATM   26  O6  UNL     1       3.406  55.664  -7.908  1.00  0.00    -0.306 OA
BRANCH  26  27
HETATM   27  C24 UNL     1       3.655  56.912  -7.425  1.00  0.00     0.259 C 
HETATM   28  O7  UNL     1       2.810  57.783  -7.273  1.00  0.00    -0.265 OA
BRANCH  27  29
HETATM   29  C25 UNL     1       5.119  57.085  -7.123  1.00  0.00     0.111 C 
BRANCH  29  30
HETATM   30  C26 UNL     1       5.810  55.737  -6.958  1.00  0.00     0.005 C 
HETATM   31  C27 UNL     1       6.878  55.527  -8.020  1.00  0.00     0.005 C 
ENDBRANCH  29  30
ENDBRANCH  27  29
ENDBRANCH  26  27
ENDBRANCH  23  26
ENDBRANCH  21  23
ENDBRANCH  20  21
ENDBRANCH  16  20
BRANCH   5  32
HETATM   32  C6  UNL     1       3.123  51.015 -12.553  1.00  0.00     0.010 C 
HETATM   33  C7  UNL     1       2.804  50.059 -11.392  1.00  0.00     0.012 C 
BRANCH  32  34
HETATM   34  C8  UNL     1       3.729  50.192 -13.708  1.00  0.00     0.168 C 
BRANCH  34  35
HETATM   35  O1  UNL     1       5.020  49.695 -13.367  1.00  0.00    -0.400 OA
HETATM   36  H14 UNL     1       5.556  50.452 -13.072  1.00  0.00     0.209 HD
ENDBRANCH  34  35
ENDBRANCH  32  34
ENDBRANCH   5  32
BRANCH  11  37
HETATM   37  O3  UNL     1      -2.136  49.513 -10.235  1.00  0.00    -0.387 OA
HETATM   38  H22 UNL     1      -2.700  48.728 -10.354  1.00  0.00     0.210 HD
ENDBRANCH  11  37
TORSDOF 12
ENDMDL
MODEL 2
REMARK minimizedAffinity -5.90150976
REMARK CNNscore 0.829495609
REMARK CNNaffinity 7.51128054
REMARK  12 active torsions:
REMARK  status: ('A' for Active; 'I' for Inactive)
REMARK    1  A    between atoms: C5_5  and  C6_6 
REMARK    2  A    between atoms: C6_6  and  C8_8 
REMARK    3  A    between atoms: C8_8  and  O1_9 
REMARK    4  A    between atoms: C13_15  and  O3_17 
REMARK    5  A    between atoms: C18_21  and  O4_23 
REMARK    6  A    between atoms: O4_23  and  C20_24 
REMARK    7  A    between atoms: C20_24  and  C21_26 
REMARK    8  A    between atoms: C21_26  and  C22_27 
REMARK    9  A    between atoms: C21_26  and  O6_29 
REMARK   10  A    between atoms: O6_29  and  C24_30 
REMARK   11  A    between atoms: C24_30  and  C25_32 
REMARK   12  A    between atoms: C25_32  and  C26_33 
ROOT
HETATM    1  C1  UNL     1       0.736  48.930 -12.847  1.00  0.00     0.015 C 
HETATM    2  C2  UNL     1       1.093  50.224 -12.767  1.00  0.00    -0.077 C 
HETATM    3  C3  UNL     1       2.296  50.750 -13.508  1.00  0.00     0.034 C 
HETATM    4  C4  UNL     1       2.975  51.910 -12.775  1.00  0.00     0.010 C 
HETATM    5  C5  UNL     1       2.812  51.851 -11.244  1.00  0.00    -0.001 C 
HETATM    6  C9  UNL     1       1.282  52.009 -10.896  1.00  0.00     0.037 C 
HETATM    7  C10 UNL     1       0.352  51.222 -11.892  1.00  0.00     0.090 C 
HETATM    8  C11 UNL     1      -0.545  52.077 -12.806  1.00  0.00     0.138 C 
HETATM    9  O2  UNL     1      -0.109  52.624 -13.826  1.00  0.00    -0.297 OA
HETATM   10  C12 UNL     1      -2.036  52.190 -12.479  1.00  0.00     0.119 C 
HETATM   11  C13 UNL     1      -2.434  52.297 -10.988  1.00  0.00     0.087 C 
HETATM   12  C14 UNL     1      -3.884  52.812 -10.899  1.00  0.00     0.049 C 
HETATM   13  C15 UNL     1      -1.508  53.239 -10.135  1.00  0.00     0.156 C 
HETATM   14  C16 UNL     1      -1.006  52.631  -8.816  1.00  0.00     0.038 C 
HETATM   15  C17 UNL     1       0.210  53.329  -8.201  1.00  0.00     0.043 C 
HETATM   16  C18 UNL     1       1.098  54.098  -9.213  1.00  0.00     0.093 C 
HETATM   17  C19 UNL     1       0.656  55.586  -9.144  1.00  0.00     0.049 C 
HETATM   18  C28 UNL     1       0.876  53.514 -10.645  1.00  0.00     0.162 C 
HETATM   19  O8  UNL     1      -0.489  53.777 -10.978  1.00  0.00    -0.374 OA
ENDROOT
BRANCH  16  20
HETATM   20  O4  UNL     1       2.457  53.979  -8.711  1.00  0.00    -0.306 OA
BRANCH  20  21
HETATM   21  C20 UNL     1       3.202  55.102  -8.491  1.00  0.00     0.289 C 
HETATM   22  O5  UNL     1       2.935  55.975  -7.675  1.00  0.00    -0.262 OA
BRANCH  21  23
HETATM   23  C21 UNL     1       4.443  55.107  -9.395  1.00  0.00     0.231 C 
BRANCH  23  24
HETATM   24  C22 UNL     1       4.045  55.268 -10.869  1.00  0.00     0.038 C 
HETATM   25  C23 UNL     1       3.452  56.634 -11.200  1.00  0.00     0.008 C 
ENDBRANCH  23  24
BRANCH  23  26
HETATM   26  O6  UNL     1       5.210  53.899  -9.274  1.00  0.00    -0.306 OA
BRANCH  26  27
HETATM   27  C24 UNL     1       6.152  53.925  -8.292  1.00  0.00     0.259 C 
HETATM   28  O7  UNL     1       6.374  53.009  -7.513  1.00  0.00    -0.265 OA
BRANCH  27  29
HETATM   29  C25 UNL     1       6.871  55.247  -8.277  1.00  0.00     0.111 C 
BRANCH  29  30
HETATM   30  C26 UNL     1       7.051  55.760  -6.853  1.00  0.00     0.005 C 
HETATM   31  C27 UNL     1       6.180  56.977  -6.587  1.00  0.00     0.005 C 
ENDBRANCH  29  30
ENDBRANCH  27  29
ENDBRANCH  26  27
ENDBRANCH  23  26
ENDBRANCH  21  23
ENDBRANCH  20  21
ENDBRANCH  16  20
BRANCH   5  32
HETATM   32  C6  UNL     1       3.455  50.579 -10.580  1.00  0.00     0.010 C 
HETATM   33  C7  UNL     1       2.435  49.715  -9.819  1.00  0.00     0.012 C 
BRANCH  32  34
HETATM   34  C8  UNL     1       4.160  49.691 -11.625  1.00  0.00     0.168 C 
BRANCH  34  35
HETATM   35  O1  UNL     1       3.922  48.309 -11.373  1.00  0.00    -0.400 OA
HETATM   36  H14 UNL     1       4.166  48.133 -10.448  1.00  0.00     0.209 HD
ENDBRANCH  34  35
ENDBRANCH  32  34
ENDBRANCH   5  32
BRANCH  11  37
HETATM   37  O3  UNL     1      -2.472  50.970 -10.434  1.00  0.00    -0.387 OA
HETATM   38  H22 UNL     1      -3.169  50.464 -10.890  1.00  0.00     0.210 HD
ENDBRANCH  11  37
TORSDOF 12
ENDMDL
MODEL 3
REMARK minimizedAffinity -5.82621241
REMARK CNNscore 0.796450078
REMARK CNNaffinity 6.88494825
REMARK  12 active torsions:
REMARK  status: ('A' for Active; 'I' for Inactive)
REMARK    1  A    between atoms: C5_5  and  C6_6 
REMARK    2  A    between atoms: C6_6  and  C8_8 
REMARK    3  A    between atoms: C8_8  and  O1_9 
REMARK    4  A    between atoms: C13_15  and  O3_17 
REMARK    5  A    between atoms: C18_21  and  O4_23 
REMARK    6  A    between atoms: O4_23  and  C20_24 
REMARK    7  A    between atoms: C20_24  and  C21_26 
REMARK    8  A    between atoms: C21_26  and  C22_27 
REMARK    9  A    between atoms: C21_26  and  O6_29 
REMARK   10  A    between atoms: O6_29  and  C24_30 
REMARK   11  A    between atoms: C24_30  and  C25_32 
REMARK   12  A    between atoms: C25_32  and  C26_33 
ROOT
HETATM    1  C1  UNL     1      -3.541  52.791 -11.517  1.00  0.00     0.015 C 
HETATM    2  C2  UNL     1      -2.647  52.088 -10.798  1.00  0.00    -0.077 C 
HETATM    3  C3  UNL     1      -2.934  51.684  -9.374  1.00  0.00     0.034 C 
HETATM    4  C4  UNL     1      -1.666  51.606  -8.520  1.00  0.00     0.010 C 
HETATM    5  C5  UNL     1      -0.554  52.568  -8.980  1.00  0.00    -0.001 C 
HETATM    6  C9  UNL     1      -0.082  52.138 -10.422  1.00  0.00     0.037 C 
HETATM    7  C10 UNL     1      -1.282  51.705 -11.344  1.00  0.00     0.090 C 
HETATM    8  C11 UNL     1      -1.332  50.218 -11.742  1.00  0.00     0.138 C 
HETATM    9  O2  UNL     1      -1.759  49.348 -10.974  1.00  0.00    -0.297 OA
HETATM   10  C12 UNL     1      -0.909  49.819 -13.158  1.00  0.00     0.119 C 
HETATM   11  C13 UNL     1       0.301  50.559 -13.778  1.00  0.00     0.087 C 
HETATM   12  C14 UNL     1       0.811  49.749 -14.985  1.00  0.00     0.049 C 
HETATM   13  C15 UNL     1       1.496  50.793 -12.783  1.00  0.00     0.156 C 
HETATM   14  C16 UNL     1       2.040  52.230 -12.753  1.00  0.00     0.038 C 
HETATM   15  C17 UNL     1       2.876  52.582 -11.519  1.00  0.00     0.043 C 
HETATM   16  C18 UNL     1       2.570  51.727 -10.263  1.00  0.00     0.093 C 
HETATM   17  C19 UNL     1       3.640  50.601 -10.226  1.00  0.00     0.049 C 
HETATM   18  C28 UNL     1       1.131  51.129 -10.380  1.00  0.00     0.162 C 
HETATM   19  O8  UNL     1       1.153  50.250 -11.508  1.00  0.00    -0.374 OA
ENDROOT
BRANCH  16  20
HETATM   20  O4  UNL     1       2.769  52.613  -9.128  1.00  0.00    -0.306 OA
BRANCH  20  21
HETATM   21  C20 UNL     1       3.839  53.463  -9.108  1.00  0.00     0.289 C 
HETATM   22  O5  UNL     1       5.012  53.118  -9.160  1.00  0.00    -0.262 OA
BRANCH  21  23
HETATM   23  C21 UNL     1       3.363  54.921  -9.038  1.00  0.00     0.231 C 
BRANCH  23  24
HETATM   24  C22 UNL     1       4.169  55.805 -10.000  1.00  0.00     0.038 C 
HETATM   25  C23 UNL     1       3.344  56.373 -11.150  1.00  0.00     0.008 C 
ENDBRANCH  23  24
BRANCH  23  26
HETATM   26  O6  UNL     1       3.492  55.473  -7.719  1.00  0.00    -0.306 OA
BRANCH  26  27
HETATM   27  C24 UNL     1       4.186  56.642  -7.662  1.00  0.00     0.259 C 
HETATM   28  O7  UNL     1       3.726  57.741  -7.934  1.00  0.00    -0.265 OA
BRANCH  27  29
HETATM   29  C25 UNL     1       5.610  56.397  -7.239  1.00  0.00     0.111 C 
BRANCH  29  30
HETATM   30  C26 UNL     1       5.994  57.282  -6.059  1.00  0.00     0.005 C 
HETATM   31  C27 UNL     1       7.433  57.043  -5.631  1.00  0.00     0.005 C 
ENDBRANCH  29  30
ENDBRANCH  27  29
ENDBRANCH  26  27
ENDBRANCH  23  26
ENDBRANCH  21  23
ENDBRANCH  20  21
ENDBRANCH  16  20
BRANCH   5  32
HETATM   32  C6  UNL     1      -0.948  54.087  -8.900  1.00  0.00     0.010 C 
HETATM   33  C7  UNL     1      -0.439  54.776  -7.623  1.00  0.00     0.012 C 
BRANCH  32  34
HETATM   34  C8  UNL     1      -0.421  54.873 -10.119  1.00  0.00     0.168 C 
BRANCH  34  35
HETATM   35  O1  UNL     1      -1.479  55.540 -10.800  1.00  0.00    -0.400 OA
HETATM   36  H14 UNL     1      -2.163  54.877 -10.999  1.00  0.00     0.209 HD
ENDBRANCH  34  35
ENDBRANCH  32  34
ENDBRANCH   5  32
BRANCH  11  37
HETATM   37  O3  UNL     1      -0.165  51.803 -14.329  1.00  0.00    -0.387 OA
HETATM   38  H22 UNL     1      -0.791  51.607 -15.049  1.00  0.00     0.210 HD
ENDBRANCH  11  37
TORSDOF 12
ENDMDL
MODEL 4
REMARK minimizedAffinity -7.98233604
REMARK CNNscore 0.76291132
REMARK CNNaffinity 6.91538382
REMARK  12 active torsions:
REMARK  status: ('A' for Active; 'I' for Inactive)
REMARK    1  A    between atoms: C5_5  and  C6_6 
REMARK    2  A    between atoms: C6_6  and  C8_8 
REMARK    3  A    between atoms: C8_8  and  O1_9 
REMARK    4  A    between atoms: C13_15  and  O3_17 
REMARK    5  A    between atoms: C18_21  and  O4_23 
REMARK    6  A    between atoms: O4_23  and  C20_24 
REMARK    7  A    between atoms: C20_24  and  C21_26 
REMARK    8  A    between atoms: C21_26  and  C22_27 
REMARK    9  A    between atoms: C21_26  and  O6_29 
REMARK   10  A    between atoms: O6_29  and  C24_30 
REMARK   11  A    between atoms: C24_30  and  C25_32 
REMARK   12  A    between atoms: C25_32  and  C26_33 
ROOT
HETATM    1  C1  UNL     1      -3.523  48.829 -25.331  1.00  0.00     0.015 C 
HETATM    2  C2  UNL     1      -3.978  49.487 -24.250  1.00  0.00    -0.077 C 
HETATM    3  C3  UNL     1      -4.757  50.771 -24.389  1.00  0.00     0.034 C 
HETATM    4  C4  UNL     1      -4.539  51.719 -23.207  1.00  0.00     0.010 C 
HETATM    5  C5  UNL     1      -3.157  51.567 -22.542  1.00  0.00    -0.001 C 
HETATM    6  C9  UNL     1      -3.058  50.126 -21.912  1.00  0.00     0.037 C 
HETATM    7  C10 UNL     1      -3.698  49.020 -22.832  1.00  0.00     0.090 C 
HETATM    8  C11 UNL     1      -4.973  48.342 -22.296  1.00  0.00     0.138 C 
HETATM    9  O2  UNL     1      -6.083  48.883 -22.371  1.00  0.00    -0.297 OA
HETATM   10  C12 UNL     1      -4.870  46.927 -21.722  1.00  0.00     0.119 C 
HETATM   11  C13 UNL     1      -3.618  46.587 -20.880  1.00  0.00     0.087 C 
HETATM   12  C14 UNL     1      -3.899  45.305 -20.072  1.00  0.00     0.049 C 
HETATM   13  C15 UNL     1      -3.175  47.724 -19.889  1.00  0.00     0.156 C 
HETATM   14  C16 UNL     1      -1.682  48.084 -19.942  1.00  0.00     0.038 C 
HETATM   15  C17 UNL     1      -1.318  49.440 -19.332  1.00  0.00     0.043 C 
HETATM   16  C18 UNL     1      -2.475  50.472 -19.310  1.00  0.00     0.093 C 
HETATM   17  C19 UNL     1      -3.100  50.402 -17.890  1.00  0.00     0.049 C 
HETATM   18  C28 UNL     1      -3.525  50.097 -20.404  1.00  0.00     0.162 C 
HETATM   19  O8  UNL     1      -4.068  48.830 -20.021  1.00  0.00    -0.374 OA
ENDROOT
BRANCH  16  20
HETATM   20  O4  UNL     1      -1.845  51.770 -19.492  1.00  0.00    -0.306 OA
BRANCH  20  21
HETATM   21  C20 UNL     1      -0.514  51.843 -19.793  1.00  0.00     0.289 C 
HETATM   22  O5  UNL     1       0.057  51.158 -20.631  1.00  0.00    -0.262 OA
BRANCH  21  23
HETATM   23  C21 UNL     1       0.166  52.930 -18.948  1.00  0.00     0.231 C 
BRANCH  23  24
HETATM   24  C22 UNL     1       0.544  54.139 -19.816  1.00  0.00     0.038 C 
HETATM   25  C23 UNL     1       1.432  53.788 -21.005  1.00  0.00     0.008 C 
ENDBRANCH  23  24
BRANCH  23  26
HETATM   26  O6  UNL     1       1.360  52.455 -18.308  1.00  0.00    -0.306 OA
BRANCH  26  27
HETATM   27  C24 UNL     1       1.163  51.921 -17.072  1.00  0.00     0.259 C 
HETATM   28  O7  UNL     1       0.482  50.932 -16.840  1.00  0.00    -0.265 OA
BRANCH  27  29
HETATM   29  C25 UNL     1       1.878  52.726 -16.022  1.00  0.00     0.111 C 
BRANCH  29  30
HETATM   30  C26 UNL     1       3.061  51.956 -15.447  1.00  0.00     0.005 C 
HETATM   31  C27 UNL     1       4.365  52.360 -16.115  1.00  0.00     0.005 C 
ENDBRANCH  29  30
ENDBRANCH  27  29
ENDBRANCH  26  27
ENDBRANCH  23  26
ENDBRANCH  21  23
ENDBRANCH  20  21
ENDBRANCH  16  20
BRANCH   5  32
HETATM   32  C6  UNL     1      -1.949  51.895 -23.494  1.00  0.00     0.010 C 
HETATM   33  C7  UNL     1      -1.028  50.688 -23.736  1.00  0.00     0.012 C 
BRANCH  32  34
HETATM   34  C8  UNL     1      -2.433  52.419 -24.862  1.00  0.00     0.168 C 
BRANCH  34  35
HETATM   35  O1  UNL     1      -1.526  53.378 -25.398  1.00  0.00    -0.400 OA
HETATM   36  H14 UNL     1      -1.387  54.060 -24.719  1.00  0.00     0.209 HD
ENDBRANCH  34  35
ENDBRANCH  32  34
ENDBRANCH   5  32
BRANCH  11  37
HETATM   37  O3  UNL     1      -2.550  46.239 -21.778  1.00  0.00    -0.387 OA
HETATM   38  H22 UNL     1      -2.805  45.434 -22.265  1.00  0.00     0.210 HD
ENDBRANCH  11  37
TORSDOF 12
ENDMDL
MODEL 5
REMARK minimizedAffinity -6.5790658
REMARK CNNscore 0.711828053
REMARK CNNaffinity 7.21314955
REMARK  12 active torsions:
REMARK  status: ('A' for Active; 'I' for Inactive)
REMARK    1  A    between atoms: C5_5  and  C6_6 
REMARK    2  A    between atoms: C6_6  and  C8_8 
REMARK    3  A    between atoms: C8_8  and  O1_9 
REMARK    4  A    between atoms: C13_15  and  O3_17 
REMARK    5  A    between atoms: C18_21  and  O4_23 
REMARK    6  A    between atoms: O4_23  and  C20_24 
REMARK    7  A    between atoms: C20_24  and  C21_26 
REMARK    8  A    between atoms: C21_26  and  C22_27 
REMARK    9  A    between atoms: C21_26  and  O6_29 
REMARK   10  A    between atoms: O6_29  and  C24_30 
REMARK   11  A    between atoms: C24_30  and  C25_32 
REMARK   12  A    between atoms: C25_32  and  C26_33 
ROOT
HETATM    1  C1  UNL     1       1.882  52.640 -11.738  1.00  0.00     0.015 C 
HETATM    2  C2  UNL     1       1.631  51.521 -12.441  1.00  0.00    -0.077 C 
HETATM    3  C3  UNL     1       2.752  50.659 -12.965  1.00  0.00     0.034 C 
HETATM    4  C4  UNL     1       2.386  49.953 -14.272  1.00  0.00     0.010 C 
HETATM    5  C5  UNL     1       1.368  50.730 -15.129  1.00  0.00    -0.001 C 
HETATM    6  C9  UNL     1       0.008  50.817 -14.336  1.00  0.00     0.037 C 
HETATM    7  C10 UNL     1       0.221  51.082 -12.799  1.00  0.00     0.090 C 
HETATM    8  C11 UNL     1      -0.173  49.936 -11.849  1.00  0.00     0.138 C 
HETATM    9  O2  UNL     1       0.559  48.957 -11.665  1.00  0.00    -0.297 OA
HETATM   10  C12 UNL     1      -1.477  50.051 -11.056  1.00  0.00     0.119 C 
HETATM   11  C13 UNL     1      -2.698  50.673 -11.774  1.00  0.00     0.087 C 
HETATM   12  C14 UNL     1      -3.972  50.320 -10.981  1.00  0.00     0.049 C 
HETATM   13  C15 UNL     1      -2.882  50.204 -13.264  1.00  0.00     0.156 C 
HETATM   14  C16 UNL     1      -3.102  51.338 -14.277  1.00  0.00     0.038 C 
HETATM   15  C17 UNL     1      -2.850  50.961 -15.740  1.00  0.00     0.043 C 
HETATM   16  C18 UNL     1      -1.877  49.771 -15.943  1.00  0.00     0.093 C 
HETATM   17  C19 UNL     1      -2.761  48.510 -16.143  1.00  0.00     0.049 C 
HETATM   18  C28 UNL     1      -0.966  49.624 -14.683  1.00  0.00     0.162 C 
HETATM   19  O8  UNL     1      -1.836  49.291 -13.597  1.00  0.00    -0.374 OA
ENDROOT
BRANCH  16  20
HETATM   20  O4  UNL     1      -1.164  50.056 -17.178  1.00  0.00    -0.306 OA
BRANCH  20  21
HETATM   21  C20 UNL     1      -1.818  50.653 -18.219  1.00  0.00     0.289 C 
HETATM   22  O5  UNL     1      -2.675  51.519 -18.107  1.00  0.00    -0.262 OA
BRANCH  21  23
HETATM   23  C21 UNL     1      -1.307  50.102 -19.558  1.00  0.00     0.231 C 
BRANCH  23  24
HETATM   24  C22 UNL     1      -1.251  48.568 -19.532  1.00  0.00     0.038 C 
HETATM   25  C23 UNL     1      -1.066  47.937 -20.908  1.00  0.00     0.008 C 
ENDBRANCH  23  24
BRANCH  23  26
HETATM   26  O6  UNL     1       0.005  50.587 -19.881  1.00  0.00    -0.306 OA
BRANCH  26  27
HETATM   27  C24 UNL     1       0.042  51.464 -20.920  1.00  0.00     0.259 C 
HETATM   28  O7  UNL     1       1.028  52.104 -21.259  1.00  0.00    -0.265 OA
BRANCH  27  29
HETATM   29  C25 UNL     1      -1.304  51.560 -21.586  1.00  0.00     0.111 C 
BRANCH  29  30
HETATM   30  C26 UNL     1      -1.248  51.041 -23.018  1.00  0.00     0.005 C 
HETATM   31  C27 UNL     1      -0.289  51.858 -23.869  1.00  0.00     0.005 C 
ENDBRANCH  29  30
ENDBRANCH  27  29
ENDBRANCH  26  27
ENDBRANCH  23  26
ENDBRANCH  21  23
ENDBRANCH  20  21
ENDBRANCH  16  20
BRANCH   5  32
HETATM   32  C6  UNL     1       1.878  52.137 -15.610  1.00  0.00     0.010 C 
HETATM   33  C7  UNL     1       3.379  52.153 -15.941  1.00  0.00     0.012 C 
BRANCH  32  34
HETATM   34  C8  UNL     1       1.102  52.625 -16.851  1.00  0.00     0.168 C 
BRANCH  34  35
HETATM   35  O1  UNL     1       1.989  53.091 -17.864  1.00  0.00    -0.400 OA
HETATM   36  H14 UNL     1       2.578  53.750 -17.458  1.00  0.00     0.209 HD
ENDBRANCH  34  35
ENDBRANCH  32  34
ENDBRANCH   5  32
BRANCH  11  37
HETATM   37  O3  UNL     1      -2.589  52.105 -11.693  1.00  0.00    -0.387 OA
HETATM   38  H22 UNL     1      -2.635  52.366 -10.755  1.00  0.00     0.210 HD
ENDBRANCH  11  37
TORSDOF 12
ENDMDL
MODEL 6
REMARK minimizedAffinity -8.21002102
REMARK CNNscore 0.700939715
REMARK CNNaffinity 7.34677267
REMARK  12 active torsions:
REMARK  status: ('A' for Active; 'I' for Inactive)
REMARK    1  A    between atoms: C5_5  and  C6_6 
REMARK    2  A    between atoms: C6_6  and  C8_8 
REMARK    3  A    between atoms: C8_8  and  O1_9 
REMARK    4  A    between atoms: C13_15  and  O3_17 
REMARK    5  A    between atoms: C18_21  and  O4_23 
REMARK    6  A    between atoms: O4_23  and  C20_24 
REMARK    7  A    between atoms: C20_24  and  C21_26 
REMARK    8  A    between atoms: C21_26  and  C22_27 
REMARK    9  A    between atoms: C21_26  and  O6_29 
REMARK   10  A    between atoms: O6_29  and  C24_30 
REMARK   11  A    between atoms: C24_30  and  C25_32 
REMARK   12  A    between atoms: C25_32  and  C26_33 
ROOT
HETATM    1  C1  UNL     1      -3.866  49.164 -18.740  1.00  0.00     0.015 C 
HETATM    2  C2  UNL     1      -3.393  48.697 -19.909  1.00  0.00    -0.077 C 
HETATM    3  C3  UNL     1      -2.183  47.799 -19.960  1.00  0.00     0.034 C 
HETATM    4  C4  UNL     1      -1.373  47.980 -21.246  1.00  0.00     0.010 C 
HETATM    5  C5  UNL     1      -1.473  49.397 -21.843  1.00  0.00    -0.001 C 
HETATM    6  C9  UNL     1      -2.965  49.653 -22.281  1.00  0.00     0.037 C 
HETATM    7  C10 UNL     1      -4.004  49.079 -21.247  1.00  0.00     0.090 C 
HETATM    8  C11 UNL     1      -4.862  47.894 -21.730  1.00  0.00     0.138 C 
HETATM    9  O2  UNL     1      -4.425  46.738 -21.760  1.00  0.00    -0.297 OA
HETATM   10  C12 UNL     1      -6.321  48.150 -22.115  1.00  0.00     0.119 C 
HETATM   11  C13 UNL     1      -6.643  49.462 -22.869  1.00  0.00     0.087 C 
HETATM   12  C14 UNL     1      -8.036  49.334 -23.515  1.00  0.00     0.049 C 
HETATM   13  C15 UNL     1      -5.600  49.842 -23.983  1.00  0.00     0.156 C 
HETATM   14  C16 UNL     1      -5.095  51.292 -23.931  1.00  0.00     0.038 C 
HETATM   15  C17 UNL     1      -3.797  51.556 -24.697  1.00  0.00     0.043 C 
HETATM   16  C18 UNL     1      -2.891  50.312 -24.886  1.00  0.00     0.093 C 
HETATM   17  C19 UNL     1      -3.196  49.757 -26.304  1.00  0.00     0.049 C 
HETATM   18  C28 UNL     1      -3.226  49.255 -23.786  1.00  0.00     0.162 C 
HETATM   19  O8  UNL     1      -4.577  48.847 -24.020  1.00  0.00    -0.374 OA
ENDROOT
BRANCH  16  20
HETATM   20  O4  UNL     1      -1.527  50.814 -24.852  1.00  0.00    -0.306 OA
BRANCH  20  21
HETATM   21  C20 UNL     1      -1.294  52.135 -24.597  1.00  0.00     0.289 C 
HETATM   22  O5  UNL     1      -2.158  52.972 -24.372  1.00  0.00    -0.262 OA
BRANCH  21  23
HETATM   23  C21 UNL     1       0.215  52.424 -24.603  1.00  0.00     0.231 C 
BRANCH  23  24
HETATM   24  C22 UNL     1       0.638  53.145 -23.316  1.00  0.00     0.038 C 
HETATM   25  C23 UNL     1       1.231  54.530 -23.555  1.00  0.00     0.008 C 
ENDBRANCH  23  24
BRANCH  23  26
HETATM   26  O6  UNL     1       0.608  53.240 -25.717  1.00  0.00    -0.306 OA
BRANCH  26  27
HETATM   27  C24 UNL     1      -0.091  53.007 -26.861  1.00  0.00     0.259 C 
HETATM   28  O7  UNL     1      -0.924  53.766 -27.337  1.00  0.00    -0.265 OA
BRANCH  27  29
HETATM   29  C25 UNL     1       0.281  51.674 -27.453  1.00  0.00     0.111 C 
BRANCH  29  30
HETATM   30  C26 UNL     1       1.590  51.763 -28.229  1.00  0.00     0.005 C 
HETATM   31  C27 UNL     1       2.792  51.711 -27.299  1.00  0.00     0.005 C 
ENDBRANCH  29  30
ENDBRANCH  27  29
ENDBRANCH  26  27
ENDBRANCH  23  26
ENDBRANCH  21  23
ENDBRANCH  20  21
ENDBRANCH  16  20
BRANCH   5  32
HETATM   32  C6  UNL     1      -0.915  50.528 -20.904  1.00  0.00     0.010 C 
HETATM   33  C7  UNL     1      -1.937  51.645 -20.634  1.00  0.00     0.012 C 
BRANCH  32  34
HETATM   34  C8  UNL     1      -0.447  49.960 -19.549  1.00  0.00     0.168 C 
BRANCH  34  35
HETATM   35  O1  UNL     1      -0.730  50.863 -18.485  1.00  0.00    -0.400 OA
HETATM   36  H14 UNL     1      -0.351  51.726 -18.724  1.00  0.00     0.209 HD
ENDBRANCH  34  35
ENDBRANCH  32  34
ENDBRANCH   5  32
BRANCH  11  37
HETATM   37  O3  UNL     1      -6.772  50.519 -21.901  1.00  0.00    -0.387 OA
HETATM   38  H22 UNL     1      -7.531  50.318 -21.324  1.00  0.00     0.210 HD
ENDBRANCH  11  37
TORSDOF 12
ENDMDL
MODEL 7
REMARK minimizedAffinity -5.93789196
REMARK CNNscore 0.581629872
REMARK CNNaffinity 6.08801126
REMARK  12 active torsions:
REMARK  status: ('A' for Active; 'I' for Inactive)
REMARK    1  A    between atoms: C5_5  and  C6_6 
REMARK    2  A    between atoms: C6_6  and  C8_8 
REMARK    3  A    between atoms: C8_8  and  O1_9 
REMARK    4  A    between atoms: C13_15  and  O3_17 
REMARK    5  A    between atoms: C18_21  and  O4_23 
REMARK    6  A    between atoms: O4_23  and  C20_24 
REMARK    7  A    between atoms: C20_24  and  C21_26 
REMARK    8  A    between atoms: C21_26  and  C22_27 
REMARK    9  A    between atoms: C21_26  and  O6_29 
REMARK   10  A    between atoms: O6_29  and  C24_30 
REMARK   11  A    between atoms: C24_30  and  C25_32 
REMARK   12  A    between atoms: C25_32  and  C26_33 
ROOT
HETATM    1  C1  UNL     1       5.368  55.511  -5.976  1.00  0.00     0.015 C 
HETATM    2  C2  UNL     1       4.952  55.592  -7.252  1.00  0.00    -0.077 C 
HETATM    3  C3  UNL     1       4.776  56.925  -7.933  1.00  0.00     0.034 C 
HETATM    4  C4  UNL     1       3.662  56.904  -8.983  1.00  0.00     0.010 C 
HETATM    5  C5  UNL     1       2.541  55.894  -8.673  1.00  0.00    -0.001 C 
HETATM    6  C9  UNL     1       3.150  54.440  -8.718  1.00  0.00     0.037 C 
HETATM    7  C10 UNL     1       4.582  54.365  -8.069  1.00  0.00     0.090 C 
HETATM    8  C11 UNL     1       5.749  54.066  -9.028  1.00  0.00     0.138 C 
HETATM    9  O2  UNL     1       6.247  54.940  -9.747  1.00  0.00    -0.297 OA
HETATM   10  C12 UNL     1       6.356  52.661  -9.034  1.00  0.00     0.119 C 
HETATM   11  C13 UNL     1       5.389  51.463  -8.885  1.00  0.00     0.087 C 
HETATM   12  C14 UNL     1       6.118  50.179  -9.327  1.00  0.00     0.049 C 
HETATM   13  C15 UNL     1       4.057  51.599  -9.710  1.00  0.00     0.156 C 
HETATM   14  C16 UNL     1       2.772  51.315  -8.916  1.00  0.00     0.038 C 
HETATM   15  C17 UNL     1       1.485  51.853  -9.549  1.00  0.00     0.043 C 
HETATM   16  C18 UNL     1       1.687  53.059 -10.502  1.00  0.00     0.093 C 
HETATM   17  C19 UNL     1       1.730  52.479 -11.942  1.00  0.00     0.049 C 
HETATM   18  C28 UNL     1       3.026  53.782 -10.148  1.00  0.00     0.162 C 
HETATM   19  O8  UNL     1       4.070  52.842 -10.413  1.00  0.00    -0.374 OA
ENDROOT
BRANCH  16  20
HETATM   20  O4  UNL     1       0.495  53.879 -10.352  1.00  0.00    -0.306 OA
BRANCH  20  21
HETATM   21  C20 UNL     1      -0.653  53.326  -9.858  1.00  0.00     0.289 C 
HETATM   22  O5  UNL     1      -0.819  52.965  -8.700  1.00  0.00    -0.262 OA
BRANCH  21  23
HETATM   23  C21 UNL     1      -1.723  53.245 -10.957  1.00  0.00     0.231 C 
BRANCH  23  24
HETATM   24  C22 UNL     1      -2.911  54.160 -10.630  1.00  0.00     0.038 C 
HETATM   25  C23 UNL     1      -4.257  53.444 -10.632  1.00  0.00     0.008 C 
ENDBRANCH  23  24
BRANCH  23  26
HETATM   26  O6  UNL     1      -2.226  51.911 -11.129  1.00  0.00    -0.306 OA
BRANCH  26  27
HETATM   27  C24 UNL     1      -1.659  51.223 -12.156  1.00  0.00     0.259 C 
HETATM   28  O7  UNL     1      -1.056  50.165 -12.039  1.00  0.00    -0.265 OA
BRANCH  27  29
HETATM   29  C25 UNL     1      -1.851  51.952 -13.458  1.00  0.00     0.111 C 
BRANCH  29  30
HETATM   30  C26 UNL     1      -3.100  51.465 -14.182  1.00  0.00     0.005 C 
HETATM   31  C27 UNL     1      -2.749  50.536 -15.333  1.00  0.00     0.005 C 
ENDBRANCH  29  30
ENDBRANCH  27  29
ENDBRANCH  26  27
ENDBRANCH  23  26
ENDBRANCH  21  23
ENDBRANCH  20  21
ENDBRANCH  16  20
BRANCH   5  32
HETATM   32  C6  UNL     1       1.769  56.184  -7.335  1.00  0.00     0.010 C 
HETATM   33  C7  UNL     1       1.998  57.609  -6.804  1.00  0.00     0.012 C 
BRANCH  32  34
HETATM   34  C8  UNL     1       0.251  55.965  -7.498  1.00  0.00     0.168 C 
BRANCH  34  35
HETATM   35  O1  UNL     1      -0.486  57.093  -7.035  1.00  0.00    -0.400 OA
HETATM   36  H14 UNL     1      -0.191  57.283  -6.128  1.00  0.00     0.209 HD
ENDBRANCH  34  35
ENDBRANCH  32  34
ENDBRANCH   5  32
BRANCH  11  37
HETATM   37  O3  UNL     1       5.113  51.276  -7.486  1.00  0.00    -0.387 OA
HETATM   38  H22 UNL     1       5.944  51.040  -7.035  1.00  0.00     0.210 HD
ENDBRANCH  11  37
TORSDOF 12
ENDMDL
MODEL 8
REMARK minimizedAffinity -6.30430603
REMARK CNNscore 0.565987229
REMARK CNNaffinity 6.8557229
REMARK  12 active torsions:
REMARK  status: ('A' for Active; 'I' for Inactive)
REMARK    1  A    between atoms: C5_5  and  C6_6 
REMARK    2  A    between atoms: C6_6  and  C8_8 
REMARK    3  A    between atoms: C8_8  and  O1_9 
REMARK    4  A    between atoms: C13_15  and  O3_17 
REMARK    5  A    between atoms: C18_21  and  O4_23 
REMARK    6  A    between atoms: O4_23  and  C20_24 
REMARK    7  A    between atoms: C20_24  and  C21_26 
REMARK    8  A    between atoms: C21_26  and  C22_27 
REMARK    9  A    between atoms: C21_26  and  O6_29 
REMARK   10  A    between atoms: O6_29  and  C24_30 
REMARK   11  A    between atoms: C24_30  and  C25_32 
REMARK   12  A    between atoms: C25_32  and  C26_33 
ROOT
HETATM    1  C1  UNL     1      -7.056  46.905 -23.088  1.00  0.00     0.015 C 
HETATM    2  C2  UNL     1      -6.787  47.813 -22.133  1.00  0.00    -0.077 C 
HETATM    3  C3  UNL     1      -7.421  49.181 -22.156  1.00  0.00     0.034 C 
HETATM    4  C4  UNL     1      -6.518  50.255 -21.544  1.00  0.00     0.010 C 
HETATM    5  C5  UNL     1      -5.014  49.953 -21.692  1.00  0.00    -0.001 C 
HETATM    6  C9  UNL     1      -4.682  48.648 -20.872  1.00  0.00     0.037 C 
HETATM    7  C10 UNL     1      -5.799  47.548 -21.010  1.00  0.00     0.090 C 
HETATM    8  C11 UNL     1      -6.604  47.232 -19.736  1.00  0.00     0.138 C 
HETATM    9  O2  UNL     1      -7.527  47.956 -19.348  1.00  0.00    -0.297 OA
HETATM   10  C12 UNL     1      -6.297  45.942 -18.971  1.00  0.00     0.119 C 
HETATM   11  C13 UNL     1      -4.815  45.513 -18.858  1.00  0.00     0.087 C 
HETATM   12  C14 UNL     1      -4.686  44.467 -17.734  1.00  0.00     0.049 C 
HETATM   13  C15 UNL     1      -3.819  46.695 -18.567  1.00  0.00     0.156 C 
HETATM   14  C16 UNL     1      -2.586  46.743 -19.484  1.00  0.00     0.038 C 
HETATM   15  C17 UNL     1      -1.853  48.087 -19.516  1.00  0.00     0.043 C 
HETATM   16  C18 UNL     1      -2.729  49.312 -19.147  1.00  0.00     0.093 C 
HETATM   17  C19 UNL     1      -2.462  49.607 -17.646  1.00  0.00     0.049 C 
HETATM   18  C28 UNL     1      -4.233  48.968 -19.393  1.00  0.00     0.162 C 
HETATM   19  O8  UNL     1      -4.556  47.914 -18.481  1.00  0.00    -0.374 OA
ENDROOT
BRANCH  16  20
HETATM   20  O4  UNL     1      -2.219  50.412 -19.949  1.00  0.00    -0.306 OA
BRANCH  20  21
HETATM   21  C20 UNL     1      -1.198  50.196 -20.831  1.00  0.00     0.289 C 
HETATM   22  O5  UNL     1      -1.264  49.478 -21.821  1.00  0.00    -0.262 OA
BRANCH  21  23
HETATM   23  C21 UNL     1       0.043  51.002 -20.423  1.00  0.00     0.231 C 
BRANCH  23  24
HETATM   24  C22 UNL     1      -0.360  52.289 -19.688  1.00  0.00     0.038 C 
HETATM   25  C23 UNL     1       0.334  52.470 -18.342  1.00  0.00     0.008 C 
ENDBRANCH  23  24
BRANCH  23  26
HETATM   26  O6  UNL     1       0.848  51.372 -21.552  1.00  0.00    -0.306 OA
BRANCH  26  27
HETATM   27  C24 UNL     1       0.569  52.601 -22.065  1.00  0.00     0.259 C 
HETATM   28  O7  UNL     1       1.027  53.654 -21.644  1.00  0.00    -0.265 OA
BRANCH  27  29
HETATM   29  C25 UNL     1      -0.403  52.494 -23.210  1.00  0.00     0.111 C 
BRANCH  29  30
HETATM   30  C26 UNL     1       0.150  53.159 -24.465  1.00  0.00     0.005 C 
HETATM   31  C27 UNL     1       0.991  52.192 -25.282  1.00  0.00     0.005 C 
ENDBRANCH  29  30
ENDBRANCH  27  29
ENDBRANCH  26  27
ENDBRANCH  23  26
ENDBRANCH  21  23
ENDBRANCH  20  21
ENDBRANCH  16  20
BRANCH   5  32
HETATM   32  C6  UNL     1      -4.521  49.874 -23.182  1.00  0.00     0.010 C 
HETATM   33  C7  UNL     1      -4.044  48.468 -23.585  1.00  0.00     0.012 C 
BRANCH  32  34
HETATM   34  C8  UNL     1      -5.622  50.314 -24.168  1.00  0.00     0.168 C 
BRANCH  34  35
HETATM   35  O1  UNL     1      -5.504  51.697 -24.489  1.00  0.00    -0.400 OA
HETATM   36  H14 UNL     1      -5.476  52.191 -23.652  1.00  0.00     0.209 HD
ENDBRANCH  34  35
ENDBRANCH  32  34
ENDBRANCH   5  32
BRANCH  11  37
HETATM   37  O3  UNL     1      -4.453  44.817 -20.064  1.00  0.00    -0.387 OA
HETATM   38  H22 UNL     1      -4.990  44.006 -20.126  1.00  0.00     0.210 HD
ENDBRANCH  11  37
TORSDOF 12
ENDMDL
MODEL 9
REMARK minimizedAffinity -8.10327053
REMARK CNNscore 0.547433197
REMARK CNNaffinity 7.11427736
REMARK  12 active torsions:
REMARK  status: ('A' for Active; 'I' for Inactive)
REMARK    1  A    between atoms: C5_5  and  C6_6 
REMARK    2  A    between atoms: C6_6  and  C8_8 
REMARK    3  A    between atoms: C8_8  and  O1_9 
REMARK    4  A    between atoms: C13_15  and  O3_17 
REMARK    5  A    between atoms: C18_21  and  O4_23 
REMARK    6  A    between atoms: O4_23  and  C20_24 
REMARK    7  A    between atoms: C20_24  and  C21_26 
REMARK    8  A    between atoms: C21_26  and  C22_27 
REMARK    9  A    between atoms: C21_26  and  O6_29 
REMARK   10  A    between atoms: O6_29  and  C24_30 
REMARK   11  A    between atoms: C24_30  and  C25_32 
REMARK   12  A    between atoms: C25_32  and  C26_33 
ROOT
HETATM    1  C1  UNL     1      -4.049  49.033 -18.677  1.00  0.00     0.015 C 
HETATM    2  C2  UNL     1      -3.493  48.566 -19.809  1.00  0.00    -0.077 C 
HETATM    3  C3  UNL     1      -2.271  47.685 -19.774  1.00  0.00     0.034 C 
HETATM    4  C4  UNL     1      -1.379  47.870 -21.005  1.00  0.00     0.010 C 
HETATM    5  C5  UNL     1      -1.457  49.283 -21.615  1.00  0.00    -0.001 C 
HETATM    6  C9  UNL     1      -2.921  49.516 -22.153  1.00  0.00     0.037 C 
HETATM    7  C10 UNL     1      -4.019  48.933 -21.188  1.00  0.00     0.090 C 
HETATM    8  C11 UNL     1      -4.827  47.735 -21.720  1.00  0.00     0.138 C 
HETATM    9  O2  UNL     1      -4.374  46.585 -21.713  1.00  0.00    -0.297 OA
HETATM   10  C12 UNL     1      -6.260  47.969 -22.203  1.00  0.00     0.119 C 
HETATM   11  C13 UNL     1      -6.548  49.273 -22.984  1.00  0.00     0.087 C 
HETATM   12  C14 UNL     1      -7.893  49.123 -23.720  1.00  0.00     0.049 C 
HETATM   13  C15 UNL     1      -5.438  49.661 -24.028  1.00  0.00     0.156 C 
HETATM   14  C16 UNL     1      -4.957  51.119 -23.951  1.00  0.00     0.038 C 
HETATM   15  C17 UNL     1      -3.614  51.396 -24.631  1.00  0.00     0.043 C 
HETATM   16  C18 UNL     1      -2.681  50.164 -24.751  1.00  0.00     0.093 C 
HETATM   17  C19 UNL     1      -2.884  49.598 -26.184  1.00  0.00     0.049 C 
HETATM   18  C28 UNL     1      -3.075  49.108 -23.670  1.00  0.00     0.162 C 
HETATM   19  O8  UNL     1      -4.402  48.680 -23.992  1.00  0.00    -0.374 OA
ENDROOT
BRANCH  16  20
HETATM   20  O4  UNL     1      -1.329  50.683 -24.630  1.00  0.00    -0.306 OA
BRANCH  20  21
HETATM   21  C20 UNL     1      -0.651  51.084 -25.746  1.00  0.00     0.289 C 
HETATM   22  O5  UNL     1       0.076  50.369 -26.422  1.00  0.00    -0.262 OA
BRANCH  21  23
HETATM   23  C21 UNL     1      -0.951  52.559 -26.053  1.00  0.00     0.231 C 
BRANCH  23  24
HETATM   24  C22 UNL     1       0.106  53.144 -27.000  1.00  0.00     0.038 C 
HETATM   25  C23 UNL     1      -0.480  53.966 -28.143  1.00  0.00     0.008 C 
ENDBRANCH  23  24
BRANCH  23  26
HETATM   26  O6  UNL     1      -0.978  53.368 -24.867  1.00  0.00    -0.306 OA
BRANCH  26  27
HETATM   27  C24 UNL     1       0.242  53.810 -24.458  1.00  0.00     0.259 C 
HETATM   28  O7  UNL     1       0.861  54.730 -24.975  1.00  0.00    -0.265 OA
BRANCH  27  29
HETATM   29  C25 UNL     1       0.743  52.997 -23.295  1.00  0.00     0.111 C 
BRANCH  29  30
HETATM   30  C26 UNL     1       1.158  53.894 -22.135  1.00  0.00     0.005 C 
HETATM   31  C27 UNL     1       1.512  53.079 -20.901  1.00  0.00     0.005 C 
ENDBRANCH  29  30
ENDBRANCH  27  29
ENDBRANCH  26  27
ENDBRANCH  23  26
ENDBRANCH  21  23
ENDBRANCH  20  21
ENDBRANCH  16  20
BRANCH   5  32
HETATM   32  C6  UNL     1      -0.979  50.426 -20.648  1.00  0.00     0.010 C 
HETATM   33  C7  UNL     1      -2.045  51.511 -20.422  1.00  0.00     0.012 C 
BRANCH  32  34
HETATM   34  C8  UNL     1      -0.558  49.866 -19.274  1.00  0.00     0.168 C 
BRANCH  34  35
HETATM   35  O1  UNL     1      -0.051  50.895 -18.430  1.00  0.00    -0.400 OA
HETATM   36  H14 UNL     1       0.650  51.358 -18.920  1.00  0.00     0.209 HD
ENDBRANCH  34  35
ENDBRANCH  32  34
ENDBRANCH   5  32
BRANCH  11  37
HETATM   37  O3  UNL     1      -6.755  50.333 -22.033  1.00  0.00    -0.387 OA
HETATM   38  H22 UNL     1      -7.548  50.124 -21.506  1.00  0.00     0.210 HD
ENDBRANCH  11  37
TORSDOF 12
ENDMDL
