MODEL 1
REMARK minimizedAffinity -7.58521366
REMARK  4 active torsions:
REMARK  status: ('A' for Active; 'I' for Inactive)
REMARK    1  A    between atoms: N1_1  and  C1_2 
REMARK    2  A    between atoms: C2_5  and  O1_6 
REMARK    3  A    between atoms: O1_6  and  C3_7 
REMARK    4  A    between atoms: C3_7  and  C4_8 
ROOT
HETATM    1  C1  UNL     1       4.104  62.508 -33.469  1.00  0.00     0.158 A 
HETATM    2  N2  UNL     1       5.127  61.681 -33.744  1.00  0.00    -0.311 N 
ATOM      3  H2  UNL     1       5.265  60.827 -33.204  1.00  0.00     0.170 HD
HETATM    4  C2  UNL     1       5.974  62.005 -34.757  1.00  0.00     0.176 A 
HETATM    5  C8  UNL     1       5.751  63.170 -35.490  1.00  0.00     0.129 A 
HETATM    6  N3  UNL     1       6.391  63.778 -36.550  1.00  0.00    -0.346 N 
ATOM      7  H3  UNL     1       7.225  63.454 -37.041  1.00  0.00     0.167 HD
HETATM    8  C9  UNL     1       5.692  64.867 -36.791  1.00  0.00     0.182 A 
HETATM    9  N4  UNL     1       4.629  64.990 -35.938  1.00  0.00    -0.337 N 
HETATM   10  C10 UNL     1       4.651  63.913 -35.100  1.00  0.00     0.140 A 
HETATM   11  N5  UNL     1       3.788  63.642 -34.114  1.00  0.00    -0.317 N 
ATOM     12  H5  UNL     1       2.986  64.228 -33.881  1.00  0.00     0.170 HD
HETATM   13  H8  UNL     1       3.948  65.733 -35.916  1.00  0.00     0.168 HD
ENDROOT
BRANCH   4  14
HETATM   14  O1  UNL     1       7.037  61.181 -35.066  1.00  0.00    -0.329 OA
BRANCH  14  15
HETATM   15  C3  UNL     1       7.898  60.943 -33.954  1.00  0.00     0.223 C 
BRANCH  15  16
HETATM   16  C4  UNL     1       9.127  61.786 -34.151  1.00  0.00     0.008 A 
HETATM   17  C5  UNL     1       9.582  62.425 -35.292  1.00  0.00     0.036 A 
HETATM   18  C6  UNL     1      10.783  63.135 -35.055  1.00  0.00     0.018 A 
HETATM   19 BR1  UNL     1      11.657  64.103 -36.417  1.00  0.00    -0.051 Br
HETATM   20  C7  UNL     1      11.223  63.041 -33.759  1.00  0.00     0.069 A 
HETATM   21  S1  UNL     1      10.167  62.082 -32.814  1.00  0.00    -0.103 SA
ENDBRANCH  15  16
ENDBRANCH  14  15
ENDBRANCH   4  14
BRANCH   1  22
HETATM   22  N1  UNL     1       3.269  62.128 -32.438  1.00  0.00    -0.274 NA
HETATM   23  H1  UNL     1       2.353  62.536 -32.560  1.00  0.00     0.127 HD
HETATM   24  H2  UNL     1       3.318  61.129 -32.298  1.00  0.00     0.127 HD
ENDBRANCH   1  22
TORSDOF 4
ENDMDL
MODEL 2
REMARK minimizedAffinity -7.44529819
REMARK  4 active torsions:
REMARK  status: ('A' for Active; 'I' for Inactive)
REMARK    1  A    between atoms: N1_1  and  C1_2 
REMARK    2  A    between atoms: C2_5  and  O1_6 
REMARK    3  A    between atoms: O1_6  and  C3_7 
REMARK    4  A    between atoms: C3_7  and  C4_8 
ROOT
HETATM    1  C1  UNL     1       1.994  51.822 -27.017  1.00  0.00     0.158 A 
HETATM    2  N2  UNL     1       1.855  52.318 -25.775  1.00  0.00    -0.311 N 
ATOM      3  H2  UNL     1       2.667  52.443 -25.171  1.00  0.00     0.170 HD
HETATM    4  C2  UNL     1       0.611  52.650 -25.341  1.00  0.00     0.176 A 
HETATM    5  C8  UNL     1      -0.480  52.485 -26.195  1.00  0.00     0.129 A 
HETATM    6  N3  UNL     1      -1.836  52.716 -26.081  1.00  0.00    -0.346 N 
ATOM      7  H3  UNL     1      -2.337  53.089 -25.274  1.00  0.00     0.167 HD
HETATM    8  C9  UNL     1      -2.342  52.351 -27.241  1.00  0.00     0.182 A 
HETATM    9  N4  UNL     1      -1.376  51.897 -28.098  1.00  0.00    -0.337 N 
HETATM   10  C10 UNL     1      -0.180  51.977 -27.446  1.00  0.00     0.140 A 
HETATM   11  N5  UNL     1       1.022  51.634 -27.923  1.00  0.00    -0.317 N 
ATOM     12  H5  UNL     1       1.180  51.272 -28.864  1.00  0.00     0.170 HD
HETATM   13  H8  UNL     1      -1.507  51.560 -29.039  1.00  0.00     0.168 HD
ENDROOT
BRANCH   4  14
HETATM   14  O1  UNL     1       0.429  53.160 -24.072  1.00  0.00    -0.329 OA
BRANCH  14  15
HETATM   15  C3  UNL     1      -0.339  52.300 -23.232  1.00  0.00     0.223 C 
BRANCH  15  16
HETATM   16  C4  UNL     1       0.114  52.535 -21.817  1.00  0.00     0.008 A 
HETATM   17  C5  UNL     1      -0.208  51.840 -20.664  1.00  0.00     0.036 A 
HETATM   18  C6  UNL     1       0.444  52.376 -19.527  1.00  0.00     0.018 A 
HETATM   19 BR1  UNL     1       0.202  51.650 -17.803  1.00  0.00    -0.051 Br
HETATM   20  C7  UNL     1       1.247  53.449 -19.816  1.00  0.00     0.069 A 
HETATM   21  S1  UNL     1       1.214  53.814 -21.488  1.00  0.00    -0.103 SA
ENDBRANCH  15  16
ENDBRANCH  14  15
ENDBRANCH   4  14
BRANCH   1  22
HETATM   22  N1  UNL     1       3.279  51.509 -27.411  1.00  0.00    -0.274 NA
HETATM   23  H1  UNL     1       3.356  51.548 -28.418  1.00  0.00     0.127 HD
HETATM   24  H2  UNL     1       3.949  52.041 -26.874  1.00  0.00     0.127 HD
ENDBRANCH   1  22
TORSDOF 4
ENDMDL
MODEL 3
REMARK minimizedAffinity -7.40229559
REMARK  4 active torsions:
REMARK  status: ('A' for Active; 'I' for Inactive)
REMARK    1  A    between atoms: N1_1  and  C1_2 
REMARK    2  A    between atoms: C2_5  and  O1_6 
REMARK    3  A    between atoms: O1_6  and  C3_7 
REMARK    4  A    between atoms: C3_7  and  C4_8 
ROOT
HETATM    1  C1  UNL     1       3.978  62.696 -33.334  1.00  0.00     0.158 A 
HETATM    2  N2  UNL     1       5.044  61.904 -33.545  1.00  0.00    -0.311 N 
ATOM      3  H2  UNL     1       5.226  61.105 -32.937  1.00  0.00     0.170 HD
HETATM    4  C2  UNL     1       5.874  62.189 -34.582  1.00  0.00     0.176 A 
HETATM    5  C8  UNL     1       5.591  63.278 -35.407  1.00  0.00     0.129 A 
HETATM    6  N3  UNL     1       6.200  63.831 -36.515  1.00  0.00    -0.346 N 
ATOM      7  H3  UNL     1       7.050  63.513 -36.980  1.00  0.00     0.167 HD
HETATM    8  C9  UNL     1       5.445  64.859 -36.841  1.00  0.00     0.182 A 
HETATM    9  N4  UNL     1       4.376  64.994 -35.997  1.00  0.00    -0.337 N 
HETATM   10  C10 UNL     1       4.453  63.992 -35.076  1.00  0.00     0.140 A 
HETATM   11  N5  UNL     1       3.605  63.756 -34.068  1.00  0.00    -0.317 N 
ATOM     12  H5  UNL     1       2.773  64.316 -33.881  1.00  0.00     0.170 HD
HETATM   13  H8  UNL     1       3.657  65.700 -36.034  1.00  0.00     0.168 HD
ENDROOT
BRANCH   4  14
HETATM   14  O1  UNL     1       6.979  61.400 -34.828  1.00  0.00    -0.329 OA
BRANCH  14  15
HETATM   15  C3  UNL     1       8.045  62.115 -35.451  1.00  0.00     0.223 C 
BRANCH  15  16
HETATM   16  C4  UNL     1       9.136  62.273 -34.427  1.00  0.00     0.008 A 
HETATM   17  C5  UNL     1       9.369  61.548 -33.272  1.00  0.00     0.036 A 
HETATM   18  C6  UNL     1      10.517  62.008 -32.584  1.00  0.00     0.018 A 
HETATM   19 BR1  UNL     1      11.094  61.226 -30.968  1.00  0.00    -0.051 Br
HETATM   20  C7  UNL     1      11.143  63.056 -33.211  1.00  0.00     0.069 A 
HETATM   21  S1  UNL     1      10.331  63.487 -34.654  1.00  0.00    -0.103 SA
ENDBRANCH  15  16
ENDBRANCH  14  15
ENDBRANCH   4  14
BRANCH   1  22
HETATM   22  N1  UNL     1       3.163  62.358 -32.273  1.00  0.00    -0.274 NA
HETATM   23  H1  UNL     1       2.227  62.706 -32.426  1.00  0.00     0.127 HD
HETATM   24  H2  UNL     1       3.264  61.377 -32.054  1.00  0.00     0.127 HD
ENDBRANCH   1  22
TORSDOF 4
ENDMDL
MODEL 4
REMARK minimizedAffinity -7.2108984
REMARK  4 active torsions:
REMARK  status: ('A' for Active; 'I' for Inactive)
REMARK    1  A    between atoms: N1_1  and  C1_2 
REMARK    2  A    between atoms: C2_5  and  O1_6 
REMARK    3  A    between atoms: O1_6  and  C3_7 
REMARK    4  A    between atoms: C3_7  and  C4_8 
ROOT
HETATM    1  C1  UNL     1       1.932  51.784 -26.974  1.00  0.00     0.158 A 
HETATM    2  N2  UNL     1       1.755  52.188 -25.704  1.00  0.00    -0.311 N 
ATOM      3  H2  UNL     1       2.551  52.275 -25.071  1.00  0.00     0.170 HD
HETATM    4  C2  UNL     1       0.497  52.478 -25.280  1.00  0.00     0.176 A 
HETATM    5  C8  UNL     1      -0.569  52.368 -26.173  1.00  0.00     0.129 A 
HETATM    6  N3  UNL     1      -1.929  52.580 -26.079  1.00  0.00    -0.346 N 
ATOM      7  H3  UNL     1      -2.455  52.890 -25.261  1.00  0.00     0.167 HD
HETATM    8  C9  UNL     1      -2.401  52.298 -27.275  1.00  0.00     0.182 A 
HETATM    9  N4  UNL     1      -1.410  51.914 -28.137  1.00  0.00    -0.337 N 
HETATM   10  C10 UNL     1      -0.232  51.955 -27.449  1.00  0.00     0.140 A 
HETATM   11  N5  UNL     1       0.985  51.656 -27.917  1.00  0.00    -0.317 N 
ATOM     12  H5  UNL     1       1.171  51.365 -28.877  1.00  0.00     0.170 HD
HETATM   13  H8  UNL     1      -1.513  51.646 -29.103  1.00  0.00     0.168 HD
ENDROOT
BRANCH   4  14
HETATM   14  O1  UNL     1       0.278  52.893 -23.983  1.00  0.00    -0.329 OA
BRANCH  14  15
HETATM   15  C3  UNL     1      -1.036  52.589 -23.516  1.00  0.00     0.223 C 
BRANCH  15  16
HETATM   16  C4  UNL     1      -0.917  51.420 -22.578  1.00  0.00     0.008 A 
HETATM   17  C5  UNL     1      -1.483  50.159 -22.667  1.00  0.00     0.036 A 
HETATM   18  C6  UNL     1      -1.112  49.336 -21.577  1.00  0.00     0.018 A 
HETATM   19 BR1  UNL     1      -1.728  47.562 -21.410  1.00  0.00    -0.051 Br
HETATM   20  C7  UNL     1      -0.277  49.960 -20.685  1.00  0.00     0.069 A 
HETATM   21  S1  UNL     1       0.066  51.564 -21.175  1.00  0.00    -0.103 SA
ENDBRANCH  15  16
ENDBRANCH  14  15
ENDBRANCH   4  14
BRANCH   1  22
HETATM   22  N1  UNL     1       3.229  51.511 -27.356  1.00  0.00    -0.274 NA
HETATM   23  H1  UNL     1       3.332  51.624 -28.355  1.00  0.00     0.127 HD
HETATM   24  H2  UNL     1       3.880  52.007 -26.764  1.00  0.00     0.127 HD
ENDBRANCH   1  22
TORSDOF 4
ENDMDL
MODEL 5
REMARK minimizedAffinity -7.10297823
REMARK  4 active torsions:
REMARK  status: ('A' for Active; 'I' for Inactive)
REMARK    1  A    between atoms: N1_1  and  C1_2 
REMARK    2  A    between atoms: C2_5  and  O1_6 
REMARK    3  A    between atoms: O1_6  and  C3_7 
REMARK    4  A    between atoms: C3_7  and  C4_8 
ROOT
HETATM    1  C1  UNL     1      -0.997  53.483 -27.773  1.00  0.00     0.158 A 
HETATM    2  N2  UNL     1      -1.170  53.372 -26.445  1.00  0.00    -0.311 N 
ATOM      3  H2  UNL     1      -2.007  53.745 -25.997  1.00  0.00     0.170 HD
HETATM    4  C2  UNL     1      -0.209  52.752 -25.711  1.00  0.00     0.176 A 
HETATM    5  C8  UNL     1       0.917  52.235 -26.353  1.00  0.00     0.129 A 
HETATM    6  N3  UNL     1       2.045  51.565 -25.927  1.00  0.00    -0.346 N 
ATOM      7  H3  UNL     1       2.286  51.297 -24.973  1.00  0.00     0.167 HD
HETATM    8  C9  UNL     1       2.745  51.347 -27.021  1.00  0.00     0.182 A 
HETATM    9  N4  UNL     1       2.120  51.843 -28.133  1.00  0.00    -0.337 N 
HETATM   10  C10 UNL     1       0.949  52.413 -27.724  1.00  0.00     0.140 A 
HETATM   11  N5  UNL     1       0.034  53.014 -28.493  1.00  0.00    -0.317 N 
ATOM     12  H5  UNL     1       0.112  53.105 -29.506  1.00  0.00     0.170 HD
HETATM   13  H8  UNL     1       2.450  51.805 -29.085  1.00  0.00     0.168 HD
ENDROOT
BRANCH   4  14
HETATM   14  O1  UNL     1      -0.351  52.621 -24.345  1.00  0.00    -0.329 OA
BRANCH  14  15
HETATM   15  C3  UNL     1       0.609  53.380 -23.611  1.00  0.00     0.223 C 
BRANCH  15  16
HETATM   16  C4  UNL     1       0.515  52.948 -22.173  1.00  0.00     0.008 A 
HETATM   17  C5  UNL     1      -0.051  51.806 -21.633  1.00  0.00     0.036 A 
HETATM   18  C6  UNL     1       0.082  51.768 -20.224  1.00  0.00     0.018 A 
HETATM   19 BR1  UNL     1      -0.596  50.341 -19.196  1.00  0.00    -0.051 Br
HETATM   20  C7  UNL     1       0.742  52.856 -19.711  1.00  0.00     0.069 A 
HETATM   21  S1  UNL     1       1.210  53.938 -20.951  1.00  0.00    -0.103 SA
ENDBRANCH  15  16
ENDBRANCH  14  15
ENDBRANCH   4  14
BRANCH   1  22
HETATM   22  N1  UNL     1      -2.006  54.113 -28.472  1.00  0.00    -0.274 NA
HETATM   23  H1  UNL     1      -2.014  53.802 -29.434  1.00  0.00     0.127 HD
HETATM   24  H2  UNL     1      -2.875  54.056 -27.960  1.00  0.00     0.127 HD
ENDBRANCH   1  22
TORSDOF 4
ENDMDL
MODEL 6
REMARK minimizedAffinity -6.9133029
REMARK  4 active torsions:
REMARK  status: ('A' for Active; 'I' for Inactive)
REMARK    1  A    between atoms: N1_1  and  C1_2 
REMARK    2  A    between atoms: C2_5  and  O1_6 
REMARK    3  A    between atoms: O1_6  and  C3_7 
REMARK    4  A    between atoms: C3_7  and  C4_8 
ROOT
HETATM    1  C1  UNL     1       4.114  62.783 -33.570  1.00  0.00     0.158 A 
HETATM    2  N2  UNL     1       3.568  63.942 -33.979  1.00  0.00    -0.311 N 
ATOM      3  H2  UNL     1       2.651  64.233 -33.639  1.00  0.00     0.170 HD
HETATM    4  C2  UNL     1       4.262  64.718 -34.853  1.00  0.00     0.176 A 
HETATM    5  C8  UNL     1       5.521  64.303 -35.287  1.00  0.00     0.129 A 
HETATM    6  N3  UNL     1       6.468  64.831 -36.141  1.00  0.00    -0.346 N 
ATOM      7  H3  UNL     1       6.416  65.708 -36.660  1.00  0.00     0.167 HD
HETATM    8  C9  UNL     1       7.452  63.957 -36.140  1.00  0.00     0.182 A 
HETATM    9  N4  UNL     1       7.187  62.891 -35.324  1.00  0.00    -0.337 N 
HETATM   10  C10 UNL     1       5.957  63.096 -34.770  1.00  0.00     0.140 A 
HETATM   11  N5  UNL     1       5.317  62.295 -33.911  1.00  0.00    -0.317 N 
ATOM     12  H5  UNL     1       5.698  61.417 -33.558  1.00  0.00     0.170 HD
HETATM   13  H8  UNL     1       7.778  62.092 -35.155  1.00  0.00     0.168 HD
ENDROOT
BRANCH   4  14
HETATM   14  O1  UNL     1       3.733  65.912 -35.296  1.00  0.00    -0.329 OA
BRANCH  14  15
HETATM   15  C3  UNL     1       2.475  65.754 -35.950  1.00  0.00     0.223 C 
BRANCH  15  16
HETATM   16  C4  UNL     1       2.605  66.358 -37.321  1.00  0.00     0.008 A 
HETATM   17  C5  UNL     1       1.684  66.400 -38.355  1.00  0.00     0.036 A 
HETATM   18  C6  UNL     1       2.194  67.078 -39.487  1.00  0.00     0.018 A 
HETATM   19 BR1  UNL     1       1.179  67.295 -41.062  1.00  0.00    -0.051 Br
HETATM   20  C7  UNL     1       3.471  67.546 -39.311  1.00  0.00     0.069 A 
HETATM   21  S1  UNL     1       4.062  67.162 -37.752  1.00  0.00    -0.103 SA
ENDBRANCH  15  16
ENDBRANCH  14  15
ENDBRANCH   4  14
BRANCH   1  22
HETATM   22  N1  UNL     1       3.373  62.038 -32.677  1.00  0.00    -0.274 NA
HETATM   23  H1  UNL     1       3.979  61.446 -32.125  1.00  0.00     0.127 HD
HETATM   24  H2  UNL     1       2.725  62.632 -32.177  1.00  0.00     0.127 HD
ENDBRANCH   1  22
TORSDOF 4
ENDMDL
MODEL 7
REMARK minimizedAffinity -6.76602221
REMARK  4 active torsions:
REMARK  status: ('A' for Active; 'I' for Inactive)
REMARK    1  A    between atoms: N1_1  and  C1_2 
REMARK    2  A    between atoms: C2_5  and  O1_6 
REMARK    3  A    between atoms: O1_6  and  C3_7 
REMARK    4  A    between atoms: C3_7  and  C4_8 
ROOT
HETATM    1  C1  UNL     1       1.314  53.967 -21.299  1.00  0.00     0.158 A 
HETATM    2  N2  UNL     1       0.760  52.976 -22.019  1.00  0.00    -0.311 N 
ATOM      3  H2  UNL     1       0.775  53.004 -23.039  1.00  0.00     0.170 HD
HETATM    4  C2  UNL     1       0.181  51.937 -21.363  1.00  0.00     0.176 A 
HETATM    5  C8  UNL     1       0.191  51.917 -19.968  1.00  0.00     0.129 A 
HETATM    6  N3  UNL     1      -0.288  51.042 -19.014  1.00  0.00    -0.346 N 
ATOM      7  H3  UNL     1      -0.783  50.164 -19.170  1.00  0.00     0.167 HD
HETATM    8  C9  UNL     1       0.033  51.587 -17.860  1.00  0.00     0.182 A 
HETATM    9  N4  UNL     1       0.699  52.772 -18.024  1.00  0.00    -0.337 N 
HETATM   10  C10 UNL     1       0.809  52.997 -19.365  1.00  0.00     0.140 A 
HETATM   11  N5  UNL     1       1.392  54.044 -19.961  1.00  0.00    -0.317 N 
ATOM     12  H5  UNL     1       1.843  54.808 -19.458  1.00  0.00     0.170 HD
HETATM   13  H8  UNL     1       1.047  53.380 -17.299  1.00  0.00     0.168 HD
ENDROOT
BRANCH   4  14
HETATM   14  O1  UNL     1      -0.400  50.904 -22.069  1.00  0.00    -0.329 OA
BRANCH  14  15
HETATM   15  C3  UNL     1      -1.614  51.284 -22.714  1.00  0.00     0.223 C 
BRANCH  15  16
HETATM   16  C4  UNL     1      -1.425  51.064 -24.189  1.00  0.00     0.008 A 
HETATM   17  C5  UNL     1      -0.435  51.543 -25.030  1.00  0.00     0.036 A 
HETATM   18  C6  UNL     1      -0.609  51.091 -26.360  1.00  0.00     0.018 A 
HETATM   19 BR1  UNL     1       0.575  51.579 -27.744  1.00  0.00    -0.051 Br
HETATM   20  C7  UNL     1      -1.705  50.282 -26.520  1.00  0.00     0.069 A 
HETATM   21  S1  UNL     1      -2.534  50.063 -25.039  1.00  0.00    -0.103 SA
ENDBRANCH  15  16
ENDBRANCH  14  15
ENDBRANCH   4  14
BRANCH   1  22
HETATM   22  N1  UNL     1       1.897  54.993 -22.014  1.00  0.00    -0.274 NA
HETATM   23  H1  UNL     1       2.612  55.444 -21.461  1.00  0.00     0.127 HD
HETATM   24  H2  UNL     1       2.156  54.674 -22.937  1.00  0.00     0.127 HD
ENDBRANCH   1  22
TORSDOF 4
ENDMDL
MODEL 8
REMARK minimizedAffinity -6.74888945
REMARK  4 active torsions:
REMARK  status: ('A' for Active; 'I' for Inactive)
REMARK    1  A    between atoms: N1_1  and  C1_2 
REMARK    2  A    between atoms: C2_5  and  O1_6 
REMARK    3  A    between atoms: O1_6  and  C3_7 
REMARK    4  A    between atoms: C3_7  and  C4_8 
ROOT
HETATM    1  C1  UNL     1      -1.076  53.467 -27.810  1.00  0.00     0.158 A 
HETATM    2  N2  UNL     1      -1.316  53.354 -26.492  1.00  0.00    -0.311 N 
ATOM      3  H2  UNL     1      -2.183  53.712 -26.090  1.00  0.00     0.170 HD
HETATM    4  C2  UNL     1      -0.384  52.754 -25.707  1.00  0.00     0.176 A 
HETATM    5  C8  UNL     1       0.784  52.258 -26.288  1.00  0.00     0.129 A 
HETATM    6  N3  UNL     1       1.901  51.610 -25.802  1.00  0.00    -0.346 N 
ATOM      7  H3  UNL     1       2.096  51.348 -24.835  1.00  0.00     0.167 HD
HETATM    8  C9  UNL     1       2.661  51.404 -26.857  1.00  0.00     0.182 A 
HETATM    9  N4  UNL     1       2.086  51.886 -28.002  1.00  0.00    -0.337 N 
HETATM   10  C10 UNL     1       0.885  52.434 -27.656  1.00  0.00     0.140 A 
HETATM   11  N5  UNL     1       0.001  53.017 -28.474  1.00  0.00    -0.317 N 
ATOM     12  H5  UNL     1       0.130  53.108 -29.482  1.00  0.00     0.170 HD
HETATM   13  H8  UNL     1       2.467  51.854 -28.934  1.00  0.00     0.168 HD
ENDROOT
BRANCH   4  14
HETATM   14  O1  UNL     1      -0.595  52.622 -24.350  1.00  0.00    -0.329 OA
BRANCH  14  15
HETATM   15  C3  UNL     1      -1.972  52.464 -24.015  1.00  0.00     0.223 C 
BRANCH  15  16
HETATM   16  C4  UNL     1      -2.138  51.083 -23.443  1.00  0.00     0.008 A 
HETATM   17  C5  UNL     1      -1.400  50.444 -22.461  1.00  0.00     0.036 A 
HETATM   18  C6  UNL     1      -1.891  49.143 -22.197  1.00  0.00     0.018 A 
HETATM   19 BR1  UNL     1      -1.092  48.016 -20.914  1.00  0.00    -0.051 Br
HETATM   20  C7  UNL     1      -2.982  48.809 -22.958  1.00  0.00     0.069 A 
HETATM   21  S1  UNL     1      -3.421  50.088 -24.006  1.00  0.00    -0.103 SA
ENDBRANCH  15  16
ENDBRANCH  14  15
ENDBRANCH   4  14
BRANCH   1  22
HETATM   22  N1  UNL     1      -2.058  54.076 -28.563  1.00  0.00    -0.274 NA
HETATM   23  H1  UNL     1      -2.009  53.764 -29.523  1.00  0.00     0.127 HD
HETATM   24  H2  UNL     1      -2.952  54.004 -28.096  1.00  0.00     0.127 HD
ENDBRANCH   1  22
TORSDOF 4
ENDMDL
MODEL 9
REMARK minimizedAffinity -6.71818066
REMARK  4 active torsions:
REMARK  status: ('A' for Active; 'I' for Inactive)
REMARK    1  A    between atoms: N1_1  and  C1_2 
REMARK    2  A    between atoms: C2_5  and  O1_6 
REMARK    3  A    between atoms: O1_6  and  C3_7 
REMARK    4  A    between atoms: C3_7  and  C4_8 
ROOT
HETATM    1  C1  UNL     1       7.158  60.333 -34.829  1.00  0.00     0.158 A 
HETATM    2  N2  UNL     1       8.154  61.198 -35.086  1.00  0.00    -0.311 N 
ATOM      3  H2  UNL     1       9.092  60.860 -35.303  1.00  0.00     0.170 HD
HETATM    4  C2  UNL     1       7.888  62.530 -35.050  1.00  0.00     0.176 A 
HETATM    5  C8  UNL     1       6.592  62.962 -34.767  1.00  0.00     0.129 A 
HETATM    6  N3  UNL     1       5.992  64.200 -34.658  1.00  0.00    -0.346 N 
ATOM      7  H3  UNL     1       6.428  65.114 -34.778  1.00  0.00     0.167 HD
HETATM    8  C9  UNL     1       4.734  63.944 -34.365  1.00  0.00     0.182 A 
HETATM    9  N4  UNL     1       4.493  62.599 -34.282  1.00  0.00    -0.337 N 
HETATM   10  C10 UNL     1       5.670  61.957 -34.538  1.00  0.00     0.140 A 
HETATM   11  N5  UNL     1       5.878  60.635 -34.559  1.00  0.00    -0.317 N 
ATOM     12  H5  UNL     1       5.150  59.941 -34.390  1.00  0.00     0.170 HD
HETATM   13  H8  UNL     1       3.617  62.150 -34.070  1.00  0.00     0.168 HD
ENDROOT
BRANCH   4  14
HETATM   14  O1  UNL     1       8.886  63.447 -35.307  1.00  0.00    -0.329 OA
BRANCH  14  15
HETATM   15  C3  UNL     1      10.097  63.160 -34.610  1.00  0.00     0.223 C 
BRANCH  15  16
HETATM   16  C4  UNL     1      11.149  62.867 -35.644  1.00  0.00     0.008 A 
HETATM   17  C5  UNL     1      11.038  62.184 -36.844  1.00  0.00     0.036 A 
HETATM   18  C6  UNL     1      12.269  62.138 -37.540  1.00  0.00     0.018 A 
HETATM   19 BR1  UNL     1      12.442  61.271 -39.206  1.00  0.00    -0.051 Br
HETATM   20  C7  UNL     1      13.288  62.780 -36.885  1.00  0.00     0.069 A 
HETATM   21  S1  UNL     1      12.749  63.450 -35.405  1.00  0.00    -0.103 SA
ENDBRANCH  15  16
ENDBRANCH  14  15
ENDBRANCH   4  14
BRANCH   1  22
HETATM   22  N1  UNL     1       7.479  58.992 -34.886  1.00  0.00    -0.274 NA
HETATM   23  H1  UNL     1       6.657  58.443 -35.093  1.00  0.00     0.127 HD
HETATM   24  H2  UNL     1       8.291  58.852 -35.472  1.00  0.00     0.127 HD
ENDBRANCH   1  22
TORSDOF 4
ENDMDL
