MODEL 1
REMARK minimizedAffinity -7.58943892
REMARK CNNscore 0.497084767
REMARK CNNaffinity 5.98056269
REMARK  9 active torsions:
REMARK  status: ('A' for Active; 'I' for Inactive)
REMARK    1  A    between atoms: C2_2  and  C3_3 
REMARK    2  A    between atoms: C2_2  and  C9_11 
REMARK    3  A    between atoms: C3_3  and  C4_4 
REMARK    4  A    between atoms: C4_4  and  C5_5 
REMARK    5  A    between atoms: C5_5  and  O1_6 
REMARK    6  A    between atoms: C5_5  and  C6_7 
REMARK    7  A    between atoms: C6_7  and  O2_10 
REMARK    8  A    between atoms: C12_14  and  C13_15 
REMARK    9  A    between atoms: C13_15  and  O4_17 
ROOT
HETATM    1  C9  UNL     1       4.867  12.587  22.912  1.00  0.00    -0.001 C 
HETATM    2  C10 UNL     1       4.557  11.103  23.225  1.00  0.00     0.007 C 
HETATM    3  C11 UNL     1       3.189  10.799  22.594  1.00  0.00     0.022 C 
HETATM    4  C12 UNL     1       3.147  11.716  21.352  1.00  0.00     0.057 C 
HETATM    5  C14 UNL     1       1.728  11.963  20.785  1.00  0.00     0.014 C 
HETATM    6  C15 UNL     1       1.126  10.734  20.085  1.00  0.00     0.007 C 
HETATM    7  C16 UNL     1      -0.286  11.030  19.585  1.00  0.00     0.007 C 
HETATM    8  C17 UNL     1      -0.235  12.051  18.438  1.00  0.00     0.010 C 
HETATM    9  C18 UNL     1      -1.627  12.417  17.829  1.00  0.00     0.018 C 
HETATM   10  C19 UNL     1      -2.640  12.927  18.868  1.00  0.00     0.023 C 
HETATM   11  C20 UNL     1      -2.228  11.201  17.101  1.00  0.00     0.023 C 
HETATM   12  C21 UNL     1      -1.446  13.524  16.779  1.00  0.00     0.135 C 
HETATM   13  O5  UNL     1      -2.405  14.087  16.248  1.00  0.00    -0.297 OA
HETATM   14  C22 UNL     1      -0.036  13.852  16.357  1.00  0.00     0.080 C 
HETATM   15  C23 UNL     1       0.810  14.216  17.569  1.00  0.00     0.018 C 
HETATM   16  C24 UNL     1       0.570  13.312  18.781  1.00  0.00    -0.026 A 
HETATM   17  C25 UNL     1       0.335  14.021  20.092  1.00  0.00     0.021 A 
HETATM   18  C26 UNL     1       1.633  13.250  19.920  1.00  0.00    -0.027 A 
HETATM   19  C27 UNL     1       2.905  14.105  19.748  1.00  0.00     0.011 C 
HETATM   20  C28 UNL     1       3.994  14.048  20.838  1.00  0.00     0.012 C 
HETATM   21  C29 UNL     1       3.709  13.046  21.956  1.00  0.00    -0.022 C 
HETATM   22  C30 UNL     1       2.687  13.780  22.906  1.00  0.00     0.017 C 
ENDROOT
BRANCH   1  23
HETATM   23  C2  UNL     1       6.351  12.910  22.564  1.00  0.00    -0.014 C 
HETATM   24  C1  UNL     1       7.388  11.910  23.080  1.00  0.00     0.010 C 
BRANCH  23  25
HETATM   25  C3  UNL     1       6.698  14.339  23.069  1.00  0.00     0.007 C 
BRANCH  25  26
HETATM   26  C4  UNL     1       8.163  14.500  23.507  1.00  0.00     0.035 C 
BRANCH  26  27
HETATM   27  C5  UNL     1       8.601  15.973  23.498  1.00  0.00     0.151 C 
BRANCH  27  28
HETATM   28  O1  UNL     1       7.576  16.744  22.851  1.00  0.00    -0.393 OA
HETATM   29  H10 UNL     1       8.003  17.583  22.597  1.00  0.00     0.210 HD
ENDBRANCH  27  28
BRANCH  27  30
HETATM   30  C6  UNL     1       8.871  16.579  24.902  1.00  0.00     0.076 C 
HETATM   31  C7  UNL     1       7.582  17.082  25.556  1.00  0.00     0.048 C 
HETATM   32  C8  UNL     1       9.921  17.696  24.889  1.00  0.00     0.048 C 
BRANCH  30  33
HETATM   33  O2  UNL     1       9.369  15.515  25.739  1.00  0.00    -0.388 OA
HETATM   34  H17 UNL     1      10.313  15.407  25.522  1.00  0.00     0.210 HD
ENDBRANCH  30  33
ENDBRANCH  27  30
ENDBRANCH  26  27
ENDBRANCH  25  26
ENDBRANCH  23  25
ENDBRANCH   1  23
BRANCH   4  35
HETATM   35  C13 UNL     1       4.011  11.103  20.220  1.00  0.00     0.149 C 
HETATM   36  O3  UNL     1       5.225  10.982  20.196  1.00  0.00    -0.649 OA
BRANCH  35  37
HETATM   37  O4  UNL     1       3.326  10.722  19.126  1.00  0.00    -0.776 OA
HETATM   38  H23 UNL     1       4.022  10.383  18.524  1.00  0.00     0.167 HD
ENDBRANCH  35  37
ENDBRANCH   4  35
TORSDOF 9
ENDMDL
MODEL 2
REMARK minimizedAffinity -7.80782127
REMARK CNNscore 0.474369824
REMARK CNNaffinity 6.4541049
REMARK  9 active torsions:
REMARK  status: ('A' for Active; 'I' for Inactive)
REMARK    1  A    between atoms: C2_2  and  C3_3 
REMARK    2  A    between atoms: C2_2  and  C9_11 
REMARK    3  A    between atoms: C3_3  and  C4_4 
REMARK    4  A    between atoms: C4_4  and  C5_5 
REMARK    5  A    between atoms: C5_5  and  O1_6 
REMARK    6  A    between atoms: C5_5  and  C6_7 
REMARK    7  A    between atoms: C6_7  and  O2_10 
REMARK    8  A    between atoms: C12_14  and  C13_15 
REMARK    9  A    between atoms: C13_15  and  O4_17 
ROOT
HETATM    1  C9  UNL     1       4.710   8.159  13.172  1.00  0.00    -0.001 C 
HETATM    2  C10 UNL     1       4.067   9.564  13.082  1.00  0.00     0.007 C 
HETATM    3  C11 UNL     1       5.080  10.548  13.688  1.00  0.00     0.022 C 
HETATM    4  C12 UNL     1       6.449   9.917  13.354  1.00  0.00     0.057 C 
HETATM    5  C14 UNL     1       7.623  10.435  14.220  1.00  0.00     0.014 C 
HETATM    6  C15 UNL     1       8.038  11.878  13.890  1.00  0.00     0.007 C 
HETATM    7  C16 UNL     1       9.171  12.341  14.803  1.00  0.00     0.007 C 
HETATM    8  C17 UNL     1      10.456  11.564  14.483  1.00  0.00     0.010 C 
HETATM    9  C18 UNL     1      11.695  11.971  15.346  1.00  0.00     0.018 C 
HETATM   10  C19 UNL     1      11.450  11.873  16.861  1.00  0.00     0.023 C 
HETATM   11  C20 UNL     1      12.137  13.405  15.004  1.00  0.00     0.023 C 
HETATM   12  C21 UNL     1      12.874  11.045  15.007  1.00  0.00     0.135 C 
HETATM   13  O5  UNL     1      13.928  11.066  15.646  1.00  0.00    -0.297 OA
HETATM   14  C22 UNL     1      12.725  10.149  13.804  1.00  0.00     0.080 C 
HETATM   15  C23 UNL     1      11.478   9.287  13.934  1.00  0.00     0.018 C 
HETATM   16  C24 UNL     1      10.261  10.042  14.475  1.00  0.00    -0.026 A 
HETATM   17  C25 UNL     1       9.522   9.372  15.606  1.00  0.00     0.021 A 
HETATM   18  C26 UNL     1       8.832   9.459  14.256  1.00  0.00    -0.027 A 
HETATM   19  C27 UNL     1       8.719   8.136  13.471  1.00  0.00     0.011 C 
HETATM   20  C28 UNL     1       7.321   7.543  13.207  1.00  0.00     0.012 C 
HETATM   21  C29 UNL     1       6.167   8.416  13.698  1.00  0.00    -0.022 C 
HETATM   22  C30 UNL     1       6.078   8.137  15.247  1.00  0.00     0.017 C 
ENDROOT
BRANCH   1  23
HETATM   23  C2  UNL     1       4.467   7.223  11.951  1.00  0.00    -0.014 C 
HETATM   24  C1  UNL     1       5.693   6.930  11.083  1.00  0.00     0.010 C 
BRANCH  23  25
HETATM   25  C3  UNL     1       3.326   7.810  11.072  1.00  0.00     0.007 C 
BRANCH  25  26
HETATM   26  C4  UNL     1       2.622   6.763  10.194  1.00  0.00     0.035 C 
BRANCH  26  27
HETATM   27  C5  UNL     1       3.077   6.850   8.729  1.00  0.00     0.151 C 
BRANCH  27  28
HETATM   28  O1  UNL     1       3.102   5.520   8.185  1.00  0.00    -0.393 OA
HETATM   29  H10 UNL     1       3.665   5.574   7.391  1.00  0.00     0.210 HD
ENDBRANCH  27  28
BRANCH  27  30
HETATM   30  C6  UNL     1       2.189   7.744   7.823  1.00  0.00     0.076 C 
HETATM   31  C7  UNL     1       0.941   8.232   8.563  1.00  0.00     0.048 C 
HETATM   32  C8  UNL     1       1.784   7.066   6.509  1.00  0.00     0.048 C 
BRANCH  30  33
HETATM   33  O2  UNL     1       2.958   8.918   7.495  1.00  0.00    -0.388 OA
HETATM   34  H17 UNL     1       3.565   8.664   6.775  1.00  0.00     0.210 HD
ENDBRANCH  30  33
ENDBRANCH  27  30
ENDBRANCH  26  27
ENDBRANCH  25  26
ENDBRANCH  23  25
ENDBRANCH   1  23
BRANCH   4  35
HETATM   35  C13 UNL     1       6.801  10.186  11.868  1.00  0.00     0.149 C 
HETATM   36  O3  UNL     1       7.742   9.734  11.235  1.00  0.00    -0.649 OA
BRANCH  35  37
HETATM   37  O4  UNL     1       5.995  11.066  11.244  1.00  0.00    -0.776 OA
HETATM   38  H23 UNL     1       6.372  11.121  10.340  1.00  0.00     0.167 HD
ENDBRANCH  35  37
ENDBRANCH   4  35
TORSDOF 9
ENDMDL
MODEL 3
REMARK minimizedAffinity -7.108284
REMARK CNNscore 0.446250588
REMARK CNNaffinity 6.1925807
REMARK  9 active torsions:
REMARK  status: ('A' for Active; 'I' for Inactive)
REMARK    1  A    between atoms: C2_2  and  C3_3 
REMARK    2  A    between atoms: C2_2  and  C9_11 
REMARK    3  A    between atoms: C3_3  and  C4_4 
REMARK    4  A    between atoms: C4_4  and  C5_5 
REMARK    5  A    between atoms: C5_5  and  O1_6 
REMARK    6  A    between atoms: C5_5  and  C6_7 
REMARK    7  A    between atoms: C6_7  and  O2_10 
REMARK    8  A    between atoms: C12_14  and  C13_15 
REMARK    9  A    between atoms: C13_15  and  O4_17 
ROOT
HETATM    1  C9  UNL     1      -1.372  11.676  16.944  1.00  0.00    -0.001 C 
HETATM    2  C10 UNL     1      -0.544  11.650  15.636  1.00  0.00     0.007 C 
HETATM    3  C11 UNL     1       0.890  12.047  16.019  1.00  0.00     0.022 C 
HETATM    4  C12 UNL     1       1.048  11.509  17.457  1.00  0.00     0.057 C 
HETATM    5  C14 UNL     1       2.207  12.150  18.258  1.00  0.00     0.014 C 
HETATM    6  C15 UNL     1       3.600  11.709  17.778  1.00  0.00     0.007 C 
HETATM    7  C16 UNL     1       4.697  12.404  18.580  1.00  0.00     0.007 C 
HETATM    8  C17 UNL     1       4.690  11.900  20.031  1.00  0.00     0.010 C 
HETATM    9  C18 UNL     1       5.791  12.530  20.945  1.00  0.00     0.018 C 
HETATM   10  C19 UNL     1       5.756  14.067  20.982  1.00  0.00     0.023 C 
HETATM   11  C20 UNL     1       7.189  12.073  20.492  1.00  0.00     0.023 C 
HETATM   12  C21 UNL     1       5.600  12.029  22.386  1.00  0.00     0.135 C 
HETATM   13  O5  UNL     1       6.252  12.481  23.328  1.00  0.00    -0.297 OA
HETATM   14  C22 UNL     1       4.628  10.896  22.600  1.00  0.00     0.080 C 
HETATM   15  C23 UNL     1       3.258  11.261  22.049  1.00  0.00     0.018 C 
HETATM   16  C24 UNL     1       3.309  11.973  20.694  1.00  0.00    -0.026 A 
HETATM   17  C25 UNL     1       2.486  13.232  20.583  1.00  0.00     0.021 A 
HETATM   18  C26 UNL     1       2.035  12.014  19.796  1.00  0.00    -0.027 A 
HETATM   19  C27 UNL     1       0.772  11.302  20.324  1.00  0.00     0.011 C 
HETATM   20  C28 UNL     1      -0.499  11.295  19.452  1.00  0.00     0.012 C 
HETATM   21  C29 UNL     1      -0.320  11.943  18.080  1.00  0.00    -0.022 C 
HETATM   22  C30 UNL     1      -0.420  13.493  18.348  1.00  0.00     0.017 C 
ENDROOT
BRANCH   1  23
HETATM   23  C2  UNL     1      -2.430  10.543  17.100  1.00  0.00    -0.014 C 
HETATM   24  C1  UNL     1      -2.396   9.779  18.425  1.00  0.00     0.010 C 
BRANCH  23  25
HETATM   25  C3  UNL     1      -2.295   9.548  15.913  1.00  0.00     0.007 C 
BRANCH  25  26
HETATM   26  C4  UNL     1      -3.625   8.899  15.496  1.00  0.00     0.035 C 
BRANCH  26  27
HETATM   27  C5  UNL     1      -3.457   7.405  15.182  1.00  0.00     0.151 C 
BRANCH  27  28
HETATM   28  O1  UNL     1      -3.178   6.715  16.411  1.00  0.00    -0.393 OA
HETATM   29  H10 UNL     1      -2.789   5.861  16.147  1.00  0.00     0.210 HD
ENDBRANCH  27  28
BRANCH  27  30
HETATM   30  C6  UNL     1      -4.685   6.741  14.503  1.00  0.00     0.076 C 
HETATM   31  C7  UNL     1      -5.746   6.337  15.529  1.00  0.00     0.048 C 
HETATM   32  C8  UNL     1      -4.318   5.536  13.629  1.00  0.00     0.048 C 
BRANCH  30  33
HETATM   33  O2  UNL     1      -5.292   7.734  13.652  1.00  0.00    -0.388 OA
HETATM   34  H17 UNL     1      -4.762   7.764  12.834  1.00  0.00     0.210 HD
ENDBRANCH  30  33
ENDBRANCH  27  30
ENDBRANCH  26  27
ENDBRANCH  25  26
ENDBRANCH  23  25
ENDBRANCH   1  23
BRANCH   4  35
HETATM   35  C13 UNL     1       1.287   9.978  17.420  1.00  0.00     0.149 C 
HETATM   36  O3  UNL     1       0.670   9.147  16.772  1.00  0.00    -0.649 OA
BRANCH  35  37
HETATM   37  O4  UNL     1       2.251   9.532  18.247  1.00  0.00    -0.776 OA
HETATM   38  H23 UNL     1       2.247   8.562  18.103  1.00  0.00     0.167 HD
ENDBRANCH  35  37
ENDBRANCH   4  35
TORSDOF 9
ENDMDL
MODEL 4
REMARK minimizedAffinity -9.31801224
REMARK CNNscore 0.427911341
REMARK CNNaffinity 6.98874807
REMARK  9 active torsions:
REMARK  status: ('A' for Active; 'I' for Inactive)
REMARK    1  A    between atoms: C2_2  and  C3_3 
REMARK    2  A    between atoms: C2_2  and  C9_11 
REMARK    3  A    between atoms: C3_3  and  C4_4 
REMARK    4  A    between atoms: C4_4  and  C5_5 
REMARK    5  A    between atoms: C5_5  and  O1_6 
REMARK    6  A    between atoms: C5_5  and  C6_7 
REMARK    7  A    between atoms: C6_7  and  O2_10 
REMARK    8  A    between atoms: C12_14  and  C13_15 
REMARK    9  A    between atoms: C13_15  and  O4_17 
ROOT
HETATM    1  C9  UNL     1       0.748   8.757  13.567  1.00  0.00    -0.001 C 
HETATM    2  C10 UNL     1       0.705   9.193  15.052  1.00  0.00     0.007 C 
HETATM    3  C11 UNL     1      -0.745   9.002  15.523  1.00  0.00     0.022 C 
HETATM    4  C12 UNL     1      -1.244   7.800  14.693  1.00  0.00     0.057 C 
HETATM    5  C14 UNL     1      -2.784   7.668  14.617  1.00  0.00     0.014 C 
HETATM    6  C15 UNL     1      -3.426   7.215  15.939  1.00  0.00     0.007 C 
HETATM    7  C16 UNL     1      -4.946   7.143  15.810  1.00  0.00     0.007 C 
HETATM    8  C17 UNL     1      -5.340   6.001  14.862  1.00  0.00     0.010 C 
HETATM    9  C18 UNL     1      -6.881   5.818  14.669  1.00  0.00     0.018 C 
HETATM   10  C19 UNL     1      -7.599   7.093  14.195  1.00  0.00     0.023 C 
HETATM   11  C20 UNL     1      -7.530   5.337  15.979  1.00  0.00     0.023 C 
HETATM   12  C21 UNL     1      -7.133   4.727  13.616  1.00  0.00     0.135 C 
HETATM   13  O5  UNL     1      -8.260   4.485  13.181  1.00  0.00    -0.297 OA
HETATM   14  C22 UNL     1      -5.950   3.899  13.182  1.00  0.00     0.080 C 
HETATM   15  C23 UNL     1      -4.835   4.796  12.665  1.00  0.00     0.018 C 
HETATM   16  C24 UNL     1      -4.614   6.053  13.511  1.00  0.00    -0.026 A 
HETATM   17  C25 UNL     1      -4.535   7.352  12.748  1.00  0.00     0.021 A 
HETATM   18  C26 UNL     1      -3.267   6.830  13.401  1.00  0.00    -0.027 A 
HETATM   19  C27 UNL     1      -2.200   6.265  12.441  1.00  0.00     0.011 C 
HETATM   20  C28 UNL     1      -0.843   6.987  12.327  1.00  0.00     0.012 C 
HETATM   21  C29 UNL     1      -0.681   8.170  13.280  1.00  0.00    -0.022 C 
HETATM   22  C30 UNL     1      -1.458   9.356  12.590  1.00  0.00     0.017 C 
ENDROOT
BRANCH   1  23
HETATM   23  C2  UNL     1       2.022   7.978  13.126  1.00  0.00    -0.014 C 
HETATM   24  C1  UNL     1       3.237   8.112  14.048  1.00  0.00     0.010 C 
BRANCH  23  25
HETATM   25  C3  UNL     1       2.408   8.399  11.680  1.00  0.00     0.007 C 
BRANCH  25  26
HETATM   26  C4  UNL     1       2.145   7.310  10.628  1.00  0.00     0.035 C 
BRANCH  26  27
HETATM   27  C5  UNL     1       3.044   7.481   9.394  1.00  0.00     0.151 C 
BRANCH  27  28
HETATM   28  O1  UNL     1       3.752   6.249   9.177  1.00  0.00    -0.393 OA
HETATM   29  H10 UNL     1       4.506   6.480   8.605  1.00  0.00     0.210 HD
ENDBRANCH  27  28
BRANCH  27  30
HETATM   30  C6  UNL     1       2.293   7.863   8.089  1.00  0.00     0.076 C 
HETATM   31  C7  UNL     1       0.878   8.367   8.381  1.00  0.00     0.048 C 
HETATM   32  C8  UNL     1       2.241   6.725   7.064  1.00  0.00     0.048 C 
BRANCH  30  33
HETATM   33  O2  UNL     1       3.008   8.964   7.491  1.00  0.00    -0.388 OA
HETATM   34  H17 UNL     1       3.775   8.581   7.027  1.00  0.00     0.210 HD
ENDBRANCH  30  33
ENDBRANCH  27  30
ENDBRANCH  26  27
ENDBRANCH  25  26
ENDBRANCH  23  25
ENDBRANCH   1  23
BRANCH   4  35
HETATM   35  C13 UNL     1      -0.684   6.483  15.289  1.00  0.00     0.149 C 
HETATM   36  O3  UNL     1      -0.966   5.342  14.960  1.00  0.00    -0.649 OA
BRANCH  35  37
HETATM   37  O4  UNL     1       0.164   6.643  16.322  1.00  0.00    -0.776 OA
HETATM   38  H23 UNL     1       0.396   5.723  16.573  1.00  0.00     0.167 HD
ENDBRANCH  35  37
ENDBRANCH   4  35
TORSDOF 9
ENDMDL
MODEL 5
REMARK minimizedAffinity -9.2830801
REMARK CNNscore 0.385776579
REMARK CNNaffinity 7.02107859
REMARK  9 active torsions:
REMARK  status: ('A' for Active; 'I' for Inactive)
REMARK    1  A    between atoms: C2_2  and  C3_3 
REMARK    2  A    between atoms: C2_2  and  C9_11 
REMARK    3  A    between atoms: C3_3  and  C4_4 
REMARK    4  A    between atoms: C4_4  and  C5_5 
REMARK    5  A    between atoms: C5_5  and  O1_6 
REMARK    6  A    between atoms: C5_5  and  C6_7 
REMARK    7  A    between atoms: C6_7  and  O2_10 
REMARK    8  A    between atoms: C12_14  and  C13_15 
REMARK    9  A    between atoms: C13_15  and  O4_17 
ROOT
HETATM    1  C9  UNL     1       0.701   7.876  12.820  1.00  0.00    -0.001 C 
HETATM    2  C10 UNL     1       0.997   8.633  14.137  1.00  0.00     0.007 C 
HETATM    3  C11 UNL     1      -0.364   8.924  14.790  1.00  0.00     0.022 C 
HETATM    4  C12 UNL     1      -1.241   7.730  14.355  1.00  0.00     0.057 C 
HETATM    5  C14 UNL     1      -2.765   7.976  14.476  1.00  0.00     0.014 C 
HETATM    6  C15 UNL     1      -3.266   8.009  15.929  1.00  0.00     0.007 C 
HETATM    7  C16 UNL     1      -4.765   8.294  15.982  1.00  0.00     0.007 C 
HETATM    8  C17 UNL     1      -5.548   7.104  15.407  1.00  0.00     0.010 C 
HETATM    9  C18 UNL     1      -7.101   7.274  15.428  1.00  0.00     0.018 C 
HETATM   10  C19 UNL     1      -7.592   8.548  14.718  1.00  0.00     0.023 C 
HETATM   11  C20 UNL     1      -7.618   7.281  16.878  1.00  0.00     0.023 C 
HETATM   12  C21 UNL     1      -7.753   6.073  14.726  1.00  0.00     0.135 C 
HETATM   13  O5  UNL     1      -8.961   6.030  14.487  1.00  0.00    -0.297 OA
HETATM   14  C22 UNL     1      -6.865   4.898  14.400  1.00  0.00     0.080 C 
HETATM   15  C23 UNL     1      -5.680   5.346  13.556  1.00  0.00     0.018 C 
HETATM   16  C24 UNL     1      -5.057   6.665  14.021  1.00  0.00    -0.026 A 
HETATM   17  C25 UNL     1      -4.822   7.695  12.945  1.00  0.00     0.021 A 
HETATM   18  C26 UNL     1      -3.609   7.033  13.575  1.00  0.00    -0.027 A 
HETATM   19  C27 UNL     1      -2.861   6.016  12.688  1.00  0.00     0.011 C 
HETATM   20  C28 UNL     1      -1.416   6.330  12.251  1.00  0.00     0.012 C 
HETATM   21  C29 UNL     1      -0.848   7.618  12.844  1.00  0.00    -0.022 C 
HETATM   22  C30 UNL     1      -1.450   8.773  11.955  1.00  0.00     0.017 C 
ENDROOT
BRANCH   1  23
HETATM   23  C2  UNL     1       1.686   6.723  12.465  1.00  0.00    -0.014 C 
HETATM   24  C1  UNL     1       3.144   7.136  12.252  1.00  0.00     0.010 C 
BRANCH  23  25
HETATM   25  C3  UNL     1       1.163   5.967  11.212  1.00  0.00     0.007 C 
BRANCH  25  26
HETATM   26  C4  UNL     1       0.915   6.878   9.999  1.00  0.00     0.035 C 
BRANCH  26  27
HETATM   27  C5  UNL     1       2.159   6.986   9.104  1.00  0.00     0.151 C 
BRANCH  27  28
HETATM   28  O1  UNL     1       2.429   5.689   8.548  1.00  0.00    -0.393 OA
HETATM   29  H10 UNL     1       3.356   5.721   8.250  1.00  0.00     0.210 HD
ENDBRANCH  27  28
BRANCH  27  30
HETATM   30  C6  UNL     1       2.039   8.011   7.943  1.00  0.00     0.076 C 
HETATM   31  C7  UNL     1       1.777   7.317   6.604  1.00  0.00     0.048 C 
HETATM   32  C8  UNL     1       3.254   8.938   7.823  1.00  0.00     0.048 C 
BRANCH  30  33
HETATM   33  O2  UNL     1       0.884   8.831   8.215  1.00  0.00    -0.388 OA
HETATM   34  H17 UNL     1       1.160   9.495   8.872  1.00  0.00     0.210 HD
ENDBRANCH  30  33
ENDBRANCH  27  30
ENDBRANCH  26  27
ENDBRANCH  25  26
ENDBRANCH  23  25
ENDBRANCH   1  23
BRANCH   4  35
HETATM   35  C13 UNL     1      -0.892   6.485  15.209  1.00  0.00     0.149 C 
HETATM   36  O3  UNL     1      -1.264   5.336  15.032  1.00  0.00    -0.649 OA
BRANCH  35  37
HETATM   37  O4  UNL     1      -0.139   6.735  16.297  1.00  0.00    -0.776 OA
HETATM   38  H23 UNL     1      -0.036   5.853  16.713  1.00  0.00     0.167 HD
ENDBRANCH  35  37
ENDBRANCH   4  35
TORSDOF 9
ENDMDL
MODEL 6
REMARK minimizedAffinity -6.77769566
REMARK CNNscore 0.327736169
REMARK CNNaffinity 5.40796661
REMARK  9 active torsions:
REMARK  status: ('A' for Active; 'I' for Inactive)
REMARK    1  A    between atoms: C2_2  and  C3_3 
REMARK    2  A    between atoms: C2_2  and  C9_11 
REMARK    3  A    between atoms: C3_3  and  C4_4 
REMARK    4  A    between atoms: C4_4  and  C5_5 
REMARK    5  A    between atoms: C5_5  and  O1_6 
REMARK    6  A    between atoms: C5_5  and  C6_7 
REMARK    7  A    between atoms: C6_7  and  O2_10 
REMARK    8  A    between atoms: C12_14  and  C13_15 
REMARK    9  A    between atoms: C13_15  and  O4_17 
ROOT
HETATM    1  C9  UNL     1       0.620  12.877  18.320  1.00  0.00    -0.001 C 
HETATM    2  C10 UNL     1       1.247  12.529  16.949  1.00  0.00     0.007 C 
HETATM    3  C11 UNL     1       2.765  12.702  17.105  1.00  0.00     0.022 C 
HETATM    4  C12 UNL     1       3.026  12.337  18.582  1.00  0.00     0.057 C 
HETATM    5  C14 UNL     1       4.373  12.854  19.142  1.00  0.00     0.014 C 
HETATM    6  C15 UNL     1       5.596  12.106  18.585  1.00  0.00     0.007 C 
HETATM    7  C16 UNL     1       6.892  12.688  19.145  1.00  0.00     0.007 C 
HETATM    8  C17 UNL     1       6.998  12.387  20.647  1.00  0.00     0.010 C 
HETATM    9  C18 UNL     1       8.301  12.919  21.327  1.00  0.00     0.018 C 
HETATM   10  C19 UNL     1       8.527  14.428  21.132  1.00  0.00     0.023 C 
HETATM   11  C20 UNL     1       9.529  12.158  20.797  1.00  0.00     0.023 C 
HETATM   12  C21 UNL     1       8.227  12.655  22.839  1.00  0.00     0.135 C 
HETATM   13  O5  UNL     1       9.068  13.099  23.624  1.00  0.00    -0.297 OA
HETATM   14  C22 UNL     1       7.120  11.758  23.331  1.00  0.00     0.080 C 
HETATM   15  C23 UNL     1       5.767  12.292  22.885  1.00  0.00     0.018 C 
HETATM   16  C24 UNL     1       5.750  12.799  21.440  1.00  0.00    -0.026 A 
HETATM   17  C25 UNL     1       5.141  14.162  21.229  1.00  0.00     0.021 A 
HETATM   18  C26 UNL     1       4.391  12.955  20.693  1.00  0.00    -0.027 A 
HETATM   19  C27 UNL     1       3.112  12.562  21.460  1.00  0.00     0.011 C 
HETATM   20  C28 UNL     1       1.751  12.674  20.745  1.00  0.00     0.012 C 
HETATM   21  C29 UNL     1       1.846  13.093  19.279  1.00  0.00    -0.022 C 
HETATM   22  C30 UNL     1       2.041  14.657  19.316  1.00  0.00     0.017 C 
ENDROOT
BRANCH   1  23
HETATM   23  C2  UNL     1      -0.580  11.988  18.763  1.00  0.00    -0.014 C 
HETATM   24  C1  UNL     1      -0.235  10.820  19.690  1.00  0.00     0.010 C 
BRANCH  23  25
HETATM   25  C3  UNL     1      -1.322  11.460  17.503  1.00  0.00     0.007 C 
BRANCH  25  26
HETATM   26  C4  UNL     1      -2.224  10.247  17.780  1.00  0.00     0.035 C 
BRANCH  26  27
HETATM   27  C5  UNL     1      -2.140   9.206  16.653  1.00  0.00     0.151 C 
BRANCH  27  28
HETATM   28  O1  UNL     1      -2.357   7.905  17.223  1.00  0.00    -0.393 OA
HETATM   29  H10 UNL     1      -2.006   7.273  16.570  1.00  0.00     0.210 HD
ENDBRANCH  27  28
BRANCH  27  30
HETATM   30  C6  UNL     1      -3.151   9.419  15.494  1.00  0.00     0.076 C 
HETATM   31  C7  UNL     1      -4.356  10.249  15.944  1.00  0.00     0.048 C 
HETATM   32  C8  UNL     1      -3.628   8.110  14.855  1.00  0.00     0.048 C 
BRANCH  30  33
HETATM   33  O2  UNL     1      -2.479  10.188  14.476  1.00  0.00    -0.388 OA
HETATM   34  H17 UNL     1      -1.922   9.563  13.975  1.00  0.00     0.210 HD
ENDBRANCH  30  33
ENDBRANCH  27  30
ENDBRANCH  26  27
ENDBRANCH  25  26
ENDBRANCH  23  25
ENDBRANCH   1  23
BRANCH   4  35
HETATM   35  C13 UNL     1       3.000  10.797  18.753  1.00  0.00     0.149 C 
HETATM   36  O3  UNL     1       3.103  10.165  19.793  1.00  0.00    -0.649 OA
BRANCH  35  37
HETATM   37  O4  UNL     1       2.911  10.099  17.606  1.00  0.00    -0.776 OA
HETATM   38  H23 UNL     1       2.925   9.164  17.903  1.00  0.00     0.167 HD
ENDBRANCH  35  37
ENDBRANCH   4  35
TORSDOF 9
ENDMDL
MODEL 7
REMARK minimizedAffinity -7.98206139
REMARK CNNscore 0.290419698
REMARK CNNaffinity 6.31415129
REMARK  9 active torsions:
REMARK  status: ('A' for Active; 'I' for Inactive)
REMARK    1  A    between atoms: C2_2  and  C3_3 
REMARK    2  A    between atoms: C2_2  and  C9_11 
REMARK    3  A    between atoms: C3_3  and  C4_4 
REMARK    4  A    between atoms: C4_4  and  C5_5 
REMARK    5  A    between atoms: C5_5  and  O1_6 
REMARK    6  A    between atoms: C5_5  and  C6_7 
REMARK    7  A    between atoms: C6_7  and  O2_10 
REMARK    8  A    between atoms: C12_14  and  C13_15 
REMARK    9  A    between atoms: C13_15  and  O4_17 
ROOT
HETATM    1  C9  UNL     1      -1.462   6.504  12.285  1.00  0.00    -0.001 C 
HETATM    2  C10 UNL     1      -0.909   7.567  11.304  1.00  0.00     0.007 C 
HETATM    3  C11 UNL     1      -1.383   8.932  11.827  1.00  0.00     0.022 C 
HETATM    4  C12 UNL     1      -1.438   8.740  13.358  1.00  0.00     0.057 C 
HETATM    5  C14 UNL     1      -2.306   9.781  14.105  1.00  0.00     0.014 C 
HETATM    6  C15 UNL     1      -1.675  11.183  14.152  1.00  0.00     0.007 C 
HETATM    7  C16 UNL     1      -2.596  12.170  14.866  1.00  0.00     0.007 C 
HETATM    8  C17 UNL     1      -2.691  11.818  16.358  1.00  0.00     0.010 C 
HETATM    9  C18 UNL     1      -3.595  12.778  17.197  1.00  0.00     0.018 C 
HETATM   10  C19 UNL     1      -5.027  12.911  16.652  1.00  0.00     0.023 C 
HETATM   11  C20 UNL     1      -2.959  14.178  17.275  1.00  0.00     0.023 C 
HETATM   12  C21 UNL     1      -3.695  12.250  18.637  1.00  0.00     0.135 C 
HETATM   13  O5  UNL     1      -4.458  12.749  19.466  1.00  0.00    -0.297 OA
HETATM   14  C22 UNL     1      -2.761  11.133  19.029  1.00  0.00     0.080 C 
HETATM   15  C23 UNL     1      -2.922   9.950  18.086  1.00  0.00     0.018 C 
HETATM   16  C24 UNL     1      -3.053  10.349  16.614  1.00  0.00    -0.026 A 
HETATM   17  C25 UNL     1      -4.195   9.712  15.861  1.00  0.00     0.021 A 
HETATM   18  C26 UNL     1      -2.780   9.292  15.501  1.00  0.00    -0.027 A 
HETATM   19  C27 UNL     1      -2.363   7.878  15.954  1.00  0.00     0.011 C 
HETATM   20  C28 UNL     1      -2.055   6.813  14.883  1.00  0.00     0.012 C 
HETATM   21  C29 UNL     1      -2.117   7.332  13.448  1.00  0.00    -0.022 C 
HETATM   22  C30 UNL     1      -3.653   7.357  13.092  1.00  0.00     0.017 C 
ENDROOT
BRANCH   1  23
HETATM   23  C2  UNL     1      -0.507   5.316  12.605  1.00  0.00    -0.014 C 
HETATM   24  C1  UNL     1       0.957   5.514  12.207  1.00  0.00     0.010 C 
BRANCH  23  25
HETATM   25  C3  UNL     1      -1.062   4.020  11.950  1.00  0.00     0.007 C 
BRANCH  25  26
HETATM   26  C4  UNL     1      -2.559   3.787  12.211  1.00  0.00     0.035 C 
BRANCH  26  27
HETATM   27  C5  UNL     1      -3.209   2.956  11.094  1.00  0.00     0.151 C 
BRANCH  27  28
HETATM   28  O1  UNL     1      -2.650   1.633  11.133  1.00  0.00    -0.393 OA
HETATM   29  H10 UNL     1      -2.844   1.243  10.261  1.00  0.00     0.210 HD
ENDBRANCH  27  28
BRANCH  27  30
HETATM   30  C6  UNL     1      -4.756   2.848  11.180  1.00  0.00     0.076 C 
HETATM   31  C7  UNL     1      -5.318   3.709  12.313  1.00  0.00     0.048 C 
HETATM   32  C8  UNL     1      -5.256   1.406  11.322  1.00  0.00     0.048 C 
BRANCH  30  33
HETATM   33  O2  UNL     1      -5.290   3.381   9.952  1.00  0.00    -0.388 OA
HETATM   34  H17 UNL     1      -5.204   2.680   9.280  1.00  0.00     0.210 HD
ENDBRANCH  30  33
ENDBRANCH  27  30
ENDBRANCH  26  27
ENDBRANCH  25  26
ENDBRANCH  23  25
ENDBRANCH   1  23
BRANCH   4  35
HETATM   35  C13 UNL     1      -0.005   8.806  13.946  1.00  0.00     0.149 C 
HETATM   36  O3  UNL     1       0.574   7.943  14.586  1.00  0.00    -0.649 OA
BRANCH  35  37
HETATM   37  O4  UNL     1       0.629   9.980  13.766  1.00  0.00    -0.776 OA
HETATM   38  H23 UNL     1       1.493   9.845  14.209  1.00  0.00     0.167 HD
ENDBRANCH  35  37
ENDBRANCH   4  35
TORSDOF 9
ENDMDL
MODEL 8
REMARK minimizedAffinity -8.11230278
REMARK CNNscore 0.236426339
REMARK CNNaffinity 6.47508097
REMARK  9 active torsions:
REMARK  status: ('A' for Active; 'I' for Inactive)
REMARK    1  A    between atoms: C2_2  and  C3_3 
REMARK    2  A    between atoms: C2_2  and  C9_11 
REMARK    3  A    between atoms: C3_3  and  C4_4 
REMARK    4  A    between atoms: C4_4  and  C5_5 
REMARK    5  A    between atoms: C5_5  and  O1_6 
REMARK    6  A    between atoms: C5_5  and  C6_7 
REMARK    7  A    between atoms: C6_7  and  O2_10 
REMARK    8  A    between atoms: C12_14  and  C13_15 
REMARK    9  A    between atoms: C13_15  and  O4_17 
ROOT
HETATM    1  C9  UNL     1       0.991   6.436  13.633  1.00  0.00    -0.001 C 
HETATM    2  C10 UNL     1       0.794   5.511  12.408  1.00  0.00     0.007 C 
HETATM    3  C11 UNL     1      -0.674   5.059  12.434  1.00  0.00     0.022 C 
HETATM    4  C12 UNL     1      -1.416   6.257  13.066  1.00  0.00     0.057 C 
HETATM    5  C14 UNL     1      -2.816   5.918  13.632  1.00  0.00     0.014 C 
HETATM    6  C15 UNL     1      -3.868   5.647  12.544  1.00  0.00     0.007 C 
HETATM    7  C16 UNL     1      -5.213   5.281  13.167  1.00  0.00     0.007 C 
HETATM    8  C17 UNL     1      -5.810   6.501  13.885  1.00  0.00     0.010 C 
HETATM    9  C18 UNL     1      -7.205   6.250  14.545  1.00  0.00     0.018 C 
HETATM   10  C19 UNL     1      -7.215   5.070  15.533  1.00  0.00     0.023 C 
HETATM   11  C20 UNL     1      -8.272   6.004  13.464  1.00  0.00     0.023 C 
HETATM   12  C21 UNL     1      -7.631   7.506  15.320  1.00  0.00     0.135 C 
HETATM   13  O5  UNL     1      -8.629   7.522  16.044  1.00  0.00    -0.297 OA
HETATM   14  C22 UNL     1      -6.822   8.759  15.105  1.00  0.00     0.080 C 
HETATM   15  C23 UNL     1      -5.353   8.501  15.408  1.00  0.00     0.018 C 
HETATM   16  C24 UNL     1      -4.839   7.162  14.871  1.00  0.00    -0.026 A 
HETATM   17  C25 UNL     1      -4.069   6.314  15.852  1.00  0.00     0.021 A 
HETATM   18  C26 UNL     1      -3.307   6.938  14.697  1.00  0.00    -0.027 A 
HETATM   19  C27 UNL     1      -2.373   8.111  15.062  1.00  0.00     0.011 C 
HETATM   20  C28 UNL     1      -0.853   7.939  14.875  1.00  0.00     0.012 C 
HETATM   21  C29 UNL     1      -0.446   6.609  14.243  1.00  0.00    -0.022 C 
HETATM   22  C30 UNL     1      -0.496   5.567  15.425  1.00  0.00     0.017 C 
ENDROOT
BRANCH   1  23
HETATM   23  C2  UNL     1       1.904   7.678  13.405  1.00  0.00    -0.014 C 
HETATM   24  C1  UNL     1       1.178   9.013  13.224  1.00  0.00     0.010 C 
BRANCH  23  25
HETATM   25  C3  UNL     1       2.835   7.415  12.188  1.00  0.00     0.007 C 
BRANCH  25  26
HETATM   26  C4  UNL     1       2.437   8.197  10.925  1.00  0.00     0.035 C 
BRANCH  26  27
HETATM   27  C5  UNL     1       3.187   7.693   9.683  1.00  0.00     0.151 C 
BRANCH  27  28
HETATM   28  O1  UNL     1       3.484   6.300   9.870  1.00  0.00    -0.393 OA
HETATM   29  H10 UNL     1       4.196   6.098   9.235  1.00  0.00     0.210 HD
ENDBRANCH  27  28
BRANCH  27  30
HETATM   30  C6  UNL     1       2.420   7.867   8.344  1.00  0.00     0.076 C 
HETATM   31  C7  UNL     1       0.984   8.343   8.576  1.00  0.00     0.048 C 
HETATM   32  C8  UNL     1       2.417   6.602   7.478  1.00  0.00     0.048 C 
BRANCH  30  33
HETATM   33  O2  UNL     1       3.085   8.909   7.602  1.00  0.00    -0.388 OA
HETATM   34  H17 UNL     1       3.868   8.502   7.187  1.00  0.00     0.210 HD
ENDBRANCH  30  33
ENDBRANCH  27  30
ENDBRANCH  26  27
ENDBRANCH  25  26
ENDBRANCH  23  25
ENDBRANCH   1  23
BRANCH   4  35
HETATM   35  C13 UNL     1      -1.589   7.380  12.011  1.00  0.00     0.149 C 
HETATM   36  O3  UNL     1      -0.952   7.535  10.981  1.00  0.00    -0.649 OA
BRANCH  35  37
HETATM   37  O4  UNL     1      -2.514   8.309  12.318  1.00  0.00    -0.776 OA
HETATM   38  H23 UNL     1      -2.473   8.932  11.562  1.00  0.00     0.167 HD
ENDBRANCH  35  37
ENDBRANCH   4  35
TORSDOF 9
ENDMDL
MODEL 9
REMARK minimizedAffinity -6.39164209
REMARK CNNscore 0.208435968
REMARK CNNaffinity 5.50559282
REMARK  9 active torsions:
REMARK  status: ('A' for Active; 'I' for Inactive)
REMARK    1  A    between atoms: C2_2  and  C3_3 
REMARK    2  A    between atoms: C2_2  and  C9_11 
REMARK    3  A    between atoms: C3_3  and  C4_4 
REMARK    4  A    between atoms: C4_4  and  C5_5 
REMARK    5  A    between atoms: C5_5  and  O1_6 
REMARK    6  A    between atoms: C5_5  and  C6_7 
REMARK    7  A    between atoms: C6_7  and  O2_10 
REMARK    8  A    between atoms: C12_14  and  C13_15 
REMARK    9  A    between atoms: C13_15  and  O4_17 
ROOT
HETATM    1  C9  UNL     1     -17.217   5.388  14.442  1.00  0.00    -0.001 C 
HETATM    2  C10 UNL     1     -18.257   6.377  13.861  1.00  0.00     0.007 C 
HETATM    3  C11 UNL     1     -17.707   7.789  14.115  1.00  0.00     0.022 C 
HETATM    4  C12 UNL     1     -16.176   7.604  14.048  1.00  0.00     0.057 C 
HETATM    5  C14 UNL     1     -15.363   8.743  14.709  1.00  0.00     0.014 C 
HETATM    6  C15 UNL     1     -15.390  10.058  13.912  1.00  0.00     0.007 C 
HETATM    7  C16 UNL     1     -14.604  11.149  14.636  1.00  0.00     0.007 C 
HETATM    8  C17 UNL     1     -13.106  10.810  14.631  1.00  0.00     0.010 C 
HETATM    9  C18 UNL     1     -12.196  11.872  15.328  1.00  0.00     0.018 C 
HETATM   10  C19 UNL     1     -12.605  12.177  16.780  1.00  0.00     0.023 C 
HETATM   11  C20 UNL     1     -12.194  13.185  14.525  1.00  0.00     0.023 C 
HETATM   12  C21 UNL     1     -10.747  11.359  15.354  1.00  0.00     0.135 C 
HETATM   13  O5  UNL     1      -9.856  11.947  15.969  1.00  0.00    -0.297 OA
HETATM   14  C22 UNL     1     -10.432  10.138  14.528  1.00  0.00     0.080 C 
HETATM   15  C23 UNL     1     -11.342   8.983  14.920  1.00  0.00     0.018 C 
HETATM   16  C24 UNL     1     -12.800   9.396  15.141  1.00  0.00    -0.026 A 
HETATM   17  C25 UNL     1     -13.435   8.902  16.417  1.00  0.00     0.021 A 
HETATM   18  C26 UNL     1     -13.922   8.314  15.104  1.00  0.00    -0.027 A 
HETATM   19  C27 UNL     1     -13.495   6.859  14.819  1.00  0.00     0.011 C 
HETATM   20  C28 UNL     1     -14.578   5.766  14.744  1.00  0.00     0.012 C 
HETATM   21  C29 UNL     1     -16.007   6.289  14.879  1.00  0.00    -0.022 C 
HETATM   22  C30 UNL     1     -16.217   6.499  16.428  1.00  0.00     0.017 C 
ENDROOT
BRANCH   1  23
HETATM   23  C2  UNL     1     -16.975   4.093  13.611  1.00  0.00    -0.014 C 
HETATM   24  C1  UNL     1     -18.010   3.798  12.523  1.00  0.00     0.010 C 
BRANCH  23  25
HETATM   25  C3  UNL     1     -16.862   2.878  14.574  1.00  0.00     0.007 C 
BRANCH  25  26
HETATM   26  C4  UNL     1     -15.561   2.076  14.406  1.00  0.00     0.035 C 
BRANCH  26  27
HETATM   27  C5  UNL     1     -15.810   0.563  14.489  1.00  0.00     0.151 C 
BRANCH  27  28
HETATM   28  O1  UNL     1     -15.220  -0.055  13.333  1.00  0.00    -0.393 OA
HETATM   29  H10 UNL     1     -15.643  -0.930  13.262  1.00  0.00     0.210 HD
ENDBRANCH  27  28
BRANCH  27  30
HETATM   30  C6  UNL     1     -15.246  -0.121  15.764  1.00  0.00     0.076 C 
HETATM   31  C7  UNL     1     -14.904  -1.591  15.510  1.00  0.00     0.048 C 
HETATM   32  C8  UNL     1     -16.175  -0.003  16.978  1.00  0.00     0.048 C 
BRANCH  30  33
HETATM   33  O2  UNL     1     -14.007   0.539  16.091  1.00  0.00    -0.388 OA
HETATM   34  H17 UNL     1     -14.243   1.367  16.549  1.00  0.00     0.210 HD
ENDBRANCH  30  33
ENDBRANCH  27  30
ENDBRANCH  26  27
ENDBRANCH  25  26
ENDBRANCH  23  25
ENDBRANCH   1  23
BRANCH   4  35
HETATM   35  C13 UNL     1     -15.727   7.497  12.568  1.00  0.00     0.149 C 
HETATM   36  O3  UNL     1     -14.588   7.564  12.132  1.00  0.00    -0.649 OA
BRANCH  35  37
HETATM   37  O4  UNL     1     -16.728   7.374  11.677  1.00  0.00    -0.776 OA
HETATM   38  H23 UNL     1     -16.265   7.338  10.814  1.00  0.00     0.167 HD
ENDBRANCH  35  37
ENDBRANCH   4  35
TORSDOF 9
ENDMDL
