MODEL 1
REMARK minimizedAffinity -9.27623463
REMARK  9 active torsions:
REMARK  status: ('A' for Active; 'I' for Inactive)
REMARK    1  A    between atoms: C3_3  and  O1_4 
REMARK    2  A    between atoms: N1_14  and  O2_16 
REMARK    3  A    between atoms: O2_16  and  C13_17 
REMARK    4  A    between atoms: C13_17  and  C14_18 
REMARK       I    between atoms: C14_18  and  N2_20 
REMARK    5  A    between atoms: N2_20  and  C15_21 
REMARK    6  A    between atoms: C15_21  and  C16_22 
REMARK    7  A    between atoms: C15_21  and  C17_25 
REMARK    8  A    between atoms: C16_22  and  O5_24 
REMARK    9  A    between atoms: C17_25  and  C19_27 
ROOT
HETATM    1  C1  UNL     1      -7.929   5.180  15.895  1.00  0.00     0.015 C 
HETATM    2  C2  UNL     1      -7.247   5.818  15.140  1.00  0.00    -0.078 C 
HETATM    3  C3  UNL     1      -6.424   6.597  14.203  1.00  0.00     0.128 C 
HETATM    4  C4  UNL     1      -6.466   8.116  14.499  1.00  0.00     0.052 C 
HETATM    5  C5  UNL     1      -5.075   8.671  14.124  1.00  0.00     0.010 C 
HETATM    6  C6  UNL     1      -4.353   7.493  13.473  1.00  0.00     0.002 C 
HETATM    7  C7  UNL     1      -2.821   7.520  13.393  1.00  0.00    -0.004 C 
HETATM    8  C8  UNL     1      -2.322   8.765  12.649  1.00  0.00     0.010 C 
HETATM    9  C9  UNL     1      -0.802   8.771  12.544  1.00  0.00     0.035 C 
HETATM   10  C10 UNL     1      -0.270   7.508  11.906  1.00  0.00    -0.069 C 
HETATM   11  C11 UNL     1       0.608   7.598  10.892  1.00  0.00     0.030 C 
HETATM   12  C12 UNL     1       1.261   6.400  10.307  1.00  0.00     0.032 C 
HETATM   13  N1  UNL     1       2.063   6.576   9.296  1.00  0.00    -0.271 N 
ATOM     14  H1  UNL     1       2.241   7.480   8.858  1.00  0.00     0.194 HD
HETATM   15  C21 UNL     1       0.998   5.065  10.970  1.00  0.00     0.060 C 
HETATM   16  C22 UNL     1      -0.419   5.013  11.521  1.00  0.00     0.020 C 
HETATM   17  C23 UNL     1      -0.765   6.180  12.491  1.00  0.00    -0.016 C 
HETATM   18  C24 UNL     1      -0.041   5.945  13.836  1.00  0.00     0.020 C 
HETATM   19  C25 UNL     1      -2.332   6.230  12.664  1.00  0.00     0.002 C 
HETATM   20  C26 UNL     1      -2.937   4.946  13.292  1.00  0.00     0.007 C 
HETATM   21  C27 UNL     1      -4.466   5.009  13.463  1.00  0.00     0.014 C 
HETATM   22  C28 UNL     1      -4.904   6.266  14.237  1.00  0.00     0.003 C 
HETATM   23  C29 UNL     1      -4.389   6.177  15.703  1.00  0.00     0.020 C 
ENDROOT
BRANCH   3  24
HETATM   24  O1  UNL     1      -6.941   6.395  12.885  1.00  0.00    -0.377 OA
HETATM   25  H2  UNL     1      -7.904   6.519  12.938  1.00  0.00     0.211 HD
ENDBRANCH   3  24
BRANCH  13  26
HETATM   26  O2  UNL     1       2.651   5.374   8.882  1.00  0.00    -0.271 OA
BRANCH  26  27
HETATM   27  C13 UNL     1       3.775   5.101   9.714  1.00  0.00     0.303 C 
BRANCH  27  28
HETATM   28  C14 UNL     1       4.372   6.391  10.275  1.00  0.00     0.244 C 
HETATM   29  O3  UNL     1       4.456   7.411   9.597  1.00  0.00    -0.271 OA
HETATM   30  N2  UNL     1       4.789   6.302  11.588  1.00  0.00    -0.344 N 
HETATM   31  H16 UNL     1       4.508   5.459  12.075  1.00  0.00     0.163 HD
BRANCH  30  32
HETATM   32  C15 UNL     1       5.238   7.440  12.395  1.00  0.00     0.186 C 
BRANCH  32  33
HETATM   33  C16 UNL     1       4.036   8.382  12.601  1.00  0.00     0.163 C 
HETATM   34  O4  UNL     1       3.863   9.499  12.143  1.00  0.00    -0.648 OA
BRANCH  33  35
HETATM   35  O5  UNL     1       3.064   7.822  13.358  1.00  0.00    -0.775 OA
HETATM   36  H18 UNL     1       2.380   8.524  13.400  1.00  0.00     0.167 HD
ENDBRANCH  33  35
ENDBRANCH  32  33
BRANCH  32  37
HETATM   37  C17 UNL     1       6.539   8.132  11.905  1.00  0.00     0.014 C 
HETATM   38  C18 UNL     1       6.245   9.392  11.073  1.00  0.00     0.012 C 
BRANCH  37  39
HETATM   39  C19 UNL     1       7.468   8.554  13.072  1.00  0.00     0.002 C 
HETATM   40  C20 UNL     1       7.538   7.579  14.238  1.00  0.00     0.005 C 
ENDBRANCH  37  39
ENDBRANCH  32  37
ENDBRANCH  30  32
ENDBRANCH  27  28
ENDBRANCH  26  27
ENDBRANCH  13  26
TORSDOF 9
ENDMDL
MODEL 2
REMARK minimizedAffinity -9.24629402
REMARK  9 active torsions:
REMARK  status: ('A' for Active; 'I' for Inactive)
REMARK    1  A    between atoms: C3_3  and  O1_4 
REMARK    2  A    between atoms: N1_14  and  O2_16 
REMARK    3  A    between atoms: O2_16  and  C13_17 
REMARK    4  A    between atoms: C13_17  and  C14_18 
REMARK       I    between atoms: C14_18  and  N2_20 
REMARK    5  A    between atoms: N2_20  and  C15_21 
REMARK    6  A    between atoms: C15_21  and  C16_22 
REMARK    7  A    between atoms: C15_21  and  C17_25 
REMARK    8  A    between atoms: C16_22  and  O5_24 
REMARK    9  A    between atoms: C17_25  and  C19_27 
ROOT
HETATM    1  C1  UNL     1      -9.715   6.991  15.035  1.00  0.00     0.015 C 
HETATM    2  C2  UNL     1      -8.678   6.392  14.933  1.00  0.00    -0.078 C 
HETATM    3  C3  UNL     1      -7.413   5.650  14.824  1.00  0.00     0.128 C 
HETATM    4  C4  UNL     1      -7.482   4.512  13.776  1.00  0.00     0.052 C 
HETATM    5  C5  UNL     1      -6.073   4.408  13.154  1.00  0.00     0.010 C 
HETATM    6  C6  UNL     1      -5.215   5.363  13.981  1.00  0.00     0.002 C 
HETATM    7  C7  UNL     1      -3.896   5.871  13.387  1.00  0.00    -0.004 C 
HETATM    8  C8  UNL     1      -2.966   4.710  13.012  1.00  0.00     0.010 C 
HETATM    9  C9  UNL     1      -1.645   5.221  12.452  1.00  0.00     0.035 C 
HETATM   10  C10 UNL     1      -0.959   6.181  13.397  1.00  0.00    -0.069 C 
HETATM   11  C11 UNL     1       0.336   5.994  13.706  1.00  0.00     0.030 C 
HETATM   12  C12 UNL     1       1.098   6.968  14.526  1.00  0.00     0.032 C 
HETATM   13  N1  UNL     1       2.336   6.683  14.817  1.00  0.00    -0.271 N 
ATOM     14  H1  UNL     1       2.801   5.816  14.548  1.00  0.00     0.194 HD
HETATM   15  C21 UNL     1       0.403   8.256  14.911  1.00  0.00     0.060 C 
HETATM   16  C22 UNL     1      -1.083   8.013  15.135  1.00  0.00     0.020 C 
HETATM   17  C23 UNL     1      -1.804   7.344  13.930  1.00  0.00    -0.016 C 
HETATM   18  C24 UNL     1      -1.962   8.385  12.799  1.00  0.00     0.020 C 
HETATM   19  C25 UNL     1      -3.198   6.799  14.430  1.00  0.00     0.002 C 
HETATM   20  C26 UNL     1      -4.155   7.904  14.953  1.00  0.00     0.007 C 
HETATM   21  C27 UNL     1      -5.514   7.361  15.431  1.00  0.00     0.014 C 
HETATM   22  C28 UNL     1      -6.197   6.499  14.353  1.00  0.00     0.003 C 
HETATM   23  C29 UNL     1      -6.582   7.395  13.141  1.00  0.00     0.020 C 
ENDROOT
BRANCH   3  24
HETATM   24  O1  UNL     1      -7.136   5.057  16.095  1.00  0.00    -0.377 OA
HETATM   25  H2  UNL     1      -7.955   4.622  16.388  1.00  0.00     0.211 HD
ENDBRANCH   3  24
BRANCH  13  26
HETATM   26  O2  UNL     1       2.950   7.711  15.543  1.00  0.00    -0.271 OA
BRANCH  26  27
HETATM   27  C13 UNL     1       4.293   7.855  15.092  1.00  0.00     0.303 C 
BRANCH  27  28
HETATM   28  C14 UNL     1       4.345   8.085  13.582  1.00  0.00     0.244 C 
HETATM   29  O3  UNL     1       4.081   9.176  13.086  1.00  0.00    -0.271 OA
HETATM   30  N2  UNL     1       4.717   6.976  12.849  1.00  0.00    -0.344 N 
HETATM   31  H16 UNL     1       5.067   6.195  13.393  1.00  0.00     0.163 HD
BRANCH  30  32
HETATM   32  C15 UNL     1       5.000   6.988  11.410  1.00  0.00     0.186 C 
BRANCH  32  33
HETATM   33  C16 UNL     1       6.529   6.939  11.225  1.00  0.00     0.163 C 
HETATM   34  O4  UNL     1       7.370   7.699  11.675  1.00  0.00    -0.648 OA
BRANCH  33  35
HETATM   35  O5  UNL     1       6.928   5.870  10.498  1.00  0.00    -0.775 OA
HETATM   36  H18 UNL     1       7.903   5.972  10.467  1.00  0.00     0.167 HD
ENDBRANCH  33  35
ENDBRANCH  32  33
BRANCH  32  37
HETATM   37  C17 UNL     1       4.273   8.095  10.598  1.00  0.00     0.014 C 
HETATM   38  C18 UNL     1       5.245   9.181  10.106  1.00  0.00     0.012 C 
BRANCH  37  39
HETATM   39  C19 UNL     1       3.534   7.537   9.356  1.00  0.00     0.002 C 
HETATM   40  C20 UNL     1       3.253   8.547   8.253  1.00  0.00     0.005 C 
ENDBRANCH  37  39
ENDBRANCH  32  37
ENDBRANCH  30  32
ENDBRANCH  27  28
ENDBRANCH  26  27
ENDBRANCH  13  26
TORSDOF 9
ENDMDL
MODEL 3
REMARK minimizedAffinity -9.22009277
REMARK  9 active torsions:
REMARK  status: ('A' for Active; 'I' for Inactive)
REMARK    1  A    between atoms: C3_3  and  O1_4 
REMARK    2  A    between atoms: N1_14  and  O2_16 
REMARK    3  A    between atoms: O2_16  and  C13_17 
REMARK    4  A    between atoms: C13_17  and  C14_18 
REMARK       I    between atoms: C14_18  and  N2_20 
REMARK    5  A    between atoms: N2_20  and  C15_21 
REMARK    6  A    between atoms: C15_21  and  C16_22 
REMARK    7  A    between atoms: C15_21  and  C17_25 
REMARK    8  A    between atoms: C16_22  and  O5_24 
REMARK    9  A    between atoms: C17_25  and  C19_27 
ROOT
HETATM    1  C1  UNL     1       3.577   8.471  11.750  1.00  0.00     0.015 C 
HETATM    2  C2  UNL     1       2.555   7.896  11.489  1.00  0.00    -0.078 C 
HETATM    3  C3  UNL     1       1.303   7.202  11.154  1.00  0.00     0.128 C 
HETATM    4  C4  UNL     1       1.535   5.725  10.749  1.00  0.00     0.052 C 
HETATM    5  C5  UNL     1       0.299   4.940  11.239  1.00  0.00     0.010 C 
HETATM    6  C6  UNL     1      -0.661   6.012  11.748  1.00  0.00     0.002 C 
HETATM    7  C7  UNL     1      -1.778   5.603  12.717  1.00  0.00    -0.004 C 
HETATM    8  C8  UNL     1      -2.669   4.511  12.114  1.00  0.00     0.010 C 
HETATM    9  C9  UNL     1      -3.795   4.130  13.067  1.00  0.00     0.035 C 
HETATM   10  C10 UNL     1      -4.615   5.328  13.488  1.00  0.00    -0.069 C 
HETATM   11  C11 UNL     1      -5.955   5.278  13.398  1.00  0.00     0.030 C 
HETATM   12  C12 UNL     1      -6.820   6.370  13.910  1.00  0.00     0.032 C 
HETATM   13  N1  UNL     1      -8.107   6.259  13.738  1.00  0.00    -0.271 N 
ATOM     14  H1  UNL     1      -8.553   5.488  13.241  1.00  0.00     0.194 HD
HETATM   15  C21 UNL     1      -6.150   7.504  14.654  1.00  0.00     0.060 C 
HETATM   16  C22 UNL     1      -4.772   7.783  14.072  1.00  0.00     0.020 C 
HETATM   17  C23 UNL     1      -3.840   6.538  14.025  1.00  0.00    -0.016 C 
HETATM   18  C24 UNL     1      -3.366   6.211  15.458  1.00  0.00     0.020 C 
HETATM   19  C25 UNL     1      -2.633   6.862  13.061  1.00  0.00     0.002 C 
HETATM   20  C26 UNL     1      -1.751   8.049  13.534  1.00  0.00     0.007 C 
HETATM   21  C27 UNL     1      -0.573   8.350  12.591  1.00  0.00     0.014 C 
HETATM   22  C28 UNL     1       0.280   7.097  12.323  1.00  0.00     0.003 C 
HETATM   23  C29 UNL     1       0.986   6.659  13.638  1.00  0.00     0.020 C 
ENDROOT
BRANCH   3  24
HETATM   24  O1  UNL     1       0.708   7.872  10.040  1.00  0.00    -0.377 OA
HETATM   25  H2  UNL     1       1.411   7.998   9.379  1.00  0.00     0.211 HD
ENDBRANCH   3  24
BRANCH  13  26
HETATM   26  O2  UNL     1      -8.803   7.327  14.318  1.00  0.00    -0.271 OA
BRANCH  26  27
HETATM   27  C13 UNL     1     -10.154   6.932  14.537  1.00  0.00     0.303 C 
BRANCH  27  28
HETATM   28  C14 UNL     1     -11.055   7.390  13.391  1.00  0.00     0.244 C 
HETATM   29  O3  UNL     1     -10.748   7.209  12.217  1.00  0.00    -0.271 OA
HETATM   30  N2  UNL     1     -12.223   8.004  13.796  1.00  0.00    -0.344 N 
HETATM   31  H16 UNL     1     -12.427   7.936  14.786  1.00  0.00     0.163 HD
BRANCH  30  32
HETATM   32  C15 UNL     1     -13.319   8.378  12.897  1.00  0.00     0.186 C 
BRANCH  32  33
HETATM   33  C16 UNL     1     -13.082   9.830  12.436  1.00  0.00     0.163 C 
HETATM   34  O4  UNL     1     -13.543  10.856  12.906  1.00  0.00    -0.648 OA
BRANCH  33  35
HETATM   35  O5  UNL     1     -12.210   9.910  11.405  1.00  0.00    -0.775 OA
HETATM   36  H18 UNL     1     -12.161  10.873  11.228  1.00  0.00     0.167 HD
ENDBRANCH  33  35
ENDBRANCH  32  33
BRANCH  32  37
HETATM   37  C17 UNL     1     -14.748   8.081  13.428  1.00  0.00     0.014 C 
HETATM   38  C18 UNL     1     -15.660   7.498  12.335  1.00  0.00     0.012 C 
BRANCH  37  39
HETATM   39  C19 UNL     1     -14.750   7.084  14.614  1.00  0.00     0.002 C 
HETATM   40  C20 UNL     1     -14.228   5.690  14.298  1.00  0.00     0.005 C 
ENDBRANCH  37  39
ENDBRANCH  32  37
ENDBRANCH  30  32
ENDBRANCH  27  28
ENDBRANCH  26  27
ENDBRANCH  13  26
TORSDOF 9
ENDMDL
MODEL 4
REMARK minimizedAffinity -9.0829916
REMARK  9 active torsions:
REMARK  status: ('A' for Active; 'I' for Inactive)
REMARK    1  A    between atoms: C3_3  and  O1_4 
REMARK    2  A    between atoms: N1_14  and  O2_16 
REMARK    3  A    between atoms: O2_16  and  C13_17 
REMARK    4  A    between atoms: C13_17  and  C14_18 
REMARK       I    between atoms: C14_18  and  N2_20 
REMARK    5  A    between atoms: N2_20  and  C15_21 
REMARK    6  A    between atoms: C15_21  and  C16_22 
REMARK    7  A    between atoms: C15_21  and  C17_25 
REMARK    8  A    between atoms: C16_22  and  O5_24 
REMARK    9  A    between atoms: C17_25  and  C19_27 
ROOT
HETATM    1  C1  UNL     1       3.058   8.856  11.961  1.00  0.00     0.015 C 
HETATM    2  C2  UNL     1       2.130   8.162  11.645  1.00  0.00    -0.078 C 
HETATM    3  C3  UNL     1       0.993   7.320  11.243  1.00  0.00     0.128 C 
HETATM    4  C4  UNL     1       1.422   5.876  10.885  1.00  0.00     0.052 C 
HETATM    5  C5  UNL     1       0.256   4.958  11.309  1.00  0.00     0.010 C 
HETATM    6  C6  UNL     1      -0.856   5.917  11.731  1.00  0.00     0.002 C 
HETATM    7  C7  UNL     1      -1.980   5.392  12.633  1.00  0.00    -0.004 C 
HETATM    8  C8  UNL     1      -2.695   4.194  11.996  1.00  0.00     0.010 C 
HETATM    9  C9  UNL     1      -3.832   3.697  12.881  1.00  0.00     0.035 C 
HETATM   10  C10 UNL     1      -4.811   4.796  13.221  1.00  0.00    -0.069 C 
HETATM   11  C11 UNL     1      -6.128   4.587  13.044  1.00  0.00     0.030 C 
HETATM   12  C12 UNL     1      -7.147   5.577  13.474  1.00  0.00     0.032 C 
HETATM   13  N1  UNL     1      -8.397   5.313  13.220  1.00  0.00    -0.271 N 
ATOM     14  H1  UNL     1      -8.716   4.489  12.712  1.00  0.00     0.194 HD
HETATM   15  C21 UNL     1      -6.665   6.792  14.237  1.00  0.00     0.060 C 
HETATM   16  C22 UNL     1      -5.293   7.223  13.741  1.00  0.00     0.020 C 
HETATM   17  C23 UNL     1      -4.221   6.096  13.782  1.00  0.00    -0.016 C 
HETATM   18  C24 UNL     1      -3.811   5.846  15.250  1.00  0.00     0.020 C 
HETATM   19  C25 UNL     1      -2.997   6.546  12.893  1.00  0.00     0.002 C 
HETATM   20  C26 UNL     1      -2.294   7.835  13.398  1.00  0.00     0.007 C 
HETATM   21  C27 UNL     1      -1.097   8.259  12.528  1.00  0.00     0.014 C 
HETATM   22  C28 UNL     1      -0.088   7.112  12.344  1.00  0.00     0.003 C 
HETATM   23  C29 UNL     1       0.573   6.777  13.712  1.00  0.00     0.020 C 
ENDROOT
BRANCH   3  24
HETATM   24  O1  UNL     1       0.401   7.901  10.078  1.00  0.00    -0.377 OA
HETATM   25  H2  UNL     1       1.128   8.100   9.463  1.00  0.00     0.211 HD
ENDBRANCH   3  24
BRANCH  13  26
HETATM   26  O2  UNL     1      -9.251   6.300  13.730  1.00  0.00    -0.271 OA
BRANCH  26  27
HETATM   27  C13 UNL     1     -10.252   6.589  12.759  1.00  0.00     0.303 C 
BRANCH  27  28
HETATM   28  C14 UNL     1     -11.454   7.283  13.398  1.00  0.00     0.244 C 
HETATM   29  O3  UNL     1     -12.244   6.677  14.115  1.00  0.00    -0.271 OA
HETATM   30  N2  UNL     1     -11.557   8.629  13.105  1.00  0.00    -0.344 N 
HETATM   31  H16 UNL     1     -10.750   9.034  12.644  1.00  0.00     0.163 HD
BRANCH  30  32
HETATM   32  C15 UNL     1     -12.519   9.543  13.728  1.00  0.00     0.186 C 
BRANCH  32  33
HETATM   33  C16 UNL     1     -13.217  10.336  12.606  1.00  0.00     0.163 C 
HETATM   34  O4  UNL     1     -14.120  11.149  12.705  1.00  0.00    -0.648 OA
BRANCH  33  35
HETATM   35  O5  UNL     1     -12.685  10.086  11.388  1.00  0.00    -0.775 OA
HETATM   36  H18 UNL     1     -13.220  10.650  10.790  1.00  0.00     0.167 HD
ENDBRANCH  33  35
ENDBRANCH  32  33
BRANCH  32  37
HETATM   37  C17 UNL     1     -11.961  10.404  14.894  1.00  0.00     0.014 C 
HETATM   38  C18 UNL     1     -12.012   9.658  16.238  1.00  0.00     0.012 C 
BRANCH  37  39
HETATM   39  C19 UNL     1     -10.493  10.844  14.663  1.00  0.00     0.002 C 
HETATM   40  C20 UNL     1      -9.784  11.422  15.880  1.00  0.00     0.005 C 
ENDBRANCH  37  39
ENDBRANCH  32  37
ENDBRANCH  30  32
ENDBRANCH  27  28
ENDBRANCH  26  27
ENDBRANCH  13  26
TORSDOF 9
ENDMDL
MODEL 5
REMARK minimizedAffinity -9.053792
REMARK  9 active torsions:
REMARK  status: ('A' for Active; 'I' for Inactive)
REMARK    1  A    between atoms: C3_3  and  O1_4 
REMARK    2  A    between atoms: N1_14  and  O2_16 
REMARK    3  A    between atoms: O2_16  and  C13_17 
REMARK    4  A    between atoms: C13_17  and  C14_18 
REMARK       I    between atoms: C14_18  and  N2_20 
REMARK    5  A    between atoms: N2_20  and  C15_21 
REMARK    6  A    between atoms: C15_21  and  C16_22 
REMARK    7  A    between atoms: C15_21  and  C17_25 
REMARK    8  A    between atoms: C16_22  and  O5_24 
REMARK    9  A    between atoms: C17_25  and  C19_27 
ROOT
HETATM    1  C1  UNL     1       2.672   8.052  12.161  1.00  0.00     0.015 C 
HETATM    2  C2  UNL     1       1.670   7.466  11.849  1.00  0.00    -0.078 C 
HETATM    3  C3  UNL     1       0.445   6.758  11.451  1.00  0.00     0.128 C 
HETATM    4  C4  UNL     1       0.699   5.260  11.149  1.00  0.00     0.052 C 
HETATM    5  C5  UNL     1      -0.579   4.507  11.578  1.00  0.00     0.010 C 
HETATM    6  C6  UNL     1      -1.570   5.609  11.947  1.00  0.00     0.002 C 
HETATM    7  C7  UNL     1      -2.764   5.258  12.843  1.00  0.00    -0.004 C 
HETATM    8  C8  UNL     1      -3.612   4.136  12.230  1.00  0.00     0.010 C 
HETATM    9  C9  UNL     1      -4.815   3.812  13.108  1.00  0.00     0.035 C 
HETATM   10  C10 UNL     1      -5.657   5.034  13.393  1.00  0.00    -0.069 C 
HETATM   11  C11 UNL     1      -6.986   4.983  13.197  1.00  0.00     0.030 C 
HETATM   12  C12 UNL     1      -7.882   6.105  13.575  1.00  0.00     0.032 C 
HETATM   13  N1  UNL     1      -9.151   5.988  13.305  1.00  0.00    -0.271 N 
ATOM     14  H1  UNL     1      -9.561   5.192  12.816  1.00  0.00     0.194 HD
HETATM   15  C21 UNL     1      -7.266   7.276  14.308  1.00  0.00     0.060 C 
HETATM   16  C22 UNL     1      -5.843   7.519  13.826  1.00  0.00     0.020 C 
HETATM   17  C23 UNL     1      -4.920   6.270  13.924  1.00  0.00    -0.016 C 
HETATM   18  C24 UNL     1      -4.566   6.022  15.407  1.00  0.00     0.020 C 
HETATM   19  C25 UNL     1      -3.636   6.536  13.046  1.00  0.00     0.002 C 
HETATM   20  C26 UNL     1      -2.787   7.745  13.523  1.00  0.00     0.007 C 
HETATM   21  C27 UNL     1      -1.533   7.990  12.664  1.00  0.00     0.014 C 
HETATM   22  C28 UNL     1      -0.670   6.721  12.536  1.00  0.00     0.003 C 
HETATM   23  C29 UNL     1      -0.078   6.355  13.927  1.00  0.00     0.020 C 
ENDROOT
BRANCH   3  24
HETATM   24  O1  UNL     1      -0.052   7.367  10.257  1.00  0.00    -0.377 OA
HETATM   25  H2  UNL     1       0.703   7.454   9.650  1.00  0.00     0.211 HD
ENDBRANCH   3  24
BRANCH  13  26
HETATM   26  O2  UNL     1      -9.884   7.089  13.766  1.00  0.00    -0.271 OA
BRANCH  26  27
HETATM   27  C13 UNL     1     -10.949   7.348  12.855  1.00  0.00     0.303 C 
BRANCH  27  28
HETATM   28  C14 UNL     1     -12.304   7.046  13.492  1.00  0.00     0.244 C 
HETATM   29  O3  UNL     1     -12.406   6.336  14.488  1.00  0.00    -0.271 OA
HETATM   30  N2  UNL     1     -13.376   7.644  12.860  1.00  0.00    -0.344 N 
HETATM   31  H16 UNL     1     -13.135   8.334  12.157  1.00  0.00     0.163 HD
BRANCH  30  32
HETATM   32  C15 UNL     1     -14.749   7.643  13.374  1.00  0.00     0.186 C 
BRANCH  32  33
HETATM   33  C16 UNL     1     -15.681   7.165  12.244  1.00  0.00     0.163 C 
HETATM   34  O4  UNL     1     -15.747   7.572  11.096  1.00  0.00    -0.648 OA
BRANCH  33  35
HETATM   35  O5  UNL     1     -16.467   6.132  12.624  1.00  0.00    -0.775 OA
HETATM   36  H18 UNL     1     -16.992   5.941  11.818  1.00  0.00     0.167 HD
ENDBRANCH  33  35
ENDBRANCH  32  33
BRANCH  32  37
HETATM   37  C17 UNL     1     -15.194   8.950  14.085  1.00  0.00     0.014 C 
HETATM   38  C18 UNL     1     -14.366   9.229  15.351  1.00  0.00     0.012 C 
BRANCH  37  39
HETATM   39  C19 UNL     1     -15.079  10.197  13.172  1.00  0.00     0.002 C 
HETATM   40  C20 UNL     1     -13.791  10.303  12.369  1.00  0.00     0.005 C 
ENDBRANCH  37  39
ENDBRANCH  32  37
ENDBRANCH  30  32
ENDBRANCH  27  28
ENDBRANCH  26  27
ENDBRANCH  13  26
TORSDOF 9
ENDMDL
MODEL 6
REMARK minimizedAffinity -8.96550846
REMARK  9 active torsions:
REMARK  status: ('A' for Active; 'I' for Inactive)
REMARK    1  A    between atoms: C3_3  and  O1_4 
REMARK    2  A    between atoms: N1_14  and  O2_16 
REMARK    3  A    between atoms: O2_16  and  C13_17 
REMARK    4  A    between atoms: C13_17  and  C14_18 
REMARK       I    between atoms: C14_18  and  N2_20 
REMARK    5  A    between atoms: N2_20  and  C15_21 
REMARK    6  A    between atoms: C15_21  and  C16_22 
REMARK    7  A    between atoms: C15_21  and  C17_25 
REMARK    8  A    between atoms: C16_22  and  O5_24 
REMARK    9  A    between atoms: C17_25  and  C19_27 
ROOT
HETATM    1  C1  UNL     1      -5.443   9.415  15.897  1.00  0.00     0.015 C 
HETATM    2  C2  UNL     1      -4.658   8.553  15.608  1.00  0.00    -0.078 C 
HETATM    3  C3  UNL     1      -3.693   7.495  15.272  1.00  0.00     0.128 C 
HETATM    4  C4  UNL     1      -4.380   6.142  14.963  1.00  0.00     0.052 C 
HETATM    5  C5  UNL     1      -3.515   5.450  13.888  1.00  0.00     0.010 C 
HETATM    6  C6  UNL     1      -2.286   6.346  13.747  1.00  0.00     0.002 C 
HETATM    7  C7  UNL     1      -1.439   6.241  12.473  1.00  0.00    -0.004 C 
HETATM    8  C8  UNL     1      -0.928   4.812  12.256  1.00  0.00     0.010 C 
HETATM    9  C9  UNL     1      -0.061   4.719  11.007  1.00  0.00     0.035 C 
HETATM   10  C10 UNL     1       1.083   5.706  11.034  1.00  0.00    -0.069 C 
HETATM   11  C11 UNL     1       2.332   5.279  10.777  1.00  0.00     0.030 C 
HETATM   12  C12 UNL     1       3.477   6.217  10.665  1.00  0.00     0.032 C 
HETATM   13  N1  UNL     1       4.660   5.711  10.461  1.00  0.00    -0.271 N 
ATOM     14  H1  UNL     1       4.854   4.711  10.411  1.00  0.00     0.194 HD
HETATM   15  C21 UNL     1       3.178   7.699  10.731  1.00  0.00     0.060 C 
HETATM   16  C22 UNL     1       2.016   7.967  11.676  1.00  0.00     0.020 C 
HETATM   17  C23 UNL     1       0.726   7.167  11.336  1.00  0.00    -0.016 C 
HETATM   18  C24 UNL     1       0.075   7.776  10.074  1.00  0.00     0.020 C 
HETATM   19  C25 UNL     1      -0.236   7.228  12.585  1.00  0.00     0.002 C 
HETATM   20  C26 UNL     1      -0.697   8.664  12.955  1.00  0.00     0.007 C 
HETATM   21  C27 UNL     1      -1.641   8.710  14.170  1.00  0.00     0.014 C 
HETATM   22  C28 UNL     1      -2.845   7.767  13.996  1.00  0.00     0.003 C 
HETATM   23  C29 UNL     1      -3.742   8.282  12.834  1.00  0.00     0.020 C 
ENDROOT
BRANCH   3  24
HETATM   24  O1  UNL     1      -2.836   7.303  16.399  1.00  0.00    -0.377 OA
HETATM   25  H2  UNL     1      -3.410   7.235  17.181  1.00  0.00     0.211 HD
ENDBRANCH   3  24
BRANCH  13  26
HETATM   26  O2  UNL     1       5.635   6.707  10.320  1.00  0.00    -0.271 OA
BRANCH  26  27
HETATM   27  C13 UNL     1       6.768   6.359  11.110  1.00  0.00     0.303 C 
BRANCH  27  28
HETATM   28  C14 UNL     1       6.934   7.319  12.287  1.00  0.00     0.244 C 
HETATM   29  O3  UNL     1       7.394   8.447  12.140  1.00  0.00    -0.271 OA
HETATM   30  N2  UNL     1       6.517   6.809  13.500  1.00  0.00    -0.344 N 
HETATM   31  H16 UNL     1       6.005   5.935  13.450  1.00  0.00     0.163 HD
BRANCH  30  32
HETATM   32  C15 UNL     1       6.419   7.588  14.739  1.00  0.00     0.186 C 
BRANCH  32  33
HETATM   33  C16 UNL     1       5.043   8.282  14.757  1.00  0.00     0.163 C 
HETATM   34  O4  UNL     1       4.169   8.205  15.604  1.00  0.00    -0.648 OA
BRANCH  33  35
HETATM   35  O5  UNL     1       4.861   9.100  13.694  1.00  0.00    -0.775 OA
HETATM   36  H18 UNL     1       3.962   9.462  13.842  1.00  0.00     0.167 HD
ENDBRANCH  33  35
ENDBRANCH  32  33
BRANCH  32  37
HETATM   37  C17 UNL     1       7.628   8.515  15.040  1.00  0.00     0.014 C 
HETATM   38  C18 UNL     1       7.398   9.373  16.295  1.00  0.00     0.012 C 
BRANCH  37  39
HETATM   39  C19 UNL     1       8.946   7.729  15.250  1.00  0.00     0.002 C 
HETATM   40  C20 UNL     1      10.103   8.137  14.350  1.00  0.00     0.005 C 
ENDBRANCH  37  39
ENDBRANCH  32  37
ENDBRANCH  30  32
ENDBRANCH  27  28
ENDBRANCH  26  27
ENDBRANCH  13  26
TORSDOF 9
ENDMDL
MODEL 7
REMARK minimizedAffinity -8.81151676
REMARK  9 active torsions:
REMARK  status: ('A' for Active; 'I' for Inactive)
REMARK    1  A    between atoms: C3_3  and  O1_4 
REMARK    2  A    between atoms: N1_14  and  O2_16 
REMARK    3  A    between atoms: O2_16  and  C13_17 
REMARK    4  A    between atoms: C13_17  and  C14_18 
REMARK       I    between atoms: C14_18  and  N2_20 
REMARK    5  A    between atoms: N2_20  and  C15_21 
REMARK    6  A    between atoms: C15_21  and  C16_22 
REMARK    7  A    between atoms: C15_21  and  C17_25 
REMARK    8  A    between atoms: C16_22  and  O5_24 
REMARK    9  A    between atoms: C17_25  and  C19_27 
ROOT
HETATM    1  C1  UNL     1       3.061   9.568  12.521  1.00  0.00     0.015 C 
HETATM    2  C2  UNL     1       2.251   8.845  12.006  1.00  0.00    -0.078 C 
HETATM    3  C3  UNL     1       1.257   7.973  11.362  1.00  0.00     0.128 C 
HETATM    4  C4  UNL     1       1.907   6.774  10.629  1.00  0.00     0.052 C 
HETATM    5  C5  UNL     1       0.916   5.597  10.758  1.00  0.00     0.010 C 
HETATM    6  C6  UNL     1      -0.326   6.207  11.403  1.00  0.00     0.002 C 
HETATM    7  C7  UNL     1      -1.327   5.278  12.100  1.00  0.00    -0.004 C 
HETATM    8  C8  UNL     1      -1.854   4.202  11.142  1.00  0.00     0.010 C 
HETATM    9  C9  UNL     1      -2.871   3.302  11.830  1.00  0.00     0.035 C 
HETATM   10  C10 UNL     1      -4.009   4.089  12.439  1.00  0.00    -0.069 C 
HETATM   11  C11 UNL     1      -5.277   3.725  12.182  1.00  0.00     0.030 C 
HETATM   12  C12 UNL     1      -6.434   4.378  12.847  1.00  0.00     0.032 C 
HETATM   13  N1  UNL     1      -7.630   3.994  12.503  1.00  0.00    -0.271 N 
ATOM     14  H1  UNL     1      -7.822   3.301  11.779  1.00  0.00     0.194 HD
HETATM   15  C21 UNL     1      -6.138   5.397  13.925  1.00  0.00     0.060 C 
HETATM   16  C22 UNL     1      -4.866   6.167  13.598  1.00  0.00     0.020 C 
HETATM   17  C23 UNL     1      -3.625   5.262  13.349  1.00  0.00    -0.016 C 
HETATM   18  C24 UNL     1      -3.143   4.688  14.700  1.00  0.00     0.020 C 
HETATM   19  C25 UNL     1      -2.513   6.133  12.647  1.00  0.00     0.002 C 
HETATM   20  C26 UNL     1      -2.016   7.330  13.503  1.00  0.00     0.007 C 
HETATM   21  C27 UNL     1      -0.926   8.167  12.811  1.00  0.00     0.014 C 
HETATM   22  C28 UNL     1       0.252   7.296  12.338  1.00  0.00     0.003 C 
HETATM   23  C29 UNL     1       0.991   6.710  13.575  1.00  0.00     0.020 C 
ENDROOT
BRANCH   3  24
HETATM   24  O1  UNL     1       0.551   8.748  10.390  1.00  0.00    -0.377 OA
HETATM   25  H2  UNL     1       1.220   9.225   9.870  1.00  0.00     0.211 HD
ENDBRANCH   3  24
BRANCH  13  26
HETATM   26  O2  UNL     1      -8.620   4.648  13.246  1.00  0.00    -0.271 OA
BRANCH  26  27
HETATM   27  C13 UNL     1      -8.860   5.929  12.668  1.00  0.00     0.303 C 
BRANCH  27  28
HETATM   28  C14 UNL     1      -9.783   6.767  13.551  1.00  0.00     0.244 C 
HETATM   29  O3  UNL     1      -9.364   7.370  14.534  1.00  0.00    -0.271 OA
HETATM   30  N2  UNL     1     -11.101   6.786  13.139  1.00  0.00    -0.344 N 
HETATM   31  H16 UNL     1     -11.275   6.386  12.224  1.00  0.00     0.163 HD
BRANCH  30  32
HETATM   32  C15 UNL     1     -12.139   7.645  13.718  1.00  0.00     0.186 C 
BRANCH  32  33
HETATM   33  C16 UNL     1     -13.011   6.779  14.647  1.00  0.00     0.163 C 
HETATM   34  O4  UNL     1     -13.360   5.620  14.492  1.00  0.00    -0.648 OA
BRANCH  33  35
HETATM   35  O5  UNL     1     -13.363   7.428  15.781  1.00  0.00    -0.775 OA
HETATM   36  H18 UNL     1     -13.902   6.764  16.260  1.00  0.00     0.167 HD
ENDBRANCH  33  35
ENDBRANCH  32  33
BRANCH  32  37
HETATM   37  C17 UNL     1     -12.925   8.517  12.701  1.00  0.00     0.014 C 
HETATM   38  C18 UNL     1     -14.434   8.219  12.731  1.00  0.00     0.012 C 
BRANCH  37  39
HETATM   39  C19 UNL     1     -12.748  10.036  12.953  1.00  0.00     0.002 C 
HETATM   40  C20 UNL     1     -14.007  10.876  12.797  1.00  0.00     0.005 C 
ENDBRANCH  37  39
ENDBRANCH  32  37
ENDBRANCH  30  32
ENDBRANCH  27  28
ENDBRANCH  26  27
ENDBRANCH  13  26
TORSDOF 9
ENDMDL
MODEL 8
REMARK minimizedAffinity -8.63115692
REMARK  9 active torsions:
REMARK  status: ('A' for Active; 'I' for Inactive)
REMARK    1  A    between atoms: C3_3  and  O1_4 
REMARK    2  A    between atoms: N1_14  and  O2_16 
REMARK    3  A    between atoms: O2_16  and  C13_17 
REMARK    4  A    between atoms: C13_17  and  C14_18 
REMARK       I    between atoms: C14_18  and  N2_20 
REMARK    5  A    between atoms: N2_20  and  C15_21 
REMARK    6  A    between atoms: C15_21  and  C16_22 
REMARK    7  A    between atoms: C15_21  and  C17_25 
REMARK    8  A    between atoms: C16_22  and  O5_24 
REMARK    9  A    between atoms: C17_25  and  C19_27 
ROOT
HETATM    1  C1  UNL     1       1.694   9.087  13.502  1.00  0.00     0.015 C 
HETATM    2  C2  UNL     1       0.772   8.484  13.020  1.00  0.00    -0.078 C 
HETATM    3  C3  UNL     1      -0.354   7.758  12.415  1.00  0.00     0.128 C 
HETATM    4  C4  UNL     1       0.048   6.345  11.925  1.00  0.00     0.052 C 
HETATM    5  C5  UNL     1      -1.193   5.447  12.125  1.00  0.00     0.010 C 
HETATM    6  C6  UNL     1      -2.299   6.408  12.555  1.00  0.00     0.002 C 
HETATM    7  C7  UNL     1      -3.527   5.842  13.279  1.00  0.00    -0.004 C 
HETATM    8  C8  UNL     1      -4.226   4.767  12.437  1.00  0.00     0.010 C 
HETATM    9  C9  UNL     1      -5.464   4.231  13.146  1.00  0.00     0.035 C 
HETATM   10  C10 UNL     1      -6.425   5.334  13.526  1.00  0.00    -0.069 C 
HETATM   11  C11 UNL     1      -7.725   5.218  13.203  1.00  0.00     0.030 C 
HETATM   12  C12 UNL     1      -8.739   6.204  13.655  1.00  0.00     0.032 C 
HETATM   13  N1  UNL     1      -9.968   6.039  13.256  1.00  0.00    -0.271 N 
ATOM     14  H1  UNL     1     -10.270   5.298  12.624  1.00  0.00     0.194 HD
HETATM   15  C21 UNL     1      -8.284   7.293  14.601  1.00  0.00     0.060 C 
HETATM   16  C22 UNL     1      -6.853   7.706  14.290  1.00  0.00     0.020 C 
HETATM   17  C23 UNL     1      -5.839   6.525  14.292  1.00  0.00    -0.016 C 
HETATM   18  C24 UNL     1      -5.585   6.084  15.751  1.00  0.00     0.020 C 
HETATM   19  C25 UNL     1      -4.516   7.010  13.583  1.00  0.00     0.002 C 
HETATM   20  C26 UNL     1      -3.812   8.191  14.303  1.00  0.00     0.007 C 
HETATM   21  C27 UNL     1      -2.518   8.651  13.606  1.00  0.00     0.014 C 
HETATM   22  C28 UNL     1      -1.545   7.480  13.377  1.00  0.00     0.003 C 
HETATM   23  C29 UNL     1      -1.037   6.953  14.750  1.00  0.00     0.020 C 
ENDROOT
BRANCH   3  24
HETATM   24  O1  UNL     1      -0.803   8.502  11.279  1.00  0.00    -0.377 OA
HETATM   25  H2  UNL     1      -0.012   8.732  10.763  1.00  0.00     0.211 HD
ENDBRANCH   3  24
BRANCH  13  26
HETATM   26  O2  UNL     1     -10.826   7.003  13.801  1.00  0.00    -0.271 OA
BRANCH  26  27
HETATM   27  C13 UNL     1     -11.393   7.768  12.741  1.00  0.00     0.303 C 
BRANCH  27  28
HETATM   28  C14 UNL     1     -12.911   7.863  12.882  1.00  0.00     0.244 C 
HETATM   29  O3  UNL     1     -13.518   8.900  12.635  1.00  0.00    -0.271 OA
HETATM   30  N2  UNL     1     -13.519   6.695  13.296  1.00  0.00    -0.344 N 
HETATM   31  H16 UNL     1     -12.923   5.875  13.301  1.00  0.00     0.163 HD
BRANCH  30  32
HETATM   32  C15 UNL     1     -14.970   6.486  13.344  1.00  0.00     0.186 C 
BRANCH  32  33
HETATM   33  C16 UNL     1     -15.622   7.437  12.323  1.00  0.00     0.163 C 
HETATM   34  O4  UNL     1     -15.714   7.301  11.114  1.00  0.00    -0.648 OA
BRANCH  33  35
HETATM   35  O5  UNL     1     -16.185   8.519  12.909  1.00  0.00    -0.775 OA
HETATM   36  H18 UNL     1     -16.551   9.020  12.150  1.00  0.00     0.167 HD
ENDBRANCH  33  35
ENDBRANCH  32  33
BRANCH  32  37
HETATM   37  C17 UNL     1     -15.599   6.512  14.764  1.00  0.00     0.014 C 
HETATM   38  C18 UNL     1     -16.136   5.132  15.182  1.00  0.00     0.012 C 
BRANCH  37  39
HETATM   39  C19 UNL     1     -14.598   6.969  15.854  1.00  0.00     0.002 C 
HETATM   40  C20 UNL     1     -14.627   8.453  16.189  1.00  0.00     0.005 C 
ENDBRANCH  37  39
ENDBRANCH  32  37
ENDBRANCH  30  32
ENDBRANCH  27  28
ENDBRANCH  26  27
ENDBRANCH  13  26
TORSDOF 9
ENDMDL
MODEL 9
REMARK minimizedAffinity -8.61919022
REMARK  9 active torsions:
REMARK  status: ('A' for Active; 'I' for Inactive)
REMARK    1  A    between atoms: C3_3  and  O1_4 
REMARK    2  A    between atoms: N1_14  and  O2_16 
REMARK    3  A    between atoms: O2_16  and  C13_17 
REMARK    4  A    between atoms: C13_17  and  C14_18 
REMARK       I    between atoms: C14_18  and  N2_20 
REMARK    5  A    between atoms: N2_20  and  C15_21 
REMARK    6  A    between atoms: C15_21  and  C16_22 
REMARK    7  A    between atoms: C15_21  and  C17_25 
REMARK    8  A    between atoms: C16_22  and  O5_24 
REMARK    9  A    between atoms: C17_25  and  C19_27 
ROOT
HETATM    1  C1  UNL     1      -6.758   8.357  15.806  1.00  0.00     0.015 C 
HETATM    2  C2  UNL     1      -5.885   7.610  15.452  1.00  0.00    -0.078 C 
HETATM    3  C3  UNL     1      -4.815   6.691  15.037  1.00  0.00     0.128 C 
HETATM    4  C4  UNL     1      -5.359   5.452  14.282  1.00  0.00     0.052 C 
HETATM    5  C5  UNL     1      -4.287   5.075  13.237  1.00  0.00     0.010 C 
HETATM    6  C6  UNL     1      -3.108   5.996  13.545  1.00  0.00     0.002 C 
HETATM    7  C7  UNL     1      -2.056   6.237  12.454  1.00  0.00    -0.004 C 
HETATM    8  C8  UNL     1      -1.431   4.920  11.979  1.00  0.00     0.010 C 
HETATM    9  C9  UNL     1      -0.365   5.167  10.919  1.00  0.00     0.035 C 
HETATM   10  C10 UNL     1       0.697   6.132  11.394  1.00  0.00    -0.069 C 
HETATM   11  C11 UNL     1       1.995   5.805  11.262  1.00  0.00     0.030 C 
HETATM   12  C12 UNL     1       3.084   6.758  11.593  1.00  0.00     0.032 C 
HETATM   13  N1  UNL     1       4.313   6.340  11.480  1.00  0.00    -0.271 N 
ATOM     14  H1  UNL     1       4.572   5.390  11.215  1.00  0.00     0.194 HD
HETATM   15  C21 UNL     1       2.690   8.168  11.975  1.00  0.00     0.060 C 
HETATM   16  C22 UNL     1       1.373   8.165  12.737  1.00  0.00     0.020 C 
HETATM   17  C23 UNL     1       0.207   7.459  11.986  1.00  0.00    -0.016 C 
HETATM   18  C24 UNL     1      -0.260   8.363  10.823  1.00  0.00     0.020 C 
HETATM   19  C25 UNL     1      -0.950   7.181  13.021  1.00  0.00     0.002 C 
HETATM   20  C26 UNL     1      -1.552   8.465  13.652  1.00  0.00     0.007 C 
HETATM   21  C27 UNL     1      -2.686   8.181  14.654  1.00  0.00     0.014 C 
HETATM   22  C28 UNL     1      -3.785   7.296  14.039  1.00  0.00     0.003 C 
HETATM   23  C29 UNL     1      -4.507   8.079  12.905  1.00  0.00     0.020 C 
ENDROOT
BRANCH   3  24
HETATM   24  O1  UNL     1      -4.147   6.228  16.212  1.00  0.00    -0.377 OA
HETATM   25  H2  UNL     1      -4.838   5.952  16.839  1.00  0.00     0.211 HD
ENDBRANCH   3  24
BRANCH  13  26
HETATM   26  O2  UNL     1       5.236   7.354  11.767  1.00  0.00    -0.271 OA
BRANCH  26  27
HETATM   27  C13 UNL     1       6.052   6.940  12.858  1.00  0.00     0.303 C 
BRANCH  27  28
HETATM   28  C14 UNL     1       6.757   8.133  13.503  1.00  0.00     0.244 C 
HETATM   29  O3  UNL     1       6.254   9.252  13.510  1.00  0.00    -0.271 OA
HETATM   30  N2  UNL     1       7.980   7.833  14.070  1.00  0.00    -0.344 N 
HETATM   31  H16 UNL     1       8.194   6.845  14.139  1.00  0.00     0.163 HD
BRANCH  30  32
HETATM   32  C15 UNL     1       8.766   8.763  14.887  1.00  0.00     0.186 C 
BRANCH  32  33
HETATM   33  C16 UNL     1       8.376   8.546  16.362  1.00  0.00     0.163 C 
HETATM   34  O4  UNL     1       7.261   8.548  16.857  1.00  0.00    -0.648 OA
BRANCH  33  35
HETATM   35  O5  UNL     1       9.446   8.282  17.146  1.00  0.00    -0.775 OA
HETATM   36  H18 UNL     1       9.049   8.170  18.036  1.00  0.00     0.167 HD
ENDBRANCH  33  35
ENDBRANCH  32  33
BRANCH  32  37
HETATM   37  C17 UNL     1       8.752  10.242  14.413  1.00  0.00     0.014 C 
HETATM   38  C18 UNL     1       8.149  11.181  15.470  1.00  0.00     0.012 C 
BRANCH  37  39
HETATM   39  C19 UNL     1      10.168  10.774  14.074  1.00  0.00     0.002 C 
HETATM   40  C20 UNL     1      11.225   9.708  13.824  1.00  0.00     0.005 C 
ENDBRANCH  37  39
ENDBRANCH  32  37
ENDBRANCH  30  32
ENDBRANCH  27  28
ENDBRANCH  26  27
ENDBRANCH  13  26
TORSDOF 9
ENDMDL
