MODEL 1
REMARK minimizedAffinity -6.45414019
REMARK CNNscore 0.780638039
REMARK CNNaffinity 7.11222839
REMARK  16 active torsions:
REMARK  status: ('A' for Active; 'I' for Inactive)
REMARK    1  A    between atoms: C2_2  and  C3_3 
REMARK    2  A    between atoms: C3_3  and  C4_4 
REMARK    3  A    between atoms: C4_4  and  C5_5 
REMARK    4  A    between atoms: C5_5  and  C6_6 
REMARK    5  A    between atoms: C6_6  and  C7_7 
REMARK    6  A    between atoms: C7_7  and  C8_8 
REMARK    7  A    between atoms: C8_8  and  N1_9 
REMARK    8  A    between atoms: N1_9  and  C9_10 
REMARK    9  A    between atoms: N1_9  and  C11_12 
REMARK   10  A    between atoms: N1_9  and  C13_14 
REMARK   11  A    between atoms: C13_14  and  C14_15 
REMARK   12  A    between atoms: C14_15  and  O1_16 
REMARK   13  A    between atoms: O1_16  and  C15_17 
REMARK   14  A    between atoms: C15_17  and  C16_19 
REMARK   15  A    between atoms: C16_19  and  C17_20 
REMARK   16  A    between atoms: C16_19  and  C22_25 
ROOT
HETATM    1  C14 UNL     1      -3.601   6.512  14.952  1.00  0.00     0.206 C 
ENDROOT
BRANCH   1   2
HETATM    2  C13 UNL     1      -2.324   5.694  14.688  1.00  0.00     0.264 C 
BRANCH   2   3
HETATM    3  N1  UNL     1      -1.353   6.230  13.560  1.00  0.00    -0.066 N 
BRANCH   3   4
HETATM    4  C8  UNL     1       0.070   5.676  13.823  1.00  0.00     0.237 C 
BRANCH   4   5
HETATM    5  C7  UNL     1       1.004   5.676  12.615  1.00  0.00     0.028 C 
BRANCH   5   6
HETATM    6  C6  UNL     1       0.213   5.926  11.325  1.00  0.00     0.002 C 
BRANCH   6   7
HETATM    7  C5  UNL     1       1.076   6.446  10.170  1.00  0.00     0.000 C 
BRANCH   7   8
HETATM    8  C4  UNL     1       0.462   7.648   9.445  1.00  0.00     0.000 C 
BRANCH   8   9
HETATM    9  C3  UNL     1       1.475   8.430   8.603  1.00  0.00    -0.000 C 
BRANCH   9  10
HETATM   10  C2  UNL     1       2.410   7.537   7.785  1.00  0.00    -0.005 C 
HETATM   11  C1  UNL     1       1.769   7.118   6.471  1.00  0.00     0.005 C 
ENDBRANCH   9  10
ENDBRANCH   8   9
ENDBRANCH   7   8
ENDBRANCH   6   7
ENDBRANCH   5   6
ENDBRANCH   4   5
ENDBRANCH   3   4
BRANCH   3  12
HETATM   12  C9  UNL     1      -1.943   5.614  12.236  1.00  0.00     0.233 C 
HETATM   13  C10 UNL     1      -2.581   4.238  12.373  1.00  0.00     0.035 C 
ENDBRANCH   3  12
BRANCH   3  14
HETATM   14  C11 UNL     1      -1.419   7.772  13.483  1.00  0.00     0.233 C 
HETATM   15  C12 UNL     1      -2.005   8.332  12.201  1.00  0.00     0.035 C 
ENDBRANCH   3  14
ENDBRANCH   2   3
ENDBRANCH   1   2
BRANCH   1  16
HETATM   16  O1  UNL     1      -4.766   5.838  14.438  1.00  0.00    -0.319 OA
BRANCH  16  17
HETATM   17  C15 UNL     1      -5.600   6.611  13.688  1.00  0.00     0.263 C 
HETATM   18  O2  UNL     1      -5.316   7.747  13.332  1.00  0.00    -0.265 OA
BRANCH  17  19
HETATM   19  C16 UNL     1      -6.908   5.907  13.348  1.00  0.00     0.093 C 
BRANCH  19  20
HETATM   20  C17 UNL     1      -8.043   6.326  14.326  1.00  0.00    -0.001 C 
HETATM   21  C18 UNL     1      -7.868   7.720  14.941  1.00  0.00     0.005 C 
HETATM   22  C19 UNL     1      -6.876   7.524  16.082  1.00  0.00     0.000 C 
HETATM   23  C20 UNL     1      -7.047   6.074  16.535  1.00  0.00     0.000 C 
HETATM   24  C21 UNL     1      -8.082   5.459  15.595  1.00  0.00     0.005 C 
ENDBRANCH  19  20
BRANCH  19  25
HETATM   25  C22 UNL     1      -6.720   4.379  13.226  1.00  0.00    -0.001 C 
HETATM   26  C23 UNL     1      -8.009   3.566  13.086  1.00  0.00     0.005 C 
HETATM   27  C24 UNL     1      -7.504   2.174  12.731  1.00  0.00     0.000 C 
HETATM   28  C25 UNL     1      -6.220   2.393  11.932  1.00  0.00     0.000 C 
HETATM   29  C26 UNL     1      -5.894   3.883  12.038  1.00  0.00     0.005 C 
ENDBRANCH  19  25
ENDBRANCH  17  19
ENDBRANCH  16  17
ENDBRANCH   1  16
TORSDOF 16
ENDMDL
MODEL 2
REMARK minimizedAffinity -6.36297607
REMARK CNNscore 0.63536936
REMARK CNNaffinity 6.63810587
REMARK  16 active torsions:
REMARK  status: ('A' for Active; 'I' for Inactive)
REMARK    1  A    between atoms: C2_2  and  C3_3 
REMARK    2  A    between atoms: C3_3  and  C4_4 
REMARK    3  A    between atoms: C4_4  and  C5_5 
REMARK    4  A    between atoms: C5_5  and  C6_6 
REMARK    5  A    between atoms: C6_6  and  C7_7 
REMARK    6  A    between atoms: C7_7  and  C8_8 
REMARK    7  A    between atoms: C8_8  and  N1_9 
REMARK    8  A    between atoms: N1_9  and  C9_10 
REMARK    9  A    between atoms: N1_9  and  C11_12 
REMARK   10  A    between atoms: N1_9  and  C13_14 
REMARK   11  A    between atoms: C13_14  and  C14_15 
REMARK   12  A    between atoms: C14_15  and  O1_16 
REMARK   13  A    between atoms: O1_16  and  C15_17 
REMARK   14  A    between atoms: C15_17  and  C16_19 
REMARK   15  A    between atoms: C16_19  and  C17_20 
REMARK   16  A    between atoms: C16_19  and  C22_25 
ROOT
HETATM    1  C14 UNL     1      -3.079   5.708  13.499  1.00  0.00     0.206 C 
ENDROOT
BRANCH   1   2
HETATM    2  C13 UNL     1      -2.021   6.644  12.886  1.00  0.00     0.264 C 
BRANCH   2   3
HETATM    3  N1  UNL     1      -0.623   6.721  13.623  1.00  0.00    -0.066 N 
BRANCH   3   4
HETATM    4  C8  UNL     1       0.187   7.903  13.034  1.00  0.00     0.237 C 
BRANCH   4   5
HETATM    5  C7  UNL     1      -0.250   8.365  11.647  1.00  0.00     0.028 C 
BRANCH   5   6
HETATM    6  C6  UNL     1       0.956   8.444  10.703  1.00  0.00     0.002 C 
BRANCH   6   7
HETATM    7  C5  UNL     1       0.885   7.453   9.535  1.00  0.00     0.000 C 
BRANCH   7   8
HETATM    8  C4  UNL     1       0.944   8.127   8.161  1.00  0.00     0.000 C 
BRANCH   8   9
HETATM    9  C3  UNL     1       1.885   7.421   7.180  1.00  0.00    -0.000 C 
BRANCH   9  10
HETATM   10  C2  UNL     1       2.589   6.202   7.776  1.00  0.00    -0.005 C 
HETATM   11  C1  UNL     1       2.934   5.180   6.703  1.00  0.00     0.005 C 
ENDBRANCH   9  10
ENDBRANCH   8   9
ENDBRANCH   7   8
ENDBRANCH   6   7
ENDBRANCH   5   6
ENDBRANCH   4   5
ENDBRANCH   3   4
BRANCH   3  12
HETATM   12  C9  UNL     1      -1.008   7.014  15.122  1.00  0.00     0.233 C 
HETATM   13  C10 UNL     1      -1.572   8.401  15.401  1.00  0.00     0.035 C 
ENDBRANCH   3  12
BRANCH   3  14
HETATM   14  C11 UNL     1       0.104   5.360  13.538  1.00  0.00     0.233 C 
HETATM   15  C12 UNL     1       0.231   4.778  12.143  1.00  0.00     0.035 C 
ENDBRANCH   3  14
ENDBRANCH   2   3
ENDBRANCH   1   2
BRANCH   1  16
HETATM   16  O1  UNL     1      -4.363   5.893  12.870  1.00  0.00    -0.319 OA
BRANCH  16  17
HETATM   17  C15 UNL     1      -5.064   6.982  13.291  1.00  0.00     0.263 C 
HETATM   18  O2  UNL     1      -4.647   8.128  13.178  1.00  0.00    -0.265 OA
BRANCH  17  19
HETATM   19  C16 UNL     1      -6.408   6.615  13.907  1.00  0.00     0.093 C 
BRANCH  19  20
HETATM   20  C17 UNL     1      -6.534   7.172  15.354  1.00  0.00    -0.001 C 
HETATM   21  C18 UNL     1      -7.335   6.281  16.310  1.00  0.00     0.005 C 
HETATM   22  C19 UNL     1      -8.796   6.586  16.001  1.00  0.00     0.000 C 
HETATM   23  C20 UNL     1      -8.815   8.018  15.468  1.00  0.00     0.000 C 
HETATM   24  C21 UNL     1      -7.358   8.469  15.419  1.00  0.00     0.005 C 
ENDBRANCH  19  20
BRANCH  19  25
HETATM   25  C22 UNL     1      -6.695   5.102  13.792  1.00  0.00    -0.001 C 
HETATM   26  C23 UNL     1      -8.074   4.734  13.238  1.00  0.00     0.005 C 
HETATM   27  C24 UNL     1      -7.964   3.233  13.002  1.00  0.00     0.000 C 
HETATM   28  C25 UNL     1      -6.501   2.980  12.639  1.00  0.00     0.000 C 
HETATM   29  C26 UNL     1      -5.759   4.293  12.893  1.00  0.00     0.005 C 
ENDBRANCH  19  25
ENDBRANCH  17  19
ENDBRANCH  16  17
ENDBRANCH   1  16
TORSDOF 16
ENDMDL
MODEL 3
REMARK minimizedAffinity -6.45071793
REMARK CNNscore 0.557285249
REMARK CNNaffinity 6.51144743
REMARK  16 active torsions:
REMARK  status: ('A' for Active; 'I' for Inactive)
REMARK    1  A    between atoms: C2_2  and  C3_3 
REMARK    2  A    between atoms: C3_3  and  C4_4 
REMARK    3  A    between atoms: C4_4  and  C5_5 
REMARK    4  A    between atoms: C5_5  and  C6_6 
REMARK    5  A    between atoms: C6_6  and  C7_7 
REMARK    6  A    between atoms: C7_7  and  C8_8 
REMARK    7  A    between atoms: C8_8  and  N1_9 
REMARK    8  A    between atoms: N1_9  and  C9_10 
REMARK    9  A    between atoms: N1_9  and  C11_12 
REMARK   10  A    between atoms: N1_9  and  C13_14 
REMARK   11  A    between atoms: C13_14  and  C14_15 
REMARK   12  A    between atoms: C14_15  and  O1_16 
REMARK   13  A    between atoms: O1_16  and  C15_17 
REMARK   14  A    between atoms: C15_17  and  C16_19 
REMARK   15  A    between atoms: C16_19  and  C17_20 
REMARK   16  A    between atoms: C16_19  and  C22_25 
ROOT
HETATM    1  C14 UNL     1      -3.592   6.205  14.991  1.00  0.00     0.206 C 
ENDROOT
BRANCH   1   2
HETATM    2  C13 UNL     1      -2.365   5.588  14.293  1.00  0.00     0.264 C 
BRANCH   2   3
HETATM    3  N1  UNL     1      -1.172   6.569  13.948  1.00  0.00    -0.066 N 
BRANCH   3   4
HETATM    4  C8  UNL     1       0.121   5.735  13.767  1.00  0.00     0.237 C 
BRANCH   4   5
HETATM    5  C7  UNL     1       1.160   6.340  12.827  1.00  0.00     0.028 C 
BRANCH   5   6
HETATM    6  C6  UNL     1       1.312   5.478  11.567  1.00  0.00     0.002 C 
BRANCH   6   7
HETATM    7  C5  UNL     1       1.168   6.270  10.263  1.00  0.00     0.000 C 
BRANCH   7   8
HETATM    8  C4  UNL     1       2.420   6.227   9.383  1.00  0.00     0.000 C 
BRANCH   8   9
HETATM    9  C3  UNL     1       2.996   7.614   9.080  1.00  0.00    -0.000 C 
BRANCH   9  10
HETATM   10  C2  UNL     1       2.503   8.205   7.758  1.00  0.00    -0.005 C 
HETATM   11  C1  UNL     1       1.949   7.126   6.840  1.00  0.00     0.005 C 
ENDBRANCH   9  10
ENDBRANCH   8   9
ENDBRANCH   7   8
ENDBRANCH   6   7
ENDBRANCH   5   6
ENDBRANCH   4   5
ENDBRANCH   3   4
BRANCH   3  12
HETATM   12  C9  UNL     1      -1.604   7.212  12.576  1.00  0.00     0.233 C 
HETATM   13  C10 UNL     1      -1.754   8.728  12.574  1.00  0.00     0.035 C 
ENDBRANCH   3  12
BRANCH   3  14
HETATM   14  C11 UNL     1      -1.059   7.675  15.021  1.00  0.00     0.233 C 
HETATM   15  C12 UNL     1       0.129   7.554  15.955  1.00  0.00     0.035 C 
ENDBRANCH   3  14
ENDBRANCH   2   3
ENDBRANCH   1   2
BRANCH   1  16
HETATM   16  O1  UNL     1      -4.818   5.670  14.456  1.00  0.00    -0.319 OA
BRANCH  16  17
HETATM   17  C15 UNL     1      -5.508   6.508  13.634  1.00  0.00     0.263 C 
HETATM   18  O2  UNL     1      -4.995   7.475  13.085  1.00  0.00    -0.265 OA
BRANCH  17  19
HETATM   19  C16 UNL     1      -6.970   6.109  13.479  1.00  0.00     0.093 C 
BRANCH  19  20
HETATM   20  C17 UNL     1      -7.726   6.204  14.835  1.00  0.00    -0.001 C 
HETATM   21  C18 UNL     1      -9.192   6.637  14.716  1.00  0.00     0.005 C 
HETATM   22  C19 UNL     1      -9.142   8.153  14.570  1.00  0.00     0.000 C 
HETATM   23  C20 UNL     1      -7.861   8.596  15.274  1.00  0.00     0.000 C 
HETATM   24  C21 UNL     1      -7.175   7.316  15.744  1.00  0.00     0.005 C 
ENDBRANCH  19  20
BRANCH  19  25
HETATM   25  C22 UNL     1      -7.118   4.743  12.774  1.00  0.00    -0.001 C 
HETATM   26  C23 UNL     1      -5.809   4.093  12.317  1.00  0.00     0.005 C 
HETATM   27  C24 UNL     1      -6.242   2.690  11.912  1.00  0.00     0.000 C 
HETATM   28  C25 UNL     1      -7.412   2.340  12.831  1.00  0.00     0.000 C 
HETATM   29  C26 UNL     1      -7.771   3.622  13.583  1.00  0.00     0.005 C 
ENDBRANCH  19  25
ENDBRANCH  17  19
ENDBRANCH  16  17
ENDBRANCH   1  16
TORSDOF 16
ENDMDL
MODEL 4
REMARK minimizedAffinity -5.04136801
REMARK CNNscore 0.384603113
REMARK CNNaffinity 5.98539543
REMARK  16 active torsions:
REMARK  status: ('A' for Active; 'I' for Inactive)
REMARK    1  A    between atoms: C2_2  and  C3_3 
REMARK    2  A    between atoms: C3_3  and  C4_4 
REMARK    3  A    between atoms: C4_4  and  C5_5 
REMARK    4  A    between atoms: C5_5  and  C6_6 
REMARK    5  A    between atoms: C6_6  and  C7_7 
REMARK    6  A    between atoms: C7_7  and  C8_8 
REMARK    7  A    between atoms: C8_8  and  N1_9 
REMARK    8  A    between atoms: N1_9  and  C9_10 
REMARK    9  A    between atoms: N1_9  and  C11_12 
REMARK   10  A    between atoms: N1_9  and  C13_14 
REMARK   11  A    between atoms: C13_14  and  C14_15 
REMARK   12  A    between atoms: C14_15  and  O1_16 
REMARK   13  A    between atoms: O1_16  and  C15_17 
REMARK   14  A    between atoms: C15_17  and  C16_19 
REMARK   15  A    between atoms: C16_19  and  C17_20 
REMARK   16  A    between atoms: C16_19  and  C22_25 
ROOT
HETATM    1  C14 UNL     1      -1.047   8.788  13.889  1.00  0.00     0.206 C 
ENDROOT
BRANCH   1   2
HETATM    2  C13 UNL     1      -0.324   9.418  15.094  1.00  0.00     0.264 C 
BRANCH   2   3
HETATM    3  N1  UNL     1      -1.172  10.398  16.001  1.00  0.00    -0.066 N 
BRANCH   3   4
HETATM    4  C8  UNL     1      -0.288  10.873  17.183  1.00  0.00     0.237 C 
BRANCH   4   5
HETATM    5  C7  UNL     1      -0.479  12.330  17.595  1.00  0.00     0.028 C 
BRANCH   5   6
HETATM    6  C6  UNL     1      -0.672  12.438  19.112  1.00  0.00     0.002 C 
BRANCH   6   7
HETATM    7  C5  UNL     1      -0.123  11.234  19.887  1.00  0.00     0.000 C 
BRANCH   7   8
HETATM    8  C4  UNL     1       1.198  11.525  20.606  1.00  0.00     0.000 C 
BRANCH   8   9
HETATM    9  C3  UNL     1       1.989  10.260  20.954  1.00  0.00    -0.000 C 
BRANCH   9  10
HETATM   10  C2  UNL     1       3.463  10.526  21.263  1.00  0.00    -0.005 C 
HETATM   11  C1  UNL     1       3.989   9.569  22.323  1.00  0.00     0.005 C 
ENDBRANCH   9  10
ENDBRANCH   8   9
ENDBRANCH   7   8
ENDBRANCH   6   7
ENDBRANCH   5   6
ENDBRANCH   4   5
ENDBRANCH   3   4
BRANCH   3  12
HETATM   12  C9  UNL     1      -1.498  11.605  15.044  1.00  0.00     0.233 C 
HETATM   13  C10 UNL     1      -2.974  11.946  14.887  1.00  0.00     0.035 C 
ENDBRANCH   3  12
BRANCH   3  14
HETATM   14  C11 UNL     1      -2.490   9.719  16.439  1.00  0.00     0.233 C 
HETATM   15  C12 UNL     1      -2.848   9.881  17.903  1.00  0.00     0.035 C 
ENDBRANCH   3  14
ENDBRANCH   2   3
ENDBRANCH   1   2
BRANCH   1  16
HETATM   16  O1  UNL     1      -0.352   9.073  12.659  1.00  0.00    -0.319 OA
BRANCH  16  17
HETATM   17  C15 UNL     1       0.522   8.112  12.249  1.00  0.00     0.263 C 
HETATM   18  O2  UNL     1       1.575   7.878  12.828  1.00  0.00    -0.265 OA
BRANCH  17  19
HETATM   19  C16 UNL     1       0.043   7.372  11.006  1.00  0.00     0.093 C 
BRANCH  19  20
HETATM   20  C17 UNL     1      -0.142   5.854  11.292  1.00  0.00    -0.001 C 
HETATM   21  C18 UNL     1      -1.486   5.489  11.934  1.00  0.00     0.005 C 
HETATM   22  C19 UNL     1      -1.314   5.807  13.414  1.00  0.00     0.000 C 
HETATM   23  C20 UNL     1       0.180   5.659  13.699  1.00  0.00     0.000 C 
HETATM   24  C21 UNL     1       0.833   5.329  12.359  1.00  0.00     0.005 C 
ENDBRANCH  19  20
BRANCH  19  25
HETATM   25  C22 UNL     1       0.935   7.674   9.782  1.00  0.00    -0.001 C 
HETATM   26  C23 UNL     1       1.750   6.491   9.253  1.00  0.00     0.005 C 
HETATM   27  C24 UNL     1       2.302   7.013   7.933  1.00  0.00     0.000 C 
HETATM   28  C25 UNL     1       1.246   7.981   7.399  1.00  0.00     0.000 C 
HETATM   29  C26 UNL     1       0.223   8.167   8.521  1.00  0.00     0.005 C 
ENDBRANCH  19  25
ENDBRANCH  17  19
ENDBRANCH  16  17
ENDBRANCH   1  16
TORSDOF 16
ENDMDL
MODEL 5
REMARK minimizedAffinity -6.11500645
REMARK CNNscore 0.316987932
REMARK CNNaffinity 6.24457216
REMARK  16 active torsions:
REMARK  status: ('A' for Active; 'I' for Inactive)
REMARK    1  A    between atoms: C2_2  and  C3_3 
REMARK    2  A    between atoms: C3_3  and  C4_4 
REMARK    3  A    between atoms: C4_4  and  C5_5 
REMARK    4  A    between atoms: C5_5  and  C6_6 
REMARK    5  A    between atoms: C6_6  and  C7_7 
REMARK    6  A    between atoms: C7_7  and  C8_8 
REMARK    7  A    between atoms: C8_8  and  N1_9 
REMARK    8  A    between atoms: N1_9  and  C9_10 
REMARK    9  A    between atoms: N1_9  and  C11_12 
REMARK   10  A    between atoms: N1_9  and  C13_14 
REMARK   11  A    between atoms: C13_14  and  C14_15 
REMARK   12  A    between atoms: C14_15  and  O1_16 
REMARK   13  A    between atoms: O1_16  and  C15_17 
REMARK   14  A    between atoms: C15_17  and  C16_19 
REMARK   15  A    between atoms: C16_19  and  C17_20 
REMARK   16  A    between atoms: C16_19  and  C22_25 
ROOT
HETATM    1  C14 UNL     1      -1.411   5.000  12.904  1.00  0.00     0.206 C 
ENDROOT
BRANCH   1   2
HETATM    2  C13 UNL     1      -1.181   6.410  12.328  1.00  0.00     0.264 C 
BRANCH   2   3
HETATM    3  N1  UNL     1       0.182   7.120  12.700  1.00  0.00    -0.066 N 
BRANCH   3   4
HETATM    4  C8  UNL     1       0.474   8.222  11.650  1.00  0.00     0.237 C 
BRANCH   4   5
HETATM    5  C7  UNL     1      -0.705   8.601  10.758  1.00  0.00     0.028 C 
BRANCH   5   6
HETATM    6  C6  UNL     1      -0.267   8.674   9.290  1.00  0.00     0.002 C 
BRANCH   6   7
HETATM    7  C5  UNL     1       0.858   7.694   8.938  1.00  0.00     0.000 C 
BRANCH   7   8
HETATM    8  C4  UNL     1       1.695   8.135   7.734  1.00  0.00     0.000 C 
BRANCH   8   9
HETATM    9  C3  UNL     1       3.137   8.503   8.099  1.00  0.00    -0.000 C 
BRANCH   9  10
HETATM   10  C2  UNL     1       3.587   7.947   9.451  1.00  0.00    -0.005 C 
HETATM   11  C1  UNL     1       4.751   8.744  10.019  1.00  0.00     0.005 C 
ENDBRANCH   9  10
ENDBRANCH   8   9
ENDBRANCH   7   8
ENDBRANCH   6   7
ENDBRANCH   5   6
ENDBRANCH   4   5
ENDBRANCH   3   4
BRANCH   3  12
HETATM   12  C9  UNL     1      -0.107   7.769  14.106  1.00  0.00     0.233 C 
HETATM   13  C10 UNL     1       0.685   7.198  15.275  1.00  0.00     0.035 C 
ENDBRANCH   3  12
BRANCH   3  14
HETATM   14  C11 UNL     1       1.311   6.074  12.841  1.00  0.00     0.233 C 
HETATM   15  C12 UNL     1       1.848   5.520  11.535  1.00  0.00     0.035 C 
ENDBRANCH   3  14
ENDBRANCH   2   3
ENDBRANCH   1   2
BRANCH   1  16
HETATM   16  O1  UNL     1      -2.706   4.898  13.526  1.00  0.00    -0.319 OA
BRANCH  16  17
HETATM   17  C15 UNL     1      -3.735   4.605  12.681  1.00  0.00     0.263 C 
HETATM   18  O2  UNL     1      -3.564   4.188  11.543  1.00  0.00    -0.265 OA
BRANCH  17  19
HETATM   19  C16 UNL     1      -5.100   4.852  13.309  1.00  0.00     0.093 C 
BRANCH  19  20
HETATM   20  C17 UNL     1      -6.244   4.605  12.284  1.00  0.00    -0.001 C 
HETATM   21  C18 UNL     1      -7.653   4.619  12.888  1.00  0.00     0.005 C 
HETATM   22  C19 UNL     1      -7.828   3.237  13.507  1.00  0.00     0.000 C 
HETATM   23  C20 UNL     1      -6.927   2.304  12.699  1.00  0.00     0.000 C 
HETATM   24  C21 UNL     1      -6.206   3.189  11.685  1.00  0.00     0.005 C 
ENDBRANCH  19  20
BRANCH  19  25
HETATM   25  C22 UNL     1      -5.170   6.230  14.004  1.00  0.00    -0.001 C 
HETATM   26  C23 UNL     1      -4.764   7.425  13.138  1.00  0.00     0.005 C 
HETATM   27  C24 UNL     1      -5.176   8.622  13.985  1.00  0.00     0.000 C 
HETATM   28  C25 UNL     1      -6.406   8.167  14.770  1.00  0.00     0.000 C 
HETATM   29  C26 UNL     1      -6.538   6.662  14.533  1.00  0.00     0.005 C 
ENDBRANCH  19  25
ENDBRANCH  17  19
ENDBRANCH  16  17
ENDBRANCH   1  16
TORSDOF 16
ENDMDL
MODEL 6
REMARK minimizedAffinity -6.46643305
REMARK CNNscore 0.316152573
REMARK CNNaffinity 6.24162674
REMARK  16 active torsions:
REMARK  status: ('A' for Active; 'I' for Inactive)
REMARK    1  A    between atoms: C2_2  and  C3_3 
REMARK    2  A    between atoms: C3_3  and  C4_4 
REMARK    3  A    between atoms: C4_4  and  C5_5 
REMARK    4  A    between atoms: C5_5  and  C6_6 
REMARK    5  A    between atoms: C6_6  and  C7_7 
REMARK    6  A    between atoms: C7_7  and  C8_8 
REMARK    7  A    between atoms: C8_8  and  N1_9 
REMARK    8  A    between atoms: N1_9  and  C9_10 
REMARK    9  A    between atoms: N1_9  and  C11_12 
REMARK   10  A    between atoms: N1_9  and  C13_14 
REMARK   11  A    between atoms: C13_14  and  C14_15 
REMARK   12  A    between atoms: C14_15  and  O1_16 
REMARK   13  A    between atoms: O1_16  and  C15_17 
REMARK   14  A    between atoms: C15_17  and  C16_19 
REMARK   15  A    between atoms: C16_19  and  C17_20 
REMARK   16  A    between atoms: C16_19  and  C22_25 
ROOT
HETATM    1  C14 UNL     1      -2.792   7.111  13.537  1.00  0.00     0.206 C 
ENDROOT
BRANCH   1   2
HETATM    2  C13 UNL     1      -1.550   6.453  14.166  1.00  0.00     0.264 C 
BRANCH   2   3
HETATM    3  N1  UNL     1      -0.153   6.786  13.503  1.00  0.00    -0.066 N 
BRANCH   3   4
HETATM    4  C8  UNL     1       0.269   5.597  12.604  1.00  0.00     0.237 C 
BRANCH   4   5
HETATM    5  C7  UNL     1      -0.140   5.711  11.138  1.00  0.00     0.028 C 
BRANCH   5   6
HETATM    6  C6  UNL     1       0.931   6.463  10.338  1.00  0.00     0.002 C 
BRANCH   6   7
HETATM    7  C5  UNL     1       2.239   5.678  10.178  1.00  0.00     0.000 C 
BRANCH   7   8
HETATM    8  C4  UNL     1       3.032   6.066   8.927  1.00  0.00     0.000 C 
BRANCH   8   9
HETATM    9  C3  UNL     1       3.345   7.564   8.849  1.00  0.00    -0.000 C 
BRANCH   9  10
HETATM   10  C2  UNL     1       2.650   8.275   7.687  1.00  0.00    -0.005 C 
HETATM   11  C1  UNL     1       1.929   7.286   6.783  1.00  0.00     0.005 C 
ENDBRANCH   9  10
ENDBRANCH   8   9
ENDBRANCH   7   8
ENDBRANCH   6   7
ENDBRANCH   5   6
ENDBRANCH   4   5
ENDBRANCH   3   4
BRANCH   3  12
HETATM   12  C9  UNL     1      -0.451   8.058  12.623  1.00  0.00     0.233 C 
HETATM   13  C10 UNL     1       0.483   9.242  12.831  1.00  0.00     0.035 C 
ENDBRANCH   3  12
BRANCH   3  14
HETATM   14  C11 UNL     1       0.884   7.148  14.591  1.00  0.00     0.233 C 
HETATM   15  C12 UNL     1       0.320   7.352  15.983  1.00  0.00     0.035 C 
ENDBRANCH   3  14
ENDBRANCH   2   3
ENDBRANCH   1   2
BRANCH   1  16
HETATM   16  O1  UNL     1      -3.628   6.131  12.891  1.00  0.00    -0.319 OA
BRANCH  16  17
HETATM   17  C15 UNL     1      -4.628   5.621  13.663  1.00  0.00     0.263 C 
HETATM   18  O2  UNL     1      -4.655   5.737  14.881  1.00  0.00    -0.265 OA
BRANCH  17  19
HETATM   19  C16 UNL     1      -5.693   4.900  12.846  1.00  0.00     0.093 C 
BRANCH  19  20
HETATM   20  C17 UNL     1      -6.898   4.482  13.737  1.00  0.00    -0.001 C 
HETATM   21  C18 UNL     1      -8.196   4.216  12.965  1.00  0.00     0.005 C 
HETATM   22  C19 UNL     1      -8.788   5.596  12.707  1.00  0.00     0.000 C 
HETATM   23  C20 UNL     1      -8.281   6.484  13.841  1.00  0.00     0.000 C 
HETATM   24  C21 UNL     1      -7.355   5.607  14.680  1.00  0.00     0.005 C 
ENDBRANCH  19  20
BRANCH  19  25
HETATM   25  C22 UNL     1      -5.093   3.741  12.020  1.00  0.00    -0.001 C 
HETATM   26  C23 UNL     1      -3.840   3.090  12.613  1.00  0.00     0.005 C 
HETATM   27  C24 UNL     1      -3.647   1.855  11.742  1.00  0.00     0.000 C 
HETATM   28  C25 UNL     1      -5.052   1.420  11.327  1.00  0.00     0.000 C 
HETATM   29  C26 UNL     1      -5.999   2.534  11.774  1.00  0.00     0.005 C 
ENDBRANCH  19  25
ENDBRANCH  17  19
ENDBRANCH  16  17
ENDBRANCH   1  16
TORSDOF 16
ENDMDL
MODEL 7
REMARK minimizedAffinity -6.60273504
REMARK CNNscore 0.250881791
REMARK CNNaffinity 6.14638662
REMARK  16 active torsions:
REMARK  status: ('A' for Active; 'I' for Inactive)
REMARK    1  A    between atoms: C2_2  and  C3_3 
REMARK    2  A    between atoms: C3_3  and  C4_4 
REMARK    3  A    between atoms: C4_4  and  C5_5 
REMARK    4  A    between atoms: C5_5  and  C6_6 
REMARK    5  A    between atoms: C6_6  and  C7_7 
REMARK    6  A    between atoms: C7_7  and  C8_8 
REMARK    7  A    between atoms: C8_8  and  N1_9 
REMARK    8  A    between atoms: N1_9  and  C9_10 
REMARK    9  A    between atoms: N1_9  and  C11_12 
REMARK   10  A    between atoms: N1_9  and  C13_14 
REMARK   11  A    between atoms: C13_14  and  C14_15 
REMARK   12  A    between atoms: C14_15  and  O1_16 
REMARK   13  A    between atoms: O1_16  and  C15_17 
REMARK   14  A    between atoms: C15_17  and  C16_19 
REMARK   15  A    between atoms: C16_19  and  C17_20 
REMARK   16  A    between atoms: C16_19  and  C22_25 
ROOT
HETATM    1  C14 UNL     1      -1.790   5.950  14.463  1.00  0.00     0.206 C 
ENDROOT
BRANCH   1   2
HETATM    2  C13 UNL     1      -0.468   5.825  13.685  1.00  0.00     0.264 C 
BRANCH   2   3
HETATM    3  N1  UNL     1       0.133   7.157  13.078  1.00  0.00    -0.066 N 
BRANCH   3   4
HETATM    4  C8  UNL     1       1.635   7.239  13.447  1.00  0.00     0.237 C 
BRANCH   4   5
HETATM    5  C7  UNL     1       2.541   7.825  12.368  1.00  0.00     0.028 C 
BRANCH   5   6
HETATM    6  C6  UNL     1       3.392   6.724  11.724  1.00  0.00     0.002 C 
BRANCH   6   7
HETATM    7  C5  UNL     1       4.123   7.178  10.455  1.00  0.00     0.000 C 
BRANCH   7   8
HETATM    8  C4  UNL     1       3.336   6.905   9.170  1.00  0.00     0.000 C 
BRANCH   8   9
HETATM    9  C3  UNL     1       2.705   8.164   8.566  1.00  0.00    -0.000 C 
BRANCH   9  10
HETATM   10  C2  UNL     1       1.452   7.883   7.735  1.00  0.00    -0.005 C 
HETATM   11  C1  UNL     1       1.779   7.052   6.503  1.00  0.00     0.005 C 
ENDBRANCH   9  10
ENDBRANCH   8   9
ENDBRANCH   7   8
ENDBRANCH   6   7
ENDBRANCH   5   6
ENDBRANCH   4   5
ENDBRANCH   3   4
BRANCH   3  12
HETATM   12  C9  UNL     1      -0.038   6.969  11.523  1.00  0.00     0.233 C 
HETATM   13  C10 UNL     1      -0.035   5.529  11.026  1.00  0.00     0.035 C 
ENDBRANCH   3  12
BRANCH   3  14
HETATM   14  C11 UNL     1      -0.694   8.378  13.541  1.00  0.00     0.233 C 
HETATM   15  C12 UNL     1      -1.444   9.107  12.444  1.00  0.00     0.035 C 
ENDBRANCH   3  14
ENDBRANCH   2   3
ENDBRANCH   1   2
BRANCH   1  16
HETATM   16  O1  UNL     1      -2.708   4.900  14.102  1.00  0.00    -0.319 OA
BRANCH  16  17
HETATM   17  C15 UNL     1      -3.647   5.243  13.175  1.00  0.00     0.263 C 
HETATM   18  O2  UNL     1      -3.653   6.324  12.601  1.00  0.00    -0.265 OA
BRANCH  17  19
HETATM   19  C16 UNL     1      -4.670   4.140  12.939  1.00  0.00     0.093 C 
BRANCH  19  20
HETATM   20  C17 UNL     1      -4.586   3.598  11.483  1.00  0.00    -0.001 C 
HETATM   21  C18 UNL     1      -4.945   2.114  11.336  1.00  0.00     0.005 C 
HETATM   22  C19 UNL     1      -3.686   1.363  11.753  1.00  0.00     0.000 C 
HETATM   23  C20 UNL     1      -2.522   2.305  11.449  1.00  0.00     0.000 C 
HETATM   24  C21 UNL     1      -3.150   3.597  10.933  1.00  0.00     0.005 C 
ENDBRANCH  19  20
BRANCH  19  25
HETATM   25  C22 UNL     1      -6.089   4.576  13.363  1.00  0.00    -0.001 C 
HETATM   26  C23 UNL     1      -6.247   6.060  13.705  1.00  0.00     0.005 C 
HETATM   27  C24 UNL     1      -7.756   6.230  13.824  1.00  0.00     0.000 C 
HETATM   28  C25 UNL     1      -8.361   5.232  12.837  1.00  0.00     0.000 C 
HETATM   29  C26 UNL     1      -7.207   4.359  12.343  1.00  0.00     0.005 C 
ENDBRANCH  19  25
ENDBRANCH  17  19
ENDBRANCH  16  17
ENDBRANCH   1  16
TORSDOF 16
ENDMDL
MODEL 8
REMARK minimizedAffinity -6.43326664
REMARK CNNscore 0.246464118
REMARK CNNaffinity 6.03427505
REMARK  16 active torsions:
REMARK  status: ('A' for Active; 'I' for Inactive)
REMARK    1  A    between atoms: C2_2  and  C3_3 
REMARK    2  A    between atoms: C3_3  and  C4_4 
REMARK    3  A    between atoms: C4_4  and  C5_5 
REMARK    4  A    between atoms: C5_5  and  C6_6 
REMARK    5  A    between atoms: C6_6  and  C7_7 
REMARK    6  A    between atoms: C7_7  and  C8_8 
REMARK    7  A    between atoms: C8_8  and  N1_9 
REMARK    8  A    between atoms: N1_9  and  C9_10 
REMARK    9  A    between atoms: N1_9  and  C11_12 
REMARK   10  A    between atoms: N1_9  and  C13_14 
REMARK   11  A    between atoms: C13_14  and  C14_15 
REMARK   12  A    between atoms: C14_15  and  O1_16 
REMARK   13  A    between atoms: O1_16  and  C15_17 
REMARK   14  A    between atoms: C15_17  and  C16_19 
REMARK   15  A    between atoms: C16_19  and  C17_20 
REMARK   16  A    between atoms: C16_19  and  C22_25 
ROOT
HETATM    1  C14 UNL     1      -2.817   6.567  15.039  1.00  0.00     0.206 C 
ENDROOT
BRANCH   1   2
HETATM    2  C13 UNL     1      -1.658   6.325  14.054  1.00  0.00     0.264 C 
BRANCH   2   3
HETATM    3  N1  UNL     1      -0.315   7.116  14.323  1.00  0.00    -0.066 N 
BRANCH   3   4
HETATM    4  C8  UNL     1       0.866   6.310  13.725  1.00  0.00     0.237 C 
BRANCH   4   5
HETATM    5  C7  UNL     1       1.974   7.148  13.094  1.00  0.00     0.028 C 
BRANCH   5   6
HETATM    6  C6  UNL     1       2.273   6.659  11.671  1.00  0.00     0.002 C 
BRANCH   6   7
HETATM    7  C5  UNL     1       3.756   6.745  11.293  1.00  0.00     0.000 C 
BRANCH   7   8
HETATM    8  C4  UNL     1       3.994   7.292   9.883  1.00  0.00     0.000 C 
BRANCH   8   9
HETATM    9  C3  UNL     1       3.015   6.735   8.844  1.00  0.00    -0.000 C 
BRANCH   9  10
HETATM   10  C2  UNL     1       2.477   7.793   7.880  1.00  0.00    -0.005 C 
HETATM   11  C1  UNL     1       1.880   7.157   6.634  1.00  0.00     0.005 C 
ENDBRANCH   9  10
ENDBRANCH   8   9
ENDBRANCH   7   8
ENDBRANCH   6   7
ENDBRANCH   5   6
ENDBRANCH   4   5
ENDBRANCH   3   4
BRANCH   3  12
HETATM   12  C9  UNL     1      -0.511   8.464  13.532  1.00  0.00     0.233 C 
HETATM   13  C10 UNL     1      -1.413   8.389  12.308  1.00  0.00     0.035 C 
ENDBRANCH   3  12
BRANCH   3  14
HETATM   14  C11 UNL     1      -0.165   7.422  15.830  1.00  0.00     0.233 C 
HETATM   15  C12 UNL     1       0.382   8.797  16.161  1.00  0.00     0.035 C 
ENDBRANCH   3  14
ENDBRANCH   2   3
ENDBRANCH   1   2
BRANCH   1  16
HETATM   16  O1  UNL     1      -3.945   5.726  14.732  1.00  0.00    -0.319 OA
BRANCH  16  17
HETATM   17  C15 UNL     1      -4.649   6.081  13.621  1.00  0.00     0.263 C 
HETATM   18  O2  UNL     1      -4.773   7.242  13.253  1.00  0.00    -0.265 OA
BRANCH  17  19
HETATM   19  C16 UNL     1      -5.255   4.883  12.900  1.00  0.00     0.093 C 
BRANCH  19  20
HETATM   20  C17 UNL     1      -6.503   4.344  13.656  1.00  0.00    -0.001 C 
HETATM   21  C18 UNL     1      -7.631   3.846  12.744  1.00  0.00     0.005 C 
HETATM   22  C19 UNL     1      -8.366   5.106  12.306  1.00  0.00     0.000 C 
HETATM   23  C20 UNL     1      -8.151   6.123  13.425  1.00  0.00     0.000 C 
HETATM   24  C21 UNL     1      -7.238   5.441  14.442  1.00  0.00     0.005 C 
ENDBRANCH  19  20
BRANCH  19  25
HETATM   25  C22 UNL     1      -4.193   3.804  12.594  1.00  0.00    -0.001 C 
HETATM   26  C23 UNL     1      -4.725   2.523  11.944  1.00  0.00     0.005 C 
HETATM   27  C24 UNL     1      -3.455   1.789  11.536  1.00  0.00     0.000 C 
HETATM   28  C25 UNL     1      -2.436   2.879  11.207  1.00  0.00     0.000 C 
HETATM   29  C26 UNL     1      -3.063   4.203  11.645  1.00  0.00     0.005 C 
ENDBRANCH  19  25
ENDBRANCH  17  19
ENDBRANCH  16  17
ENDBRANCH   1  16
TORSDOF 16
ENDMDL
MODEL 9
REMARK minimizedAffinity -6.16308928
REMARK CNNscore 0.244780377
REMARK CNNaffinity 6.08599901
REMARK  16 active torsions:
REMARK  status: ('A' for Active; 'I' for Inactive)
REMARK    1  A    between atoms: C2_2  and  C3_3 
REMARK    2  A    between atoms: C3_3  and  C4_4 
REMARK    3  A    between atoms: C4_4  and  C5_5 
REMARK    4  A    between atoms: C5_5  and  C6_6 
REMARK    5  A    between atoms: C6_6  and  C7_7 
REMARK    6  A    between atoms: C7_7  and  C8_8 
REMARK    7  A    between atoms: C8_8  and  N1_9 
REMARK    8  A    between atoms: N1_9  and  C9_10 
REMARK    9  A    between atoms: N1_9  and  C11_12 
REMARK   10  A    between atoms: N1_9  and  C13_14 
REMARK   11  A    between atoms: C13_14  and  C14_15 
REMARK   12  A    between atoms: C14_15  and  O1_16 
REMARK   13  A    between atoms: O1_16  and  C15_17 
REMARK   14  A    between atoms: C15_17  and  C16_19 
REMARK   15  A    between atoms: C16_19  and  C17_20 
REMARK   16  A    between atoms: C16_19  and  C22_25 
ROOT
HETATM    1  C14 UNL     1      -0.953   5.039  12.323  1.00  0.00     0.206 C 
ENDROOT
BRANCH   1   2
HETATM    2  C13 UNL     1      -0.092   5.472  13.524  1.00  0.00     0.264 C 
BRANCH   2   3
HETATM    3  N1  UNL     1       0.723   6.819  13.369  1.00  0.00    -0.066 N 
BRANCH   3   4
HETATM    4  C8  UNL     1       2.082   6.504  12.695  1.00  0.00     0.237 C 
BRANCH   4   5
HETATM    5  C7  UNL     1       2.714   7.662  11.928  1.00  0.00     0.028 C 
BRANCH   5   6
HETATM    6  C6  UNL     1       4.207   7.403  11.696  1.00  0.00     0.002 C 
BRANCH   6   7
HETATM    7  C5  UNL     1       4.698   7.846  10.313  1.00  0.00     0.000 C 
BRANCH   7   8
HETATM    8  C4  UNL     1       3.579   8.377   9.412  1.00  0.00     0.000 C 
BRANCH   8   9
HETATM    9  C3  UNL     1       2.947   7.296   8.530  1.00  0.00    -0.000 C 
BRANCH   9  10
HETATM   10  C2  UNL     1       1.806   7.812   7.652  1.00  0.00    -0.005 C 
HETATM   11  C1  UNL     1       1.827   7.163   6.277  1.00  0.00     0.005 C 
ENDBRANCH   9  10
ENDBRANCH   8   9
ENDBRANCH   7   8
ENDBRANCH   6   7
ENDBRANCH   5   6
ENDBRANCH   4   5
ENDBRANCH   3   4
BRANCH   3  12
HETATM   12  C9  UNL     1      -0.173   7.689  12.411  1.00  0.00     0.233 C 
HETATM   13  C10 UNL     1      -0.735   8.971  13.012  1.00  0.00     0.035 C 
ENDBRANCH   3  12
BRANCH   3  14
HETATM   14  C11 UNL     1       0.852   7.528  14.736  1.00  0.00     0.233 C 
HETATM   15  C12 UNL     1       2.240   7.512  15.347  1.00  0.00     0.035 C 
ENDBRANCH   3  14
ENDBRANCH   2   3
ENDBRANCH   1   2
BRANCH   1  16
HETATM   16  O1  UNL     1      -2.155   4.373  12.758  1.00  0.00    -0.319 OA
BRANCH  16  17
HETATM   17  C15 UNL     1      -3.187   4.399  11.870  1.00  0.00     0.263 C 
HETATM   18  O2  UNL     1      -3.048   4.151  10.679  1.00  0.00    -0.265 OA
BRANCH  17  19
HETATM   19  C16 UNL     1      -4.515   4.766  12.521  1.00  0.00     0.093 C 
BRANCH  19  20
HETATM   20  C17 UNL     1      -4.294   5.587  13.824  1.00  0.00    -0.001 C 
HETATM   21  C18 UNL     1      -5.579   5.912  14.595  1.00  0.00     0.005 C 
HETATM   22  C19 UNL     1      -6.179   7.110  13.870  1.00  0.00     0.000 C 
HETATM   23  C20 UNL     1      -4.999   7.842  13.231  1.00  0.00     0.000 C 
HETATM   24  C21 UNL     1      -3.763   7.003  13.548  1.00  0.00     0.005 C 
ENDBRANCH  19  20
BRANCH  19  25
HETATM   25  C22 UNL     1      -5.421   3.529  12.707  1.00  0.00    -0.001 C 
HETATM   26  C23 UNL     1      -6.927   3.806  12.678  1.00  0.00     0.005 C 
HETATM   27  C24 UNL     1      -7.535   2.411  12.622  1.00  0.00     0.000 C 
HETATM   28  C25 UNL     1      -6.533   1.557  11.846  1.00  0.00     0.000 C 
HETATM   29  C26 UNL     1      -5.278   2.413  11.672  1.00  0.00     0.005 C 
ENDBRANCH  19  25
ENDBRANCH  17  19
ENDBRANCH  16  17
ENDBRANCH   1  16
TORSDOF 16
ENDMDL
