MODEL 1
REMARK minimizedAffinity -6.7490387
REMARK CNNscore 0.792384386
REMARK CNNaffinity 6.60162115
REMARK  9 active torsions:
REMARK  status: ('A' for Active; 'I' for Inactive)
REMARK    1  A    between atoms: C4_4  and  C5_5 
REMARK    2  A    between atoms: C5_5  and  C6_6 
REMARK    3  A    between atoms: C6_6  and  C7_7 
REMARK    4  A    between atoms: C7_7  and  C9_9 
REMARK    5  A    between atoms: C16_16  and  O1_17 
REMARK    6  A    between atoms: C25_27  and  C27_29 
REMARK    7  A    between atoms: C27_29  and  O4_31 
REMARK    8  A    between atoms: C28_32  and  O5_33 
REMARK    9  A    between atoms: C30_35  and  O6_36 
ROOT
HETATM    1  C9  UNL     1      -1.813  15.185   4.185  1.00  0.00    -0.002 C 
HETATM    2  C10 UNL     1      -2.635  14.922   2.897  1.00  0.00     0.007 C 
HETATM    3  C11 UNL     1      -1.624  14.753   1.745  1.00  0.00     0.015 C 
HETATM    4  C12 UNL     1      -0.256  14.563   2.432  1.00  0.00    -0.005 C 
HETATM    5  C13 UNL     1      -0.148  13.055   2.824  1.00  0.00     0.021 C 
HETATM    6  C14 UNL     1       1.038  14.843   1.679  1.00  0.00     0.003 C 
HETATM    7  C15 UNL     1       2.183  15.202   2.327  1.00  0.00    -0.030 C 
HETATM    8  C16 UNL     1       2.136  15.520   3.843  1.00  0.00     0.149 C 
HETATM    9  C17 UNL     1       0.779  15.358   4.568  1.00  0.00     0.047 C 
HETATM   10  C18 UNL     1      -0.410  15.580   3.632  1.00  0.00    -0.026 C 
HETATM   11  C19 UNL     1      -0.399  17.066   3.167  1.00  0.00     0.016 C 
HETATM   12  C20 UNL     1       3.556  15.414   1.575  1.00  0.00     0.014 C 
HETATM   13  C21 UNL     1       3.822  16.939   1.615  1.00  0.00     0.023 C 
HETATM   14  C22 UNL     1       3.467  14.882   0.103  1.00  0.00     0.029 C 
HETATM   15  C23 UNL     1       2.168  15.317  -0.568  1.00  0.00     0.090 C 
HETATM   16  C24 UNL     1       1.027  14.701   0.190  1.00  0.00     0.157 C 
HETATM   17  O2  UNL     1       0.113  14.136  -0.402  1.00  0.00    -0.293 OA
HETATM   18  C25 UNL     1       4.776  15.022  -0.768  1.00  0.00     0.072 C 
HETATM   19  C26 UNL     1       4.731  13.900  -1.846  1.00  0.00     0.030 C 
HETATM   20  C28 UNL     1       6.059  14.796   0.092  1.00  0.00     0.139 C 
HETATM   21  C29 UNL     1       5.775  13.970   1.340  1.00  0.00     0.065 C 
HETATM   22  C30 UNL     1       4.702  14.578   2.264  1.00  0.00     0.133 C 
ENDROOT
BRANCH   1  23
HETATM   23  C7  UNL     1      -2.558  15.951   5.322  1.00  0.00    -0.014 C 
HETATM   24  C8  UNL     1      -1.591  16.233   6.490  1.00  0.00     0.010 C 
BRANCH  23  25
HETATM   25  C6  UNL     1      -3.334  17.259   5.045  1.00  0.00     0.008 C 
BRANCH  25  26
HETATM   26  C5  UNL     1      -4.745  17.421   5.618  1.00  0.00     0.028 C 
BRANCH  26  27
HETATM   27  C4  UNL     1      -4.762  17.894   7.047  1.00  0.00    -0.025 C 
HETATM   28  C2  UNL     1      -5.831  18.206   7.804  1.00  0.00    -0.091 C 
HETATM   29  C1  UNL     1      -5.649  18.632   9.238  1.00  0.00     0.042 C 
HETATM   30  C3  UNL     1      -7.259  18.176   7.339  1.00  0.00     0.042 C 
ENDBRANCH  26  27
ENDBRANCH  25  26
ENDBRANCH  23  25
ENDBRANCH   1  23
BRANCH   8  31
HETATM   31  O1  UNL     1       3.049  14.716   4.577  1.00  0.00    -0.391 OA
HETATM   32  H25 UNL     1       3.937  15.114   4.442  1.00  0.00     0.210 HD
ENDBRANCH   8  31
BRANCH  22  33
HETATM   33  O6  UNL     1       5.289  15.341   3.327  1.00  0.00    -0.394 OA
HETATM   34  H46 UNL     1       6.255  15.198   3.324  1.00  0.00     0.210 HD
ENDBRANCH  22  33
BRANCH  18  35
HETATM   35  C27 UNL     1       4.981  16.308  -1.563  1.00  0.00     0.151 C 
HETATM   36  O3  UNL     1       6.039  16.641  -2.078  1.00  0.00    -0.649 OA
BRANCH  35  37
HETATM   37  O4  UNL     1       3.917  17.109  -1.681  1.00  0.00    -0.776 OA
HETATM   38  H40 UNL     1       4.241  17.878  -2.198  1.00  0.00     0.167 HD
ENDBRANCH  35  37
ENDBRANCH  18  35
BRANCH  20  39
HETATM   39  O5  UNL     1       6.680  16.001   0.533  1.00  0.00    -0.394 OA
HETATM   40  H42 UNL     1       7.212  16.344  -0.211  1.00  0.00     0.210 HD
ENDBRANCH  20  39
TORSDOF 9
ENDMDL
MODEL 2
REMARK minimizedAffinity -8.274086
REMARK CNNscore 0.622429252
REMARK CNNaffinity 6.53474092
REMARK  9 active torsions:
REMARK  status: ('A' for Active; 'I' for Inactive)
REMARK    1  A    between atoms: C4_4  and  C5_5 
REMARK    2  A    between atoms: C5_5  and  C6_6 
REMARK    3  A    between atoms: C6_6  and  C7_7 
REMARK    4  A    between atoms: C7_7  and  C9_9 
REMARK    5  A    between atoms: C16_16  and  O1_17 
REMARK    6  A    between atoms: C25_27  and  C27_29 
REMARK    7  A    between atoms: C27_29  and  O4_31 
REMARK    8  A    between atoms: C28_32  and  O5_33 
REMARK    9  A    between atoms: C30_35  and  O6_36 
ROOT
HETATM    1  C9  UNL     1       2.682   7.411  11.144  1.00  0.00    -0.002 C 
HETATM    2  C10 UNL     1       3.194   7.988   9.799  1.00  0.00     0.007 C 
HETATM    3  C11 UNL     1       4.581   8.602  10.072  1.00  0.00     0.015 C 
HETATM    4  C12 UNL     1       4.998   8.061  11.456  1.00  0.00    -0.005 C 
HETATM    5  C13 UNL     1       5.609   6.642  11.226  1.00  0.00     0.021 C 
HETATM    6  C14 UNL     1       6.047   8.784  12.290  1.00  0.00     0.003 C 
HETATM    7  C15 UNL     1       6.073   8.690  13.651  1.00  0.00    -0.030 C 
HETATM    8  C16 UNL     1       4.905   7.991  14.391  1.00  0.00     0.149 C 
HETATM    9  C17 UNL     1       3.777   7.376  13.530  1.00  0.00     0.047 C 
HETATM   10  C18 UNL     1       3.602   8.102  12.196  1.00  0.00    -0.026 C 
HETATM   11  C19 UNL     1       3.115   9.552  12.485  1.00  0.00     0.016 C 
HETATM   12  C20 UNL     1       7.201   9.363  14.529  1.00  0.00     0.014 C 
HETATM   13  C21 UNL     1       6.511  10.534  15.269  1.00  0.00     0.023 C 
HETATM   14  C22 UNL     1       8.379   9.864  13.625  1.00  0.00     0.029 C 
HETATM   15  C23 UNL     1       7.860  10.588  12.387  1.00  0.00     0.090 C 
HETATM   16  C24 UNL     1       7.071   9.603  11.572  1.00  0.00     0.157 C 
HETATM   17  O2  UNL     1       7.247   9.508  10.362  1.00  0.00    -0.293 OA
HETATM   18  C25 UNL     1       9.586  10.552  14.373  1.00  0.00     0.072 C 
HETATM   19  C26 UNL     1      10.851  10.348  13.487  1.00  0.00     0.030 C 
HETATM   20  C28 UNL     1       9.864   9.872  15.751  1.00  0.00     0.139 C 
HETATM   21  C29 UNL     1       9.346   8.441  15.799  1.00  0.00     0.065 C 
HETATM   22  C30 UNL     1       7.836   8.310  15.517  1.00  0.00     0.133 C 
ENDROOT
BRANCH   1  23
HETATM   23  C7  UNL     1       1.134   7.278  11.281  1.00  0.00    -0.014 C 
HETATM   24  C8  UNL     1       0.467   7.427   9.898  1.00  0.00     0.010 C 
BRANCH  23  25
HETATM   25  C6  UNL     1       0.483   6.059  11.974  1.00  0.00     0.008 C 
BRANCH  25  26
HETATM   26  C5  UNL     1      -0.663   5.328  11.269  1.00  0.00     0.028 C 
BRANCH  26  27
HETATM   27  C4  UNL     1      -1.868   5.112  12.147  1.00  0.00    -0.025 C 
HETATM   28  C2  UNL     1      -2.946   4.343  11.901  1.00  0.00    -0.091 C 
HETATM   29  C1  UNL     1      -4.045   4.225  12.924  1.00  0.00     0.042 C 
HETATM   30  C3  UNL     1      -3.178   3.556  10.642  1.00  0.00     0.042 C 
ENDBRANCH  26  27
ENDBRANCH  25  26
ENDBRANCH  23  25
ENDBRANCH   1  23
BRANCH   8  31
HETATM   31  O1  UNL     1       5.366   6.930  15.216  1.00  0.00    -0.391 OA
HETATM   32  H25 UNL     1       5.732   7.348  16.025  1.00  0.00     0.210 HD
ENDBRANCH   8  31
BRANCH  22  33
HETATM   33  O6  UNL     1       7.073   8.257  16.730  1.00  0.00    -0.394 OA
HETATM   34  H46 UNL     1       7.685   8.173  17.486  1.00  0.00     0.210 HD
ENDBRANCH  22  33
BRANCH  18  35
HETATM   35  C27 UNL     1       9.526  12.058  14.612  1.00  0.00     0.151 C 
HETATM   36  O3  UNL     1       8.642  12.623  15.241  1.00  0.00    -0.649 OA
BRANCH  35  37
HETATM   37  O4  UNL     1      10.513  12.783  14.077  1.00  0.00    -0.776 OA
HETATM   38  H40 UNL     1      10.296  13.711  14.315  1.00  0.00     0.167 HD
ENDBRANCH  35  37
ENDBRANCH  18  35
BRANCH  20  39
HETATM   39  O5  UNL     1       9.283  10.554  16.860  1.00  0.00    -0.394 OA
HETATM   40  H42 UNL     1       9.871  11.301  17.084  1.00  0.00     0.210 HD
ENDBRANCH  20  39
TORSDOF 9
ENDMDL
MODEL 3
REMARK minimizedAffinity -7.89528894
REMARK CNNscore 0.615403056
REMARK CNNaffinity 6.60727644
REMARK  9 active torsions:
REMARK  status: ('A' for Active; 'I' for Inactive)
REMARK    1  A    between atoms: C4_4  and  C5_5 
REMARK    2  A    between atoms: C5_5  and  C6_6 
REMARK    3  A    between atoms: C6_6  and  C7_7 
REMARK    4  A    between atoms: C7_7  and  C9_9 
REMARK    5  A    between atoms: C16_16  and  O1_17 
REMARK    6  A    between atoms: C25_27  and  C27_29 
REMARK    7  A    between atoms: C27_29  and  O4_31 
REMARK    8  A    between atoms: C28_32  and  O5_33 
REMARK    9  A    between atoms: C30_35  and  O6_36 
ROOT
HETATM    1  C9  UNL     1     -10.116   8.109  14.918  1.00  0.00    -0.002 C 
HETATM    2  C10 UNL     1      -9.922   9.644  14.833  1.00  0.00     0.007 C 
HETATM    3  C11 UNL     1     -11.287  10.250  14.450  1.00  0.00     0.015 C 
HETATM    4  C12 UNL     1     -12.310   9.115  14.672  1.00  0.00    -0.005 C 
HETATM    5  C13 UNL     1     -12.670   9.118  16.192  1.00  0.00     0.021 C 
HETATM    6  C14 UNL     1     -13.661   9.137  13.971  1.00  0.00     0.003 C 
HETATM    7  C15 UNL     1     -14.349   7.992  13.701  1.00  0.00    -0.030 C 
HETATM    8  C16 UNL     1     -13.670   6.618  13.935  1.00  0.00     0.149 C 
HETATM    9  C17 UNL     1     -12.241   6.617  14.527  1.00  0.00     0.047 C 
HETATM   10  C18 UNL     1     -11.461   7.882  14.164  1.00  0.00    -0.026 C 
HETATM   11  C19 UNL     1     -11.238   7.898  12.623  1.00  0.00     0.016 C 
HETATM   12  C20 UNL     1     -15.790   7.997  13.051  1.00  0.00     0.014 C 
HETATM   13  C21 UNL     1     -15.601   7.456  11.614  1.00  0.00     0.023 C 
HETATM   14  C22 UNL     1     -16.389   9.445  13.050  1.00  0.00     0.029 C 
HETATM   15  C23 UNL     1     -15.357  10.473  12.596  1.00  0.00     0.090 C 
HETATM   16  C24 UNL     1     -14.230  10.467  13.590  1.00  0.00     0.157 C 
HETATM   17  O2  UNL     1     -13.783  11.518  14.037  1.00  0.00    -0.293 OA
HETATM   18  C25 UNL     1     -17.834   9.599  12.435  1.00  0.00     0.072 C 
HETATM   19  C26 UNL     1     -18.489  10.840  13.111  1.00  0.00     0.030 C 
HETATM   20  C28 UNL     1     -18.727   8.360  12.763  1.00  0.00     0.139 C 
HETATM   21  C29 UNL     1     -18.243   7.616  14.000  1.00  0.00     0.065 C 
HETATM   22  C30 UNL     1     -16.786   7.122  13.905  1.00  0.00     0.133 C 
ENDROOT
BRANCH   1  23
HETATM   23  C7  UNL     1      -8.832   7.249  14.705  1.00  0.00    -0.014 C 
HETATM   24  C8  UNL     1      -8.446   6.541  16.020  1.00  0.00     0.010 C 
BRANCH  23  25
HETATM   25  C6  UNL     1      -8.738   6.197  13.575  1.00  0.00     0.008 C 
BRANCH  25  26
HETATM   26  C5  UNL     1      -8.074   4.849  13.868  1.00  0.00     0.028 C 
BRANCH  26  27
HETATM   27  C4  UNL     1      -6.876   4.568  13.000  1.00  0.00    -0.025 C 
HETATM   28  C2  UNL     1      -6.526   3.403  12.422  1.00  0.00    -0.091 C 
HETATM   29  C1  UNL     1      -5.299   3.325  11.552  1.00  0.00     0.042 C 
HETATM   30  C3  UNL     1      -7.270   2.107  12.569  1.00  0.00     0.042 C 
ENDBRANCH  26  27
ENDBRANCH  25  26
ENDBRANCH  23  25
ENDBRANCH   1  23
BRANCH   8  31
HETATM   31  O1  UNL     1     -14.435   5.797  14.807  1.00  0.00    -0.391 OA
HETATM   32  H25 UNL     1     -15.168   5.429  14.267  1.00  0.00     0.210 HD
ENDBRANCH   8  31
BRANCH  22  33
HETATM   33  O6  UNL     1     -16.717   5.753  13.482  1.00  0.00    -0.394 OA
HETATM   34  H46 UNL     1     -17.618   5.377  13.478  1.00  0.00     0.210 HD
ENDBRANCH  22  33
BRANCH  18  35
HETATM   35  C27 UNL     1     -17.959   9.869  10.939  1.00  0.00     0.151 C 
HETATM   36  O3  UNL     1     -18.126   9.002  10.092  1.00  0.00    -0.649 OA
BRANCH  35  37
HETATM   37  O4  UNL     1     -17.868  11.147  10.556  1.00  0.00    -0.776 OA
HETATM   38  H40 UNL     1     -17.950  11.119   9.578  1.00  0.00     0.167 HD
ENDBRANCH  35  37
ENDBRANCH  18  35
BRANCH  20  39
HETATM   39  O5  UNL     1     -18.795   7.402  11.709  1.00  0.00    -0.394 OA
HETATM   40  H42 UNL     1     -19.447   7.729  11.059  1.00  0.00     0.210 HD
ENDBRANCH  20  39
TORSDOF 9
ENDMDL
MODEL 4
REMARK minimizedAffinity -9.65147591
REMARK CNNscore 0.613787174
REMARK CNNaffinity 7.09258032
REMARK  9 active torsions:
REMARK  status: ('A' for Active; 'I' for Inactive)
REMARK    1  A    between atoms: C4_4  and  C5_5 
REMARK    2  A    between atoms: C5_5  and  C6_6 
REMARK    3  A    between atoms: C6_6  and  C7_7 
REMARK    4  A    between atoms: C7_7  and  C9_9 
REMARK    5  A    between atoms: C16_16  and  O1_17 
REMARK    6  A    between atoms: C25_27  and  C27_29 
REMARK    7  A    between atoms: C27_29  and  O4_31 
REMARK    8  A    between atoms: C28_32  and  O5_33 
REMARK    9  A    between atoms: C30_35  and  O6_36 
ROOT
HETATM    1  C9  UNL     1      -5.645   7.016  15.064  1.00  0.00    -0.002 C 
HETATM    2  C10 UNL     1      -5.427   8.448  15.615  1.00  0.00     0.007 C 
HETATM    3  C11 UNL     1      -4.039   8.911  15.127  1.00  0.00     0.015 C 
HETATM    4  C12 UNL     1      -3.641   7.906  14.026  1.00  0.00    -0.005 C 
HETATM    5  C13 UNL     1      -4.328   8.382  12.706  1.00  0.00     0.021 C 
HETATM    6  C14 UNL     1      -2.182   7.715  13.637  1.00  0.00     0.003 C 
HETATM    7  C15 UNL     1      -1.727   6.546  13.103  1.00  0.00    -0.030 C 
HETATM    8  C16 UNL     1      -2.662   5.310  13.062  1.00  0.00     0.149 C 
HETATM    9  C17 UNL     1      -4.106   5.486  13.585  1.00  0.00     0.047 C 
HETATM   10  C18 UNL     1      -4.207   6.571  14.658  1.00  0.00    -0.026 C 
HETATM   11  C19 UNL     1      -3.401   6.108  15.906  1.00  0.00     0.016 C 
HETATM   12  C20 UNL     1      -0.237   6.355  12.614  1.00  0.00     0.014 C 
HETATM   13  C21 UNL     1       0.418   5.393  13.636  1.00  0.00     0.023 C 
HETATM   14  C22 UNL     1       0.507   7.734  12.561  1.00  0.00     0.029 C 
HETATM   15  C23 UNL     1       0.226   8.566  13.809  1.00  0.00     0.090 C 
HETATM   16  C24 UNL     1      -1.246   8.863  13.845  1.00  0.00     0.157 C 
HETATM   17  O2  UNL     1      -1.650   9.999  14.070  1.00  0.00    -0.293 OA
HETATM   18  C25 UNL     1       2.009   7.696  12.079  1.00  0.00     0.072 C 
HETATM   19  C26 UNL     1       2.326   9.089  11.457  1.00  0.00     0.030 C 
HETATM   20  C28 UNL     1       2.222   6.625  10.963  1.00  0.00     0.139 C 
HETATM   21  C29 UNL     1       0.929   6.299  10.227  1.00  0.00     0.065 C 
HETATM   22  C30 UNL     1      -0.203   5.793  11.141  1.00  0.00     0.133 C 
ENDROOT
BRANCH   1  23
HETATM   23  C7  UNL     1      -6.648   6.127  15.862  1.00  0.00    -0.014 C 
HETATM   24  C8  UNL     1      -7.634   7.016  16.647  1.00  0.00     0.010 C 
BRANCH  23  25
HETATM   25  C6  UNL     1      -7.480   5.022  15.170  1.00  0.00     0.008 C 
BRANCH  25  26
HETATM   26  C5  UNL     1      -7.958   5.242  13.732  1.00  0.00     0.028 C 
BRANCH  26  27
HETATM   27  C4  UNL     1      -7.006   4.709  12.694  1.00  0.00    -0.025 C 
HETATM   28  C2  UNL     1      -6.833   3.430  12.307  1.00  0.00    -0.091 C 
HETATM   29  C1  UNL     1      -5.848   3.093  11.219  1.00  0.00     0.042 C 
HETATM   30  C3  UNL     1      -7.557   2.246  12.883  1.00  0.00     0.042 C 
ENDBRANCH  26  27
ENDBRANCH  25  26
ENDBRANCH  23  25
ENDBRANCH   1  23
BRANCH   8  31
HETATM   31  O1  UNL     1      -2.803   4.803  11.742  1.00  0.00    -0.391 OA
HETATM   32  H25 UNL     1      -1.988   4.289  11.554  1.00  0.00     0.210 HD
ENDBRANCH   8  31
BRANCH  22  33
HETATM   33  O6  UNL     1      -0.265   4.360  11.166  1.00  0.00    -0.394 OA
HETATM   34  H46 UNL     1       0.337   4.006  10.484  1.00  0.00     0.210 HD
ENDBRANCH  22  33
BRANCH  18  35
HETATM   35  C27 UNL     1       3.100   7.488  13.125  1.00  0.00     0.151 C 
HETATM   36  O3  UNL     1       4.280   7.759  12.957  1.00  0.00    -0.649 OA
BRANCH  35  37
HETATM   37  O4  UNL     1       2.710   6.965  14.292  1.00  0.00    -0.776 OA
HETATM   38  H40 UNL     1       3.536   6.889  14.819  1.00  0.00     0.167 HD
ENDBRANCH  35  37
ENDBRANCH  18  35
BRANCH  20  39
HETATM   39  O5  UNL     1       2.743   5.387  11.442  1.00  0.00    -0.394 OA
HETATM   40  H42 UNL     1       3.707   5.499  11.551  1.00  0.00     0.210 HD
ENDBRANCH  20  39
TORSDOF 9
ENDMDL
MODEL 5
REMARK minimizedAffinity -8.04118443
REMARK CNNscore 0.598222673
REMARK CNNaffinity 6.59845972
REMARK  9 active torsions:
REMARK  status: ('A' for Active; 'I' for Inactive)
REMARK    1  A    between atoms: C4_4  and  C5_5 
REMARK    2  A    between atoms: C5_5  and  C6_6 
REMARK    3  A    between atoms: C6_6  and  C7_7 
REMARK    4  A    between atoms: C7_7  and  C9_9 
REMARK    5  A    between atoms: C16_16  and  O1_17 
REMARK    6  A    between atoms: C25_27  and  C27_29 
REMARK    7  A    between atoms: C27_29  and  O4_31 
REMARK    8  A    between atoms: C28_32  and  O5_33 
REMARK    9  A    between atoms: C30_35  and  O6_36 
ROOT
HETATM    1  C9  UNL     1      -7.390   6.560  15.031  1.00  0.00    -0.002 C 
HETATM    2  C10 UNL     1      -7.395   5.139  14.412  1.00  0.00     0.007 C 
HETATM    3  C11 UNL     1      -5.974   4.879  13.871  1.00  0.00     0.015 C 
HETATM    4  C12 UNL     1      -5.095   5.983  14.496  1.00  0.00    -0.005 C 
HETATM    5  C13 UNL     1      -4.702   5.496  15.927  1.00  0.00     0.021 C 
HETATM    6  C14 UNL     1      -3.768   6.374  13.861  1.00  0.00     0.003 C 
HETATM    7  C15 UNL     1      -3.233   7.618  14.022  1.00  0.00    -0.030 C 
HETATM    8  C16 UNL     1      -4.071   8.728  14.706  1.00  0.00     0.149 C 
HETATM    9  C17 UNL     1      -5.475   8.346  15.230  1.00  0.00     0.047 C 
HETATM   10  C18 UNL     1      -6.101   7.201  14.432  1.00  0.00    -0.026 C 
HETATM   11  C19 UNL     1      -6.356   7.695  12.978  1.00  0.00     0.016 C 
HETATM   12  C20 UNL     1      -1.819   8.018  13.442  1.00  0.00     0.014 C 
HETATM   13  C21 UNL     1      -2.107   8.999  12.280  1.00  0.00     0.023 C 
HETATM   14  C22 UNL     1      -1.045   6.747  12.948  1.00  0.00     0.029 C 
HETATM   15  C23 UNL     1      -1.953   5.823  12.142  1.00  0.00     0.090 C 
HETATM   16  C24 UNL     1      -3.048   5.343  13.052  1.00  0.00     0.157 C 
HETATM   17  O2  UNL     1      -3.351   4.155  13.095  1.00  0.00    -0.293 OA
HETATM   18  C25 UNL     1       0.393   6.998  12.349  1.00  0.00     0.072 C 
HETATM   19  C26 UNL     1       1.212   5.691  12.563  1.00  0.00     0.030 C 
HETATM   20  C28 UNL     1       1.133   8.145  13.107  1.00  0.00     0.139 C 
HETATM   21  C29 UNL     1       0.590   8.346  14.516  1.00  0.00     0.065 C 
HETATM   22  C30 UNL     1      -0.918   8.658  14.568  1.00  0.00     0.133 C 
ENDROOT
BRANCH   1  23
HETATM   23  C7  UNL     1      -8.775   7.274  15.104  1.00  0.00    -0.014 C 
HETATM   24  C8  UNL     1      -8.578   8.792  15.295  1.00  0.00     0.010 C 
BRANCH  23  25
HETATM   25  C6  UNL     1      -9.843   7.086  14.001  1.00  0.00     0.008 C 
BRANCH  25  26
HETATM   26  C5  UNL     1     -10.832   8.221  13.724  1.00  0.00     0.028 C 
BRANCH  26  27
HETATM   27  C4  UNL     1     -12.078   7.772  13.008  1.00  0.00    -0.025 C 
HETATM   28  C2  UNL     1     -13.214   7.288  13.545  1.00  0.00    -0.091 C 
HETATM   29  C1  UNL     1     -14.377   6.919  12.660  1.00  0.00     0.042 C 
HETATM   30  C3  UNL     1     -13.450   7.062  15.011  1.00  0.00     0.042 C 
ENDBRANCH  26  27
ENDBRANCH  25  26
ENDBRANCH  23  25
ENDBRANCH   1  23
BRANCH   8  31
HETATM   31  O1  UNL     1      -3.394   9.282  15.825  1.00  0.00    -0.391 OA
HETATM   32  H25 UNL     1      -2.725   9.903  15.463  1.00  0.00     0.210 HD
ENDBRANCH   8  31
BRANCH  22  33
HETATM   33  O6  UNL     1      -1.166  10.068  14.647  1.00  0.00    -0.394 OA
HETATM   34  H46 UNL     1      -0.319  10.530  14.794  1.00  0.00     0.210 HD
ENDBRANCH  22  33
BRANCH  18  35
HETATM   35  C27 UNL     1       0.515   7.285  10.856  1.00  0.00     0.151 C 
HETATM   36  O3  UNL     1       1.220   6.649  10.085  1.00  0.00    -0.649 OA
BRANCH  35  37
HETATM   37  O4  UNL     1      -0.201   8.312  10.389  1.00  0.00    -0.776 OA
HETATM   38  H40 UNL     1       0.018   8.353   9.432  1.00  0.00     0.167 HD
ENDBRANCH  35  37
ENDBRANCH  18  35
BRANCH  20  39
HETATM   39  O5  UNL     1       1.058   9.411  12.456  1.00  0.00    -0.394 OA
HETATM   40  H42 UNL     1       1.730   9.415  11.747  1.00  0.00     0.210 HD
ENDBRANCH  20  39
TORSDOF 9
ENDMDL
MODEL 6
REMARK minimizedAffinity -9.19478798
REMARK CNNscore 0.576673806
REMARK CNNaffinity 6.75637436
REMARK  9 active torsions:
REMARK  status: ('A' for Active; 'I' for Inactive)
REMARK    1  A    between atoms: C4_4  and  C5_5 
REMARK    2  A    between atoms: C5_5  and  C6_6 
REMARK    3  A    between atoms: C6_6  and  C7_7 
REMARK    4  A    between atoms: C7_7  and  C9_9 
REMARK    5  A    between atoms: C16_16  and  O1_17 
REMARK    6  A    between atoms: C25_27  and  C27_29 
REMARK    7  A    between atoms: C27_29  and  O4_31 
REMARK    8  A    between atoms: C28_32  and  O5_33 
REMARK    9  A    between atoms: C30_35  and  O6_36 
ROOT
HETATM    1  C9  UNL     1      -1.979   6.586  13.244  1.00  0.00    -0.002 C 
HETATM    2  C10 UNL     1      -1.951   5.905  11.852  1.00  0.00     0.007 C 
HETATM    3  C11 UNL     1      -0.489   5.941  11.364  1.00  0.00     0.015 C 
HETATM    4  C12 UNL     1       0.345   6.305  12.610  1.00  0.00    -0.005 C 
HETATM    5  C13 UNL     1       0.582   4.980  13.402  1.00  0.00     0.021 C 
HETATM    6  C14 UNL     1       1.737   6.904  12.466  1.00  0.00     0.003 C 
HETATM    7  C15 UNL     1       2.279   7.701  13.431  1.00  0.00    -0.030 C 
HETATM    8  C16 UNL     1       1.400   8.172  14.617  1.00  0.00     0.149 C 
HETATM    9  C17 UNL     1      -0.058   7.658  14.676  1.00  0.00     0.047 C 
HETATM   10  C18 UNL     1      -0.624   7.353  13.289  1.00  0.00    -0.026 C 
HETATM   11  C19 UNL     1      -0.720   8.688  12.492  1.00  0.00     0.016 C 
HETATM   12  C20 UNL     1       3.753   8.264  13.341  1.00  0.00     0.014 C 
HETATM   13  C21 UNL     1       3.605   9.783  13.079  1.00  0.00     0.023 C 
HETATM   14  C22 UNL     1       4.546   7.554  12.190  1.00  0.00     0.029 C 
HETATM   15  C23 UNL     1       3.706   7.445  10.922  1.00  0.00     0.090 C 
HETATM   16  C24 UNL     1       2.514   6.583  11.229  1.00  0.00     0.157 C 
HETATM   17  O2  UNL     1       2.184   5.677  10.472  1.00  0.00    -0.293 OA
HETATM   18  C25 UNL     1       6.043   8.013  11.991  1.00  0.00     0.072 C 
HETATM   19  C26 UNL     1       6.808   6.815  11.356  1.00  0.00     0.030 C 
HETATM   20  C28 UNL     1       6.726   8.336  13.357  1.00  0.00     0.139 C 
HETATM   21  C29 UNL     1       6.047   7.625  14.520  1.00  0.00     0.065 C 
HETATM   22  C30 UNL     1       4.548   7.951  14.667  1.00  0.00     0.133 C 
ENDROOT
BRANCH   1  23
HETATM   23  C7  UNL     1      -3.349   7.194  13.675  1.00  0.00    -0.014 C 
HETATM   24  C8  UNL     1      -3.669   8.437  12.819  1.00  0.00     0.010 C 
BRANCH  23  25
HETATM   25  C6  UNL     1      -4.635   6.336  13.733  1.00  0.00     0.008 C 
BRANCH  25  26
HETATM   26  C5  UNL     1      -4.674   5.003  12.981  1.00  0.00     0.028 C 
BRANCH  26  27
HETATM   27  C4  UNL     1      -5.971   4.257  13.145  1.00  0.00    -0.025 C 
HETATM   28  C2  UNL     1      -6.380   3.150  12.496  1.00  0.00    -0.091 C 
HETATM   29  C1  UNL     1      -7.710   2.523  12.824  1.00  0.00     0.042 C 
HETATM   30  C3  UNL     1      -5.606   2.445  11.418  1.00  0.00     0.042 C 
ENDBRANCH  26  27
ENDBRANCH  25  26
ENDBRANCH  23  25
ENDBRANCH   1  23
BRANCH   8  31
HETATM   31  O1  UNL     1       1.972   7.817  15.868  1.00  0.00    -0.391 OA
HETATM   32  H25 UNL     1       2.687   8.467  16.039  1.00  0.00     0.210 HD
ENDBRANCH   8  31
BRANCH  22  33
HETATM   33  O6  UNL     1       4.323   8.992  15.627  1.00  0.00    -0.394 OA
HETATM   34  H46 UNL     1       5.161   9.179  16.092  1.00  0.00     0.210 HD
ENDBRANCH  22  33
BRANCH  18  35
HETATM   35  C27 UNL     1       6.321   9.184  11.053  1.00  0.00     0.151 C 
HETATM   36  O3  UNL     1       5.490   9.689  10.312  1.00  0.00    -0.649 OA
BRANCH  35  37
HETATM   37  O4  UNL     1       7.569   9.664  11.058  1.00  0.00    -0.776 OA
HETATM   38  H40 UNL     1       7.560  10.385  10.391  1.00  0.00     0.167 HD
ENDBRANCH  35  37
ENDBRANCH  18  35
BRANCH  20  39
HETATM   39  O5  UNL     1       6.743   9.724  13.681  1.00  0.00    -0.394 OA
HETATM   40  H42 UNL     1       7.483  10.130  13.189  1.00  0.00     0.210 HD
ENDBRANCH  20  39
TORSDOF 9
ENDMDL
MODEL 7
REMARK minimizedAffinity -7.71559048
REMARK CNNscore 0.567966402
REMARK CNNaffinity 6.37996483
REMARK  9 active torsions:
REMARK  status: ('A' for Active; 'I' for Inactive)
REMARK    1  A    between atoms: C4_4  and  C5_5 
REMARK    2  A    between atoms: C5_5  and  C6_6 
REMARK    3  A    between atoms: C6_6  and  C7_7 
REMARK    4  A    between atoms: C7_7  and  C9_9 
REMARK    5  A    between atoms: C16_16  and  O1_17 
REMARK    6  A    between atoms: C25_27  and  C27_29 
REMARK    7  A    between atoms: C27_29  and  O4_31 
REMARK    8  A    between atoms: C28_32  and  O5_33 
REMARK    9  A    between atoms: C30_35  and  O6_36 
ROOT
HETATM    1  C9  UNL     1      -1.573   7.431  14.286  1.00  0.00    -0.002 C 
HETATM    2  C10 UNL     1      -1.903   7.287  12.778  1.00  0.00     0.007 C 
HETATM    3  C11 UNL     1      -0.563   7.340  12.017  1.00  0.00     0.015 C 
HETATM    4  C12 UNL     1       0.524   7.152  13.097  1.00  0.00    -0.005 C 
HETATM    5  C13 UNL     1       0.659   5.615  13.344  1.00  0.00     0.021 C 
HETATM    6  C14 UNL     1       1.953   7.615  12.852  1.00  0.00     0.003 C 
HETATM    7  C15 UNL     1       2.783   7.960  13.878  1.00  0.00    -0.030 C 
HETATM    8  C16 UNL     1       2.215   8.070  15.316  1.00  0.00     0.149 C 
HETATM    9  C17 UNL     1       0.723   7.723  15.526  1.00  0.00     0.047 C 
HETATM   10  C18 UNL     1      -0.117   7.988  14.276  1.00  0.00    -0.026 C 
HETATM   11  C19 UNL     1      -0.116   9.520  13.998  1.00  0.00     0.016 C 
HETATM   12  C20 UNL     1       4.294   8.361  13.652  1.00  0.00     0.014 C 
HETATM   13  C21 UNL     1       4.369   9.881  13.937  1.00  0.00     0.023 C 
HETATM   14  C22 UNL     1       4.742   8.025  12.188  1.00  0.00     0.029 C 
HETATM   15  C23 UNL     1       3.690   8.459  11.172  1.00  0.00     0.090 C 
HETATM   16  C24 UNL     1       2.438   7.672  11.438  1.00  0.00     0.157 C 
HETATM   17  O2  UNL     1       1.830   7.132  10.520  1.00  0.00    -0.293 OA
HETATM   18  C25 UNL     1       6.239   8.367  11.822  1.00  0.00     0.072 C 
HETATM   19  C26 UNL     1       6.664   7.397  10.680  1.00  0.00     0.030 C 
HETATM   20  C28 UNL     1       7.192   8.113  13.033  1.00  0.00     0.139 C 
HETATM   21  C29 UNL     1       6.610   7.112  14.021  1.00  0.00     0.065 C 
HETATM   22  C30 UNL     1       5.238   7.519  14.593  1.00  0.00     0.133 C 
ENDROOT
BRANCH   1  23
HETATM   23  C7  UNL     1      -2.722   7.986  15.183  1.00  0.00    -0.014 C 
HETATM   24  C8  UNL     1      -2.244   8.096  16.646  1.00  0.00     0.010 C 
BRANCH  23  25
HETATM   25  C6  UNL     1      -3.452   9.306  14.840  1.00  0.00     0.008 C 
BRANCH  25  26
HETATM   26  C5  UNL     1      -2.794  10.637  15.213  1.00  0.00     0.028 C 
BRANCH  26  27
HETATM   27  C4  UNL     1      -2.994  11.022  16.655  1.00  0.00    -0.025 C 
HETATM   28  C2  UNL     1      -3.870  11.911  17.163  1.00  0.00    -0.091 C 
HETATM   29  C1  UNL     1      -3.946  12.139  18.650  1.00  0.00     0.042 C 
HETATM   30  C3  UNL     1      -4.823  12.745  16.354  1.00  0.00     0.042 C 
ENDBRANCH  26  27
ENDBRANCH  25  26
ENDBRANCH  23  25
ENDBRANCH   1  23
BRANCH   8  31
HETATM   31  O1  UNL     1       2.923   7.238  16.224  1.00  0.00    -0.391 OA
HETATM   32  H25 UNL     1       3.759   7.708  16.435  1.00  0.00     0.210 HD
ENDBRANCH   8  31
BRANCH  22  33
HETATM   33  O6  UNL     1       5.366   8.171  15.864  1.00  0.00    -0.394 OA
HETATM   34  H46 UNL     1       6.291   8.094  16.168  1.00  0.00     0.210 HD
ENDBRANCH  22  33
BRANCH  18  35
HETATM   35  C27 UNL     1       6.551   9.758  11.279  1.00  0.00     0.151 C 
HETATM   36  O3  UNL     1       5.705  10.593  10.991  1.00  0.00    -0.649 OA
BRANCH  35  37
HETATM   37  O4  UNL     1       7.844  10.051  11.108  1.00  0.00    -0.776 OA
HETATM   38  H40 UNL     1       7.845  10.962  10.740  1.00  0.00     0.167 HD
ENDBRANCH  35  37
ENDBRANCH  18  35
BRANCH  20  39
HETATM   39  O5  UNL     1       7.505   9.288  13.778  1.00  0.00    -0.394 OA
HETATM   40  H42 UNL     1       8.209   9.762  13.293  1.00  0.00     0.210 HD
ENDBRANCH  20  39
TORSDOF 9
ENDMDL
MODEL 8
REMARK minimizedAffinity -9.27231693
REMARK CNNscore 0.54274255
REMARK CNNaffinity 6.5046916
REMARK  9 active torsions:
REMARK  status: ('A' for Active; 'I' for Inactive)
REMARK    1  A    between atoms: C4_4  and  C5_5 
REMARK    2  A    between atoms: C5_5  and  C6_6 
REMARK    3  A    between atoms: C6_6  and  C7_7 
REMARK    4  A    between atoms: C7_7  and  C9_9 
REMARK    5  A    between atoms: C16_16  and  O1_17 
REMARK    6  A    between atoms: C25_27  and  C27_29 
REMARK    7  A    between atoms: C27_29  and  O4_31 
REMARK    8  A    between atoms: C28_32  and  O5_33 
REMARK    9  A    between atoms: C30_35  and  O6_36 
ROOT
HETATM    1  C9  UNL     1      -2.285   5.762  13.734  1.00  0.00    -0.002 C 
HETATM    2  C10 UNL     1      -2.300   5.328  12.246  1.00  0.00     0.007 C 
HETATM    3  C11 UNL     1      -0.914   5.673  11.664  1.00  0.00     0.015 C 
HETATM    4  C12 UNL     1      -0.020   5.959  12.889  1.00  0.00    -0.005 C 
HETATM    5  C13 UNL     1       0.483   4.578  13.418  1.00  0.00     0.021 C 
HETATM    6  C14 UNL     1       1.250   6.787  12.749  1.00  0.00     0.003 C 
HETATM    7  C15 UNL     1       1.766   7.495  13.794  1.00  0.00    -0.030 C 
HETATM    8  C16 UNL     1       0.951   7.623  15.106  1.00  0.00     0.149 C 
HETATM    9  C17 UNL     1      -0.404   6.881  15.184  1.00  0.00     0.047 C 
HETATM   10  C18 UNL     1      -1.057   6.718  13.811  1.00  0.00    -0.026 C 
HETATM   11  C19 UNL     1      -1.423   8.130  13.268  1.00  0.00     0.016 C 
HETATM   12  C20 UNL     1       3.127   8.291  13.694  1.00  0.00     0.014 C 
HETATM   13  C21 UNL     1       2.736   9.789  13.713  1.00  0.00     0.023 C 
HETATM   14  C22 UNL     1       3.894   7.910  12.381  1.00  0.00     0.029 C 
HETATM   15  C23 UNL     1       2.955   7.875  11.179  1.00  0.00     0.090 C 
HETATM   16  C24 UNL     1       1.937   6.797  11.420  1.00  0.00     0.157 C 
HETATM   17  O2  UNL     1       1.665   5.984  10.542  1.00  0.00    -0.293 OA
HETATM   18  C25 UNL     1       5.281   8.628  12.153  1.00  0.00     0.072 C 
HETATM   19  C26 UNL     1       6.143   7.684  11.264  1.00  0.00     0.030 C 
HETATM   20  C28 UNL     1       6.045   8.831  13.500  1.00  0.00     0.139 C 
HETATM   21  C29 UNL     1       5.596   7.842  14.569  1.00  0.00     0.065 C 
HETATM   22  C30 UNL     1       4.088   7.899  14.881  1.00  0.00     0.133 C 
ENDROOT
BRANCH   1  23
HETATM   23  C7  UNL     1      -3.678   6.067  14.366  1.00  0.00    -0.014 C 
HETATM   24  C8  UNL     1      -3.533   7.125  15.479  1.00  0.00     0.010 C 
BRANCH  23  25
HETATM   25  C6  UNL     1      -4.890   6.480  13.497  1.00  0.00     0.008 C 
BRANCH  25  26
HETATM   26  C5  UNL     1      -6.052   5.499  13.329  1.00  0.00     0.028 C 
BRANCH  26  27
HETATM   27  C4  UNL     1      -5.693   4.272  12.533  1.00  0.00    -0.025 C 
HETATM   28  C2  UNL     1      -6.415   3.147  12.372  1.00  0.00    -0.091 C 
HETATM   29  C1  UNL     1      -5.900   2.030  11.502  1.00  0.00     0.042 C 
HETATM   30  C3  UNL     1      -7.748   2.876  13.010  1.00  0.00     0.042 C 
ENDBRANCH  26  27
ENDBRANCH  25  26
ENDBRANCH  23  25
ENDBRANCH   1  23
BRANCH   8  31
HETATM   31  O1  UNL     1       1.691   7.166  16.230  1.00  0.00    -0.391 OA
HETATM   32  H25 UNL     1       2.319   7.885  16.458  1.00  0.00     0.210 HD
ENDBRANCH   8  31
BRANCH  22  33
HETATM   33  O6  UNL     1       3.813   8.722  16.023  1.00  0.00    -0.394 OA
HETATM   34  H46 UNL     1       4.657   8.963  16.450  1.00  0.00     0.210 HD
ENDBRANCH  22  33
BRANCH  18  35
HETATM   35  C27 UNL     1       5.293   9.963  11.417  1.00  0.00     0.151 C 
HETATM   36  O3  UNL     1       4.900  11.019  11.893  1.00  0.00    -0.649 OA
BRANCH  35  37
HETATM   37  O4  UNL     1       5.760   9.946  10.164  1.00  0.00    -0.776 OA
HETATM   38  H40 UNL     1       5.672  10.874   9.854  1.00  0.00     0.167 HD
ENDBRANCH  35  37
ENDBRANCH  18  35
BRANCH  20  39
HETATM   39  O5  UNL     1       5.894  10.133  14.060  1.00  0.00    -0.394 OA
HETATM   40  H42 UNL     1       6.515  10.725  13.592  1.00  0.00     0.210 HD
ENDBRANCH  20  39
TORSDOF 9
ENDMDL
MODEL 9
REMARK minimizedAffinity -6.3738904
REMARK CNNscore 0.528049946
REMARK CNNaffinity 5.43766165
REMARK  9 active torsions:
REMARK  status: ('A' for Active; 'I' for Inactive)
REMARK    1  A    between atoms: C4_4  and  C5_5 
REMARK    2  A    between atoms: C5_5  and  C6_6 
REMARK    3  A    between atoms: C6_6  and  C7_7 
REMARK    4  A    between atoms: C7_7  and  C9_9 
REMARK    5  A    between atoms: C16_16  and  O1_17 
REMARK    6  A    between atoms: C25_27  and  C27_29 
REMARK    7  A    between atoms: C27_29  and  O4_31 
REMARK    8  A    between atoms: C28_32  and  O5_33 
REMARK    9  A    between atoms: C30_35  and  O6_36 
ROOT
HETATM    1  C9  UNL     1     -17.414   2.085  14.485  1.00  0.00    -0.002 C 
HETATM    2  C10 UNL     1     -17.717   1.915  15.996  1.00  0.00     0.007 C 
HETATM    3  C11 UNL     1     -17.195   0.523  16.405  1.00  0.00     0.015 C 
HETATM    4  C12 UNL     1     -16.295   0.068  15.237  1.00  0.00    -0.005 C 
HETATM    5  C13 UNL     1     -14.894   0.722  15.462  1.00  0.00     0.021 C 
HETATM    6  C14 UNL     1     -15.985  -1.406  15.022  1.00  0.00     0.003 C 
HETATM    7  C15 UNL     1     -15.673  -1.903  13.791  1.00  0.00    -0.030 C 
HETATM    8  C16 UNL     1     -15.818  -0.997  12.542  1.00  0.00     0.149 C 
HETATM    9  C17 UNL     1     -16.264   0.467  12.767  1.00  0.00     0.047 C 
HETATM   10  C18 UNL     1     -17.130   0.625  14.016  1.00  0.00    -0.026 C 
HETATM   11  C19 UNL     1     -18.462  -0.150  13.794  1.00  0.00     0.016 C 
HETATM   12  C20 UNL     1     -15.266  -3.412  13.559  1.00  0.00     0.014 C 
HETATM   13  C21 UNL     1     -16.455  -4.054  12.804  1.00  0.00     0.023 C 
HETATM   14  C22 UNL     1     -14.997  -4.127  14.929  1.00  0.00     0.029 C 
HETATM   15  C23 UNL     1     -16.075  -3.789  15.953  1.00  0.00     0.090 C 
HETATM   16  C24 UNL     1     -16.019  -2.311  16.213  1.00  0.00     0.157 C 
HETATM   17  O2  UNL     1     -16.034  -1.875  17.360  1.00  0.00    -0.293 OA
HETATM   18  C25 UNL     1     -14.571  -5.645  14.849  1.00  0.00     0.072 C 
HETATM   19  C26 UNL     1     -13.728  -5.951  16.122  1.00  0.00     0.030 C 
HETATM   20  C28 UNL     1     -13.662  -5.916  13.608  1.00  0.00     0.139 C 
HETATM   21  C29 UNL     1     -12.957  -4.655  13.127  1.00  0.00     0.065 C 
HETATM   22  C30 UNL     1     -13.913  -3.505  12.755  1.00  0.00     0.133 C 
ENDROOT
BRANCH   1  23
HETATM   23  C7  UNL     1     -18.325   3.093  13.719  1.00  0.00    -0.014 C 
HETATM   24  C8  UNL     1     -19.044   4.021  14.720  1.00  0.00     0.010 C 
BRANCH  23  25
HETATM   25  C6  UNL     1     -17.770   3.986  12.584  1.00  0.00     0.008 C 
BRANCH  25  26
HETATM   26  C5  UNL     1     -17.903   5.507  12.703  1.00  0.00     0.028 C 
BRANCH  26  27
HETATM   27  C4  UNL     1     -16.584   6.231  12.650  1.00  0.00    -0.025 C 
HETATM   28  C2  UNL     1     -15.633   6.293  13.601  1.00  0.00    -0.091 C 
HETATM   29  C1  UNL     1     -14.353   7.046  13.348  1.00  0.00     0.042 C 
HETATM   30  C3  UNL     1     -15.726   5.659  14.960  1.00  0.00     0.042 C 
ENDBRANCH  26  27
ENDBRANCH  25  26
ENDBRANCH  23  25
ENDBRANCH   1  23
BRANCH   8  31
HETATM   31  O1  UNL     1     -14.602  -0.909  11.813  1.00  0.00    -0.391 OA
HETATM   32  H25 UNL     1     -14.528  -1.741  11.297  1.00  0.00     0.210 HD
ENDBRANCH   8  31
BRANCH  22  33
HETATM   33  O6  UNL     1     -14.181  -3.473  11.346  1.00  0.00    -0.394 OA
HETATM   34  H46 UNL     1     -13.587  -4.104  10.897  1.00  0.00     0.210 HD
ENDBRANCH  22  33
BRANCH  18  35
HETATM   35  C27 UNL     1     -15.667  -6.705  14.852  1.00  0.00     0.151 C 
HETATM   36  O3  UNL     1     -15.503  -7.871  14.520  1.00  0.00    -0.649 OA
BRANCH  35  37
HETATM   37  O4  UNL     1     -16.882  -6.302  15.239  1.00  0.00    -0.776 OA
HETATM   38  H40 UNL     1     -17.446  -7.102  15.158  1.00  0.00     0.167 HD
ENDBRANCH  35  37
ENDBRANCH  18  35
BRANCH  20  39
HETATM   39  O5  UNL     1     -14.361  -6.448  12.485  1.00  0.00    -0.394 OA
HETATM   40  H42 UNL     1     -14.476  -7.405  12.639  1.00  0.00     0.210 HD
ENDBRANCH  20  39
TORSDOF 9
ENDMDL
