MODEL 1
REMARK minimizedAffinity -6.20766449
REMARK  6 active torsions:
REMARK  status: ('A' for Active; 'I' for Inactive)
REMARK    1  A    between atoms: N1_2  and  C3_4 
REMARK    2  A    between atoms: C3_4  and  C4_5 
REMARK    3  A    between atoms: C4_5  and  O1_6 
REMARK    4  A    between atoms: O1_6  and  C5_7 
REMARK    5  A    between atoms: C5_7  and  C6_8 
REMARK    6  A    between atoms: C5_7  and  C12_14 
ROOT
HETATM    1  C5  UNL     1       8.445  -4.979  30.656  1.00  0.00     0.206 C 
ENDROOT
BRANCH   1   2
HETATM    2  O1  UNL     1       9.009  -6.265  30.373  1.00  0.00    -0.373 OA
BRANCH   2   3
HETATM    3  C4  UNL     1       9.999  -6.250  29.341  1.00  0.00     0.199 C 
BRANCH   3   4
HETATM    4  C3  UNL     1       9.884  -4.986  28.466  1.00  0.00     0.297 C 
BRANCH   4   5
HETATM    5  N1  UNL     1      11.108  -4.203  28.237  1.00  0.00     0.082 N 
HETATM    6  C1  UNL     1      11.436  -3.337  29.366  1.00  0.00     0.309 C 
HETATM    7  C2  UNL     1      11.072  -3.446  26.989  1.00  0.00     0.309 C 
ENDBRANCH   4   5
ENDBRANCH   3   4
ENDBRANCH   2   3
ENDBRANCH   1   2
BRANCH   1   8
HETATM    8  C6  UNL     1       6.956  -5.060  30.371  1.00  0.00    -0.024 A 
HETATM    9  C7  UNL     1       6.101  -4.018  30.767  1.00  0.00     0.010 A 
HETATM   10  C8  UNL     1       4.730  -4.087  30.511  1.00  0.00     0.001 A 
HETATM   11  C9  UNL     1       4.196  -5.192  29.852  1.00  0.00     0.000 A 
HETATM   12  C10 UNL     1       5.032  -6.228  29.443  1.00  0.00     0.001 A 
HETATM   13  C11 UNL     1       6.403  -6.161  29.697  1.00  0.00     0.010 A 
ENDBRANCH   1   8
BRANCH   1  14
HETATM   14  C12 UNL     1       8.767  -4.661  32.086  1.00  0.00     0.062 A 
HETATM   15  C13 UNL     1       8.850  -5.471  33.205  1.00  0.00     0.048 A 
HETATM   16  C14 UNL     1       9.201  -4.615  34.259  1.00  0.00     0.109 A 
HETATM   17  N2  UNL     1       9.340  -3.352  33.857  1.00  0.00    -0.310 N 
HETATM   18  N3  UNL     1       9.060  -3.397  32.539  1.00  0.00    -0.298 N 
ATOM     19  H2  UNL     1       9.599  -2.540  34.417  1.00  0.00     0.186 HD
HETATM   20  C15 UNL     1       9.086  -2.163  31.788  1.00  0.00     0.177 C 
ENDBRANCH   1  14
TORSDOF 6
ENDMDL
MODEL 2
REMARK minimizedAffinity -6.19760799
REMARK  6 active torsions:
REMARK  status: ('A' for Active; 'I' for Inactive)
REMARK    1  A    between atoms: N1_2  and  C3_4 
REMARK    2  A    between atoms: C3_4  and  C4_5 
REMARK    3  A    between atoms: C4_5  and  O1_6 
REMARK    4  A    between atoms: O1_6  and  C5_7 
REMARK    5  A    between atoms: C5_7  and  C6_8 
REMARK    6  A    between atoms: C5_7  and  C12_14 
ROOT
HETATM    1  C5  UNL     1       8.766  -5.226  31.301  1.00  0.00     0.206 C 
ENDROOT
BRANCH   1   2
HETATM    2  O1  UNL     1       8.942  -4.535  32.543  1.00  0.00    -0.373 OA
BRANCH   2   3
HETATM    3  C4  UNL     1      10.040  -5.012  33.323  1.00  0.00     0.199 C 
BRANCH   3   4
HETATM    4  C3  UNL     1      10.495  -3.964  34.358  1.00  0.00     0.297 C 
BRANCH   4   5
HETATM    5  N1  UNL     1      11.756  -3.254  34.098  1.00  0.00     0.082 N 
HETATM    6  C1  UNL     1      12.413  -2.814  35.326  1.00  0.00     0.309 C 
HETATM    7  C2  UNL     1      11.599  -2.144  33.162  1.00  0.00     0.309 C 
ENDBRANCH   4   5
ENDBRANCH   3   4
ENDBRANCH   2   3
ENDBRANCH   1   2
BRANCH   1   8
HETATM    8  C6  UNL     1       7.350  -4.958  30.824  1.00  0.00    -0.024 A 
HETATM    9  C7  UNL     1       6.685  -5.893  30.013  1.00  0.00     0.010 A 
HETATM   10  C8  UNL     1       5.384  -5.652  29.568  1.00  0.00     0.001 A 
HETATM   11  C9  UNL     1       4.727  -4.478  29.932  1.00  0.00     0.000 A 
HETATM   12  C10 UNL     1       5.368  -3.547  30.745  1.00  0.00     0.001 A 
HETATM   13  C11 UNL     1       6.668  -3.786  31.191  1.00  0.00     0.010 A 
ENDBRANCH   1   8
BRANCH   1  14
HETATM   14  C12 UNL     1       9.822  -4.723  30.362  1.00  0.00     0.062 A 
HETATM   15  C13 UNL     1      10.224  -3.438  30.045  1.00  0.00     0.048 A 
HETATM   16  C14 UNL     1      11.264  -3.592  29.116  1.00  0.00     0.109 A 
HETATM   17  N2  UNL     1      11.520  -4.873  28.854  1.00  0.00    -0.310 N 
HETATM   18  N3  UNL     1      10.627  -5.544  29.608  1.00  0.00    -0.298 N 
ATOM     19  H2  UNL     1      12.227  -5.256  28.228  1.00  0.00     0.186 HD
HETATM   20  C15 UNL     1      10.609  -6.987  29.533  1.00  0.00     0.177 C 
ENDBRANCH   1  14
TORSDOF 6
ENDMDL
MODEL 3
REMARK minimizedAffinity -6.16173172
REMARK  6 active torsions:
REMARK  status: ('A' for Active; 'I' for Inactive)
REMARK    1  A    between atoms: N1_2  and  C3_4 
REMARK    2  A    between atoms: C3_4  and  C4_5 
REMARK    3  A    between atoms: C4_5  and  O1_6 
REMARK    4  A    between atoms: O1_6  and  C5_7 
REMARK    5  A    between atoms: C5_7  and  C6_8 
REMARK    6  A    between atoms: C5_7  and  C12_14 
ROOT
HETATM    1  C5  UNL     1       8.721  -4.942  30.501  1.00  0.00     0.206 C 
ENDROOT
BRANCH   1   2
HETATM    2  O1  UNL     1       9.007  -5.870  31.554  1.00  0.00    -0.373 OA
BRANCH   2   3
HETATM    3  C4  UNL     1      10.088  -5.474  32.400  1.00  0.00     0.199 C 
BRANCH   3   4
HETATM    4  C3  UNL     1       9.682  -5.504  33.887  1.00  0.00     0.297 C 
BRANCH   4   5
HETATM    5  N1  UNL     1       9.663  -4.225  34.614  1.00  0.00     0.082 N 
HETATM    6  C1  UNL     1      11.005  -3.717  34.883  1.00  0.00     0.309 C 
HETATM    7  C2  UNL     1       8.869  -4.280  35.838  1.00  0.00     0.309 C 
ENDBRANCH   4   5
ENDBRANCH   3   4
ENDBRANCH   2   3
ENDBRANCH   1   2
BRANCH   1   8
HETATM    8  C6  UNL     1       7.237  -5.040  30.195  1.00  0.00    -0.024 A 
HETATM    9  C7  UNL     1       6.748  -6.076  29.382  1.00  0.00     0.010 A 
HETATM   10  C8  UNL     1       5.385  -6.172  29.093  1.00  0.00     0.001 A 
HETATM   11  C9  UNL     1       4.493  -5.239  29.618  1.00  0.00     0.000 A 
HETATM   12  C10 UNL     1       4.960  -4.214  30.436  1.00  0.00     0.001 A 
HETATM   13  C11 UNL     1       6.322  -4.117  30.726  1.00  0.00     0.010 A 
ENDBRANCH   1   8
BRANCH   1  14
HETATM   14  C12 UNL     1       9.148  -3.586  30.980  1.00  0.00     0.062 A 
HETATM   15  C13 UNL     1       8.557  -2.703  31.865  1.00  0.00     0.048 A 
HETATM   16  C14 UNL     1       9.424  -1.603  31.928  1.00  0.00     0.109 A 
HETATM   17  N2  UNL     1      10.495  -1.760  31.151  1.00  0.00    -0.310 N 
HETATM   18  N3  UNL     1      10.304  -2.963  30.573  1.00  0.00    -0.298 N 
ATOM     19  H2  UNL     1      11.278  -1.119  31.023  1.00  0.00     0.186 HD
HETATM   20  C15 UNL     1      11.286  -3.435  29.624  1.00  0.00     0.177 C 
ENDBRANCH   1  14
TORSDOF 6
ENDMDL
MODEL 4
REMARK minimizedAffinity -6.01505947
REMARK  6 active torsions:
REMARK  status: ('A' for Active; 'I' for Inactive)
REMARK    1  A    between atoms: N1_2  and  C3_4 
REMARK    2  A    between atoms: C3_4  and  C4_5 
REMARK    3  A    between atoms: C4_5  and  O1_6 
REMARK    4  A    between atoms: O1_6  and  C5_7 
REMARK    5  A    between atoms: C5_7  and  C6_8 
REMARK    6  A    between atoms: C5_7  and  C12_14 
ROOT
HETATM    1  C5  UNL     1       8.843  -4.570  31.604  1.00  0.00     0.206 C 
ENDROOT
BRANCH   1   2
HETATM    2  O1  UNL     1       9.769  -3.935  30.714  1.00  0.00    -0.373 OA
BRANCH   2   3
HETATM    3  C4  UNL     1      10.437  -4.838  29.830  1.00  0.00     0.199 C 
BRANCH   3   4
HETATM    4  C3  UNL     1       9.677  -4.989  28.497  1.00  0.00     0.297 C 
BRANCH   4   5
HETATM    5  N1  UNL     1      10.414  -4.705  27.257  1.00  0.00     0.082 N 
HETATM    6  C1  UNL     1      11.195  -5.850  26.797  1.00  0.00     0.309 C 
HETATM    7  C2  UNL     1      11.246  -3.508  27.353  1.00  0.00     0.309 C 
ENDBRANCH   4   5
ENDBRANCH   3   4
ENDBRANCH   2   3
ENDBRANCH   1   2
BRANCH   1   8
HETATM    8  C6  UNL     1       9.346  -4.349  33.020  1.00  0.00    -0.024 A 
HETATM    9  C7  UNL     1      10.611  -3.779  33.242  1.00  0.00     0.010 A 
HETATM   10  C8  UNL     1      11.081  -3.576  34.541  1.00  0.00     0.001 A 
HETATM   11  C9  UNL     1      10.294  -3.934  35.634  1.00  0.00     0.000 A 
HETATM   12  C10 UNL     1       9.033  -4.489  35.430  1.00  0.00     0.001 A 
HETATM   13  C11 UNL     1       8.560  -4.692  34.132  1.00  0.00     0.010 A 
ENDBRANCH   1   8
BRANCH   1  14
HETATM   14  C12 UNL     1       7.496  -3.965  31.343  1.00  0.00     0.062 A 
HETATM   15  C13 UNL     1       6.991  -2.707  31.618  1.00  0.00     0.048 A 
HETATM   16  C14 UNL     1       5.676  -2.718  31.131  1.00  0.00     0.109 A 
HETATM   17  N2  UNL     1       5.354  -3.888  30.579  1.00  0.00    -0.310 N 
HETATM   18  N3  UNL     1       6.465  -4.636  30.729  1.00  0.00    -0.298 N 
ATOM     19  H2  UNL     1       4.471  -4.155  30.145  1.00  0.00     0.186 HD
HETATM   20  C15 UNL     1       6.443  -6.002  30.259  1.00  0.00     0.177 C 
ENDBRANCH   1  14
TORSDOF 6
ENDMDL
MODEL 5
REMARK minimizedAffinity -5.96849442
REMARK  6 active torsions:
REMARK  status: ('A' for Active; 'I' for Inactive)
REMARK    1  A    between atoms: N1_2  and  C3_4 
REMARK    2  A    between atoms: C3_4  and  C4_5 
REMARK    3  A    between atoms: C4_5  and  O1_6 
REMARK    4  A    between atoms: O1_6  and  C5_7 
REMARK    5  A    between atoms: C5_7  and  C6_8 
REMARK    6  A    between atoms: C5_7  and  C12_14 
ROOT
HETATM    1  C5  UNL     1       8.641  -5.510  30.301  1.00  0.00     0.206 C 
ENDROOT
BRANCH   1   2
HETATM    2  O1  UNL     1       9.331  -4.561  31.123  1.00  0.00    -0.373 OA
BRANCH   2   3
HETATM    3  C4  UNL     1       9.548  -5.004  32.465  1.00  0.00     0.199 C 
BRANCH   3   4
HETATM    4  C3  UNL     1       9.790  -3.817  33.419  1.00  0.00     0.297 C 
BRANCH   4   5
HETATM    5  N1  UNL     1      10.704  -2.756  32.967  1.00  0.00     0.082 N 
HETATM    6  C1  UNL     1      11.750  -2.467  33.944  1.00  0.00     0.309 C 
HETATM    7  C2  UNL     1      10.005  -1.536  32.571  1.00  0.00     0.309 C 
ENDBRANCH   4   5
ENDBRANCH   3   4
ENDBRANCH   2   3
ENDBRANCH   1   2
BRANCH   1   8
HETATM    8  C6  UNL     1       7.167  -5.149  30.326  1.00  0.00    -0.024 A 
HETATM    9  C7  UNL     1       6.198  -6.104  29.976  1.00  0.00     0.010 A 
HETATM   10  C8  UNL     1       4.840  -5.780  29.993  1.00  0.00     0.001 A 
HETATM   11  C9  UNL     1       4.431  -4.500  30.366  1.00  0.00     0.000 A 
HETATM   12  C10 UNL     1       5.379  -3.546  30.727  1.00  0.00     0.001 A 
HETATM   13  C11 UNL     1       6.737  -3.869  30.711  1.00  0.00     0.010 A 
ENDBRANCH   1   8
BRANCH   1  14
HETATM   14  C12 UNL     1       9.256  -5.439  28.935  1.00  0.00     0.062 A 
HETATM   15  C13 UNL     1       9.032  -6.188  27.794  1.00  0.00     0.048 A 
HETATM   16  C14 UNL     1       9.891  -5.653  26.823  1.00  0.00     0.109 A 
HETATM   17  N2  UNL     1      10.611  -4.635  27.293  1.00  0.00    -0.310 N 
HETATM   18  N3  UNL     1      10.223  -4.528  28.579  1.00  0.00    -0.298 N 
ATOM     19  H2  UNL     1      11.298  -4.068  26.796  1.00  0.00     0.186 HD
HETATM   20  C15 UNL     1      10.847  -3.521  29.406  1.00  0.00     0.177 C 
ENDBRANCH   1  14
TORSDOF 6
ENDMDL
MODEL 6
REMARK minimizedAffinity -5.91380167
REMARK  6 active torsions:
REMARK  status: ('A' for Active; 'I' for Inactive)
REMARK    1  A    between atoms: N1_2  and  C3_4 
REMARK    2  A    between atoms: C3_4  and  C4_5 
REMARK    3  A    between atoms: C4_5  and  O1_6 
REMARK    4  A    between atoms: O1_6  and  C5_7 
REMARK    5  A    between atoms: C5_7  and  C6_8 
REMARK    6  A    between atoms: C5_7  and  C12_14 
ROOT
HETATM    1  C5  UNL     1       8.868  -5.977  29.135  1.00  0.00     0.206 C 
ENDROOT
BRANCH   1   2
HETATM    2  O1  UNL     1       9.482  -6.126  30.420  1.00  0.00    -0.373 OA
BRANCH   2   3
HETATM    3  C4  UNL     1       9.874  -4.892  31.024  1.00  0.00     0.199 C 
BRANCH   3   4
HETATM    4  C3  UNL     1      10.859  -5.120  32.188  1.00  0.00     0.297 C 
BRANCH   4   5
HETATM    5  N1  UNL     1      11.149  -3.978  33.069  1.00  0.00     0.082 N 
HETATM    6  C1  UNL     1      10.412  -4.044  34.328  1.00  0.00     0.309 C 
HETATM    7  C2  UNL     1      10.947  -2.690  32.411  1.00  0.00     0.309 C 
ENDBRANCH   4   5
ENDBRANCH   3   4
ENDBRANCH   2   3
ENDBRANCH   1   2
BRANCH   1   8
HETATM    8  C6  UNL     1       7.489  -5.381  29.354  1.00  0.00    -0.024 A 
HETATM    9  C7  UNL     1       6.506  -5.482  28.354  1.00  0.00     0.010 A 
HETATM   10  C8  UNL     1       5.236  -4.934  28.546  1.00  0.00     0.001 A 
HETATM   11  C9  UNL     1       4.929  -4.283  29.740  1.00  0.00     0.000 A 
HETATM   12  C10 UNL     1       5.889  -4.185  30.744  1.00  0.00     0.001 A 
HETATM   13  C11 UNL     1       7.158  -4.733  30.555  1.00  0.00     0.010 A 
ENDBRANCH   1   8
BRANCH   1  14
HETATM   14  C12 UNL     1       9.774  -5.111  28.311  1.00  0.00     0.062 A 
HETATM   15  C13 UNL     1      10.530  -4.002  28.646  1.00  0.00     0.048 A 
HETATM   16  C14 UNL     1      11.182  -3.625  27.463  1.00  0.00     0.109 A 
HETATM   17  N2  UNL     1      10.878  -4.426  26.443  1.00  0.00    -0.310 N 
HETATM   18  N3  UNL     1      10.013  -5.314  26.972  1.00  0.00    -0.298 N 
ATOM     19  H2  UNL     1      11.221  -4.379  25.484  1.00  0.00     0.186 HD
HETATM   20  C15 UNL     1       9.449  -6.325  26.108  1.00  0.00     0.177 C 
ENDBRANCH   1  14
TORSDOF 6
ENDMDL
MODEL 7
REMARK minimizedAffinity -5.80373812
REMARK  6 active torsions:
REMARK  status: ('A' for Active; 'I' for Inactive)
REMARK    1  A    between atoms: N1_2  and  C3_4 
REMARK    2  A    between atoms: C3_4  and  C4_5 
REMARK    3  A    between atoms: C4_5  and  O1_6 
REMARK    4  A    between atoms: O1_6  and  C5_7 
REMARK    5  A    between atoms: C5_7  and  C6_8 
REMARK    6  A    between atoms: C5_7  and  C12_14 
ROOT
HETATM    1  C5  UNL     1       9.649  -4.364  31.365  1.00  0.00     0.206 C 
ENDROOT
BRANCH   1   2
HETATM    2  O1  UNL     1       8.392  -5.041  31.487  1.00  0.00    -0.373 OA
BRANCH   2   3
HETATM    3  C4  UNL     1       7.655  -5.123  30.265  1.00  0.00     0.199 C 
BRANCH   3   4
HETATM    4  C3  UNL     1       6.304  -5.837  30.468  1.00  0.00     0.297 C 
BRANCH   4   5
HETATM    5  N1  UNL     1       5.097  -5.168  29.958  1.00  0.00     0.082 N 
HETATM    6  C1  UNL     1       5.083  -5.078  28.500  1.00  0.00     0.309 C 
HETATM    7  C2  UNL     1       4.874  -3.859  30.566  1.00  0.00     0.309 C 
ENDBRANCH   4   5
ENDBRANCH   3   4
ENDBRANCH   2   3
ENDBRANCH   1   2
BRANCH   1   8
HETATM    8  C6  UNL     1      10.162  -4.097  32.768  1.00  0.00    -0.024 A 
HETATM    9  C7  UNL     1      11.429  -3.520  32.961  1.00  0.00     0.010 A 
HETATM   10  C8  UNL     1      11.910  -3.274  34.248  1.00  0.00     0.001 A 
HETATM   11  C9  UNL     1      11.131  -3.593  35.359  1.00  0.00     0.000 A 
HETATM   12  C10 UNL     1       9.869  -4.154  35.183  1.00  0.00     0.001 A 
HETATM   13  C11 UNL     1       9.386  -4.401  33.897  1.00  0.00     0.010 A 
ENDBRANCH   1   8
BRANCH   1  14
HETATM   14  C12 UNL     1      10.548  -5.248  30.552  1.00  0.00     0.062 A 
HETATM   15  C13 UNL     1      10.955  -6.556  30.741  1.00  0.00     0.048 A 
HETATM   16  C14 UNL     1      11.784  -6.850  29.649  1.00  0.00     0.109 A 
HETATM   17  N2  UNL     1      11.903  -5.817  28.815  1.00  0.00    -0.310 N 
HETATM   18  N3  UNL     1      11.158  -4.850  29.386  1.00  0.00    -0.298 N 
ATOM     19  H2  UNL     1      12.435  -5.770  27.946  1.00  0.00     0.186 HD
HETATM   20  C15 UNL     1      11.096  -3.558  28.742  1.00  0.00     0.177 C 
ENDBRANCH   1  14
TORSDOF 6
ENDMDL
MODEL 8
REMARK minimizedAffinity -5.74107504
REMARK  6 active torsions:
REMARK  status: ('A' for Active; 'I' for Inactive)
REMARK    1  A    between atoms: N1_2  and  C3_4 
REMARK    2  A    between atoms: C3_4  and  C4_5 
REMARK    3  A    between atoms: C4_5  and  O1_6 
REMARK    4  A    between atoms: O1_6  and  C5_7 
REMARK    5  A    between atoms: C5_7  and  C6_8 
REMARK    6  A    between atoms: C5_7  and  C12_14 
ROOT
HETATM    1  C5  UNL     1       8.601  -5.644  30.338  1.00  0.00     0.206 C 
ENDROOT
BRANCH   1   2
HETATM    2  O1  UNL     1       9.146  -4.555  31.094  1.00  0.00    -0.373 OA
BRANCH   2   3
HETATM    3  C4  UNL     1       9.733  -4.947  32.337  1.00  0.00     0.199 C 
BRANCH   3   4
HETATM    4  C3  UNL     1       9.904  -3.743  33.285  1.00  0.00     0.297 C 
BRANCH   4   5
HETATM    5  N1  UNL     1      10.755  -2.633  32.828  1.00  0.00     0.082 N 
HETATM    6  C1  UNL     1      11.812  -2.311  33.783  1.00  0.00     0.309 C 
HETATM    7  C2  UNL     1       9.989  -1.441  32.472  1.00  0.00     0.309 C 
ENDBRANCH   4   5
ENDBRANCH   3   4
ENDBRANCH   2   3
ENDBRANCH   1   2
BRANCH   1   8
HETATM    8  C6  UNL     1       7.149  -5.314  30.044  1.00  0.00    -0.024 A 
HETATM    9  C7  UNL     1       6.482  -4.325  30.786  1.00  0.00     0.010 A 
HETATM   10  C8  UNL     1       5.145  -4.018  30.523  1.00  0.00     0.001 A 
HETATM   11  C9  UNL     1       4.459  -4.690  29.513  1.00  0.00     0.000 A 
HETATM   12  C10 UNL     1       5.110  -5.665  28.761  1.00  0.00     0.001 A 
HETATM   13  C11 UNL     1       6.446  -5.972  29.022  1.00  0.00     0.010 A 
ENDBRANCH   1   8
BRANCH   1  14
HETATM   14  C12 UNL     1       9.446  -5.793  29.108  1.00  0.00     0.062 A 
HETATM   15  C13 UNL     1       9.954  -4.853  28.230  1.00  0.00     0.048 A 
HETATM   16  C14 UNL     1      10.679  -5.585  27.279  1.00  0.00     0.109 A 
HETATM   17  N2  UNL     1      10.648  -6.894  27.521  1.00  0.00    -0.310 N 
HETATM   18  N3  UNL     1       9.885  -7.004  28.626  1.00  0.00    -0.298 N 
ATOM     19  H2  UNL     1      11.099  -7.641  26.993  1.00  0.00     0.186 HD
HETATM   20  C15 UNL     1       9.616  -8.323  29.150  1.00  0.00     0.177 C 
ENDBRANCH   1  14
TORSDOF 6
ENDMDL
MODEL 9
REMARK minimizedAffinity -5.7365036
REMARK  6 active torsions:
REMARK  status: ('A' for Active; 'I' for Inactive)
REMARK    1  A    between atoms: N1_2  and  C3_4 
REMARK    2  A    between atoms: C3_4  and  C4_5 
REMARK    3  A    between atoms: C4_5  and  O1_6 
REMARK    4  A    between atoms: O1_6  and  C5_7 
REMARK    5  A    between atoms: C5_7  and  C6_8 
REMARK    6  A    between atoms: C5_7  and  C12_14 
ROOT
HETATM    1  C5  UNL     1       8.587  -4.978  30.654  1.00  0.00     0.206 C 
ENDROOT
BRANCH   1   2
HETATM    2  O1  UNL     1       9.181  -6.266  30.456  1.00  0.00    -0.373 OA
BRANCH   2   3
HETATM    3  C4  UNL     1      10.545  -6.217  30.030  1.00  0.00     0.199 C 
BRANCH   3   4
HETATM    4  C3  UNL     1      10.657  -6.241  28.492  1.00  0.00     0.297 C 
BRANCH   4   5
HETATM    5  N1  UNL     1       9.660  -7.026  27.749  1.00  0.00     0.082 N 
HETATM    6  C1  UNL     1      10.144  -8.361  27.406  1.00  0.00     0.309 C 
HETATM    7  C2  UNL     1       9.157  -6.332  26.567  1.00  0.00     0.309 C 
ENDBRANCH   4   5
ENDBRANCH   3   4
ENDBRANCH   2   3
ENDBRANCH   1   2
BRANCH   1   8
HETATM    8  C6  UNL     1       7.108  -5.103  30.333  1.00  0.00    -0.024 A 
HETATM    9  C7  UNL     1       6.207  -4.107  30.744  1.00  0.00     0.010 A 
HETATM   10  C8  UNL     1       4.845  -4.216  30.456  1.00  0.00     0.001 A 
HETATM   11  C9  UNL     1       4.366  -5.316  29.747  1.00  0.00     0.000 A 
HETATM   12  C10 UNL     1       5.249  -6.306  29.322  1.00  0.00     0.001 A 
HETATM   13  C11 UNL     1       6.611  -6.199  29.609  1.00  0.00     0.010 A 
ENDBRANCH   1   8
BRANCH   1  14
HETATM   14  C12 UNL     1       8.863  -4.578  32.073  1.00  0.00     0.062 A 
HETATM   15  C13 UNL     1       8.764  -5.287  33.256  1.00  0.00     0.048 A 
HETATM   16  C14 UNL     1       9.166  -4.394  34.260  1.00  0.00     0.109 A 
HETATM   17  N2  UNL     1       9.503  -3.202  33.768  1.00  0.00    -0.310 N 
HETATM   18  N3  UNL     1       9.301  -3.328  32.442  1.00  0.00    -0.298 N 
ATOM     19  H2  UNL     1       9.838  -2.385  34.277  1.00  0.00     0.186 HD
HETATM   20  C15 UNL     1       9.543  -2.182  31.596  1.00  0.00     0.177 C 
ENDBRANCH   1  14
TORSDOF 6
ENDMDL
