MODEL 1
REMARK minimizedAffinity -9.96914005
REMARK CNNscore 0.762007892
REMARK CNNaffinity 7.47298098
REMARK  11 active torsions:
REMARK  status: ('A' for Active; 'I' for Inactive)
REMARK    1  A    between atoms: C3_4  and  O2_5 
REMARK    2  A    between atoms: O2_5  and  C4_6 
REMARK    3  A    between atoms: C7_9  and  C8_10 
REMARK    4  A    between atoms: N1_11  and  C9_13 
REMARK    5  A    between atoms: C9_13  and  C10_14 
REMARK    6  A    between atoms: C10_14  and  O3_15 
REMARK    7  A    between atoms: C16_21  and  C17_22 
REMARK    8  A    between atoms: C23_30  and  O6_31 
REMARK    9  A    between atoms: C27_35  and  O7_36 
REMARK   10  A    between atoms: C30_39  and  O8_40 
REMARK   11  A    between atoms: C31_41  and  O9_42 
ROOT
HETATM    1  C4  UNL     1      -0.091   5.138  11.048  1.00  0.00     0.127 C 
HETATM    2  C5  UNL     1      -0.362   4.307  12.304  1.00  0.00     0.033 C 
HETATM    3  C6  UNL     1       0.248   4.944  13.550  1.00  0.00     0.021 C 
HETATM    4  C7  UNL     1      -0.230   6.404  13.805  1.00  0.00     0.026 C 
HETATM    5  C11 UNL     1      -1.765   6.469  14.172  1.00  0.00     0.009 C 
HETATM    6  C12 UNL     1      -2.165   5.699  15.429  1.00  0.00     0.007 C 
HETATM    7  C13 UNL     1      -3.676   5.476  15.491  1.00  0.00     0.013 C 
HETATM    8  C14 UNL     1      -4.563   6.638  14.975  1.00  0.00    -0.005 C 
HETATM    9  C15 UNL     1      -5.764   6.739  15.954  1.00  0.00     0.019 C 
HETATM   10  C16 UNL     1      -5.069   6.442  13.503  1.00  0.00     0.028 C 
HETATM   11  C21 UNL     1      -5.478   7.854  13.035  1.00  0.00     0.013 C 
HETATM   12  C22 UNL     1      -4.795   8.833  13.990  1.00  0.00     0.040 C 
HETATM   13  C23 UNL     1      -3.809   8.004  14.837  1.00  0.00     0.070 C 
HETATM   14  C24 UNL     1      -2.327   7.920  14.294  1.00  0.00     0.026 C 
HETATM   15  C25 UNL     1      -2.035   8.722  13.020  1.00  0.00     0.011 C 
HETATM   16  C26 UNL     1      -0.555   8.680  12.651  1.00  0.00     0.039 C 
HETATM   17  C27 UNL     1       0.017   7.260  12.507  1.00  0.00     0.073 C 
HETATM   18  C28 UNL     1      -0.580   6.579  11.243  1.00  0.00     0.071 C 
ENDROOT
BRANCH   1  19
HETATM   19  O2  UNL     1       1.298   5.213  10.717  1.00  0.00    -0.356 OA
BRANCH  19  20
HETATM   20  C3  UNL     1       1.696   6.458  10.138  1.00  0.00     0.263 C 
HETATM   21  O1  UNL     1       1.334   6.441   8.762  1.00  0.00    -0.354 OA
HETATM   22  C2  UNL     1       1.663   7.659   8.092  1.00  0.00     0.151 C 
HETATM   23  C1  UNL     1       1.168   7.524   6.656  1.00  0.00     0.042 C 
HETATM   24  C31 UNL     1       3.182   7.912   8.139  1.00  0.00     0.175 C 
HETATM   25  C30 UNL     1       3.694   7.840   9.586  1.00  0.00     0.154 C 
HETATM   26  C29 UNL     1       3.212   6.574  10.272  1.00  0.00     0.095 C 
BRANCH  24  27
HETATM   27  O9  UNL     1       3.509   9.202   7.612  1.00  0.00    -0.390 OA
HETATM   28  H47 UNL     1       3.537   9.110   6.644  1.00  0.00     0.210 HD
ENDBRANCH  24  27
BRANCH  25  29
HETATM   29  O8  UNL     1       3.232   8.980  10.321  1.00  0.00    -0.393 OA
HETATM   30  H45 UNL     1       3.378   9.736   9.715  1.00  0.00     0.210 HD
ENDBRANCH  25  29
ENDBRANCH  19  20
ENDBRANCH   1  19
BRANCH  17  31
HETATM   31  O7  UNL     1       1.424   7.456  12.278  1.00  0.00    -0.389 OA
HETATM   32  H39 UNL     1       1.789   6.615  11.928  1.00  0.00     0.210 HD
ENDBRANCH  17  31
BRANCH   4  33
HETATM   33  C8  UNL     1       0.621   6.981  14.947  1.00  0.00     0.068 C 
HETATM   34  N1  UNL     1       1.874   6.685  15.072  1.00  0.00    -0.399 N 
ATOM     35  H1  UNL     1       2.319   5.957  14.513  1.00  0.00     0.158 HD
BRANCH  34  36
HETATM   36  C9  UNL     1       2.616   7.465  16.070  1.00  0.00     0.144 C 
BRANCH  36  37
HETATM   37  C10 UNL     1       1.793   8.713  16.385  1.00  0.00     0.183 C 
BRANCH  37  38
HETATM   38  O3  UNL     1       2.220   9.263  17.638  1.00  0.00    -0.399 OA
HETATM   39  H16 UNL     1       2.087   8.542  18.297  1.00  0.00     0.209 HD
ENDBRANCH  37  38
ENDBRANCH  36  37
ENDBRANCH  34  36
ENDBRANCH   4  33
BRANCH  13  40
HETATM   40  O6  UNL     1      -3.728   8.619  16.130  1.00  0.00    -0.389 OA
HETATM   41  H33 UNL     1      -3.334   9.502  16.029  1.00  0.00     0.210 HD
ENDBRANCH  13  40
BRANCH  10  42
HETATM   42  C17 UNL     1      -6.081   5.369  13.211  1.00  0.00    -0.045 A 
HETATM   43  C18 UNL     1      -5.792   4.097  12.928  1.00  0.00     0.087 A 
HETATM   44  C19 UNL     1      -7.053   3.406  12.676  1.00  0.00     0.283 A 
HETATM   45  O4  UNL     1      -7.149   2.226  12.403  1.00  0.00    -0.260 OA
HETATM   46  O5  UNL     1      -8.075   4.295  12.792  1.00  0.00    -0.314 OA
HETATM   47  C20 UNL     1      -7.548   5.580  13.120  1.00  0.00     0.213 A 
ENDBRANCH  10  42
TORSDOF 11
ENDMDL
MODEL 2
REMARK minimizedAffinity -10.2067842
REMARK CNNscore 0.684133291
REMARK CNNaffinity 7.03982782
REMARK  11 active torsions:
REMARK  status: ('A' for Active; 'I' for Inactive)
REMARK    1  A    between atoms: C3_4  and  O2_5 
REMARK    2  A    between atoms: O2_5  and  C4_6 
REMARK    3  A    between atoms: C7_9  and  C8_10 
REMARK    4  A    between atoms: N1_11  and  C9_13 
REMARK    5  A    between atoms: C9_13  and  C10_14 
REMARK    6  A    between atoms: C10_14  and  O3_15 
REMARK    7  A    between atoms: C16_21  and  C17_22 
REMARK    8  A    between atoms: C23_30  and  O6_31 
REMARK    9  A    between atoms: C27_35  and  O7_36 
REMARK   10  A    between atoms: C30_39  and  O8_40 
REMARK   11  A    between atoms: C31_41  and  O9_42 
ROOT
HETATM    1  C4  UNL     1       0.424   7.066  11.820  1.00  0.00     0.127 C 
HETATM    2  C5  UNL     1       0.315   6.105  13.006  1.00  0.00     0.033 C 
HETATM    3  C6  UNL     1       0.513   6.823  14.339  1.00  0.00     0.021 C 
HETATM    4  C7  UNL     1      -0.473   8.009  14.564  1.00  0.00     0.026 C 
HETATM    5  C11 UNL     1      -1.965   7.516  14.722  1.00  0.00     0.009 C 
HETATM    6  C12 UNL     1      -2.215   6.568  15.893  1.00  0.00     0.007 C 
HETATM    7  C13 UNL     1      -3.548   5.836  15.745  1.00  0.00     0.013 C 
HETATM    8  C14 UNL     1      -4.719   6.656  15.144  1.00  0.00    -0.005 C 
HETATM    9  C15 UNL     1      -5.985   6.268  15.953  1.00  0.00     0.019 C 
HETATM   10  C16 UNL     1      -4.947   6.404  13.612  1.00  0.00     0.028 C 
HETATM   11  C21 UNL     1      -5.766   7.619  13.130  1.00  0.00     0.013 C 
HETATM   12  C22 UNL     1      -5.586   8.702  14.193  1.00  0.00     0.040 C 
HETATM   13  C23 UNL     1      -4.480   8.204  15.144  1.00  0.00     0.070 C 
HETATM   14  C24 UNL     1      -3.009   8.673  14.804  1.00  0.00     0.026 C 
HETATM   15  C25 UNL     1      -2.868   9.615  13.603  1.00  0.00     0.011 C 
HETATM   16  C26 UNL     1      -1.435  10.110  13.435  1.00  0.00     0.039 C 
HETATM   17  C27 UNL     1      -0.389   8.987  13.334  1.00  0.00     0.073 C 
HETATM   18  C28 UNL     1      -0.557   8.234  11.983  1.00  0.00     0.071 C 
ENDROOT
BRANCH   1  19
HETATM   19  O2  UNL     1       1.729   7.638  11.682  1.00  0.00    -0.356 OA
BRANCH  19  20
HETATM   20  C3  UNL     1       2.529   7.031  10.664  1.00  0.00     0.263 C 
HETATM   21  O1  UNL     1       1.938   7.326   9.403  1.00  0.00    -0.354 OA
HETATM   22  C2  UNL     1       2.680   6.786   8.309  1.00  0.00     0.151 C 
HETATM   23  C1  UNL     1       1.972   7.227   7.031  1.00  0.00     0.042 C 
HETATM   24  C31 UNL     1       2.754   5.250   8.406  1.00  0.00     0.175 C 
HETATM   25  C30 UNL     1       3.281   4.824   9.785  1.00  0.00     0.154 C 
HETATM   26  C29 UNL     1       2.520   5.523  10.898  1.00  0.00     0.095 C 
BRANCH  24  27
HETATM   27  O9  UNL     1       3.625   4.709   7.407  1.00  0.00    -0.390 OA
HETATM   28  H47 UNL     1       3.105   4.650   6.586  1.00  0.00     0.210 HD
ENDBRANCH  24  27
BRANCH  25  29
HETATM   29  O8  UNL     1       4.673   5.145   9.892  1.00  0.00    -0.393 OA
HETATM   30  H45 UNL     1       5.056   4.858   9.037  1.00  0.00     0.210 HD
ENDBRANCH  25  29
ENDBRANCH  19  20
ENDBRANCH   1  19
BRANCH  17  31
HETATM   31  O7  UNL     1       0.877   9.670  13.303  1.00  0.00    -0.389 OA
HETATM   32  H39 UNL     1       1.551   9.033  12.984  1.00  0.00     0.210 HD
ENDBRANCH  17  31
BRANCH   4  33
HETATM   33  C8  UNL     1      -0.017   8.759  15.825  1.00  0.00     0.068 C 
HETATM   34  N1  UNL     1       0.749   9.800  15.754  1.00  0.00    -0.399 N 
ATOM     35  H1  UNL     1       1.197  10.086  14.884  1.00  0.00     0.158 HD
BRANCH  34  36
HETATM   36  C9  UNL     1       0.932  10.542  17.007  1.00  0.00     0.144 C 
BRANCH  36  37
HETATM   37  C10 UNL     1       2.372  10.325  17.466  1.00  0.00     0.183 C 
BRANCH  37  38
HETATM   38  O3  UNL     1       2.373   9.726  18.768  1.00  0.00    -0.399 OA
HETATM   39  H16 UNL     1       1.880  10.355  19.344  1.00  0.00     0.209 HD
ENDBRANCH  37  38
ENDBRANCH  36  37
ENDBRANCH  34  36
ENDBRANCH   4  33
BRANCH  13  40
HETATM   40  O6  UNL     1      -4.772   8.716  16.451  1.00  0.00    -0.389 OA
HETATM   41  H33 UNL     1      -4.702   9.685  16.427  1.00  0.00     0.210 HD
ENDBRANCH  13  40
BRANCH  10  42
HETATM   42  C17 UNL     1      -5.478   5.071  13.159  1.00  0.00    -0.045 A 
HETATM   43  C18 UNL     1      -6.740   4.659  13.302  1.00  0.00     0.087 A 
HETATM   44  C19 UNL     1      -6.822   3.304  12.766  1.00  0.00     0.283 A 
HETATM   45  O4  UNL     1      -7.838   2.639  12.727  1.00  0.00    -0.260 OA
HETATM   46  O5  UNL     1      -5.591   2.925  12.332  1.00  0.00    -0.314 OA
HETATM   47  C20 UNL     1      -4.663   3.987  12.556  1.00  0.00     0.213 A 
ENDBRANCH  10  42
TORSDOF 11
ENDMDL
MODEL 3
REMARK minimizedAffinity -9.0488472
REMARK CNNscore 0.662437975
REMARK CNNaffinity 7.06932306
REMARK  11 active torsions:
REMARK  status: ('A' for Active; 'I' for Inactive)
REMARK    1  A    between atoms: C3_4  and  O2_5 
REMARK    2  A    between atoms: O2_5  and  C4_6 
REMARK    3  A    between atoms: C7_9  and  C8_10 
REMARK    4  A    between atoms: N1_11  and  C9_13 
REMARK    5  A    between atoms: C9_13  and  C10_14 
REMARK    6  A    between atoms: C10_14  and  O3_15 
REMARK    7  A    between atoms: C16_21  and  C17_22 
REMARK    8  A    between atoms: C23_30  and  O6_31 
REMARK    9  A    between atoms: C27_35  and  O7_36 
REMARK   10  A    between atoms: C30_39  and  O8_40 
REMARK   11  A    between atoms: C31_41  and  O9_42 
ROOT
HETATM    1  C4  UNL     1      -4.302   7.500  13.047  1.00  0.00     0.127 C 
HETATM    2  C5  UNL     1      -3.594   8.842  12.851  1.00  0.00     0.033 C 
HETATM    3  C6  UNL     1      -2.845   9.278  14.108  1.00  0.00     0.021 C 
HETATM    4  C7  UNL     1      -1.806   8.233  14.613  1.00  0.00     0.026 C 
HETATM    5  C11 UNL     1      -0.601   8.063  13.606  1.00  0.00     0.009 C 
HETATM    6  C12 UNL     1       0.210   9.331  13.344  1.00  0.00     0.007 C 
HETATM    7  C13 UNL     1       1.076   9.193  12.092  1.00  0.00     0.013 C 
HETATM    8  C14 UNL     1       1.709   7.799  11.846  1.00  0.00    -0.005 C 
HETATM    9  C15 UNL     1       3.152   8.059  11.335  1.00  0.00     0.019 C 
HETATM   10  C16 UNL     1       0.914   6.915  10.822  1.00  0.00     0.028 C 
HETATM   11  C21 UNL     1       1.392   5.473  11.092  1.00  0.00     0.013 C 
HETATM   12  C22 UNL     1       2.028   5.490  12.481  1.00  0.00     0.040 C 
HETATM   13  C23 UNL     1       1.696   6.862  13.100  1.00  0.00     0.070 C 
HETATM   14  C24 UNL     1       0.393   6.924  13.994  1.00  0.00     0.026 C 
HETATM   15  C25 UNL     1      -0.352   5.598  14.183  1.00  0.00     0.011 C 
HETATM   16  C26 UNL     1      -1.516   5.737  15.159  1.00  0.00     0.039 C 
HETATM   17  C27 UNL     1      -2.519   6.842  14.789  1.00  0.00     0.073 C 
HETATM   18  C28 UNL     1      -3.306   6.430  13.511  1.00  0.00     0.071 C 
ENDROOT
BRANCH   1  19
HETATM   19  O2  UNL     1      -5.340   7.554  14.031  1.00  0.00    -0.356 OA
BRANCH  19  20
HETATM   20  C3  UNL     1      -6.099   6.348  14.148  1.00  0.00     0.263 C 
HETATM   21  O1  UNL     1      -5.842   5.551  12.997  1.00  0.00    -0.354 OA
HETATM   22  C2  UNL     1      -6.534   4.302  13.029  1.00  0.00     0.151 C 
HETATM   23  C1  UNL     1      -6.122   3.534  11.777  1.00  0.00     0.042 C 
HETATM   24  C31 UNL     1      -8.058   4.526  13.071  1.00  0.00     0.175 C 
HETATM   25  C30 UNL     1      -8.430   5.472  14.223  1.00  0.00     0.154 C 
HETATM   26  C29 UNL     1      -7.577   6.728  14.194  1.00  0.00     0.095 C 
BRANCH  24  27
HETATM   27  O9  UNL     1      -8.758   3.292  13.261  1.00  0.00    -0.390 OA
HETATM   28  H47 UNL     1      -8.827   2.872  12.386  1.00  0.00     0.210 HD
ENDBRANCH  24  27
BRANCH  25  29
HETATM   29  O8  UNL     1      -8.244   4.804  15.478  1.00  0.00    -0.393 OA
HETATM   30  H45 UNL     1      -8.632   3.915  15.340  1.00  0.00     0.210 HD
ENDBRANCH  25  29
ENDBRANCH  19  20
ENDBRANCH   1  19
BRANCH  17  31
HETATM   31  O7  UNL     1      -3.448   6.873  15.887  1.00  0.00    -0.389 OA
HETATM   32  H39 UNL     1      -4.242   7.368  15.591  1.00  0.00     0.210 HD
ENDBRANCH  17  31
BRANCH   4  33
HETATM   33  C8  UNL     1      -1.298   8.706  15.984  1.00  0.00     0.068 C 
HETATM   34  N1  UNL     1      -1.598   9.875  16.451  1.00  0.00    -0.399 N 
ATOM     35  H1  UNL     1      -2.060  10.584  15.882  1.00  0.00     0.158 HD
BRANCH  34  36
HETATM   36  C9  UNL     1      -1.230  10.115  17.851  1.00  0.00     0.144 C 
BRANCH  36  37
HETATM   37  C10 UNL     1      -2.475  10.627  18.574  1.00  0.00     0.183 C 
BRANCH  37  38
HETATM   38  O3  UNL     1      -3.142   9.529  19.210  1.00  0.00    -0.399 OA
HETATM   39  H16 UNL     1      -3.355   8.898  18.484  1.00  0.00     0.209 HD
ENDBRANCH  37  38
ENDBRANCH  36  37
ENDBRANCH  34  36
ENDBRANCH   4  33
BRANCH  13  40
HETATM   40  O6  UNL     1       2.788   7.223  13.958  1.00  0.00    -0.389 OA
HETATM   41  H33 UNL     1       2.827   6.589  14.693  1.00  0.00     0.210 HD
ENDBRANCH  13  40
BRANCH  10  42
HETATM   42  C17 UNL     1       0.899   7.308   9.370  1.00  0.00    -0.045 A 
HETATM   43  C18 UNL     1       1.746   6.853   8.444  1.00  0.00     0.087 A 
HETATM   44  C19 UNL     1       1.411   7.510   7.184  1.00  0.00     0.283 A 
HETATM   45  O4  UNL     1       1.981   7.310   6.130  1.00  0.00    -0.260 OA
HETATM   46  O5  UNL     1       0.377   8.367   7.393  1.00  0.00    -0.314 OA
HETATM   47  C20 UNL     1      -0.008   8.316   8.767  1.00  0.00     0.213 A 
ENDBRANCH  10  42
TORSDOF 11
ENDMDL
MODEL 4
REMARK minimizedAffinity -10.3581772
REMARK CNNscore 0.655023754
REMARK CNNaffinity 7.14955378
REMARK  11 active torsions:
REMARK  status: ('A' for Active; 'I' for Inactive)
REMARK    1  A    between atoms: C3_4  and  O2_5 
REMARK    2  A    between atoms: O2_5  and  C4_6 
REMARK    3  A    between atoms: C7_9  and  C8_10 
REMARK    4  A    between atoms: N1_11  and  C9_13 
REMARK    5  A    between atoms: C9_13  and  C10_14 
REMARK    6  A    between atoms: C10_14  and  O3_15 
REMARK    7  A    between atoms: C16_21  and  C17_22 
REMARK    8  A    between atoms: C23_30  and  O6_31 
REMARK    9  A    between atoms: C27_35  and  O7_36 
REMARK   10  A    between atoms: C30_39  and  O8_40 
REMARK   11  A    between atoms: C31_41  and  O9_42 
ROOT
HETATM    1  C4  UNL     1      -0.147   6.783  10.331  1.00  0.00     0.127 C 
HETATM    2  C5  UNL     1      -0.079   5.640  11.347  1.00  0.00     0.033 C 
HETATM    3  C6  UNL     1       0.586   6.077  12.650  1.00  0.00     0.021 C 
HETATM    4  C7  UNL     1      -0.100   7.303  13.323  1.00  0.00     0.026 C 
HETATM    5  C11 UNL     1      -1.551   6.959  13.842  1.00  0.00     0.009 C 
HETATM    6  C12 UNL     1      -1.620   5.847  14.887  1.00  0.00     0.007 C 
HETATM    7  C13 UNL     1      -3.041   5.306  15.037  1.00  0.00     0.013 C 
HETATM    8  C14 UNL     1      -4.186   6.347  14.932  1.00  0.00    -0.005 C 
HETATM    9  C15 UNL     1      -5.228   5.960  16.015  1.00  0.00     0.019 C 
HETATM   10  C16 UNL     1      -4.860   6.404  13.516  1.00  0.00     0.028 C 
HETATM   11  C21 UNL     1      -5.577   7.769  13.476  1.00  0.00     0.013 C 
HETATM   12  C22 UNL     1      -4.945   8.614  14.581  1.00  0.00     0.040 C 
HETATM   13  C23 UNL     1      -3.714   7.832  15.082  1.00  0.00     0.070 C 
HETATM   14  C24 UNL     1      -2.336   8.190  14.393  1.00  0.00     0.026 C 
HETATM   15  C25 UNL     1      -2.381   9.313  13.351  1.00  0.00     0.011 C 
HETATM   16  C26 UNL     1      -0.989   9.669  12.840  1.00  0.00     0.039 C 
HETATM   17  C27 UNL     1      -0.202   8.474  12.276  1.00  0.00     0.073 C 
HETATM   18  C28 UNL     1      -0.849   8.002  10.942  1.00  0.00     0.071 C 
ENDROOT
BRANCH   1  19
HETATM   19  O2  UNL     1       1.143   7.222   9.897  1.00  0.00    -0.356 OA
BRANCH  19  20
HETATM   20  C3  UNL     1       2.205   6.318  10.210  1.00  0.00     0.263 C 
HETATM   21  O1  UNL     1       3.262   7.066  10.801  1.00  0.00    -0.354 OA
HETATM   22  C2  UNL     1       4.369   6.248  11.181  1.00  0.00     0.151 C 
HETATM   23  C1  UNL     1       5.390   7.163  11.849  1.00  0.00     0.042 C 
HETATM   24  C31 UNL     1       4.972   5.543   9.951  1.00  0.00     0.175 C 
HETATM   25  C30 UNL     1       3.880   4.790   9.175  1.00  0.00     0.154 C 
HETATM   26  C29 UNL     1       2.686   5.689   8.905  1.00  0.00     0.095 C 
BRANCH  24  27
HETATM   27  O9  UNL     1       5.978   4.600  10.335  1.00  0.00    -0.390 OA
HETATM   28  H47 UNL     1       6.799   5.106  10.468  1.00  0.00     0.210 HD
ENDBRANCH  24  27
BRANCH  25  29
HETATM   29  O8  UNL     1       3.450   3.649   9.927  1.00  0.00    -0.393 OA
HETATM   30  H45 UNL     1       4.281   3.244  10.252  1.00  0.00     0.210 HD
ENDBRANCH  25  29
ENDBRANCH  19  20
ENDBRANCH   1  19
BRANCH  17  31
HETATM   31  O7  UNL     1       1.099   9.007  11.970  1.00  0.00    -0.389 OA
HETATM   32  H39 UNL     1       1.551   8.368  11.378  1.00  0.00     0.210 HD
ENDBRANCH  17  31
BRANCH   4  33
HETATM   33  C8  UNL     1       0.794   7.757  14.487  1.00  0.00     0.068 C 
HETATM   34  N1  UNL     1       1.695   6.978  14.992  1.00  0.00    -0.399 N 
ATOM     35  H1  UNL     1       1.760   5.991  14.743  1.00  0.00     0.158 HD
BRANCH  34  36
HETATM   36  C9  UNL     1       2.617   7.604  15.947  1.00  0.00     0.144 C 
BRANCH  36  37
HETATM   37  C10 UNL     1       3.906   7.933  15.196  1.00  0.00     0.183 C 
BRANCH  37  38
HETATM   38  O3  UNL     1       4.952   7.058  15.639  1.00  0.00    -0.399 OA
HETATM   39  H16 UNL     1       5.026   7.213  16.609  1.00  0.00     0.209 HD
ENDBRANCH  37  38
ENDBRANCH  36  37
ENDBRANCH  34  36
ENDBRANCH   4  33
BRANCH  13  40
HETATM   40  O6  UNL     1      -3.554   8.127  16.476  1.00  0.00    -0.389 OA
HETATM   41  H33 UNL     1      -3.341   9.071  16.571  1.00  0.00     0.210 HD
ENDBRANCH  13  40
BRANCH  10  42
HETATM   42  C17 UNL     1      -5.699   5.243  13.055  1.00  0.00    -0.045 A 
HETATM   43  C18 UNL     1      -7.003   5.095  13.296  1.00  0.00     0.087 A 
HETATM   44  C19 UNL     1      -7.416   3.824  12.710  1.00  0.00     0.283 A 
HETATM   45  O4  UNL     1      -8.551   3.389  12.737  1.00  0.00    -0.260 OA
HETATM   46  O5  UNL     1      -6.334   3.224  12.147  1.00  0.00    -0.314 OA
HETATM   47  C20 UNL     1      -5.186   4.053  12.331  1.00  0.00     0.213 A 
ENDBRANCH  10  42
TORSDOF 11
ENDMDL
MODEL 5
REMARK minimizedAffinity -8.21884918
REMARK CNNscore 0.558585763
REMARK CNNaffinity 6.87735176
REMARK  11 active torsions:
REMARK  status: ('A' for Active; 'I' for Inactive)
REMARK    1  A    between atoms: C3_4  and  O2_5 
REMARK    2  A    between atoms: O2_5  and  C4_6 
REMARK    3  A    between atoms: C7_9  and  C8_10 
REMARK    4  A    between atoms: N1_11  and  C9_13 
REMARK    5  A    between atoms: C9_13  and  C10_14 
REMARK    6  A    between atoms: C10_14  and  O3_15 
REMARK    7  A    between atoms: C16_21  and  C17_22 
REMARK    8  A    between atoms: C23_30  and  O6_31 
REMARK    9  A    between atoms: C27_35  and  O7_36 
REMARK   10  A    between atoms: C30_39  and  O8_40 
REMARK   11  A    between atoms: C31_41  and  O9_42 
ROOT
HETATM    1  C4  UNL     1      -5.005   6.532  13.309  1.00  0.00     0.127 C 
HETATM    2  C5  UNL     1      -4.645   8.007  13.124  1.00  0.00     0.033 C 
HETATM    3  C6  UNL     1      -4.142   8.637  14.421  1.00  0.00     0.021 C 
HETATM    4  C7  UNL     1      -2.918   7.898  15.041  1.00  0.00     0.026 C 
HETATM    5  C11 UNL     1      -1.628   8.028  14.139  1.00  0.00     0.009 C 
HETATM    6  C12 UNL     1      -1.146   9.457  13.899  1.00  0.00     0.007 C 
HETATM    7  C13 UNL     1      -0.170   9.528  12.725  1.00  0.00     0.013 C 
HETATM    8  C14 UNL     1       0.814   8.339  12.577  1.00  0.00    -0.005 C 
HETATM    9  C15 UNL     1       2.182   8.951  12.172  1.00  0.00     0.019 C 
HETATM   10  C16 UNL     1       0.359   7.268  11.524  1.00  0.00     0.028 C 
HETATM   11  C21 UNL     1       1.161   5.999  11.880  1.00  0.00     0.013 C 
HETATM   12  C22 UNL     1       1.652   6.195  13.314  1.00  0.00     0.040 C 
HETATM   13  C23 UNL     1       0.933   7.445  13.858  1.00  0.00     0.070 C 
HETATM   14  C24 UNL     1      -0.415   7.185  14.643  1.00  0.00     0.026 C 
HETATM   15  C25 UNL     1      -0.814   5.716  14.818  1.00  0.00     0.011 C 
HETATM   16  C26 UNL     1      -2.054   5.565  15.694  1.00  0.00     0.039 C 
HETATM   17  C27 UNL     1      -3.269   6.373  15.208  1.00  0.00     0.073 C 
HETATM   18  C28 UNL     1      -3.814   5.757  13.887  1.00  0.00     0.071 C 
ENDROOT
BRANCH   1  19
HETATM   19  O2  UNL     1      -6.103   6.332  14.206  1.00  0.00    -0.356 OA
BRANCH  19  20
HETATM   20  C3  UNL     1      -7.373   6.705  13.667  1.00  0.00     0.263 C 
HETATM   21  O1  UNL     1      -8.104   7.380  14.685  1.00  0.00    -0.354 OA
HETATM   22  C2  UNL     1      -9.386   7.823  14.240  1.00  0.00     0.151 C 
HETATM   23  C1  UNL     1     -10.025   8.575  15.403  1.00  0.00     0.042 C 
HETATM   24  C31 UNL     1     -10.254   6.627  13.804  1.00  0.00     0.175 C 
HETATM   25  C30 UNL     1      -9.503   5.765  12.777  1.00  0.00     0.154 C 
HETATM   26  C29 UNL     1      -8.106   5.426  13.268  1.00  0.00     0.095 C 
BRANCH  24  27
HETATM   27  O9  UNL     1     -11.479   7.066  13.208  1.00  0.00    -0.390 OA
HETATM   28  H47 UNL     1     -12.090   7.264  13.939  1.00  0.00     0.210 HD
ENDBRANCH  24  27
BRANCH  25  29
HETATM   29  O8  UNL     1      -9.407   6.468  11.531  1.00  0.00    -0.393 OA
HETATM   30  H45 UNL     1     -10.301   6.844  11.395  1.00  0.00     0.210 HD
ENDBRANCH  25  29
ENDBRANCH  19  20
ENDBRANCH   1  19
BRANCH  17  31
HETATM   31  O7  UNL     1      -4.265   6.180  16.227  1.00  0.00    -0.389 OA
HETATM   32  H39 UNL     1      -5.130   6.453  15.853  1.00  0.00     0.210 HD
ENDBRANCH  17  31
BRANCH   4  33
HETATM   33  C8  UNL     1      -2.666   8.502  16.432  1.00  0.00     0.068 C 
HETATM   34  N1  UNL     1      -3.324   9.533  16.851  1.00  0.00    -0.399 N 
ATOM     35  H1  UNL     1      -3.933  10.075  16.238  1.00  0.00     0.158 HD
BRANCH  34  36
HETATM   36  C9  UNL     1      -3.139   9.874  18.267  1.00  0.00     0.144 C 
BRANCH  36  37
HETATM   37  C10 UNL     1      -2.244  11.111  18.330  1.00  0.00     0.183 C 
BRANCH  37  38
HETATM   38  O3  UNL     1      -0.940  10.733  18.790  1.00  0.00    -0.399 OA
HETATM   39  H16 UNL     1      -1.085  10.321  19.673  1.00  0.00     0.209 HD
ENDBRANCH  37  38
ENDBRANCH  36  37
ENDBRANCH  34  36
ENDBRANCH   4  33
BRANCH  13  40
HETATM   40  O6  UNL     1       1.820   8.084  14.786  1.00  0.00    -0.389 OA
HETATM   41  H33 UNL     1       1.956   7.490  15.543  1.00  0.00     0.210 HD
ENDBRANCH  13  40
BRANCH  10  42
HETATM   42  C17 UNL     1       0.369   7.625  10.063  1.00  0.00    -0.045 A 
HETATM   43  C18 UNL     1       1.253   7.176   9.169  1.00  0.00     0.087 A 
HETATM   44  C19 UNL     1       0.929   7.791   7.886  1.00  0.00     0.283 A 
HETATM   45  O4  UNL     1       1.532   7.584   6.851  1.00  0.00    -0.260 OA
HETATM   46  O5  UNL     1      -0.136   8.619   8.048  1.00  0.00    -0.314 OA
HETATM   47  C20 UNL     1      -0.555   8.588   9.413  1.00  0.00     0.213 A 
ENDBRANCH  10  42
TORSDOF 11
ENDMDL
MODEL 6
REMARK minimizedAffinity -8.82560158
REMARK CNNscore 0.49481374
REMARK CNNaffinity 6.54892206
REMARK  11 active torsions:
REMARK  status: ('A' for Active; 'I' for Inactive)
REMARK    1  A    between atoms: C3_4  and  O2_5 
REMARK    2  A    between atoms: O2_5  and  C4_6 
REMARK    3  A    between atoms: C7_9  and  C8_10 
REMARK    4  A    between atoms: N1_11  and  C9_13 
REMARK    5  A    between atoms: C9_13  and  C10_14 
REMARK    6  A    between atoms: C10_14  and  O3_15 
REMARK    7  A    between atoms: C16_21  and  C17_22 
REMARK    8  A    between atoms: C23_30  and  O6_31 
REMARK    9  A    between atoms: C27_35  and  O7_36 
REMARK   10  A    between atoms: C30_39  and  O8_40 
REMARK   11  A    between atoms: C31_41  and  O9_42 
ROOT
HETATM    1  C4  UNL     1      -1.053   8.622  12.300  1.00  0.00     0.127 C 
HETATM    2  C5  UNL     1      -2.527   9.035  12.307  1.00  0.00     0.033 C 
HETATM    3  C6  UNL     1      -3.377   8.096  13.159  1.00  0.00     0.021 C 
HETATM    4  C7  UNL     1      -2.886   7.970  14.632  1.00  0.00     0.026 C 
HETATM    5  C11 UNL     1      -3.062   9.321  15.432  1.00  0.00     0.009 C 
HETATM    6  C12 UNL     1      -4.498   9.831  15.537  1.00  0.00     0.007 C 
HETATM    7  C13 UNL     1      -4.541  11.300  15.957  1.00  0.00     0.013 C 
HETATM    8  C14 UNL     1      -3.478  11.749  16.992  1.00  0.00    -0.005 C 
HETATM    9  C15 UNL     1      -4.202  12.709  17.973  1.00  0.00     0.019 C 
HETATM   10  C16 UNL     1      -2.231  12.455  16.353  1.00  0.00     0.028 C 
HETATM   11  C21 UNL     1      -1.131  12.366  17.431  1.00  0.00     0.013 C 
HETATM   12  C22 UNL     1      -1.572  11.267  18.397  1.00  0.00     0.040 C 
HETATM   13  C23 UNL     1      -2.779  10.566  17.744  1.00  0.00     0.070 C 
HETATM   14  C24 UNL     1      -2.453   9.291  16.869  1.00  0.00     0.026 C 
HETATM   15  C25 UNL     1      -0.980   8.871  16.822  1.00  0.00     0.011 C 
HETATM   16  C26 UNL     1      -0.786   7.563  16.061  1.00  0.00     0.039 C 
HETATM   17  C27 UNL     1      -1.363   7.574  14.635  1.00  0.00     0.073 C 
HETATM   18  C28 UNL     1      -0.518   8.520  13.734  1.00  0.00     0.071 C 
ENDROOT
BRANCH   1  19
HETATM   19  O2  UNL     1      -0.833   7.349  11.685  1.00  0.00    -0.356 OA
BRANCH  19  20
HETATM   20  C3  UNL     1       0.503   7.149  11.216  1.00  0.00     0.263 C 
HETATM   21  O1  UNL     1       0.571   7.601   9.868  1.00  0.00    -0.354 OA
HETATM   22  C2  UNL     1       1.879   7.471   9.311  1.00  0.00     0.151 C 
HETATM   23  C1  UNL     1       1.819   8.044   7.899  1.00  0.00     0.042 C 
HETATM   24  C31 UNL     1       2.321   5.995   9.297  1.00  0.00     0.175 C 
HETATM   25  C30 UNL     1       2.178   5.379  10.697  1.00  0.00     0.154 C 
HETATM   26  C29 UNL     1       0.800   5.653  11.275  1.00  0.00     0.095 C 
BRANCH  24  27
HETATM   27  O9  UNL     1       3.687   5.866   8.889  1.00  0.00    -0.390 OA
HETATM   28  H47 UNL     1       3.691   5.895   7.916  1.00  0.00     0.210 HD
ENDBRANCH  24  27
BRANCH  25  29
HETATM   29  O8  UNL     1       3.173   5.926  11.571  1.00  0.00    -0.393 OA
HETATM   30  H45 UNL     1       3.996   5.915  11.040  1.00  0.00     0.210 HD
ENDBRANCH  25  29
ENDBRANCH  19  20
ENDBRANCH   1  19
BRANCH  17  31
HETATM   31  O7  UNL     1      -1.178   6.230  14.157  1.00  0.00    -0.389 OA
HETATM   32  H39 UNL     1      -1.288   6.243  13.182  1.00  0.00     0.210 HD
ENDBRANCH  17  31
BRANCH   4  33
HETATM   33  C8  UNL     1      -3.692   6.843  15.297  1.00  0.00     0.068 C 
HETATM   34  N1  UNL     1      -4.967   6.945  15.490  1.00  0.00    -0.399 N 
ATOM     35  H1  UNL     1      -5.470   7.820  15.344  1.00  0.00     0.158 HD
BRANCH  34  36
HETATM   36  C9  UNL     1      -5.644   5.721  15.934  1.00  0.00     0.144 C 
BRANCH  36  37
HETATM   37  C10 UNL     1      -7.112   6.067  16.175  1.00  0.00     0.183 C 
BRANCH  37  38
HETATM   38  O3  UNL     1      -7.205   7.082  17.183  1.00  0.00    -0.399 OA
HETATM   39  H16 UNL     1      -6.768   6.698  17.979  1.00  0.00     0.209 HD
ENDBRANCH  37  38
ENDBRANCH  36  37
ENDBRANCH  34  36
ENDBRANCH   4  33
BRANCH  13  40
HETATM   40  O6  UNL     1      -3.640  10.118  18.800  1.00  0.00    -0.389 OA
HETATM   41  H33 UNL     1      -3.171   9.440  19.315  1.00  0.00     0.210 HD
ENDBRANCH  13  40
BRANCH  10  42
HETATM   42  C17 UNL     1      -2.395  13.818  15.737  1.00  0.00    -0.045 A 
HETATM   43  C18 UNL     1      -2.890  14.057  14.521  1.00  0.00     0.087 A 
HETATM   44  C19 UNL     1      -2.839  15.499  14.303  1.00  0.00     0.283 A 
HETATM   45  O4  UNL     1      -3.229  16.058  13.296  1.00  0.00    -0.260 OA
HETATM   46  O5  UNL     1      -2.289  16.093  15.394  1.00  0.00    -0.314 OA
HETATM   47  C20 UNL     1      -1.960  15.094  16.360  1.00  0.00     0.213 A 
ENDBRANCH  10  42
TORSDOF 11
ENDMDL
MODEL 7
REMARK minimizedAffinity -7.25769758
REMARK CNNscore 0.417382389
REMARK CNNaffinity 5.68463087
REMARK  11 active torsions:
REMARK  status: ('A' for Active; 'I' for Inactive)
REMARK    1  A    between atoms: C3_4  and  O2_5 
REMARK    2  A    between atoms: O2_5  and  C4_6 
REMARK    3  A    between atoms: C7_9  and  C8_10 
REMARK    4  A    between atoms: N1_11  and  C9_13 
REMARK    5  A    between atoms: C9_13  and  C10_14 
REMARK    6  A    between atoms: C10_14  and  O3_15 
REMARK    7  A    between atoms: C16_21  and  C17_22 
REMARK    8  A    between atoms: C23_30  and  O6_31 
REMARK    9  A    between atoms: C27_35  and  O7_36 
REMARK   10  A    between atoms: C30_39  and  O8_40 
REMARK   11  A    between atoms: C31_41  and  O9_42 
ROOT
HETATM    1  C4  UNL     1     -12.819   8.087  24.174  1.00  0.00     0.127 C 
HETATM    2  C5  UNL     1     -14.035   8.132  25.101  1.00  0.00     0.033 C 
HETATM    3  C6  UNL     1     -15.322   7.757  24.369  1.00  0.00     0.021 C 
HETATM    4  C7  UNL     1     -15.267   6.359  23.684  1.00  0.00     0.026 C 
HETATM    5  C11 UNL     1     -15.185   5.186  24.738  1.00  0.00     0.009 C 
HETATM    6  C12 UNL     1     -16.360   5.103  25.711  1.00  0.00     0.007 C 
HETATM    7  C13 UNL     1     -16.025   4.229  26.919  1.00  0.00     0.013 C 
HETATM    8  C14 UNL     1     -15.156   2.975  26.640  1.00  0.00    -0.005 C 
HETATM    9  C15 UNL     1     -15.745   1.833  27.510  1.00  0.00     0.019 C 
HETATM   10  C16 UNL     1     -13.633   3.179  26.958  1.00  0.00     0.028 C 
HETATM   11  C21 UNL     1     -12.914   2.060  26.177  1.00  0.00     0.013 C 
HETATM   12  C22 UNL     1     -13.904   1.578  25.117  1.00  0.00     0.040 C 
HETATM   13  C23 UNL     1     -15.079   2.575  25.128  1.00  0.00     0.070 C 
HETATM   14  C24 UNL     1     -14.982   3.775  24.102  1.00  0.00     0.026 C 
HETATM   15  C25 UNL     1     -13.757   3.769  23.180  1.00  0.00     0.011 C 
HETATM   16  C26 UNL     1     -13.820   4.890  22.147  1.00  0.00     0.039 C 
HETATM   17  C27 UNL     1     -14.002   6.292  22.751  1.00  0.00     0.073 C 
HETATM   18  C28 UNL     1     -12.706   6.712  23.503  1.00  0.00     0.071 C 
ENDROOT
BRANCH   1  19
HETATM   19  O2  UNL     1     -12.880   9.056  23.123  1.00  0.00    -0.356 OA
BRANCH  19  20
HETATM   20  C3  UNL     1     -12.291  10.316  23.454  1.00  0.00     0.263 C 
HETATM   21  O1  UNL     1     -12.960  11.326  22.707  1.00  0.00    -0.354 OA
HETATM   22  C2  UNL     1     -12.465  12.635  22.987  1.00  0.00     0.151 C 
HETATM   23  C1  UNL     1     -13.305  13.613  22.172  1.00  0.00     0.042 C 
HETATM   24  C31 UNL     1     -10.972  12.742  22.622  1.00  0.00     0.175 C 
HETATM   25  C30 UNL     1     -10.172  11.617  23.298  1.00  0.00     0.154 C 
HETATM   26  C29 UNL     1     -10.819  10.266  23.052  1.00  0.00     0.095 C 
BRANCH  24  27
HETATM   27  O9  UNL     1     -10.423  13.996  23.043  1.00  0.00    -0.390 OA
HETATM   28  H47 UNL     1     -10.655  14.646  22.357  1.00  0.00     0.210 HD
ENDBRANCH  24  27
BRANCH  25  29
HETATM   29  O8  UNL     1     -10.098  11.855  24.709  1.00  0.00    -0.393 OA
HETATM   30  H45 UNL     1      -9.889  12.809  24.784  1.00  0.00     0.210 HD
ENDBRANCH  25  29
ENDBRANCH  19  20
ENDBRANCH   1  19
BRANCH  17  31
HETATM   31  O7  UNL     1     -14.151   7.161  21.614  1.00  0.00    -0.389 OA
HETATM   32  H39 UNL     1     -14.013   8.082  21.923  1.00  0.00     0.210 HD
ENDBRANCH  17  31
BRANCH   4  33
HETATM   33  C8  UNL     1     -16.528   6.215  22.817  1.00  0.00     0.068 C 
HETATM   34  N1  UNL     1     -16.687   5.214  22.013  1.00  0.00    -0.399 N 
ATOM     35  H1  UNL     1     -15.935   4.555  21.812  1.00  0.00     0.158 HD
BRANCH  34  36
HETATM   36  C9  UNL     1     -18.019   5.087  21.410  1.00  0.00     0.144 C 
BRANCH  36  37
HETATM   37  C10 UNL     1     -18.153   6.182  20.352  1.00  0.00     0.183 C 
BRANCH  37  38
HETATM   38  O3  UNL     1     -17.036   6.118  19.455  1.00  0.00    -0.399 OA
HETATM   39  H16 UNL     1     -16.240   6.233  20.024  1.00  0.00     0.209 HD
ENDBRANCH  37  38
ENDBRANCH  36  37
ENDBRANCH  34  36
ENDBRANCH   4  33
BRANCH  13  40
HETATM   40  O6  UNL     1     -16.266   1.848  24.782  1.00  0.00    -0.389 OA
HETATM   41  H33 UNL     1     -16.179   1.531  23.867  1.00  0.00     0.210 HD
ENDBRANCH  13  40
BRANCH  10  42
HETATM   42  C17 UNL     1     -13.195   3.322  28.390  1.00  0.00    -0.045 A 
HETATM   43  C18 UNL     1     -12.638   2.356  29.123  1.00  0.00     0.087 A 
HETATM   44  C19 UNL     1     -12.403   2.898  30.457  1.00  0.00     0.283 A 
HETATM   45  O4  UNL     1     -11.891   2.282  31.371  1.00  0.00    -0.260 OA
HETATM   46  O5  UNL     1     -12.850   4.181  30.499  1.00  0.00    -0.314 OA
HETATM   47  C20 UNL     1     -13.387   4.535  29.224  1.00  0.00     0.213 A 
ENDBRANCH  10  42
TORSDOF 11
ENDMDL
MODEL 8
REMARK minimizedAffinity -6.26853275
REMARK CNNscore 0.320340157
REMARK CNNaffinity 5.39432526
REMARK  11 active torsions:
REMARK  status: ('A' for Active; 'I' for Inactive)
REMARK    1  A    between atoms: C3_4  and  O2_5 
REMARK    2  A    between atoms: O2_5  and  C4_6 
REMARK    3  A    between atoms: C7_9  and  C8_10 
REMARK    4  A    between atoms: N1_11  and  C9_13 
REMARK    5  A    between atoms: C9_13  and  C10_14 
REMARK    6  A    between atoms: C10_14  and  O3_15 
REMARK    7  A    between atoms: C16_21  and  C17_22 
REMARK    8  A    between atoms: C23_30  and  O6_31 
REMARK    9  A    between atoms: C27_35  and  O7_36 
REMARK   10  A    between atoms: C30_39  and  O8_40 
REMARK   11  A    between atoms: C31_41  and  O9_42 
ROOT
HETATM    1  C4  UNL     1     -19.730  -0.180  11.955  1.00  0.00     0.127 C 
HETATM    2  C5  UNL     1     -19.848  -1.705  11.999  1.00  0.00     0.033 C 
HETATM    3  C6  UNL     1     -18.564  -2.388  11.535  1.00  0.00     0.021 C 
HETATM    4  C7  UNL     1     -17.301  -1.961  12.342  1.00  0.00     0.026 C 
HETATM    5  C11 UNL     1     -17.362  -2.453  13.841  1.00  0.00     0.009 C 
HETATM    6  C12 UNL     1     -17.454  -3.967  14.025  1.00  0.00     0.007 C 
HETATM    7  C13 UNL     1     -17.906  -4.332  15.438  1.00  0.00     0.013 C 
HETATM    8  C14 UNL     1     -17.364  -3.441  16.585  1.00  0.00    -0.005 C 
HETATM    9  C15 UNL     1     -17.021  -4.398  17.758  1.00  0.00     0.019 C 
HETATM   10  C16 UNL     1     -18.371  -2.334  17.056  1.00  0.00     0.028 C 
HETATM   11  C21 UNL     1     -17.500  -1.298  17.797  1.00  0.00     0.013 C 
HETATM   12  C22 UNL     1     -16.062  -1.554  17.348  1.00  0.00     0.040 C 
HETATM   13  C23 UNL     1     -16.138  -2.555  16.180  1.00  0.00     0.070 C 
HETATM   14  C24 UNL     1     -16.191  -1.928  14.729  1.00  0.00     0.026 C 
HETATM   15  C25 UNL     1     -16.103  -0.399  14.658  1.00  0.00     0.011 C 
HETATM   16  C26 UNL     1     -16.034   0.099  13.218  1.00  0.00     0.039 C 
HETATM   17  C27 UNL     1     -17.188  -0.391  12.327  1.00  0.00     0.073 C 
HETATM   18  C28 UNL     1     -18.517   0.288  12.768  1.00  0.00     0.071 C 
ENDROOT
BRANCH   1  19
HETATM   19  O2  UNL     1     -19.561   0.330  10.629  1.00  0.00    -0.356 OA
BRANCH  19  20
HETATM   20  C3  UNL     1     -20.670   1.094  10.150  1.00  0.00     0.263 C 
HETATM   21  O1  UNL     1     -20.561   1.193   8.734  1.00  0.00    -0.354 OA
HETATM   22  C2  UNL     1     -21.642   1.918   8.149  1.00  0.00     0.151 C 
HETATM   23  C1  UNL     1     -21.428   1.892   6.638  1.00  0.00     0.042 C 
HETATM   24  C31 UNL     1     -21.682   3.362   8.683  1.00  0.00     0.175 C 
HETATM   25  C30 UNL     1     -21.691   3.366  10.220  1.00  0.00     0.154 C 
HETATM   26  C29 UNL     1     -20.585   2.485  10.773  1.00  0.00     0.095 C 
BRANCH  24  27
HETATM   27  O9  UNL     1     -22.851   4.052   8.227  1.00  0.00    -0.390 OA
HETATM   28  H47 UNL     1     -22.654   4.371   7.329  1.00  0.00     0.210 HD
ENDBRANCH  24  27
BRANCH  25  29
HETATM   29  O8  UNL     1     -22.956   2.891  10.698  1.00  0.00    -0.393 OA
HETATM   30  H45 UNL     1     -23.616   3.348  10.136  1.00  0.00     0.210 HD
ENDBRANCH  25  29
ENDBRANCH  19  20
ENDBRANCH   1  19
BRANCH  17  31
HETATM   31  O7  UNL     1     -16.863   0.091  11.012  1.00  0.00    -0.389 OA
HETATM   32  H39 UNL     1     -17.675   0.033  10.464  1.00  0.00     0.210 HD
ENDBRANCH  17  31
BRANCH   4  33
HETATM   33  C8  UNL     1     -16.073  -2.552  11.632  1.00  0.00     0.068 C 
HETATM   34  N1  UNL     1     -14.870  -2.203  11.956  1.00  0.00    -0.399 N 
ATOM     35  H1  UNL     1     -14.683  -1.428  12.592  1.00  0.00     0.158 HD
BRANCH  34  36
HETATM   36  C9  UNL     1     -13.792  -2.995  11.352  1.00  0.00     0.144 C 
BRANCH  36  37
HETATM   37  C10 UNL     1     -13.864  -2.793   9.839  1.00  0.00     0.183 C 
BRANCH  37  38
HETATM   38  O3  UNL     1     -13.436  -3.990   9.177  1.00  0.00    -0.399 OA
HETATM   39  H16 UNL     1     -12.518  -4.150   9.498  1.00  0.00     0.209 HD
ENDBRANCH  37  38
ENDBRANCH  36  37
ENDBRANCH  34  36
ENDBRANCH   4  33
BRANCH  13  40
HETATM   40  O6  UNL     1     -14.952  -3.361  16.224  1.00  0.00    -0.389 OA
HETATM   41  H33 UNL     1     -14.184  -2.791  16.052  1.00  0.00     0.210 HD
ENDBRANCH  13  40
BRANCH  10  42
HETATM   42  C17 UNL     1     -19.619  -2.741  17.790  1.00  0.00    -0.045 A 
HETATM   43  C18 UNL     1     -19.678  -3.670  18.746  1.00  0.00     0.087 A 
HETATM   44  C19 UNL     1     -21.073  -3.782  19.163  1.00  0.00     0.283 A 
HETATM   45  O4  UNL     1     -21.474  -4.531  20.032  1.00  0.00    -0.260 OA
HETATM   46  O5  UNL     1     -21.826  -2.926  18.423  1.00  0.00    -0.314 OA
HETATM   47  C20 UNL     1     -20.983  -2.226  17.507  1.00  0.00     0.213 A 
ENDBRANCH  10  42
TORSDOF 11
ENDMDL
MODEL 9
REMARK minimizedAffinity -8.93134594
REMARK CNNscore 0.284326524
REMARK CNNaffinity 6.23726034
REMARK  11 active torsions:
REMARK  status: ('A' for Active; 'I' for Inactive)
REMARK    1  A    between atoms: C3_4  and  O2_5 
REMARK    2  A    between atoms: O2_5  and  C4_6 
REMARK    3  A    between atoms: C7_9  and  C8_10 
REMARK    4  A    between atoms: N1_11  and  C9_13 
REMARK    5  A    between atoms: C9_13  and  C10_14 
REMARK    6  A    between atoms: C10_14  and  O3_15 
REMARK    7  A    between atoms: C16_21  and  C17_22 
REMARK    8  A    between atoms: C23_30  and  O6_31 
REMARK    9  A    between atoms: C27_35  and  O7_36 
REMARK   10  A    between atoms: C30_39  and  O8_40 
REMARK   11  A    between atoms: C31_41  and  O9_42 
ROOT
HETATM    1  C4  UNL     1      -4.934   8.017  14.030  1.00  0.00     0.127 C 
HETATM    2  C5  UNL     1      -4.831   7.803  15.541  1.00  0.00     0.033 C 
HETATM    3  C6  UNL     1      -3.418   7.412  15.966  1.00  0.00     0.021 C 
HETATM    4  C7  UNL     1      -2.328   8.437  15.531  1.00  0.00     0.026 C 
HETATM    5  C11 UNL     1      -2.481   9.818  16.281  1.00  0.00     0.009 C 
HETATM    6  C12 UNL     1      -2.370   9.746  17.803  1.00  0.00     0.007 C 
HETATM    7  C13 UNL     1      -2.916  11.011  18.464  1.00  0.00     0.013 C 
HETATM    8  C14 UNL     1      -2.639  12.346  17.726  1.00  0.00    -0.005 C 
HETATM    9  C15 UNL     1      -2.292  13.388  18.823  1.00  0.00     0.019 C 
HETATM   10  C16 UNL     1      -3.844  12.847  16.853  1.00  0.00     0.028 C 
HETATM   11  C21 UNL     1      -3.221  13.852  15.862  1.00  0.00     0.013 C 
HETATM   12  C22 UNL     1      -1.720  13.564  15.853  1.00  0.00     0.040 C 
HETATM   13  C23 UNL     1      -1.519  12.252  16.636  1.00  0.00     0.070 C 
HETATM   14  C24 UNL     1      -1.504  10.925  15.776  1.00  0.00     0.026 C 
HETATM   15  C25 UNL     1      -1.633  11.109  14.260  1.00  0.00     0.011 C 
HETATM   16  C26 UNL     1      -1.480   9.788  13.513  1.00  0.00     0.039 C 
HETATM   17  C27 UNL     1      -2.445   8.685  13.981  1.00  0.00     0.073 C 
HETATM   18  C28 UNL     1      -3.899   9.047  13.562  1.00  0.00     0.071 C 
ENDROOT
BRANCH   1  19
HETATM   19  O2  UNL     1      -4.697   6.822  13.278  1.00  0.00    -0.356 OA
BRANCH  19  20
HETATM   20  C3  UNL     1      -5.629   5.771  13.540  1.00  0.00     0.263 C 
HETATM   21  O1  UNL     1      -5.408   4.736  12.589  1.00  0.00    -0.354 OA
HETATM   22  C2  UNL     1      -6.275   3.618  12.781  1.00  0.00     0.151 C 
HETATM   23  C1  UNL     1      -5.888   2.572  11.740  1.00  0.00     0.042 C 
HETATM   24  C31 UNL     1      -7.749   4.040  12.629  1.00  0.00     0.175 C 
HETATM   25  C30 UNL     1      -8.063   5.234  13.544  1.00  0.00     0.154 C 
HETATM   26  C29 UNL     1      -7.036   6.339  13.368  1.00  0.00     0.095 C 
BRANCH  24  27
HETATM   27  O9  UNL     1      -8.633   2.968  12.974  1.00  0.00    -0.390 OA
HETATM   28  H47 UNL     1      -8.698   2.396  12.189  1.00  0.00     0.210 HD
ENDBRANCH  24  27
BRANCH  25  29
HETATM   29  O8  UNL     1      -8.068   4.808  14.912  1.00  0.00    -0.393 OA
HETATM   30  H45 UNL     1      -8.569   3.967  14.904  1.00  0.00     0.210 HD
ENDBRANCH  25  29
ENDBRANCH  19  20
ENDBRANCH   1  19
BRANCH  17  31
HETATM   31  O7  UNL     1      -2.051   7.518  13.239  1.00  0.00    -0.389 OA
HETATM   32  H39 UNL     1      -2.781   6.865  13.302  1.00  0.00     0.210 HD
ENDBRANCH  17  31
BRANCH   4  33
HETATM   33  C8  UNL     1      -0.956   7.811  15.829  1.00  0.00     0.068 C 
HETATM   34  N1  UNL     1       0.141   8.354  15.409  1.00  0.00    -0.399 N 
ATOM     35  H1  UNL     1       0.144   9.133  14.750  1.00  0.00     0.158 HD
BRANCH  34  36
HETATM   36  C9  UNL     1       1.381   7.777  15.941  1.00  0.00     0.144 C 
BRANCH  36  37
HETATM   37  C10 UNL     1       2.215   7.300  14.753  1.00  0.00     0.183 C 
BRANCH  37  38
HETATM   38  O3  UNL     1       1.704   6.045  14.284  1.00  0.00    -0.399 OA
HETATM   39  H16 UNL     1       1.759   5.437  15.058  1.00  0.00     0.209 HD
ENDBRANCH  37  38
ENDBRANCH  36  37
ENDBRANCH  34  36
ENDBRANCH   4  33
BRANCH  13  40
HETATM   40  O6  UNL     1      -0.241  12.326  17.281  1.00  0.00    -0.389 OA
HETATM   41  H33 UNL     1       0.450  12.350  16.597  1.00  0.00     0.210 HD
ENDBRANCH  13  40
BRANCH  10  42
HETATM   42  C17 UNL     1      -5.092  13.335  17.537  1.00  0.00    -0.045 A 
HETATM   43  C18 UNL     1      -5.267  13.403  18.858  1.00  0.00     0.087 A 
HETATM   44  C19 UNL     1      -6.621  13.892  19.096  1.00  0.00     0.283 A 
HETATM   45  O4  UNL     1      -7.101  14.084  20.196  1.00  0.00    -0.260 OA
HETATM   46  O5  UNL     1      -7.239  14.084  17.901  1.00  0.00    -0.314 OA
HETATM   47  C20 UNL     1      -6.342  13.740  16.845  1.00  0.00     0.213 A 
ENDBRANCH  10  42
TORSDOF 11
ENDMDL
