MODEL 1
REMARK minimizedAffinity -10.1939058
REMARK  8 active torsions:
REMARK  status: ('A' for Active; 'I' for Inactive)
REMARK    1  A    between atoms: C2_2  and  C3_3 
REMARK    2  A    between atoms: C2_2  and  C27_30 
REMARK    3  A    between atoms: C3_3  and  C4_4 
REMARK    4  A    between atoms: C4_4  and  C5_5 
REMARK    5  A    between atoms: C5_5  and  C7_7 
REMARK    6  A    between atoms: C26_28  and  O3_29 
REMARK    7  A    between atoms: C27_30  and  C29_32 
REMARK    8  A    between atoms: C29_32  and  O5_34 
ROOT
HETATM    1  C7  UNL     1       1.142   6.807  13.486  1.00  0.00    -0.002 C 
HETATM    2  C8  UNL     1       0.309   7.867  14.253  1.00  0.00     0.006 C 
HETATM    3  C9  UNL     1      -1.165   7.507  14.026  1.00  0.00     0.010 C 
HETATM    4  C10 UNL     1      -1.125   6.077  13.487  1.00  0.00     0.027 C 
HETATM    5  C11 UNL     1      -2.334   5.394  12.877  1.00  0.00    -0.036 C 
HETATM    6  C12 UNL     1      -2.174   4.311  12.073  1.00  0.00     0.002 C 
HETATM    7  C13 UNL     1      -0.768   3.912  11.654  1.00  0.00     0.157 C 
HETATM    8  O1  UNL     1      -0.583   2.971  10.883  1.00  0.00    -0.293 OA
HETATM    9  C14 UNL     1       0.434   4.654  12.214  1.00  0.00     0.093 C 
HETATM   10  C15 UNL     1       0.108   6.108  12.549  1.00  0.00    -0.026 C 
HETATM   11  C16 UNL     1      -0.153   6.892  11.245  1.00  0.00     0.016 C 
HETATM   12  C17 UNL     1      -3.351   3.456  11.551  1.00  0.00    -0.008 C 
HETATM   13  C18 UNL     1      -3.569   3.857  10.069  1.00  0.00     0.021 C 
HETATM   14  C19 UNL     1      -3.054   1.922  11.631  1.00  0.00     0.022 C 
HETATM   15  C20 UNL     1      -4.251   1.015  11.910  1.00  0.00     0.080 C 
HETATM   16  C21 UNL     1      -5.535   1.598  11.386  1.00  0.00     0.131 C 
HETATM   17  O2  UNL     1      -6.301   0.943  10.680  1.00  0.00    -0.298 OA
HETATM   18  C22 UNL     1      -5.887   3.004  11.848  1.00  0.00     0.056 C 
HETATM   19  C23 UNL     1      -7.025   2.907  12.864  1.00  0.00     0.018 C 
HETATM   20  C24 UNL     1      -4.634   3.714  12.419  1.00  0.00     0.012 C 
HETATM   21  C25 UNL     1      -4.877   5.210  12.604  1.00  0.00     0.042 C 
HETATM   22  C26 UNL     1      -3.697   5.891  13.297  1.00  0.00     0.148 C 
ENDROOT
BRANCH   1  23
HETATM   23  C5  UNL     1       2.514   7.338  12.972  1.00  0.00    -0.014 C 
HETATM   24  C6  UNL     1       3.410   7.993  14.029  1.00  0.00     0.010 C 
BRANCH  23  25
HETATM   25  C4  UNL     1       2.335   8.245  11.730  1.00  0.00     0.009 C 
BRANCH  25  26
HETATM   26  C3  UNL     1       3.365   8.025  10.603  1.00  0.00     0.034 C 
BRANCH  26  27
HETATM   27  C2  UNL     1       3.838   6.615  10.291  1.00  0.00    -0.075 C 
HETATM   28  C1  UNL     1       5.034   6.147  10.696  1.00  0.00     0.015 C 
BRANCH  27  29
HETATM   29  C27 UNL     1       2.924   5.732   9.438  1.00  0.00     0.107 C 
HETATM   30  C28 UNL     1       2.512   6.396   8.124  1.00  0.00     0.026 C 
BRANCH  29  31
HETATM   31  C29 UNL     1       3.527   4.355   9.158  1.00  0.00     0.147 C 
HETATM   32  O4  UNL     1       4.284   4.028   8.260  1.00  0.00    -0.650 OA
BRANCH  31  33
HETATM   33  O5  UNL     1       3.108   3.427  10.048  1.00  0.00    -0.776 OA
HETATM   34  H42 UNL     1       3.562   2.608   9.757  1.00  0.00     0.167 HD
ENDBRANCH  31  33
ENDBRANCH  29  31
ENDBRANCH  27  29
ENDBRANCH  26  27
ENDBRANCH  25  26
ENDBRANCH  23  25
ENDBRANCH   1  23
BRANCH  22  35
HETATM   35  O3  UNL     1      -3.803   7.279  13.005  1.00  0.00    -0.391 OA
HETATM   36  H37 UNL     1      -4.657   7.589  13.350  1.00  0.00     0.210 HD
ENDBRANCH  22  35
TORSDOF 8
ENDMDL
MODEL 2
REMARK minimizedAffinity -9.85239124
REMARK  8 active torsions:
REMARK  status: ('A' for Active; 'I' for Inactive)
REMARK    1  A    between atoms: C2_2  and  C3_3 
REMARK    2  A    between atoms: C2_2  and  C27_30 
REMARK    3  A    between atoms: C3_3  and  C4_4 
REMARK    4  A    between atoms: C4_4  and  C5_5 
REMARK    5  A    between atoms: C5_5  and  C7_7 
REMARK    6  A    between atoms: C26_28  and  O3_29 
REMARK    7  A    between atoms: C27_30  and  C29_32 
REMARK    8  A    between atoms: C29_32  and  O5_34 
ROOT
HETATM    1  C7  UNL     1      -2.056   6.119  12.739  1.00  0.00    -0.002 C 
HETATM    2  C8  UNL     1      -2.515   4.882  11.924  1.00  0.00     0.006 C 
HETATM    3  C9  UNL     1      -3.998   4.671  12.253  1.00  0.00     0.010 C 
HETATM    4  C10 UNL     1      -4.427   5.982  12.914  1.00  0.00     0.027 C 
HETATM    5  C11 UNL     1      -5.749   6.143  13.639  1.00  0.00    -0.036 C 
HETATM    6  C12 UNL     1      -5.922   7.157  14.527  1.00  0.00     0.002 C 
HETATM    7  C13 UNL     1      -4.722   8.008  14.909  1.00  0.00     0.157 C 
HETATM    8  O1  UNL     1      -4.825   8.900  15.750  1.00  0.00    -0.293 OA
HETATM    9  C14 UNL     1      -3.383   7.787  14.228  1.00  0.00     0.093 C 
HETATM   10  C15 UNL     1      -3.196   6.337  13.783  1.00  0.00    -0.026 C 
HETATM   11  C16 UNL     1      -3.059   5.430  15.025  1.00  0.00     0.016 C 
HETATM   12  C17 UNL     1      -7.283   7.494  15.178  1.00  0.00    -0.008 C 
HETATM   13  C18 UNL     1      -7.229   6.948  16.629  1.00  0.00     0.021 C 
HETATM   14  C19 UNL     1      -7.558   9.035  15.219  1.00  0.00     0.022 C 
HETATM   15  C20 UNL     1      -9.017   9.465  15.079  1.00  0.00     0.080 C 
HETATM   16  C21 UNL     1      -9.965   8.427  15.612  1.00  0.00     0.131 C 
HETATM   17  O2  UNL     1     -10.856   8.715  16.410  1.00  0.00    -0.298 OA
HETATM   18  C22 UNL     1      -9.829   7.021  15.048  1.00  0.00     0.056 C 
HETATM   19  C23 UNL     1     -11.002   6.766  14.101  1.00  0.00     0.018 C 
HETATM   20  C24 UNL     1      -8.454   6.849  14.355  1.00  0.00     0.012 C 
HETATM   21  C25 UNL     1      -8.162   5.380  14.052  1.00  0.00     0.042 C 
HETATM   22  C26 UNL     1      -6.875   5.216  13.245  1.00  0.00     0.148 C 
ENDROOT
BRANCH   1  23
HETATM   23  C5  UNL     1      -0.550   6.087  13.137  1.00  0.00    -0.014 C 
HETATM   24  C6  UNL     1      -0.244   6.407  14.604  1.00  0.00     0.010 C 
BRANCH  23  25
HETATM   25  C4  UNL     1       0.303   6.946  12.173  1.00  0.00     0.009 C 
BRANCH  25  26
HETATM   26  C3  UNL     1       0.181   6.576  10.680  1.00  0.00     0.034 C 
BRANCH  26  27
HETATM   27  C2  UNL     1       0.682   7.550   9.627  1.00  0.00    -0.075 C 
HETATM   28  C1  UNL     1      -0.102   8.507   9.095  1.00  0.00     0.015 C 
BRANCH  27  29
HETATM   29  C27 UNL     1       2.122   7.383   9.132  1.00  0.00     0.107 C 
HETATM   30  C28 UNL     1       2.677   5.981   9.382  1.00  0.00     0.026 C 
BRANCH  29  31
HETATM   31  C29 UNL     1       2.286   7.752   7.658  1.00  0.00     0.147 C 
HETATM   32  O4  UNL     1       1.889   7.147   6.677  1.00  0.00    -0.650 OA
BRANCH  31  33
HETATM   33  O5  UNL     1       2.986   8.898   7.496  1.00  0.00    -0.776 OA
HETATM   34  H42 UNL     1       3.015   9.015   6.523  1.00  0.00     0.167 HD
ENDBRANCH  31  33
ENDBRANCH  29  31
ENDBRANCH  27  29
ENDBRANCH  26  27
ENDBRANCH  25  26
ENDBRANCH  23  25
ENDBRANCH   1  23
BRANCH  22  35
HETATM   35  O3  UNL     1      -6.457   3.868  13.419  1.00  0.00    -0.391 OA
HETATM   36  H37 UNL     1      -7.170   3.294  13.090  1.00  0.00     0.210 HD
ENDBRANCH  22  35
TORSDOF 8
ENDMDL
MODEL 3
REMARK minimizedAffinity -9.80097866
REMARK  8 active torsions:
REMARK  status: ('A' for Active; 'I' for Inactive)
REMARK    1  A    between atoms: C2_2  and  C3_3 
REMARK    2  A    between atoms: C2_2  and  C27_30 
REMARK    3  A    between atoms: C3_3  and  C4_4 
REMARK    4  A    between atoms: C4_4  and  C5_5 
REMARK    5  A    between atoms: C5_5  and  C7_7 
REMARK    6  A    between atoms: C26_28  and  O3_29 
REMARK    7  A    between atoms: C27_30  and  C29_32 
REMARK    8  A    between atoms: C29_32  and  O5_34 
ROOT
HETATM    1  C7  UNL     1      -1.749   5.351  12.346  1.00  0.00    -0.002 C 
HETATM    2  C8  UNL     1      -2.339   4.222  11.461  1.00  0.00     0.006 C 
HETATM    3  C9  UNL     1      -3.829   4.128  11.815  1.00  0.00     0.010 C 
HETATM    4  C10 UNL     1      -4.118   5.424  12.575  1.00  0.00     0.027 C 
HETATM    5  C11 UNL     1      -5.404   5.656  13.345  1.00  0.00    -0.036 C 
HETATM    6  C12 UNL     1      -5.462   6.616  14.304  1.00  0.00     0.002 C 
HETATM    7  C13 UNL     1      -4.179   7.323  14.710  1.00  0.00     0.157 C 
HETATM    8  O1  UNL     1      -4.179   8.160  15.612  1.00  0.00    -0.293 OA
HETATM    9  C14 UNL     1      -2.880   7.026  13.980  1.00  0.00     0.093 C 
HETATM   10  C15 UNL     1      -2.841   5.601  13.433  1.00  0.00    -0.026 C 
HETATM   11  C16 UNL     1      -2.766   4.599  14.606  1.00  0.00     0.016 C 
HETATM   12  C17 UNL     1      -6.771   7.033  15.013  1.00  0.00    -0.008 C 
HETATM   13  C18 UNL     1      -6.739   6.384  16.421  1.00  0.00     0.021 C 
HETATM   14  C19 UNL     1      -6.897   8.586  15.165  1.00  0.00     0.022 C 
HETATM   15  C20 UNL     1      -8.311   9.159  15.095  1.00  0.00     0.080 C 
HETATM   16  C21 UNL     1      -9.343   8.178  15.581  1.00  0.00     0.131 C 
HETATM   17  O2  UNL     1     -10.186   8.492  16.420  1.00  0.00    -0.298 OA
HETATM   18  C22 UNL     1      -9.352   6.810  14.919  1.00  0.00     0.056 C 
HETATM   19  C23 UNL     1     -10.563   6.733  13.989  1.00  0.00     0.018 C 
HETATM   20  C24 UNL     1      -8.014   6.559  14.179  1.00  0.00     0.012 C 
HETATM   21  C25 UNL     1      -7.869   5.094  13.769  1.00  0.00     0.042 C 
HETATM   22  C26 UNL     1      -6.620   4.868  12.918  1.00  0.00     0.148 C 
ENDROOT
BRANCH   1  23
HETATM   23  C5  UNL     1      -0.245   5.150  12.700  1.00  0.00    -0.014 C 
HETATM   24  C6  UNL     1       0.346   6.165  13.684  1.00  0.00     0.010 C 
BRANCH  23  25
HETATM   25  C4  UNL     1       0.620   5.020  11.422  1.00  0.00     0.009 C 
BRANCH  25  26
HETATM   26  C3  UNL     1       1.535   6.225  11.124  1.00  0.00     0.034 C 
BRANCH  26  27
HETATM   27  C2  UNL     1       1.269   7.078   9.894  1.00  0.00    -0.075 C 
HETATM   28  C1  UNL     1       0.449   8.146   9.918  1.00  0.00     0.015 C 
BRANCH  27  29
HETATM   29  C27 UNL     1       1.928   6.653   8.579  1.00  0.00     0.107 C 
HETATM   30  C28 UNL     1       2.141   7.821   7.616  1.00  0.00     0.026 C 
BRANCH  29  31
HETATM   31  C29 UNL     1       3.245   5.908   8.793  1.00  0.00     0.147 C 
HETATM   32  O4  UNL     1       4.154   6.180   9.560  1.00  0.00    -0.650 OA
BRANCH  31  33
HETATM   33  O5  UNL     1       3.357   4.831   7.983  1.00  0.00    -0.776 OA
HETATM   34  H42 UNL     1       4.231   4.454   8.221  1.00  0.00     0.167 HD
ENDBRANCH  31  33
ENDBRANCH  29  31
ENDBRANCH  27  29
ENDBRANCH  26  27
ENDBRANCH  25  26
ENDBRANCH  23  25
ENDBRANCH   1  23
BRANCH  22  35
HETATM   35  O3  UNL     1      -6.329   3.478  12.989  1.00  0.00    -0.391 OA
HETATM   36  H37 UNL     1      -7.099   2.997  12.642  1.00  0.00     0.210 HD
ENDBRANCH  22  35
TORSDOF 8
ENDMDL
MODEL 4
REMARK minimizedAffinity -9.77597046
REMARK  8 active torsions:
REMARK  status: ('A' for Active; 'I' for Inactive)
REMARK    1  A    between atoms: C2_2  and  C3_3 
REMARK    2  A    between atoms: C2_2  and  C27_30 
REMARK    3  A    between atoms: C3_3  and  C4_4 
REMARK    4  A    between atoms: C4_4  and  C5_5 
REMARK    5  A    between atoms: C5_5  and  C7_7 
REMARK    6  A    between atoms: C26_28  and  O3_29 
REMARK    7  A    between atoms: C27_30  and  C29_32 
REMARK    8  A    between atoms: C29_32  and  O5_34 
ROOT
HETATM    1  C7  UNL     1       1.442   6.722  11.711  1.00  0.00    -0.002 C 
HETATM    2  C8  UNL     1       1.412   5.336  11.015  1.00  0.00     0.006 C 
HETATM    3  C9  UNL     1       0.053   4.710  11.353  1.00  0.00     0.010 C 
HETATM    4  C10 UNL     1      -0.779   5.879  11.881  1.00  0.00     0.027 C 
HETATM    5  C11 UNL     1      -2.112   5.689  12.579  1.00  0.00    -0.036 C 
HETATM    6  C12 UNL     1      -2.619   6.676  13.363  1.00  0.00     0.002 C 
HETATM    7  C13 UNL     1      -1.751   7.886  13.670  1.00  0.00     0.157 C 
HETATM    8  O1  UNL     1      -2.151   8.775  14.420  1.00  0.00    -0.293 OA
HETATM    9  C14 UNL     1      -0.384   8.027  13.023  1.00  0.00     0.093 C 
HETATM   10  C15 UNL     1       0.253   6.672  12.721  1.00  0.00    -0.026 C 
HETATM   11  C16 UNL     1       0.616   5.965  14.045  1.00  0.00     0.016 C 
HETATM   12  C17 UNL     1      -4.040   6.636  13.970  1.00  0.00    -0.008 C 
HETATM   13  C18 UNL     1      -3.874   6.265  15.466  1.00  0.00     0.021 C 
HETATM   14  C19 UNL     1      -4.774   8.015  13.860  1.00  0.00     0.022 C 
HETATM   15  C20 UNL     1      -6.288   7.961  13.670  1.00  0.00     0.080 C 
HETATM   16  C21 UNL     1      -6.892   6.733  14.294  1.00  0.00     0.131 C 
HETATM   17  O2  UNL     1      -7.857   6.804  15.053  1.00  0.00    -0.298 OA
HETATM   18  C22 UNL     1      -6.313   5.393  13.868  1.00  0.00     0.056 C 
HETATM   19  C23 UNL     1      -7.317   4.706  12.942  1.00  0.00     0.018 C 
HETATM   20  C24 UNL     1      -4.927   5.590  13.205  1.00  0.00     0.012 C 
HETATM   21  C25 UNL     1      -4.190   4.262  13.046  1.00  0.00     0.042 C 
HETATM   22  C26 UNL     1      -2.886   4.430  12.268  1.00  0.00     0.148 C 
ENDROOT
BRANCH   1  23
HETATM   23  C5  UNL     1       2.870   7.190  12.120  1.00  0.00    -0.014 C 
HETATM   24  C6  UNL     1       2.982   8.644  12.590  1.00  0.00     0.010 C 
BRANCH  23  25
HETATM   25  C4  UNL     1       3.905   6.863  11.016  1.00  0.00     0.009 C 
BRANCH  25  26
HETATM   26  C3  UNL     1       3.731   7.649   9.699  1.00  0.00     0.034 C 
BRANCH  26  27
HETATM   27  C2  UNL     1       2.915   7.039   8.571  1.00  0.00    -0.075 C 
HETATM   28  C1  UNL     1       2.973   5.730   8.262  1.00  0.00     0.015 C 
BRANCH  27  29
HETATM   29  C27 UNL     1       2.042   7.981   7.737  1.00  0.00     0.107 C 
HETATM   30  C28 UNL     1       1.721   7.422   6.351  1.00  0.00     0.026 C 
BRANCH  29  31
HETATM   31  C29 UNL     1       0.751   8.378   8.451  1.00  0.00     0.147 C 
HETATM   32  O4  UNL     1       0.614   8.822   9.578  1.00  0.00    -0.650 OA
BRANCH  31  33
HETATM   33  O5  UNL     1      -0.341   8.165   7.682  1.00  0.00    -0.776 OA
HETATM   34  H42 UNL     1      -1.084   8.456   8.251  1.00  0.00     0.167 HD
ENDBRANCH  31  33
ENDBRANCH  29  31
ENDBRANCH  27  29
ENDBRANCH  26  27
ENDBRANCH  25  26
ENDBRANCH  23  25
ENDBRANCH   1  23
BRANCH  22  35
HETATM   35  O3  UNL     1      -2.083   3.297  12.574  1.00  0.00    -0.391 OA
HETATM   36  H37 UNL     1      -2.574   2.504  12.297  1.00  0.00     0.210 HD
ENDBRANCH  22  35
TORSDOF 8
ENDMDL
MODEL 5
REMARK minimizedAffinity -9.77196503
REMARK  8 active torsions:
REMARK  status: ('A' for Active; 'I' for Inactive)
REMARK    1  A    between atoms: C2_2  and  C3_3 
REMARK    2  A    between atoms: C2_2  and  C27_30 
REMARK    3  A    between atoms: C3_3  and  C4_4 
REMARK    4  A    between atoms: C4_4  and  C5_5 
REMARK    5  A    between atoms: C5_5  and  C7_7 
REMARK    6  A    between atoms: C26_28  and  O3_29 
REMARK    7  A    between atoms: C27_30  and  C29_32 
REMARK    8  A    between atoms: C29_32  and  O5_34 
ROOT
HETATM    1  C7  UNL     1      -1.655   6.140  12.833  1.00  0.00    -0.002 C 
HETATM    2  C8  UNL     1      -1.672   5.121  11.664  1.00  0.00     0.006 C 
HETATM    3  C9  UNL     1      -0.274   5.159  11.033  1.00  0.00     0.010 C 
HETATM    4  C10 UNL     1       0.587   5.880  12.072  1.00  0.00     0.027 C 
HETATM    5  C11 UNL     1       1.989   6.377  11.775  1.00  0.00    -0.036 C 
HETATM    6  C12 UNL     1       2.556   7.330  12.559  1.00  0.00     0.002 C 
HETATM    7  C13 UNL     1       1.702   8.011  13.616  1.00  0.00     0.157 C 
HETATM    8  O1  UNL     1       2.162   8.918  14.310  1.00  0.00    -0.293 OA
HETATM    9  C14 UNL     1       0.273   7.554  13.853  1.00  0.00     0.093 C 
HETATM   10  C15 UNL     1      -0.367   6.986  12.587  1.00  0.00    -0.026 C 
HETATM   11  C16 UNL     1      -0.576   8.121  11.561  1.00  0.00     0.016 C 
HETATM   12  C17 UNL     1       4.033   7.768  12.433  1.00  0.00    -0.008 C 
HETATM   13  C18 UNL     1       4.031   9.133  11.698  1.00  0.00     0.021 C 
HETATM   14  C19 UNL     1       4.725   7.935  13.827  1.00  0.00     0.022 C 
HETATM   15  C20 UNL     1       6.213   7.593  13.889  1.00  0.00     0.080 C 
HETATM   16  C21 UNL     1       6.901   7.830  12.573  1.00  0.00     0.131 C 
HETATM   17  O2  UNL     1       7.939   8.487  12.497  1.00  0.00    -0.298 OA
HETATM   18  C22 UNL     1       6.306   7.141  11.355  1.00  0.00     0.056 C 
HETATM   19  C23 UNL     1       7.221   5.981  10.962  1.00  0.00     0.018 C 
HETATM   20  C24 UNL     1       4.855   6.684  11.649  1.00  0.00     0.012 C 
HETATM   21  C25 UNL     1       4.130   6.271  10.369  1.00  0.00     0.042 C 
HETATM   22  C26 UNL     1       2.749   5.688  10.666  1.00  0.00     0.148 C 
ENDROOT
BRANCH   1  23
HETATM   23  C5  UNL     1      -3.042   6.789  13.122  1.00  0.00    -0.014 C 
HETATM   24  C6  UNL     1      -3.003   8.148  13.828  1.00  0.00     0.010 C 
BRANCH  23  25
HETATM   25  C4  UNL     1      -3.986   5.796  13.843  1.00  0.00     0.009 C 
BRANCH  25  26
HETATM   26  C3  UNL     1      -5.095   5.186  12.960  1.00  0.00     0.034 C 
BRANCH  26  27
HETATM   27  C2  UNL     1      -5.008   3.723  12.559  1.00  0.00    -0.075 C 
HETATM   28  C1  UNL     1      -3.873   3.007  12.674  1.00  0.00     0.015 C 
BRANCH  27  29
HETATM   29  C27 UNL     1      -6.258   3.077  11.956  1.00  0.00     0.107 C 
HETATM   30  C28 UNL     1      -5.951   1.793  11.184  1.00  0.00     0.026 C 
BRANCH  29  31
HETATM   31  C29 UNL     1      -7.346   2.812  12.995  1.00  0.00     0.147 C 
HETATM   32  O4  UNL     1      -7.509   3.352  14.076  1.00  0.00    -0.650 OA
BRANCH  31  33
HETATM   33  O5  UNL     1      -8.190   1.828  12.609  1.00  0.00    -0.776 OA
HETATM   34  H42 UNL     1      -8.825   1.763  13.353  1.00  0.00     0.167 HD
ENDBRANCH  31  33
ENDBRANCH  29  31
ENDBRANCH  27  29
ENDBRANCH  26  27
ENDBRANCH  25  26
ENDBRANCH  23  25
ENDBRANCH   1  23
BRANCH  22  35
HETATM   35  O3  UNL     1       2.004   5.777   9.459  1.00  0.00    -0.391 OA
HETATM   36  H37 UNL     1       2.478   5.266   8.781  1.00  0.00     0.210 HD
ENDBRANCH  22  35
TORSDOF 8
ENDMDL
MODEL 6
REMARK minimizedAffinity -9.72277069
REMARK  8 active torsions:
REMARK  status: ('A' for Active; 'I' for Inactive)
REMARK    1  A    between atoms: C2_2  and  C3_3 
REMARK    2  A    between atoms: C2_2  and  C27_30 
REMARK    3  A    between atoms: C3_3  and  C4_4 
REMARK    4  A    between atoms: C4_4  and  C5_5 
REMARK    5  A    between atoms: C5_5  and  C7_7 
REMARK    6  A    between atoms: C26_28  and  O3_29 
REMARK    7  A    between atoms: C27_30  and  C29_32 
REMARK    8  A    between atoms: C29_32  and  O5_34 
ROOT
HETATM    1  C7  UNL     1       0.745   6.752  11.832  1.00  0.00    -0.002 C 
HETATM    2  C8  UNL     1       0.586   5.488  10.946  1.00  0.00     0.006 C 
HETATM    3  C9  UNL     1      -0.799   4.908  11.262  1.00  0.00     0.010 C 
HETATM    4  C10 UNL     1      -1.522   6.039  11.997  1.00  0.00     0.027 C 
HETATM    5  C11 UNL     1      -2.834   5.835  12.729  1.00  0.00    -0.036 C 
HETATM    6  C12 UNL     1      -3.234   6.726  13.674  1.00  0.00     0.002 C 
HETATM    7  C13 UNL     1      -2.269   7.818  14.105  1.00  0.00     0.157 C 
HETATM    8  O1  UNL     1      -2.571   8.612  14.996  1.00  0.00    -0.293 OA
HETATM    9  C14 UNL     1      -0.924   7.965  13.413  1.00  0.00     0.093 C 
HETATM   10  C15 UNL     1      -0.400   6.630  12.886  1.00  0.00    -0.026 C 
HETATM   11  C16 UNL     1      -0.033   5.714  14.074  1.00  0.00     0.016 C 
HETATM   12  C17 UNL     1      -4.627   6.690  14.342  1.00  0.00    -0.008 C 
HETATM   13  C18 UNL     1      -4.424   6.092  15.759  1.00  0.00     0.021 C 
HETATM   14  C19 UNL     1      -5.263   8.114  14.471  1.00  0.00     0.022 C 
HETATM   15  C20 UNL     1      -6.785   8.188  14.356  1.00  0.00     0.080 C 
HETATM   16  C21 UNL     1      -7.448   6.923  14.828  1.00  0.00     0.131 C 
HETATM   17  O2  UNL     1      -8.372   6.944  15.640  1.00  0.00    -0.298 OA
HETATM   18  C22 UNL     1      -6.986   5.626  14.183  1.00  0.00     0.056 C 
HETATM   19  C23 UNL     1      -8.076   5.150  13.223  1.00  0.00     0.018 C 
HETATM   20  C24 UNL     1      -5.619   5.828  13.483  1.00  0.00     0.012 C 
HETATM   21  C25 UNL     1      -4.987   4.492  13.096  1.00  0.00     0.042 C 
HETATM   22  C26 UNL     1      -3.709   4.688  12.281  1.00  0.00     0.148 C 
ENDROOT
BRANCH   1  23
HETATM   23  C5  UNL     1       2.220   7.060  12.228  1.00  0.00    -0.014 C 
HETATM   24  C6  UNL     1       2.440   7.484  13.684  1.00  0.00     0.010 C 
BRANCH  23  25
HETATM   25  C4  UNL     1       2.870   8.056  11.237  1.00  0.00     0.009 C 
BRANCH  25  26
HETATM   26  C3  UNL     1       3.582   7.411  10.030  1.00  0.00     0.034 C 
BRANCH  26  27
HETATM   27  C2  UNL     1       3.071   7.692   8.626  1.00  0.00    -0.075 C 
HETATM   28  C1  UNL     1       3.289   8.863   7.998  1.00  0.00     0.015 C 
BRANCH  27  29
HETATM   29  C27 UNL     1       2.236   6.605   7.944  1.00  0.00     0.107 C 
HETATM   30  C28 UNL     1       1.702   7.036   6.578  1.00  0.00     0.026 C 
BRANCH  29  31
HETATM   31  C29 UNL     1       2.984   5.279   7.816  1.00  0.00     0.147 C 
HETATM   32  O4  UNL     1       3.535   4.632   8.691  1.00  0.00    -0.650 OA
BRANCH  31  33
HETATM   33  O5  UNL     1       3.014   4.833   6.540  1.00  0.00    -0.776 OA
HETATM   34  H42 UNL     1       3.514   3.992   6.601  1.00  0.00     0.167 HD
ENDBRANCH  31  33
ENDBRANCH  29  31
ENDBRANCH  27  29
ENDBRANCH  26  27
ENDBRANCH  25  26
ENDBRANCH  23  25
ENDBRANCH   1  23
BRANCH  22  35
HETATM   35  O3  UNL     1      -2.978   3.473  12.378  1.00  0.00    -0.391 OA
HETATM   36  H37 UNL     1      -3.535   2.763  12.017  1.00  0.00     0.210 HD
ENDBRANCH  22  35
TORSDOF 8
ENDMDL
MODEL 7
REMARK minimizedAffinity -9.37279701
REMARK  8 active torsions:
REMARK  status: ('A' for Active; 'I' for Inactive)
REMARK    1  A    between atoms: C2_2  and  C3_3 
REMARK    2  A    between atoms: C2_2  and  C27_30 
REMARK    3  A    between atoms: C3_3  and  C4_4 
REMARK    4  A    between atoms: C4_4  and  C5_5 
REMARK    5  A    between atoms: C5_5  and  C7_7 
REMARK    6  A    between atoms: C26_28  and  O3_29 
REMARK    7  A    between atoms: C27_30  and  C29_32 
REMARK    8  A    between atoms: C29_32  and  O5_34 
ROOT
HETATM    1  C7  UNL     1      -5.996   6.430  13.317  1.00  0.00    -0.002 C 
HETATM    2  C8  UNL     1      -6.101   7.894  13.821  1.00  0.00     0.006 C 
HETATM    3  C9  UNL     1      -4.668   8.438  13.875  1.00  0.00     0.010 C 
HETATM    4  C10 UNL     1      -3.854   7.437  13.053  1.00  0.00     0.027 C 
HETATM    5  C11 UNL     1      -2.338   7.426  13.040  1.00  0.00    -0.036 C 
HETATM    6  C12 UNL     1      -1.667   6.316  12.634  1.00  0.00     0.002 C 
HETATM    7  C13 UNL     1      -2.453   5.042  12.368  1.00  0.00     0.157 C 
HETATM    8  O1  UNL     1      -1.878   4.001  12.051  1.00  0.00    -0.293 OA
HETATM    9  C14 UNL     1      -3.969   5.048  12.458  1.00  0.00     0.093 C 
HETATM   10  C15 UNL     1      -4.482   6.081  13.460  1.00  0.00    -0.026 C 
HETATM   11  C16 UNL     1      -4.094   5.649  14.891  1.00  0.00     0.016 C 
HETATM   12  C17 UNL     1      -0.135   6.275  12.427  1.00  0.00    -0.008 C 
HETATM   13  C18 UNL     1       0.458   5.533  13.652  1.00  0.00     0.021 C 
HETATM   14  C19 UNL     1       0.269   5.516  11.120  1.00  0.00     0.022 C 
HETATM   15  C20 UNL     1       1.518   6.024  10.402  1.00  0.00     0.080 C 
HETATM   16  C21 UNL     1       2.503   6.646  11.354  1.00  0.00     0.131 C 
HETATM   17  O2  UNL     1       3.689   6.321  11.358  1.00  0.00    -0.298 OA
HETATM   18  C22 UNL     1       1.982   7.761  12.246  1.00  0.00     0.056 C 
HETATM   19  C23 UNL     1       2.530   9.090  11.728  1.00  0.00     0.018 C 
HETATM   20  C24 UNL     1       0.433   7.733  12.297  1.00  0.00     0.012 C 
HETATM   21  C25 UNL     1      -0.105   8.630  13.410  1.00  0.00     0.042 C 
HETATM   22  C26 UNL     1      -1.630   8.717  13.377  1.00  0.00     0.148 C 
ENDROOT
BRANCH   1  23
HETATM   23  C5  UNL     1      -7.125   5.499  13.851  1.00  0.00    -0.014 C 
HETATM   24  C6  UNL     1      -7.635   4.443  12.865  1.00  0.00     0.010 C 
BRANCH  23  25
HETATM   25  C4  UNL     1      -8.286   6.319  14.463  1.00  0.00     0.009 C 
BRANCH  25  26
HETATM   26  C3  UNL     1      -9.520   6.490  13.553  1.00  0.00     0.034 C 
BRANCH  26  27
HETATM   27  C2  UNL     1     -10.610   7.472  13.952  1.00  0.00    -0.075 C 
HETATM   28  C1  UNL     1     -10.696   7.994  15.190  1.00  0.00     0.015 C 
BRANCH  27  29
HETATM   29  C27 UNL     1     -11.668   7.824  12.902  1.00  0.00     0.107 C 
HETATM   30  C28 UNL     1     -13.032   7.204  13.203  1.00  0.00     0.026 C 
BRANCH  29  31
HETATM   31  C29 UNL     1     -11.814   9.330  12.693  1.00  0.00     0.147 C 
HETATM   32  O4  UNL     1     -11.838  10.213  13.534  1.00  0.00    -0.650 OA
BRANCH  31  33
HETATM   33  O5  UNL     1     -11.948   9.651  11.386  1.00  0.00    -0.776 OA
HETATM   34  H42 UNL     1     -12.031  10.628  11.396  1.00  0.00     0.167 HD
ENDBRANCH  31  33
ENDBRANCH  29  31
ENDBRANCH  27  29
ENDBRANCH  26  27
ENDBRANCH  25  26
ENDBRANCH  23  25
ENDBRANCH   1  23
BRANCH  22  35
HETATM   35  O3  UNL     1      -2.039   9.155  14.666  1.00  0.00    -0.391 OA
HETATM   36  H37 UNL     1      -1.628  10.021  14.827  1.00  0.00     0.210 HD
ENDBRANCH  22  35
TORSDOF 8
ENDMDL
MODEL 8
REMARK minimizedAffinity -9.19958782
REMARK  8 active torsions:
REMARK  status: ('A' for Active; 'I' for Inactive)
REMARK    1  A    between atoms: C2_2  and  C3_3 
REMARK    2  A    between atoms: C2_2  and  C27_30 
REMARK    3  A    between atoms: C3_3  and  C4_4 
REMARK    4  A    between atoms: C4_4  and  C5_5 
REMARK    5  A    between atoms: C5_5  and  C7_7 
REMARK    6  A    between atoms: C26_28  and  O3_29 
REMARK    7  A    between atoms: C27_30  and  C29_32 
REMARK    8  A    between atoms: C29_32  and  O5_34 
ROOT
HETATM    1  C7  UNL     1      -1.873   5.981  13.431  1.00  0.00    -0.002 C 
HETATM    2  C8  UNL     1      -1.944   4.970  12.256  1.00  0.00     0.006 C 
HETATM    3  C9  UNL     1      -0.598   5.058  11.526  1.00  0.00     0.010 C 
HETATM    4  C10 UNL     1       0.314   5.797  12.507  1.00  0.00     0.027 C 
HETATM    5  C11 UNL     1       1.675   6.340  12.114  1.00  0.00    -0.036 C 
HETATM    6  C12 UNL     1       2.268   7.305  12.864  1.00  0.00     0.002 C 
HETATM    7  C13 UNL     1       1.473   7.950  13.988  1.00  0.00     0.157 C 
HETATM    8  O1  UNL     1       1.954   8.865  14.656  1.00  0.00    -0.293 OA
HETATM    9  C14 UNL     1       0.079   7.447  14.323  1.00  0.00     0.093 C 
HETATM   10  C15 UNL     1      -0.633   6.869  13.102  1.00  0.00    -0.026 C 
HETATM   11  C16 UNL     1      -0.951   8.004  12.105  1.00  0.00     0.016 C 
HETATM   12  C17 UNL     1       3.718   7.789  12.636  1.00  0.00    -0.008 C 
HETATM   13  C18 UNL     1       3.620   9.160  11.917  1.00  0.00     0.021 C 
HETATM   14  C19 UNL     1       4.505   7.968  13.978  1.00  0.00     0.022 C 
HETATM   15  C20 UNL     1       6.002   7.672  13.927  1.00  0.00     0.080 C 
HETATM   16  C21 UNL     1       6.585   7.940  12.567  1.00  0.00     0.131 C 
HETATM   17  O2  UNL     1       7.594   8.630  12.422  1.00  0.00    -0.298 OA
HETATM   18  C22 UNL     1       5.924   7.243  11.389  1.00  0.00     0.056 C 
HETATM   19  C23 UNL     1       6.843   6.115  10.919  1.00  0.00     0.018 C 
HETATM   20  C24 UNL     1       4.513   6.739  11.782  1.00  0.00     0.012 C 
HETATM   21  C25 UNL     1       3.710   6.313  10.555  1.00  0.00     0.042 C 
HETATM   22  C26 UNL     1       2.373   5.684  10.946  1.00  0.00     0.148 C 
ENDROOT
BRANCH   1  23
HETATM   23  C5  UNL     1      -3.254   6.583  13.827  1.00  0.00    -0.014 C 
HETATM   24  C6  UNL     1      -3.457   6.849  15.323  1.00  0.00     0.010 C 
BRANCH  23  25
HETATM   25  C4  UNL     1      -4.419   5.757  13.229  1.00  0.00     0.009 C 
BRANCH  25  26
HETATM   26  C3  UNL     1      -5.825   6.351  13.448  1.00  0.00     0.034 C 
BRANCH  26  27
HETATM   27  C2  UNL     1      -6.876   5.531  14.179  1.00  0.00    -0.075 C 
HETATM   28  C1  UNL     1      -6.840   5.332  15.510  1.00  0.00     0.015 C 
BRANCH  27  29
HETATM   29  C27 UNL     1      -7.974   4.873  13.338  1.00  0.00     0.107 C 
HETATM   30  C28 UNL     1      -8.301   5.658  12.068  1.00  0.00     0.026 C 
BRANCH  29  31
HETATM   31  C29 UNL     1      -7.656   3.420  12.985  1.00  0.00     0.147 C 
HETATM   32  O4  UNL     1      -8.432   2.496  12.810  1.00  0.00    -0.650 OA
BRANCH  31  33
HETATM   33  O5  UNL     1      -6.326   3.200  12.888  1.00  0.00    -0.776 OA
HETATM   34  H42 UNL     1      -6.265   2.248  12.661  1.00  0.00     0.167 HD
ENDBRANCH  31  33
ENDBRANCH  29  31
ENDBRANCH  27  29
ENDBRANCH  26  27
ENDBRANCH  25  26
ENDBRANCH  23  25
ENDBRANCH   1  23
BRANCH  22  35
HETATM   35  O3  UNL     1       1.539   5.760   9.796  1.00  0.00    -0.391 OA
HETATM   36  H37 UNL     1       1.978   5.269   9.081  1.00  0.00     0.210 HD
ENDBRANCH  22  35
TORSDOF 8
ENDMDL
MODEL 9
REMARK minimizedAffinity -9.09244823
REMARK  8 active torsions:
REMARK  status: ('A' for Active; 'I' for Inactive)
REMARK    1  A    between atoms: C2_2  and  C3_3 
REMARK    2  A    between atoms: C2_2  and  C27_30 
REMARK    3  A    between atoms: C3_3  and  C4_4 
REMARK    4  A    between atoms: C4_4  and  C5_5 
REMARK    5  A    between atoms: C5_5  and  C7_7 
REMARK    6  A    between atoms: C26_28  and  O3_29 
REMARK    7  A    between atoms: C27_30  and  C29_32 
REMARK    8  A    between atoms: C29_32  and  O5_34 
ROOT
HETATM    1  C7  UNL     1       0.264   6.702  11.870  1.00  0.00    -0.002 C 
HETATM    2  C8  UNL     1       0.183   5.422  10.998  1.00  0.00     0.006 C 
HETATM    3  C9  UNL     1      -1.176   4.777  11.300  1.00  0.00     0.010 C 
HETATM    4  C10 UNL     1      -1.966   5.878  12.009  1.00  0.00     0.027 C 
HETATM    5  C11 UNL     1      -3.278   5.617  12.723  1.00  0.00    -0.036 C 
HETATM    6  C12 UNL     1      -3.737   6.499  13.650  1.00  0.00     0.002 C 
HETATM    7  C13 UNL     1      -2.835   7.643  14.082  1.00  0.00     0.157 C 
HETATM    8  O1  UNL     1      -3.192   8.431  14.958  1.00  0.00    -0.293 OA
HETATM    9  C14 UNL     1      -1.489   7.849  13.409  1.00  0.00     0.093 C 
HETATM   10  C15 UNL     1      -0.890   6.536  12.907  1.00  0.00    -0.026 C 
HETATM   11  C16 UNL     1      -0.497   5.654  14.112  1.00  0.00     0.016 C 
HETATM   12  C17 UNL     1      -5.138   6.400  14.298  1.00  0.00    -0.008 C 
HETATM   13  C18 UNL     1      -4.928   5.830  15.725  1.00  0.00     0.021 C 
HETATM   14  C19 UNL     1      -5.847   7.792  14.398  1.00  0.00     0.022 C 
HETATM   15  C20 UNL     1      -7.368   7.788  14.259  1.00  0.00     0.080 C 
HETATM   16  C21 UNL     1      -7.975   6.497  14.736  1.00  0.00     0.131 C 
HETATM   17  O2  UNL     1      -8.911   6.480  15.534  1.00  0.00    -0.298 OA
HETATM   18  C22 UNL     1      -7.438   5.217  14.116  1.00  0.00     0.056 C 
HETATM   19  C23 UNL     1      -8.486   4.675  13.145  1.00  0.00     0.018 C 
HETATM   20  C24 UNL     1      -6.071   5.479  13.434  1.00  0.00     0.012 C 
HETATM   21  C25 UNL     1      -5.367   4.172  13.074  1.00  0.00     0.042 C 
HETATM   22  C26 UNL     1      -4.087   4.423  12.277  1.00  0.00     0.148 C 
ENDROOT
BRANCH   1  23
HETATM   23  C5  UNL     1       1.715   7.090  12.284  1.00  0.00    -0.014 C 
HETATM   24  C6  UNL     1       1.958   7.234  13.790  1.00  0.00     0.010 C 
BRANCH  23  25
HETATM   25  C4  UNL     1       2.209   8.331  11.502  1.00  0.00     0.009 C 
BRANCH  25  26
HETATM   26  C3  UNL     1       3.009   8.022  10.220  1.00  0.00     0.034 C 
BRANCH  26  27
HETATM   27  C2  UNL     1       4.029   6.895  10.230  1.00  0.00    -0.075 C 
HETATM   28  C1  UNL     1       3.698   5.618   9.960  1.00  0.00     0.015 C 
BRANCH  27  29
HETATM   29  C27 UNL     1       5.468   7.244  10.619  1.00  0.00     0.107 C 
HETATM   30  C28 UNL     1       5.552   8.401  11.614  1.00  0.00     0.026 C 
BRANCH  29  31
HETATM   31  C29 UNL     1       6.243   6.040  11.154  1.00  0.00     0.147 C 
HETATM   32  O4  UNL     1       6.873   5.205  10.527  1.00  0.00    -0.650 OA
BRANCH  31  33
HETATM   33  O5  UNL     1       6.163   5.941  12.500  1.00  0.00    -0.776 OA
HETATM   34  H42 UNL     1       6.694   5.143  12.705  1.00  0.00     0.167 HD
ENDBRANCH  31  33
ENDBRANCH  29  31
ENDBRANCH  27  29
ENDBRANCH  26  27
ENDBRANCH  25  26
ENDBRANCH  23  25
ENDBRANCH   1  23
BRANCH  22  35
HETATM   35  O3  UNL     1      -3.297   3.247  12.400  1.00  0.00    -0.391 OA
HETATM   36  H37 UNL     1      -3.813   2.506  12.039  1.00  0.00     0.210 HD
ENDBRANCH  22  35
TORSDOF 8
ENDMDL
