MODEL 1
REMARK minimizedAffinity -9.37518597
REMARK  8 active torsions:
REMARK  status: ('A' for Active; 'I' for Inactive)
REMARK    1  A    between atoms: C2_2  and  C3_3 
REMARK    2  A    between atoms: C2_2  and  C9_11 
REMARK    3  A    between atoms: C3_3  and  C4_4 
REMARK    4  A    between atoms: C4_4  and  C5_5 
REMARK    5  A    between atoms: C5_5  and  O1_6 
REMARK    6  A    between atoms: C5_5  and  C6_7 
REMARK    7  A    between atoms: C6_7  and  O2_10 
REMARK    8  A    between atoms: C30_34  and  O5_35 
ROOT
HETATM    1  C9  UNL     1       2.832   7.313  10.853  1.00  0.00    -0.001 C 
HETATM    2  C10 UNL     1       2.916   5.778  10.634  1.00  0.00     0.007 C 
HETATM    3  C11 UNL     1       1.578   5.162  11.080  1.00  0.00     0.015 C 
HETATM    4  C12 UNL     1       0.624   6.357  11.244  1.00  0.00    -0.009 C 
HETATM    5  C13 UNL     1       0.051   6.690   9.830  1.00  0.00     0.021 C 
HETATM    6  C14 UNL     1      -0.573   6.225  12.188  1.00  0.00    -0.032 C 
HETATM    7  C15 UNL     1      -1.127   7.339  12.744  1.00  0.00     0.002 C 
HETATM    8  C16 UNL     1      -0.569   8.672  12.310  1.00  0.00     0.157 C 
HETATM    9  O3  UNL     1      -1.280   9.676  12.288  1.00  0.00    -0.293 OA
HETATM   10  C17 UNL     1       0.876   8.782  11.829  1.00  0.00     0.094 C 
HETATM   11  C18 UNL     1       1.612   7.438  11.826  1.00  0.00    -0.022 C 
HETATM   12  C19 UNL     1       2.082   7.127  13.282  1.00  0.00     0.017 C 
HETATM   13  C20 UNL     1      -2.275   7.236  13.774  1.00  0.00    -0.008 C 
HETATM   14  C21 UNL     1      -1.554   6.961  15.125  1.00  0.00     0.021 C 
HETATM   15  C22 UNL     1      -3.178   8.476  14.033  1.00  0.00     0.022 C 
HETATM   16  C23 UNL     1      -4.406   8.517  13.140  1.00  0.00     0.080 C 
HETATM   17  C24 UNL     1      -5.307   7.355  13.514  1.00  0.00     0.135 C 
HETATM   18  O4  UNL     1      -6.528   7.505  13.566  1.00  0.00    -0.297 OA
HETATM   19  C25 UNL     1      -4.636   5.997  13.812  1.00  0.00     0.018 C 
HETATM   20  C26 UNL     1      -4.741   5.718  15.315  1.00  0.00     0.023 C 
HETATM   21  C27 UNL     1      -5.454   4.917  13.066  1.00  0.00     0.023 C 
HETATM   22  C28 UNL     1      -3.176   6.046  13.259  1.00  0.00     0.016 C 
HETATM   23  C29 UNL     1      -2.381   4.730  13.322  1.00  0.00     0.043 C 
HETATM   24  C30 UNL     1      -1.100   4.826  12.471  1.00  0.00     0.149 C 
ENDROOT
BRANCH   1  25
HETATM   25  C2  UNL     1       4.201   7.959  11.236  1.00  0.00    -0.014 C 
HETATM   26  C1  UNL     1       5.380   7.056  10.840  1.00  0.00     0.010 C 
BRANCH  25  27
HETATM   27  C3  UNL     1       4.341   8.244  12.760  1.00  0.00     0.007 C 
BRANCH  27  28
HETATM   28  C4  UNL     1       5.632   7.722  13.414  1.00  0.00     0.035 C 
BRANCH  28  29
HETATM   29  C5  UNL     1       5.712   8.085  14.910  1.00  0.00     0.151 C 
BRANCH  29  30
HETATM   30  O1  UNL     1       5.210   6.962  15.650  1.00  0.00    -0.393 OA
HETATM   31  H10 UNL     1       5.973   6.362  15.772  1.00  0.00     0.210 HD
ENDBRANCH  29  30
BRANCH  29  32
HETATM   32  C6  UNL     1       7.149   8.411  15.416  1.00  0.00     0.076 C 
HETATM   33  C7  UNL     1       8.242   7.682  14.629  1.00  0.00     0.048 C 
HETATM   34  C8  UNL     1       7.407   9.923  15.358  1.00  0.00     0.048 C 
BRANCH  32  35
HETATM   35  O2  UNL     1       7.239   8.039  16.803  1.00  0.00    -0.388 OA
HETATM   36  H17 UNL     1       7.358   7.075  16.852  1.00  0.00     0.210 HD
ENDBRANCH  32  35
ENDBRANCH  29  32
ENDBRANCH  28  29
ENDBRANCH  27  28
ENDBRANCH  25  27
ENDBRANCH   1  25
BRANCH  24  37
HETATM   37  O5  UNL     1      -1.375   4.198  11.220  1.00  0.00    -0.391 OA
HETATM   38  H48 UNL     1      -2.084   4.703  10.786  1.00  0.00     0.210 HD
ENDBRANCH  24  37
TORSDOF 8
ENDMDL
MODEL 2
REMARK minimizedAffinity -9.33269215
REMARK  8 active torsions:
REMARK  status: ('A' for Active; 'I' for Inactive)
REMARK    1  A    between atoms: C2_2  and  C3_3 
REMARK    2  A    between atoms: C2_2  and  C9_11 
REMARK    3  A    between atoms: C3_3  and  C4_4 
REMARK    4  A    between atoms: C4_4  and  C5_5 
REMARK    5  A    between atoms: C5_5  and  O1_6 
REMARK    6  A    between atoms: C5_5  and  C6_7 
REMARK    7  A    between atoms: C6_7  and  O2_10 
REMARK    8  A    between atoms: C30_34  and  O5_35 
ROOT
HETATM    1  C9  UNL     1      -2.246   5.749  13.260  1.00  0.00    -0.001 C 
HETATM    2  C10 UNL     1      -2.282   4.955  11.927  1.00  0.00     0.007 C 
HETATM    3  C11 UNL     1      -0.868   4.983  11.321  1.00  0.00     0.015 C 
HETATM    4  C12 UNL     1       0.039   5.503  12.447  1.00  0.00    -0.009 C 
HETATM    5  C13 UNL     1       0.403   4.284  13.351  1.00  0.00     0.021 C 
HETATM    6  C14 UNL     1       1.356   6.191  12.080  1.00  0.00    -0.032 C 
HETATM    7  C15 UNL     1       1.923   7.080  12.943  1.00  0.00     0.002 C 
HETATM    8  C16 UNL     1       1.248   7.265  14.280  1.00  0.00     0.157 C 
HETATM    9  O3  UNL     1       1.899   7.567  15.278  1.00  0.00    -0.293 OA
HETATM   10  C17 UNL     1      -0.252   7.017  14.425  1.00  0.00     0.094 C 
HETATM   11  C18 UNL     1      -0.914   6.562  13.120  1.00  0.00    -0.022 C 
HETATM   12  C19 UNL     1      -1.171   7.819  12.229  1.00  0.00     0.017 C 
HETATM   13  C20 UNL     1       3.202   7.862  12.565  1.00  0.00    -0.008 C 
HETATM   14  C21 UNL     1       2.681   9.063  11.723  1.00  0.00     0.021 C 
HETATM   15  C22 UNL     1       4.069   8.494  13.692  1.00  0.00     0.022 C 
HETATM   16  C23 UNL     1       5.164   7.568  14.192  1.00  0.00     0.080 C 
HETATM   17  C24 UNL     1       6.163   7.360  13.069  1.00  0.00     0.135 C 
HETATM   18  O4  UNL     1       7.371   7.341  13.305  1.00  0.00    -0.297 OA
HETATM   19  C25 UNL     1       5.606   7.167  11.642  1.00  0.00     0.018 C 
HETATM   20  C26 UNL     1       5.922   8.420  10.819  1.00  0.00     0.023 C 
HETATM   21  C27 UNL     1       6.370   5.977  11.017  1.00  0.00     0.023 C 
HETATM   22  C28 UNL     1       4.084   6.832  11.757  1.00  0.00     0.016 C 
HETATM   23  C29 UNL     1       3.371   6.454  10.448  1.00  0.00     0.043 C 
HETATM   24  C30 UNL     1       1.984   5.846  10.739  1.00  0.00     0.149 C 
ENDROOT
BRANCH   1  25
HETATM   25  C2  UNL     1      -3.581   6.495  13.573  1.00  0.00    -0.014 C 
HETATM   26  C1  UNL     1      -3.705   6.826  15.069  1.00  0.00     0.010 C 
BRANCH  25  27
HETATM   27  C3  UNL     1      -4.847   5.677  13.183  1.00  0.00     0.007 C 
BRANCH  27  28
HETATM   28  C4  UNL     1      -6.132   6.047  13.944  1.00  0.00     0.035 C 
BRANCH  28  29
HETATM   29  C5  UNL     1      -7.032   4.821  14.193  1.00  0.00     0.151 C 
BRANCH  29  30
HETATM   30  O1  UNL     1      -8.030   5.209  15.148  1.00  0.00    -0.393 OA
HETATM   31  H10 UNL     1      -8.753   5.613  14.627  1.00  0.00     0.210 HD
ENDBRANCH  29  30
BRANCH  29  32
HETATM   32  C6  UNL     1      -7.747   4.279  12.919  1.00  0.00     0.076 C 
HETATM   33  C7  UNL     1      -8.314   5.391  12.031  1.00  0.00     0.048 C 
HETATM   34  C8  UNL     1      -6.788   3.412  12.093  1.00  0.00     0.048 C 
BRANCH  32  35
HETATM   35  O2  UNL     1      -8.819   3.413  13.332  1.00  0.00    -0.388 OA
HETATM   36  H17 UNL     1      -9.569   3.968  13.610  1.00  0.00     0.210 HD
ENDBRANCH  32  35
ENDBRANCH  29  32
ENDBRANCH  28  29
ENDBRANCH  27  28
ENDBRANCH  25  27
ENDBRANCH   1  25
BRANCH  24  37
HETATM   37  O5  UNL     1       2.122   4.427  10.668  1.00  0.00    -0.391 OA
HETATM   38  H48 UNL     1       2.741   4.156  11.369  1.00  0.00     0.210 HD
ENDBRANCH  24  37
TORSDOF 8
ENDMDL
MODEL 3
REMARK minimizedAffinity -9.16849804
REMARK  8 active torsions:
REMARK  status: ('A' for Active; 'I' for Inactive)
REMARK    1  A    between atoms: C2_2  and  C3_3 
REMARK    2  A    between atoms: C2_2  and  C9_11 
REMARK    3  A    between atoms: C3_3  and  C4_4 
REMARK    4  A    between atoms: C4_4  and  C5_5 
REMARK    5  A    between atoms: C5_5  and  O1_6 
REMARK    6  A    between atoms: C5_5  and  C6_7 
REMARK    7  A    between atoms: C6_7  and  O2_10 
REMARK    8  A    between atoms: C30_34  and  O5_35 
ROOT
HETATM    1  C9  UNL     1      -3.741   6.617  14.476  1.00  0.00    -0.001 C 
HETATM    2  C10 UNL     1      -4.034   5.332  13.655  1.00  0.00     0.007 C 
HETATM    3  C11 UNL     1      -2.807   5.045  12.771  1.00  0.00     0.015 C 
HETATM    4  C12 UNL     1      -1.699   5.961  13.317  1.00  0.00    -0.009 C 
HETATM    5  C13 UNL     1      -1.050   5.230  14.533  1.00  0.00     0.021 C 
HETATM    6  C14 UNL     1      -0.556   6.376  12.387  1.00  0.00    -0.032 C 
HETATM    7  C15 UNL     1       0.134   7.526  12.629  1.00  0.00     0.002 C 
HETATM    8  C16 UNL     1      -0.220   8.288  13.881  1.00  0.00     0.157 C 
HETATM    9  O3  UNL     1       0.625   8.961  14.470  1.00  0.00    -0.293 OA
HETATM   10  C17 UNL     1      -1.623   8.183  14.476  1.00  0.00     0.094 C 
HETATM   11  C18 UNL     1      -2.540   7.241  13.688  1.00  0.00    -0.022 C 
HETATM   12  C19 UNL     1      -3.086   8.007  12.442  1.00  0.00     0.017 C 
HETATM   13  C20 UNL     1       1.230   8.023  11.659  1.00  0.00    -0.008 C 
HETATM   14  C21 UNL     1       0.444   8.770  10.543  1.00  0.00     0.021 C 
HETATM   15  C22 UNL     1       2.292   9.041  12.167  1.00  0.00     0.022 C 
HETATM   16  C23 UNL     1       3.535   8.375  12.730  1.00  0.00     0.080 C 
HETATM   17  C24 UNL     1       4.255   7.671  11.595  1.00  0.00     0.135 C 
HETATM   18  O4  UNL     1       5.483   7.708  11.517  1.00  0.00    -0.297 OA
HETATM   19  C25 UNL     1       3.393   6.910  10.565  1.00  0.00     0.018 C 
HETATM   20  C26 UNL     1       3.419   7.679   9.240  1.00  0.00     0.023 C 
HETATM   21  C27 UNL     1       4.070   5.539  10.335  1.00  0.00     0.023 C 
HETATM   22  C28 UNL     1       1.968   6.714  11.175  1.00  0.00     0.016 C 
HETATM   23  C29 UNL     1       0.995   5.842  10.363  1.00  0.00     0.043 C 
HETATM   24  C30 UNL     1      -0.238   5.468  11.209  1.00  0.00     0.149 C 
ENDROOT
BRANCH   1  25
HETATM   25  C2  UNL     1      -5.014   7.475  14.757  1.00  0.00    -0.014 C 
HETATM   26  C1  UNL     1      -4.672   8.751  15.542  1.00  0.00     0.010 C 
BRANCH  25  27
HETATM   27  C3  UNL     1      -6.099   6.715  15.577  1.00  0.00     0.007 C 
BRANCH  27  28
HETATM   28  C4  UNL     1      -7.300   6.202  14.766  1.00  0.00     0.035 C 
BRANCH  28  29
HETATM   29  C5  UNL     1      -7.211   4.688  14.492  1.00  0.00     0.151 C 
BRANCH  29  30
HETATM   30  O1  UNL     1      -7.965   4.023  15.516  1.00  0.00    -0.393 OA
HETATM   31  H10 UNL     1      -8.890   4.009  15.198  1.00  0.00     0.210 HD
ENDBRANCH  29  30
BRANCH  29  32
HETATM   32  C6  UNL     1      -7.767   4.252  13.104  1.00  0.00     0.076 C 
HETATM   33  C7  UNL     1      -8.247   5.431  12.253  1.00  0.00     0.048 C 
HETATM   34  C8  UNL     1      -6.705   3.466  12.324  1.00  0.00     0.048 C 
BRANCH  32  35
HETATM   35  O2  UNL     1      -8.864   3.346  13.316  1.00  0.00    -0.388 OA
HETATM   36  H17 UNL     1      -9.650   3.869  13.552  1.00  0.00     0.210 HD
ENDBRANCH  32  35
ENDBRANCH  29  32
ENDBRANCH  28  29
ENDBRANCH  27  28
ENDBRANCH  25  27
ENDBRANCH   1  25
BRANCH  24  37
HETATM   37  O5  UNL     1      -0.022   4.151  11.713  1.00  0.00    -0.391 OA
HETATM   38  H48 UNL     1       0.761   4.181  12.289  1.00  0.00     0.210 HD
ENDBRANCH  24  37
TORSDOF 8
ENDMDL
MODEL 4
REMARK minimizedAffinity -9.01585388
REMARK  8 active torsions:
REMARK  status: ('A' for Active; 'I' for Inactive)
REMARK    1  A    between atoms: C2_2  and  C3_3 
REMARK    2  A    between atoms: C2_2  and  C9_11 
REMARK    3  A    between atoms: C3_3  and  C4_4 
REMARK    4  A    between atoms: C4_4  and  C5_5 
REMARK    5  A    between atoms: C5_5  and  O1_6 
REMARK    6  A    between atoms: C5_5  and  C6_7 
REMARK    7  A    between atoms: C6_7  and  O2_10 
REMARK    8  A    between atoms: C30_34  and  O5_35 
ROOT
HETATM    1  C9  UNL     1      -5.156   6.514  14.816  1.00  0.00    -0.001 C 
HETATM    2  C10 UNL     1      -5.447   5.300  13.892  1.00  0.00     0.007 C 
HETATM    3  C11 UNL     1      -4.198   5.053  13.027  1.00  0.00     0.015 C 
HETATM    4  C12 UNL     1      -3.092   5.902  13.673  1.00  0.00    -0.009 C 
HETATM    5  C13 UNL     1      -2.495   5.068  14.851  1.00  0.00     0.021 C 
HETATM    6  C14 UNL     1      -1.912   6.360  12.812  1.00  0.00    -0.032 C 
HETATM    7  C15 UNL     1      -1.207   7.474  13.161  1.00  0.00     0.002 C 
HETATM    8  C16 UNL     1      -1.586   8.148  14.456  1.00  0.00     0.157 C 
HETATM    9  O3  UNL     1      -0.748   8.757  15.118  1.00  0.00    -0.293 OA
HETATM   10  C17 UNL     1      -3.009   8.029  14.997  1.00  0.00     0.094 C 
HETATM   11  C18 UNL     1      -3.918   7.169  14.114  1.00  0.00    -0.022 C 
HETATM   12  C19 UNL     1      -4.409   8.037  12.912  1.00  0.00     0.017 C 
HETATM   13  C20 UNL     1      -0.071   8.017  12.264  1.00  0.00    -0.008 C 
HETATM   14  C21 UNL     1      -0.806   8.862  11.184  1.00  0.00     0.021 C 
HETATM   15  C22 UNL     1       0.993   8.971  12.880  1.00  0.00     0.022 C 
HETATM   16  C23 UNL     1       2.205   8.239  13.429  1.00  0.00     0.080 C 
HETATM   17  C24 UNL     1       2.947   7.606  12.266  1.00  0.00     0.135 C 
HETATM   18  O4  UNL     1       4.177   7.622  12.229  1.00  0.00    -0.297 OA
HETATM   19  C25 UNL     1       2.103   6.942  11.156  1.00  0.00     0.018 C 
HETATM   20  C26 UNL     1       2.187   7.808   9.894  1.00  0.00     0.023 C 
HETATM   21  C27 UNL     1       2.760   5.578  10.845  1.00  0.00     0.023 C 
HETATM   22  C28 UNL     1       0.656   6.732  11.706  1.00  0.00     0.016 C 
HETATM   23  C29 UNL     1      -0.307   5.944  10.802  1.00  0.00     0.043 C 
HETATM   24  C30 UNL     1      -1.574   5.536  11.579  1.00  0.00     0.149 C 
ENDROOT
BRANCH   1  25
HETATM   25  C2  UNL     1      -6.421   7.376  15.122  1.00  0.00    -0.014 C 
HETATM   26  C1  UNL     1      -6.041   8.808  15.532  1.00  0.00     0.010 C 
BRANCH  25  27
HETATM   27  C3  UNL     1      -7.299   6.793  16.268  1.00  0.00     0.007 C 
BRANCH  27  28
HETATM   28  C4  UNL     1      -8.818   6.854  16.031  1.00  0.00     0.035 C 
BRANCH  28  29
HETATM   29  C5  UNL     1      -9.165   7.084  14.547  1.00  0.00     0.151 C 
BRANCH  29  30
HETATM   30  O1  UNL     1      -9.141   5.804  13.898  1.00  0.00    -0.393 OA
HETATM   31  H10 UNL     1     -10.032   5.423  14.030  1.00  0.00     0.210 HD
ENDBRANCH  29  30
BRANCH  29  32
HETATM   32  C6  UNL     1     -10.559   7.737  14.306  1.00  0.00     0.076 C 
HETATM   33  C7  UNL     1     -10.544   9.260  14.473  1.00  0.00     0.048 C 
HETATM   34  C8  UNL     1     -11.081   7.387  12.907  1.00  0.00     0.048 C 
BRANCH  32  35
HETATM   35  O2  UNL     1     -11.495   7.170  15.240  1.00  0.00    -0.388 OA
HETATM   36  H17 UNL     1     -11.359   7.596  16.105  1.00  0.00     0.210 HD
ENDBRANCH  32  35
ENDBRANCH  29  32
ENDBRANCH  28  29
ENDBRANCH  27  28
ENDBRANCH  25  27
ENDBRANCH   1  25
BRANCH  24  37
HETATM   37  O5  UNL     1      -1.399   4.181  11.989  1.00  0.00    -0.391 OA
HETATM   38  H48 UNL     1      -0.635   4.150  12.590  1.00  0.00     0.210 HD
ENDBRANCH  24  37
TORSDOF 8
ENDMDL
MODEL 5
REMARK minimizedAffinity -8.9754343
REMARK  8 active torsions:
REMARK  status: ('A' for Active; 'I' for Inactive)
REMARK    1  A    between atoms: C2_2  and  C3_3 
REMARK    2  A    between atoms: C2_2  and  C9_11 
REMARK    3  A    between atoms: C3_3  and  C4_4 
REMARK    4  A    between atoms: C4_4  and  C5_5 
REMARK    5  A    between atoms: C5_5  and  O1_6 
REMARK    6  A    between atoms: C5_5  and  C6_7 
REMARK    7  A    between atoms: C6_7  and  O2_10 
REMARK    8  A    between atoms: C30_34  and  O5_35 
ROOT
HETATM    1  C9  UNL     1      -3.242   6.373  12.951  1.00  0.00    -0.001 C 
HETATM    2  C10 UNL     1      -3.880   7.523  13.777  1.00  0.00     0.007 C 
HETATM    3  C11 UNL     1      -2.778   8.552  14.086  1.00  0.00     0.015 C 
HETATM    4  C12 UNL     1      -1.602   8.163  13.175  1.00  0.00    -0.009 C 
HETATM    5  C13 UNL     1      -1.869   8.803  11.775  1.00  0.00     0.021 C 
HETATM    6  C14 UNL     1      -0.183   8.566  13.584  1.00  0.00    -0.032 C 
HETATM    7  C15 UNL     1       0.885   7.854  13.125  1.00  0.00     0.002 C 
HETATM    8  C16 UNL     1       0.599   6.743  12.145  1.00  0.00     0.157 C 
HETATM    9  O3  UNL     1       1.427   6.428  11.292  1.00  0.00    -0.293 OA
HETATM   10  C17 UNL     1      -0.753   6.034  12.158  1.00  0.00     0.094 C 
HETATM   11  C18 UNL     1      -1.714   6.592  13.214  1.00  0.00    -0.022 C 
HETATM   12  C19 UNL     1      -1.338   5.978  14.600  1.00  0.00     0.017 C 
HETATM   13  C20 UNL     1       2.323   8.175  13.593  1.00  0.00    -0.008 C 
HETATM   14  C21 UNL     1       2.457   7.434  14.955  1.00  0.00     0.021 C 
HETATM   15  C22 UNL     1       3.527   7.687  12.737  1.00  0.00     0.022 C 
HETATM   16  C23 UNL     1       3.975   8.703  11.702  1.00  0.00     0.080 C 
HETATM   17  C24 UNL     1       4.541   9.908  12.430  1.00  0.00     0.135 C 
HETATM   18  O4  UNL     1       5.552  10.471  12.012  1.00  0.00    -0.297 OA
HETATM   19  C25 UNL     1       3.797  10.395  13.692  1.00  0.00     0.018 C 
HETATM   20  C26 UNL     1       4.650  10.066  14.922  1.00  0.00     0.023 C 
HETATM   21  C27 UNL     1       3.685  11.934  13.585  1.00  0.00     0.023 C 
HETATM   22  C28 UNL     1       2.374   9.750  13.697  1.00  0.00     0.016 C 
HETATM   23  C29 UNL     1       1.414  10.227  14.799  1.00  0.00     0.043 C 
HETATM   24  C30 UNL     1      -0.027   9.766  14.505  1.00  0.00     0.149 C 
ENDROOT
BRANCH   1  25
HETATM   25  C2  UNL     1      -3.887   4.980  13.232  1.00  0.00    -0.014 C 
HETATM   26  C1  UNL     1      -3.701   4.024  12.042  1.00  0.00     0.010 C 
BRANCH  25  27
HETATM   27  C3  UNL     1      -5.415   5.055  13.518  1.00  0.00     0.007 C 
BRANCH  27  28
HETATM   28  C4  UNL     1      -6.295   4.139  12.651  1.00  0.00     0.035 C 
BRANCH  28  29
HETATM   29  C5  UNL     1      -7.790   4.499  12.759  1.00  0.00     0.151 C 
BRANCH  29  30
HETATM   30  O1  UNL     1      -8.486   3.318  13.182  1.00  0.00    -0.393 OA
HETATM   31  H10 UNL     1      -8.434   3.314  14.158  1.00  0.00     0.210 HD
ENDBRANCH  29  30
BRANCH  29  32
HETATM   32  C6  UNL     1      -8.103   5.647  13.766  1.00  0.00     0.076 C 
HETATM   33  C7  UNL     1      -7.096   6.799  13.694  1.00  0.00     0.048 C 
HETATM   34  C8  UNL     1      -9.517   6.196  13.531  1.00  0.00     0.048 C 
BRANCH  32  35
HETATM   35  O2  UNL     1      -8.099   5.100  15.096  1.00  0.00    -0.388 OA
HETATM   36  H17 UNL     1      -7.174   4.999  15.381  1.00  0.00     0.210 HD
ENDBRANCH  32  35
ENDBRANCH  29  32
ENDBRANCH  28  29
ENDBRANCH  27  28
ENDBRANCH  25  27
ENDBRANCH   1  25
BRANCH  24  37
HETATM   37  O5  UNL     1      -0.710  10.869  13.912  1.00  0.00    -0.391 OA
HETATM   38  H48 UNL     1      -0.265  11.075  13.072  1.00  0.00     0.210 HD
ENDBRANCH  24  37
TORSDOF 8
ENDMDL
MODEL 6
REMARK minimizedAffinity -8.79900932
REMARK  8 active torsions:
REMARK  status: ('A' for Active; 'I' for Inactive)
REMARK    1  A    between atoms: C2_2  and  C3_3 
REMARK    2  A    between atoms: C2_2  and  C9_11 
REMARK    3  A    between atoms: C3_3  and  C4_4 
REMARK    4  A    between atoms: C4_4  and  C5_5 
REMARK    5  A    between atoms: C5_5  and  O1_6 
REMARK    6  A    between atoms: C5_5  and  C6_7 
REMARK    7  A    between atoms: C6_7  and  O2_10 
REMARK    8  A    between atoms: C30_34  and  O5_35 
ROOT
HETATM    1  C9  UNL     1      -3.359   7.825  15.016  1.00  0.00    -0.001 C 
HETATM    2  C10 UNL     1      -3.956   6.457  14.590  1.00  0.00     0.007 C 
HETATM    3  C11 UNL     1      -2.974   5.799  13.604  1.00  0.00     0.015 C 
HETATM    4  C12 UNL     1      -1.683   6.625  13.716  1.00  0.00    -0.009 C 
HETATM    5  C13 UNL     1      -0.887   6.078  14.943  1.00  0.00     0.021 C 
HETATM    6  C14 UNL     1      -0.713   6.648  12.532  1.00  0.00    -0.032 C 
HETATM    7  C15 UNL     1       0.138   7.700  12.369  1.00  0.00     0.002 C 
HETATM    8  C16 UNL     1       0.134   8.758  13.444  1.00  0.00     0.157 C 
HETATM    9  O3  UNL     1       1.151   9.400  13.700  1.00  0.00    -0.293 OA
HETATM   10  C17 UNL     1      -1.122   9.003  14.278  1.00  0.00     0.094 C 
HETATM   11  C18 UNL     1      -2.280   8.071  13.908  1.00  0.00    -0.022 C 
HETATM   12  C19 UNL     1      -2.977   8.629  12.627  1.00  0.00     0.017 C 
HETATM   13  C20 UNL     1       1.064   7.800  11.135  1.00  0.00    -0.008 C 
HETATM   14  C21 UNL     1       0.157   8.405  10.024  1.00  0.00     0.021 C 
HETATM   15  C22 UNL     1       2.315   8.723  11.195  1.00  0.00     0.022 C 
HETATM   16  C23 UNL     1       3.563   8.007  11.680  1.00  0.00     0.080 C 
HETATM   17  C24 UNL     1       3.953   6.973  10.641  1.00  0.00     0.135 C 
HETATM   18  O4  UNL     1       5.136   6.799  10.347  1.00  0.00    -0.297 OA
HETATM   19  C25 UNL     1       2.819   6.153   9.986  1.00  0.00     0.018 C 
HETATM   20  C26 UNL     1       2.663   6.608   8.531  1.00  0.00     0.023 C 
HETATM   21  C27 UNL     1       3.276   4.676   9.980  1.00  0.00     0.023 C 
HETATM   22  C28 UNL     1       1.535   6.318  10.860  1.00  0.00     0.016 C 
HETATM   23  C29 UNL     1       0.325   5.456  10.460  1.00  0.00     0.043 C 
HETATM   24  C30 UNL     1      -0.745   5.471  11.569  1.00  0.00     0.149 C 
ENDROOT
BRANCH   1  25
HETATM   25  C2  UNL     1      -4.444   8.912  15.298  1.00  0.00    -0.014 C 
HETATM   26  C1  UNL     1      -4.000   9.876  16.410  1.00  0.00     0.010 C 
BRANCH  25  27
HETATM   27  C3  UNL     1      -5.813   8.315  15.736  1.00  0.00     0.007 C 
BRANCH  27  28
HETATM   28  C4  UNL     1      -6.976   8.542  14.755  1.00  0.00     0.035 C 
BRANCH  28  29
HETATM   29  C5  UNL     1      -8.330   8.108  15.351  1.00  0.00     0.151 C 
BRANCH  29  30
HETATM   30  O1  UNL     1      -9.330   9.000  14.836  1.00  0.00    -0.393 OA
HETATM   31  H10 UNL     1      -9.606   8.622  13.977  1.00  0.00     0.210 HD
ENDBRANCH  29  30
BRANCH  29  32
HETATM   32  C6  UNL     1      -8.744   6.646  15.008  1.00  0.00     0.076 C 
HETATM   33  C7  UNL     1      -8.567   6.304  13.525  1.00  0.00     0.048 C 
HETATM   34  C8  UNL     1      -7.944   5.648  15.856  1.00  0.00     0.048 C 
BRANCH  32  35
HETATM   35  O2  UNL     1     -10.125   6.467  15.370  1.00  0.00    -0.388 OA
HETATM   36  H17 UNL     1     -10.677   6.868  14.676  1.00  0.00     0.210 HD
ENDBRANCH  32  35
ENDBRANCH  29  32
ENDBRANCH  28  29
ENDBRANCH  27  28
ENDBRANCH  25  27
ENDBRANCH   1  25
BRANCH  24  37
HETATM   37  O5  UNL     1      -0.581   4.274  12.329  1.00  0.00    -0.391 OA
HETATM   38  H48 UNL     1       0.300   4.303  12.739  1.00  0.00     0.210 HD
ENDBRANCH  24  37
TORSDOF 8
ENDMDL
MODEL 7
REMARK minimizedAffinity -8.65781498
REMARK  8 active torsions:
REMARK  status: ('A' for Active; 'I' for Inactive)
REMARK    1  A    between atoms: C2_2  and  C3_3 
REMARK    2  A    between atoms: C2_2  and  C9_11 
REMARK    3  A    between atoms: C3_3  and  C4_4 
REMARK    4  A    between atoms: C4_4  and  C5_5 
REMARK    5  A    between atoms: C5_5  and  O1_6 
REMARK    6  A    between atoms: C5_5  and  C6_7 
REMARK    7  A    between atoms: C6_7  and  O2_10 
REMARK    8  A    between atoms: C30_34  and  O5_35 
ROOT
HETATM    1  C9  UNL     1       0.857   6.396  12.940  1.00  0.00    -0.001 C 
HETATM    2  C10 UNL     1       1.249   7.251  14.175  1.00  0.00     0.007 C 
HETATM    3  C11 UNL     1      -0.037   7.568  14.959  1.00  0.00     0.015 C 
HETATM    4  C12 UNL     1      -1.106   6.636  14.366  1.00  0.00    -0.009 C 
HETATM    5  C13 UNL     1      -0.960   5.252  15.075  1.00  0.00     0.021 C 
HETATM    6  C14 UNL     1      -2.579   7.036  14.472  1.00  0.00    -0.032 C 
HETATM    7  C15 UNL     1      -3.482   6.551  13.574  1.00  0.00     0.002 C 
HETATM    8  C16 UNL     1      -2.976   5.553  12.563  1.00  0.00     0.157 C 
HETATM    9  O3  UNL     1      -3.719   4.684  12.109  1.00  0.00    -0.293 OA
HETATM   10  C17 UNL     1      -1.510   5.568  12.134  1.00  0.00     0.094 C 
HETATM   11  C18 UNL     1      -0.687   6.645  12.847  1.00  0.00    -0.022 C 
HETATM   12  C19 UNL     1      -0.944   8.015  12.142  1.00  0.00     0.017 C 
HETATM   13  C20 UNL     1      -4.959   7.008  13.595  1.00  0.00    -0.008 C 
HETATM   14  C21 UNL     1      -4.955   8.354  12.813  1.00  0.00     0.021 C 
HETATM   15  C22 UNL     1      -6.037   6.130  12.897  1.00  0.00     0.022 C 
HETATM   16  C23 UNL     1      -6.669   5.109  13.828  1.00  0.00     0.080 C 
HETATM   17  C24 UNL     1      -7.467   5.854  14.882  1.00  0.00     0.135 C 
HETATM   18  O4  UNL     1      -8.566   5.436  15.244  1.00  0.00    -0.297 OA
HETATM   19  C25 UNL     1      -6.843   7.135  15.479  1.00  0.00     0.018 C 
HETATM   20  C26 UNL     1      -7.624   8.347  14.961  1.00  0.00     0.023 C 
HETATM   21  C27 UNL     1      -7.036   7.059  17.011  1.00  0.00     0.023 C 
HETATM   22  C28 UNL     1      -5.321   7.142  15.126  1.00  0.00     0.016 C 
HETATM   23  C29 UNL     1      -4.482   8.266  15.759  1.00  0.00     0.043 C 
HETATM   24  C30 UNL     1      -2.976   7.979  15.598  1.00  0.00     0.149 C 
ENDROOT
BRANCH   1  25
HETATM   25  C2  UNL     1       1.761   6.656  11.695  1.00  0.00    -0.014 C 
HETATM   26  C1  UNL     1       1.918   5.390  10.837  1.00  0.00     0.010 C 
BRANCH  25  27
HETATM   27  C3  UNL     1       3.196   7.133  12.066  1.00  0.00     0.007 C 
BRANCH  27  28
HETATM   28  C4  UNL     1       4.259   6.942  10.970  1.00  0.00     0.035 C 
BRANCH  28  29
HETATM   29  C5  UNL     1       5.603   6.453  11.545  1.00  0.00     0.151 C 
BRANCH  29  30
HETATM   30  O1  UNL     1       6.237   5.656  10.534  1.00  0.00    -0.393 OA
HETATM   31  H10 UNL     1       6.727   6.285   9.968  1.00  0.00     0.210 HD
ENDBRANCH  29  30
BRANCH  29  32
HETATM   32  C6  UNL     1       6.578   7.595  11.961  1.00  0.00     0.076 C 
HETATM   33  C7  UNL     1       6.419   8.859  11.109  1.00  0.00     0.048 C 
HETATM   34  C8  UNL     1       6.384   7.955  13.440  1.00  0.00     0.048 C 
BRANCH  32  35
HETATM   35  O2  UNL     1       7.927   7.110  11.837  1.00  0.00    -0.388 OA
HETATM   36  H17 UNL     1       8.175   7.136  10.897  1.00  0.00     0.210 HD
ENDBRANCH  32  35
ENDBRANCH  29  32
ENDBRANCH  28  29
ENDBRANCH  27  28
ENDBRANCH  25  27
ENDBRANCH   1  25
BRANCH  24  37
HETATM   37  O5  UNL     1      -2.519   7.416  16.827  1.00  0.00    -0.391 OA
HETATM   38  H48 UNL     1      -2.990   6.575  16.959  1.00  0.00     0.210 HD
ENDBRANCH  24  37
TORSDOF 8
ENDMDL
MODEL 8
REMARK minimizedAffinity -8.62004948
REMARK  8 active torsions:
REMARK  status: ('A' for Active; 'I' for Inactive)
REMARK    1  A    between atoms: C2_2  and  C3_3 
REMARK    2  A    between atoms: C2_2  and  C9_11 
REMARK    3  A    between atoms: C3_3  and  C4_4 
REMARK    4  A    between atoms: C4_4  and  C5_5 
REMARK    5  A    between atoms: C5_5  and  O1_6 
REMARK    6  A    between atoms: C5_5  and  C6_7 
REMARK    7  A    between atoms: C6_7  and  O2_10 
REMARK    8  A    between atoms: C30_34  and  O5_35 
ROOT
HETATM    1  C9  UNL     1      -3.243   4.737  13.218  1.00  0.00    -0.001 C 
HETATM    2  C10 UNL     1      -3.071   4.273  11.746  1.00  0.00     0.007 C 
HETATM    3  C11 UNL     1      -1.678   4.718  11.268  1.00  0.00     0.015 C 
HETATM    4  C12 UNL     1      -0.935   5.143  12.546  1.00  0.00    -0.009 C 
HETATM    5  C13 UNL     1      -0.348   3.849  13.193  1.00  0.00     0.021 C 
HETATM    6  C14 UNL     1       0.217   6.145  12.434  1.00  0.00    -0.032 C 
HETATM    7  C15 UNL     1       0.557   6.912  13.508  1.00  0.00     0.002 C 
HETATM    8  C16 UNL     1      -0.180   6.653  14.798  1.00  0.00     0.157 C 
HETATM    9  O3  UNL     1       0.363   6.846  15.884  1.00  0.00    -0.293 OA
HETATM   10  C17 UNL     1      -1.597   6.083  14.773  1.00  0.00     0.094 C 
HETATM   11  C18 UNL     1      -2.110   5.811  13.355  1.00  0.00    -0.022 C 
HETATM   12  C19 UNL     1      -2.602   7.158  12.737  1.00  0.00     0.017 C 
HETATM   13  C20 UNL     1       1.652   7.999  13.403  1.00  0.00    -0.008 C 
HETATM   14  C21 UNL     1       0.913   9.229  12.801  1.00  0.00     0.021 C 
HETATM   15  C22 UNL     1       2.332   8.521  14.701  1.00  0.00     0.022 C 
HETATM   16  C23 UNL     1       3.583   7.744  15.072  1.00  0.00     0.080 C 
HETATM   17  C24 UNL     1       4.636   7.999  14.010  1.00  0.00     0.135 C 
HETATM   18  O4  UNL     1       5.814   8.169  14.327  1.00  0.00    -0.297 OA
HETATM   19  C25 UNL     1       4.174   8.024  12.537  1.00  0.00     0.018 C 
HETATM   20  C26 UNL     1       4.242   9.468  12.027  1.00  0.00     0.023 C 
HETATM   21  C27 UNL     1       5.190   7.183  11.731  1.00  0.00     0.023 C 
HETATM   22  C28 UNL     1       2.756   7.374  12.462  1.00  0.00     0.016 C 
HETATM   23  C29 UNL     1       2.176   7.166  11.053  1.00  0.00     0.043 C 
HETATM   24  C30 UNL     1       0.942   6.243  11.101  1.00  0.00     0.149 C 
ENDROOT
BRANCH   1  25
HETATM   25  C2  UNL     1      -4.714   5.111  13.581  1.00  0.00    -0.014 C 
HETATM   26  C1  UNL     1      -5.720   4.365  12.689  1.00  0.00     0.010 C 
BRANCH  25  27
HETATM   27  C3  UNL     1      -5.018   6.630  13.434  1.00  0.00     0.007 C 
BRANCH  27  28
HETATM   28  C4  UNL     1      -6.466   7.047  13.742  1.00  0.00     0.035 C 
BRANCH  28  29
HETATM   29  C5  UNL     1      -6.604   7.670  15.145  1.00  0.00     0.151 C 
BRANCH  29  30
HETATM   30  O1  UNL     1      -6.984   9.042  14.969  1.00  0.00    -0.393 OA
HETATM   31  H10 UNL     1      -7.959   9.040  14.892  1.00  0.00     0.210 HD
ENDBRANCH  29  30
BRANCH  29  32
HETATM   32  C6  UNL     1      -7.660   6.974  16.055  1.00  0.00     0.076 C 
HETATM   33  C7  UNL     1      -9.035   7.647  16.000  1.00  0.00     0.048 C 
HETATM   34  C8  UNL     1      -7.805   5.495  15.675  1.00  0.00     0.048 C 
BRANCH  32  35
HETATM   35  O2  UNL     1      -7.178   6.997  17.411  1.00  0.00    -0.388 OA
HETATM   36  H17 UNL     1      -7.336   7.885  17.775  1.00  0.00     0.210 HD
ENDBRANCH  32  35
ENDBRANCH  29  32
ENDBRANCH  28  29
ENDBRANCH  27  28
ENDBRANCH  25  27
ENDBRANCH   1  25
BRANCH  24  37
HETATM   37  O5  UNL     1       1.380   4.934  10.740  1.00  0.00    -0.391 OA
HETATM   38  H48 UNL     1       2.021   4.641  11.410  1.00  0.00     0.210 HD
ENDBRANCH  24  37
TORSDOF 8
ENDMDL
MODEL 9
REMARK minimizedAffinity -8.5697794
REMARK  8 active torsions:
REMARK  status: ('A' for Active; 'I' for Inactive)
REMARK    1  A    between atoms: C2_2  and  C3_3 
REMARK    2  A    between atoms: C2_2  and  C9_11 
REMARK    3  A    between atoms: C3_3  and  C4_4 
REMARK    4  A    between atoms: C4_4  and  C5_5 
REMARK    5  A    between atoms: C5_5  and  O1_6 
REMARK    6  A    between atoms: C5_5  and  C6_7 
REMARK    7  A    between atoms: C6_7  and  O2_10 
REMARK    8  A    between atoms: C30_34  and  O5_35 
ROOT
HETATM    1  C9  UNL     1       1.841   7.383  12.126  1.00  0.00    -0.001 C 
HETATM    2  C10 UNL     1       2.106   5.955  11.576  1.00  0.00     0.007 C 
HETATM    3  C11 UNL     1       0.776   5.182  11.609  1.00  0.00     0.015 C 
HETATM    4  C12 UNL     1      -0.301   6.249  11.865  1.00  0.00    -0.009 C 
HETATM    5  C13 UNL     1      -0.656   6.889  10.486  1.00  0.00     0.021 C 
HETATM    6  C14 UNL     1      -1.623   5.829  12.512  1.00  0.00    -0.032 C 
HETATM    7  C15 UNL     1      -2.365   6.742  13.198  1.00  0.00     0.002 C 
HETATM    8  C16 UNL     1      -1.871   8.167  13.198  1.00  0.00     0.157 C 
HETATM    9  O3  UNL     1      -2.659   9.108  13.278  1.00  0.00    -0.293 OA
HETATM   10  C17 UNL     1      -0.382   8.465  13.034  1.00  0.00     0.094 C 
HETATM   11  C18 UNL     1       0.467   7.203  12.857  1.00  0.00    -0.022 C 
HETATM   12  C19 UNL     1       0.713   6.567  14.262  1.00  0.00     0.017 C 
HETATM   13  C20 UNL     1      -3.656   6.331  13.943  1.00  0.00    -0.008 C 
HETATM   14  C21 UNL     1      -3.151   5.769  15.303  1.00  0.00     0.021 C 
HETATM   15  C22 UNL     1      -4.703   7.421  14.310  1.00  0.00     0.022 C 
HETATM   16  C23 UNL     1      -5.760   7.618  13.238  1.00  0.00     0.080 C 
HETATM   17  C24 UNL     1      -6.598   6.356  13.156  1.00  0.00     0.135 C 
HETATM   18  O4  UNL     1      -7.819   6.426  13.013  1.00  0.00    -0.297 OA
HETATM   19  C25 UNL     1      -5.862   5.002  13.250  1.00  0.00     0.018 C 
HETATM   20  C26 UNL     1      -6.192   4.357  14.600  1.00  0.00     0.023 C 
HETATM   21  C27 UNL     1      -6.436   4.098  12.135  1.00  0.00     0.023 C 
HETATM   22  C28 UNL     1      -4.341   5.259  13.007  1.00  0.00     0.016 C 
HETATM   23  C29 UNL     1      -3.447   4.011  12.909  1.00  0.00     0.043 C 
HETATM   24  C30 UNL     1      -2.055   4.378  12.358  1.00  0.00     0.149 C 
ENDROOT
BRANCH   1  25
HETATM   25  C2  UNL     1       3.058   7.983  12.898  1.00  0.00    -0.014 C 
HETATM   26  C1  UNL     1       3.089   9.517  12.796  1.00  0.00     0.010 C 
BRANCH  25  27
HETATM   27  C3  UNL     1       4.432   7.466  12.379  1.00  0.00     0.007 C 
BRANCH  27  28
HETATM   28  C4  UNL     1       5.668   8.110  13.029  1.00  0.00     0.035 C 
BRANCH  28  29
HETATM   29  C5  UNL     1       5.845   7.673  14.497  1.00  0.00     0.151 C 
BRANCH  29  30
HETATM   30  O1  UNL     1       6.366   6.336  14.486  1.00  0.00    -0.393 OA
HETATM   31  H10 UNL     1       7.337   6.430  14.413  1.00  0.00     0.210 HD
ENDBRANCH  29  30
BRANCH  29  32
HETATM   32  C6  UNL     1       6.810   8.575  15.323  1.00  0.00     0.076 C 
HETATM   33  C7  UNL     1       8.200   8.703  14.692  1.00  0.00     0.048 C 
HETATM   34  C8  UNL     1       6.209   9.974  15.510  1.00  0.00     0.048 C 
BRANCH  32  35
HETATM   35  O2  UNL     1       6.942   8.013  16.641  1.00  0.00    -0.388 OA
HETATM   36  H17 UNL     1       7.560   7.264  16.593  1.00  0.00     0.210 HD
ENDBRANCH  32  35
ENDBRANCH  29  32
ENDBRANCH  28  29
ENDBRANCH  27  28
ENDBRANCH  25  27
ENDBRANCH   1  25
BRANCH  24  37
HETATM   37  O5  UNL     1      -2.055   4.063  10.967  1.00  0.00    -0.391 OA
HETATM   38  H48 UNL     1      -2.724   4.623  10.537  1.00  0.00     0.210 HD
ENDBRANCH  24  37
TORSDOF 8
ENDMDL
