MODEL 1
REMARK minimizedAffinity -9.57908916
REMARK  4 active torsions:
REMARK  status: ('A' for Active; 'I' for Inactive)
REMARK    1  A    between atoms: C4_4  and  C5_5 
REMARK    2  A    between atoms: C5_5  and  C6_7 
REMARK    3  A    between atoms: C6_7  and  C7_8 
REMARK    4  A    between atoms: C7_8  and  C8_9 
ROOT
HETATM    1  C8  UNL     1      -1.545  52.267 -26.001  1.00  0.00     0.028 C 
HETATM    2  C9  UNL     1      -2.569  52.056 -27.157  1.00  0.00     0.009 C 
HETATM    3  C10 UNL     1      -3.410  50.823 -26.797  1.00  0.00     0.011 C 
HETATM    4  C11 UNL     1      -3.358  50.759 -25.263  1.00  0.00    -0.032 C 
HETATM    5  C12 UNL     1      -4.302  51.896 -24.736  1.00  0.00     0.016 C 
HETATM    6  C13 UNL     1      -1.858  51.097 -25.035  1.00  0.00     0.001 C 
HETATM    7  C14 UNL     1      -1.592  51.282 -23.542  1.00  0.00     0.006 C 
HETATM    8  C15 UNL     1      -1.962  50.006 -22.765  1.00  0.00     0.006 C 
HETATM    9  C16 UNL     1      -3.407  49.487 -23.031  1.00  0.00     0.003 C 
HETATM   10  C17 UNL     1      -3.838  48.251 -22.123  1.00  0.00    -0.035 C 
HETATM   11  C18 UNL     1      -2.696  47.204 -22.046  1.00  0.00     0.016 C 
HETATM   12  C19 UNL     1      -4.042  48.758 -20.652  1.00  0.00     0.017 C 
HETATM   13  C20 UNL     1      -5.458  49.205 -20.335  1.00  0.00     0.080 C 
HETATM   14  C21 UNL     1      -6.439  48.069 -20.504  1.00  0.00     0.135 C 
HETATM   15  O2  UNL     1      -7.469  48.038 -19.826  1.00  0.00    -0.297 OA
HETATM   16  C22 UNL     1      -6.120  46.991 -21.545  1.00  0.00     0.017 C 
HETATM   17  C23 UNL     1      -5.490  45.791 -20.810  1.00  0.00     0.023 C 
HETATM   18  C24 UNL     1      -7.452  46.476 -22.143  1.00  0.00     0.023 C 
HETATM   19  C25 UNL     1      -5.173  47.584 -22.664  1.00  0.00     0.009 C 
HETATM   20  C26 UNL     1      -5.945  48.561 -23.591  1.00  0.00     0.007 C 
HETATM   21  C27 UNL     1      -5.167  48.948 -24.843  1.00  0.00     0.011 C 
HETATM   22  C28 UNL     1      -3.693  49.352 -24.584  1.00  0.00    -0.032 C 
HETATM   23  C29 UNL     1      -2.840  48.207 -25.206  1.00  0.00     0.016 C 
ENDROOT
BRANCH   1  24
HETATM   24  C7  UNL     1      -0.081  52.341 -26.456  1.00  0.00     0.093 A 
HETATM   25  C30 UNL     1       0.242  52.951 -27.819  1.00  0.00     0.207 A 
HETATM   26  O3  UNL     1       0.234  51.530 -27.599  1.00  0.00    -0.374 OA
BRANCH  24  27
HETATM   27  C6  UNL     1       0.980  52.326 -25.373  1.00  0.00     0.123 C 
BRANCH  27  28
HETATM   28  C5  UNL     1       0.852  53.351 -24.271  1.00  0.00     0.152 C 
HETATM   29  O1  UNL     1       0.915  54.558 -24.528  1.00  0.00    -0.293 OA
BRANCH  28  30
HETATM   30  C4  UNL     1       0.565  52.972 -22.854  1.00  0.00     0.052 C 
HETATM   31  C2  UNL     1       1.012  53.426 -21.666  1.00  0.00    -0.084 C 
HETATM   32  C1  UNL     1       0.540  52.759 -20.394  1.00  0.00     0.043 C 
HETATM   33  C3  UNL     1       1.944  54.579 -21.422  1.00  0.00     0.043 C 
ENDBRANCH  28  30
ENDBRANCH  27  28
ENDBRANCH  24  27
ENDBRANCH   1  24
TORSDOF 4
ENDMDL
MODEL 2
REMARK minimizedAffinity -9.53236198
REMARK  4 active torsions:
REMARK  status: ('A' for Active; 'I' for Inactive)
REMARK    1  A    between atoms: C4_4  and  C5_5 
REMARK    2  A    between atoms: C5_5  and  C6_7 
REMARK    3  A    between atoms: C6_7  and  C7_8 
REMARK    4  A    between atoms: C7_8  and  C8_9 
ROOT
HETATM    1  C8  UNL     1      -1.019  52.221 -21.942  1.00  0.00     0.028 C 
HETATM    2  C9  UNL     1      -0.355  51.955 -23.328  1.00  0.00     0.009 C 
HETATM    3  C10 UNL     1      -1.105  50.780 -23.971  1.00  0.00     0.011 C 
HETATM    4  C11 UNL     1      -2.507  50.830 -23.343  1.00  0.00    -0.032 C 
HETATM    5  C12 UNL     1      -3.256  52.033 -24.016  1.00  0.00     0.016 C 
HETATM    6  C13 UNL     1      -2.124  51.137 -21.868  1.00  0.00     0.001 C 
HETATM    7  C14 UNL     1      -3.386  51.426 -21.057  1.00  0.00     0.006 C 
HETATM    8  C15 UNL     1      -4.346  50.224 -21.106  1.00  0.00     0.006 C 
HETATM    9  C16 UNL     1      -4.689  49.733 -22.545  1.00  0.00     0.003 C 
HETATM   10  C17 UNL     1      -5.790  48.583 -22.601  1.00  0.00    -0.035 C 
HETATM   11  C18 UNL     1      -5.516  47.509 -21.515  1.00  0.00     0.016 C 
HETATM   12  C19 UNL     1      -7.182  49.206 -22.233  1.00  0.00     0.017 C 
HETATM   13  C20 UNL     1      -7.972  49.719 -23.424  1.00  0.00     0.080 C 
HETATM   14  C21 UNL     1      -8.279  48.606 -24.396  1.00  0.00     0.135 C 
HETATM   15  O2  UNL     1      -9.295  48.658 -25.093  1.00  0.00    -0.297 OA
HETATM   16  C22 UNL     1      -7.286  47.442 -24.496  1.00  0.00     0.017 C 
HETATM   17  C23 UNL     1      -7.825  46.282 -23.635  1.00  0.00     0.023 C 
HETATM   18  C24 UNL     1      -7.279  46.926 -25.955  1.00  0.00     0.023 C 
HETATM   19  C25 UNL     1      -5.849  47.919 -24.042  1.00  0.00     0.009 C 
HETATM   20  C26 UNL     1      -5.204  48.847 -25.107  1.00  0.00     0.007 C 
HETATM   21  C27 UNL     1      -3.725  49.114 -24.859  1.00  0.00     0.011 C 
HETATM   22  C28 UNL     1      -3.374  49.489 -23.397  1.00  0.00    -0.032 C 
HETATM   23  C29 UNL     1      -2.573  48.275 -22.843  1.00  0.00     0.016 C 
ENDROOT
BRANCH   1  24
HETATM   24  C7  UNL     1      -0.041  52.214 -20.760  1.00  0.00     0.093 A 
HETATM   25  C30 UNL     1       0.596  53.530 -20.317  1.00  0.00     0.207 A 
HETATM   26  O3  UNL     1       1.312  52.558 -21.097  1.00  0.00    -0.374 OA
BRANCH  24  27
HETATM   27  C6  UNL     1      -0.162  51.071 -19.771  1.00  0.00     0.123 C 
BRANCH  27  28
HETATM   28  C5  UNL     1      -0.750  51.394 -18.417  1.00  0.00     0.152 C 
HETATM   29  O1  UNL     1      -1.834  51.981 -18.329  1.00  0.00    -0.293 OA
BRANCH  28  30
HETATM   30  C4  UNL     1      -0.107  50.959 -17.139  1.00  0.00     0.052 C 
HETATM   31  C2  UNL     1       1.010  51.338 -16.489  1.00  0.00    -0.084 C 
HETATM   32  C1  UNL     1       1.401  50.629 -15.213  1.00  0.00     0.043 C 
HETATM   33  C3  UNL     1       1.954  52.445 -16.867  1.00  0.00     0.043 C 
ENDBRANCH  28  30
ENDBRANCH  27  28
ENDBRANCH  24  27
ENDBRANCH   1  24
TORSDOF 4
ENDMDL
MODEL 3
REMARK minimizedAffinity -9.39870262
REMARK  4 active torsions:
REMARK  status: ('A' for Active; 'I' for Inactive)
REMARK    1  A    between atoms: C4_4  and  C5_5 
REMARK    2  A    between atoms: C5_5  and  C6_7 
REMARK    3  A    between atoms: C6_7  and  C7_8 
REMARK    4  A    between atoms: C7_8  and  C8_9 
ROOT
HETATM    1  C8  UNL     1      -0.878  52.634 -24.860  1.00  0.00     0.028 C 
HETATM    2  C9  UNL     1      -0.466  51.722 -26.054  1.00  0.00     0.009 C 
HETATM    3  C10 UNL     1      -1.245  50.407 -25.908  1.00  0.00     0.011 C 
HETATM    4  C11 UNL     1      -2.507  50.795 -25.121  1.00  0.00    -0.032 C 
HETATM    5  C12 UNL     1      -3.443  51.556 -26.123  1.00  0.00     0.016 C 
HETATM    6  C13 UNL     1      -1.878  51.753 -24.070  1.00  0.00     0.001 C 
HETATM    7  C14 UNL     1      -2.984  52.433 -23.266  1.00  0.00     0.006 C 
HETATM    8  C15 UNL     1      -3.858  51.384 -22.555  1.00  0.00     0.006 C 
HETATM    9  C16 UNL     1      -4.428  50.279 -23.495  1.00  0.00     0.003 C 
HETATM   10  C17 UNL     1      -5.446  49.276 -22.788  1.00  0.00    -0.035 C 
HETATM   11  C18 UNL     1      -4.907  48.840 -21.399  1.00  0.00     0.016 C 
HETATM   12  C19 UNL     1      -6.782  50.044 -22.496  1.00  0.00     0.017 C 
HETATM   13  C20 UNL     1      -7.810  49.955 -23.610  1.00  0.00     0.080 C 
HETATM   14  C21 UNL     1      -8.220  48.523 -23.862  1.00  0.00     0.135 C 
HETATM   15  O2  UNL     1      -9.348  48.271 -24.290  1.00  0.00    -0.297 OA
HETATM   16  C22 UNL     1      -7.190  47.421 -23.590  1.00  0.00     0.017 C 
HETATM   17  C23 UNL     1      -7.485  46.828 -22.198  1.00  0.00     0.023 C 
HETATM   18  C24 UNL     1      -7.420  46.274 -24.603  1.00  0.00     0.023 C 
HETATM   19  C25 UNL     1      -5.727  48.010 -23.702  1.00  0.00     0.009 C 
HETATM   20  C26 UNL     1      -5.351  48.300 -25.181  1.00  0.00     0.007 C 
HETATM   21  C27 UNL     1      -3.872  48.603 -25.380  1.00  0.00     0.011 C 
HETATM   22  C28 UNL     1      -3.281  49.618 -24.367  1.00  0.00    -0.032 C 
HETATM   23  C29 UNL     1      -2.315  48.787 -23.472  1.00  0.00     0.016 C 
ENDROOT
BRANCH   1  24
HETATM   24  C7  UNL     1       0.300  53.159 -24.028  1.00  0.00     0.093 A 
HETATM   25  C30 UNL     1       0.676  54.637 -24.124  1.00  0.00     0.207 A 
HETATM   26  O3  UNL     1       1.425  53.611 -24.799  1.00  0.00    -0.374 OA
BRANCH  24  27
HETATM   27  C6  UNL     1       0.675  52.371 -22.788  1.00  0.00     0.123 C 
BRANCH  27  28
HETATM   28  C5  UNL     1       0.901  53.158 -21.517  1.00  0.00     0.152 C 
HETATM   29  O1  UNL     1       1.281  54.332 -21.567  1.00  0.00    -0.293 OA
BRANCH  28  30
HETATM   30  C4  UNL     1       0.606  52.596 -20.164  1.00  0.00     0.052 C 
HETATM   31  C2  UNL     1      -0.180  51.591 -19.731  1.00  0.00    -0.084 C 
HETATM   32  C1  UNL     1      -0.288  51.322 -18.247  1.00  0.00     0.043 C 
HETATM   33  C3  UNL     1      -0.986  50.636 -20.568  1.00  0.00     0.043 C 
ENDBRANCH  28  30
ENDBRANCH  27  28
ENDBRANCH  24  27
ENDBRANCH   1  24
TORSDOF 4
ENDMDL
MODEL 4
REMARK minimizedAffinity -9.30312252
REMARK  4 active torsions:
REMARK  status: ('A' for Active; 'I' for Inactive)
REMARK    1  A    between atoms: C4_4  and  C5_5 
REMARK    2  A    between atoms: C5_5  and  C6_7 
REMARK    3  A    between atoms: C6_7  and  C7_8 
REMARK    4  A    between atoms: C7_8  and  C8_9 
ROOT
HETATM    1  C8  UNL     1      -1.237  51.085 -16.402  1.00  0.00     0.028 C 
HETATM    2  C9  UNL     1       0.302  51.254 -16.588  1.00  0.00     0.009 C 
HETATM    3  C10 UNL     1       0.622  50.897 -18.047  1.00  0.00     0.011 C 
HETATM    4  C11 UNL     1      -0.681  51.187 -18.807  1.00  0.00    -0.032 C 
HETATM    5  C12 UNL     1      -0.792  52.747 -18.927  1.00  0.00     0.016 C 
HETATM    6  C13 UNL     1      -1.710  50.607 -17.797  1.00  0.00     0.001 C 
HETATM    7  C14 UNL     1      -3.128  50.950 -18.251  1.00  0.00     0.006 C 
HETATM    8  C15 UNL     1      -3.398  50.379 -19.655  1.00  0.00     0.006 C 
HETATM    9  C16 UNL     1      -2.339  50.779 -20.727  1.00  0.00     0.003 C 
HETATM   10  C17 UNL     1      -2.694  50.307 -22.207  1.00  0.00    -0.035 C 
HETATM   11  C18 UNL     1      -3.207  48.843 -22.206  1.00  0.00     0.016 C 
HETATM   12  C19 UNL     1      -3.892  51.171 -22.734  1.00  0.00     0.017 C 
HETATM   13  C20 UNL     1      -3.478  52.434 -23.469  1.00  0.00     0.080 C 
HETATM   14  C21 UNL     1      -2.655  52.107 -24.692  1.00  0.00     0.135 C 
HETATM   15  O2  UNL     1      -2.677  52.860 -25.669  1.00  0.00    -0.297 OA
HETATM   16  C22 UNL     1      -1.793  50.840 -24.663  1.00  0.00     0.017 C 
HETATM   17  C23 UNL     1      -2.566  49.723 -25.392  1.00  0.00     0.023 C 
HETATM   18  C24 UNL     1      -0.517  51.095 -25.501  1.00  0.00     0.023 C 
HETATM   19  C25 UNL     1      -1.441  50.461 -23.169  1.00  0.00     0.009 C 
HETATM   20  C26 UNL     1      -0.400  51.447 -22.572  1.00  0.00     0.007 C 
HETATM   21  C27 UNL     1       0.183  50.978 -21.245  1.00  0.00     0.011 C 
HETATM   22  C28 UNL     1      -0.868  50.471 -20.224  1.00  0.00    -0.032 C 
HETATM   23  C29 UNL     1      -0.629  48.937 -20.118  1.00  0.00     0.016 C 
ENDROOT
BRANCH   1  24
HETATM   24  C7  UNL     1      -1.636  50.160 -15.244  1.00  0.00     0.093 A 
HETATM   25  C30 UNL     1      -1.227  48.689 -15.294  1.00  0.00     0.207 A 
HETATM   26  O3  UNL     1      -2.564  49.122 -15.597  1.00  0.00    -0.374 OA
BRANCH  24  27
HETATM   27  C6  UNL     1      -1.916  50.812 -13.904  1.00  0.00     0.123 C 
BRANCH  27  28
HETATM   28  C5  UNL     1      -3.017  51.847 -13.861  1.00  0.00     0.152 C 
HETATM   29  O1  UNL     1      -3.832  51.932 -14.786  1.00  0.00    -0.293 OA
BRANCH  28  30
HETATM   30  C4  UNL     1      -3.225  52.748 -12.687  1.00  0.00     0.052 C 
HETATM   31  C2  UNL     1      -3.797  52.577 -11.479  1.00  0.00    -0.084 C 
HETATM   32  C1  UNL     1      -3.885  53.750 -10.529  1.00  0.00     0.043 C 
HETATM   33  C3  UNL     1      -4.365  51.307 -10.910  1.00  0.00     0.043 C 
ENDBRANCH  28  30
ENDBRANCH  27  28
ENDBRANCH  24  27
ENDBRANCH   1  24
TORSDOF 4
ENDMDL
MODEL 5
REMARK minimizedAffinity -9.27149868
REMARK  4 active torsions:
REMARK  status: ('A' for Active; 'I' for Inactive)
REMARK    1  A    between atoms: C4_4  and  C5_5 
REMARK    2  A    between atoms: C5_5  and  C6_7 
REMARK    3  A    between atoms: C6_7  and  C7_8 
REMARK    4  A    between atoms: C7_8  and  C8_9 
ROOT
HETATM    1  C8  UNL     1      -1.632  51.939 -25.019  1.00  0.00     0.028 C 
HETATM    2  C9  UNL     1      -2.919  52.265 -25.835  1.00  0.00     0.009 C 
HETATM    3  C10 UNL     1      -4.006  51.281 -25.377  1.00  0.00     0.011 C 
HETATM    4  C11 UNL     1      -3.601  50.905 -23.943  1.00  0.00    -0.032 C 
HETATM    5  C12 UNL     1      -3.952  52.139 -23.041  1.00  0.00     0.016 C 
HETATM    6  C13 UNL     1      -2.067  50.743 -24.136  1.00  0.00     0.001 C 
HETATM    7  C14 UNL     1      -1.395  50.546 -22.779  1.00  0.00     0.006 C 
HETATM    8  C15 UNL     1      -1.963  49.305 -22.069  1.00  0.00     0.006 C 
HETATM    9  C16 UNL     1      -3.517  49.288 -21.948  1.00  0.00     0.003 C 
HETATM   10  C17 UNL     1      -4.096  48.076 -21.091  1.00  0.00    -0.035 C 
HETATM   11  C18 UNL     1      -3.385  46.750 -21.470  1.00  0.00     0.016 C 
HETATM   12  C19 UNL     1      -3.750  48.321 -19.581  1.00  0.00     0.017 C 
HETATM   13  C20 UNL     1      -4.812  49.086 -18.811  1.00  0.00     0.080 C 
HETATM   14  C21 UNL     1      -6.124  48.338 -18.803  1.00  0.00     0.135 C 
HETATM   15  O2  UNL     1      -6.904  48.473 -17.857  1.00  0.00    -0.297 OA
HETATM   16  C22 UNL     1      -6.449  47.440 -20.002  1.00  0.00     0.017 C 
HETATM   17  C23 UNL     1      -6.093  45.989 -19.621  1.00  0.00     0.023 C 
HETATM   18  C24 UNL     1      -7.980  47.460 -20.229  1.00  0.00     0.023 C 
HETATM   19  C25 UNL     1      -5.667  47.943 -21.280  1.00  0.00     0.009 C 
HETATM   20  C26 UNL     1      -6.274  49.264 -21.826  1.00  0.00     0.007 C 
HETATM   21  C27 UNL     1      -5.746  49.647 -23.203  1.00  0.00     0.011 C 
HETATM   22  C28 UNL     1      -4.206  49.549 -23.352  1.00  0.00    -0.032 C 
HETATM   23  C29 UNL     1      -3.964  48.353 -24.318  1.00  0.00     0.016 C 
ENDROOT
BRANCH   1  24
HETATM   24  C7  UNL     1      -0.387  51.676 -25.878  1.00  0.00     0.093 A 
HETATM   25  C30 UNL     1      -0.565  51.332 -27.355  1.00  0.00     0.207 A 
HETATM   26  O3  UNL     1      -0.269  50.330 -26.368  1.00  0.00    -0.374 OA
BRANCH  24  27
HETATM   27  C6  UNL     1       0.920  52.279 -25.402  1.00  0.00     0.123 C 
BRANCH  27  28
HETATM   28  C5  UNL     1       0.841  53.298 -24.289  1.00  0.00     0.152 C 
HETATM   29  O1  UNL     1       0.925  54.505 -24.539  1.00  0.00    -0.293 OA
BRANCH  28  30
HETATM   30  C4  UNL     1       0.582  52.914 -22.868  1.00  0.00     0.052 C 
HETATM   31  C2  UNL     1       1.024  53.387 -21.686  1.00  0.00    -0.084 C 
HETATM   32  C1  UNL     1       0.588  52.708 -20.408  1.00  0.00     0.043 C 
HETATM   33  C3  UNL     1       1.917  54.573 -21.454  1.00  0.00     0.043 C 
ENDBRANCH  28  30
ENDBRANCH  27  28
ENDBRANCH  24  27
ENDBRANCH   1  24
TORSDOF 4
ENDMDL
MODEL 6
REMARK minimizedAffinity -9.18887043
REMARK  4 active torsions:
REMARK  status: ('A' for Active; 'I' for Inactive)
REMARK    1  A    between atoms: C4_4  and  C5_5 
REMARK    2  A    between atoms: C5_5  and  C6_7 
REMARK    3  A    between atoms: C6_7  and  C7_8 
REMARK    4  A    between atoms: C7_8  and  C8_9 
ROOT
HETATM    1  C8  UNL     1       0.093  51.703 -23.357  1.00  0.00     0.028 C 
HETATM    2  C9  UNL     1       0.274  52.452 -22.001  1.00  0.00     0.009 C 
HETATM    3  C10 UNL     1      -1.048  52.318 -21.231  1.00  0.00     0.011 C 
HETATM    4  C11 UNL     1      -1.676  51.024 -21.771  1.00  0.00    -0.032 C 
HETATM    5  C12 UNL     1      -0.870  49.837 -21.136  1.00  0.00     0.016 C 
HETATM    6  C13 UNL     1      -1.368  51.192 -23.285  1.00  0.00     0.001 C 
HETATM    7  C14 UNL     1      -1.738  49.913 -24.032  1.00  0.00     0.006 C 
HETATM    8  C15 UNL     1      -3.230  49.586 -23.839  1.00  0.00     0.006 C 
HETATM    9  C16 UNL     1      -3.689  49.535 -22.350  1.00  0.00     0.003 C 
HETATM   10  C17 UNL     1      -5.196  49.060 -22.144  1.00  0.00    -0.035 C 
HETATM   11  C18 UNL     1      -6.133  49.754 -23.168  1.00  0.00     0.016 C 
HETATM   12  C19 UNL     1      -5.285  47.527 -22.465  1.00  0.00     0.017 C 
HETATM   13  C20 UNL     1      -5.065  46.623 -21.265  1.00  0.00     0.080 C 
HETATM   14  C21 UNL     1      -6.107  46.867 -20.200  1.00  0.00     0.135 C 
HETATM   15  O2  UNL     1      -6.443  45.952 -19.445  1.00  0.00    -0.297 OA
HETATM   16  C22 UNL     1      -6.701  48.275 -20.083  1.00  0.00     0.017 C 
HETATM   17  C23 UNL     1      -8.052  48.285 -20.824  1.00  0.00     0.023 C 
HETATM   18  C24 UNL     1      -7.027  48.549 -18.595  1.00  0.00     0.023 C 
HETATM   19  C25 UNL     1      -5.684  49.339 -20.660  1.00  0.00     0.009 C 
HETATM   20  C26 UNL     1      -4.474  49.533 -19.705  1.00  0.00     0.007 C 
HETATM   21  C27 UNL     1      -3.608  50.734 -20.064  1.00  0.00     0.011 C 
HETATM   22  C28 UNL     1      -3.251  50.843 -21.568  1.00  0.00    -0.032 C 
HETATM   23  C29 UNL     1      -4.034  52.085 -22.086  1.00  0.00     0.016 C 
ENDROOT
BRANCH   1  24
HETATM   24  C7  UNL     1       0.410  52.551 -24.596  1.00  0.00     0.093 A 
HETATM   25  C30 UNL     1       0.736  54.033 -24.417  1.00  0.00     0.207 A 
HETATM   26  O3  UNL     1      -0.549  53.582 -24.879  1.00  0.00    -0.374 OA
BRANCH  24  27
HETATM   27  C6  UNL     1       0.913  51.818 -25.824  1.00  0.00     0.123 C 
BRANCH  27  28
HETATM   28  C5  UNL     1       0.118  51.987 -27.098  1.00  0.00     0.152 C 
HETATM   29  O1  UNL     1       0.446  52.837 -27.933  1.00  0.00    -0.293 OA
BRANCH  28  30
HETATM   30  C4  UNL     1      -1.035  51.102 -27.447  1.00  0.00     0.052 C 
HETATM   31  C2  UNL     1      -2.352  51.145 -27.168  1.00  0.00    -0.084 C 
HETATM   32  C1  UNL     1      -3.247  50.024 -27.648  1.00  0.00     0.043 C 
HETATM   33  C3  UNL     1      -3.094  52.223 -26.429  1.00  0.00     0.043 C 
ENDBRANCH  28  30
ENDBRANCH  27  28
ENDBRANCH  24  27
ENDBRANCH   1  24
TORSDOF 4
ENDMDL
MODEL 7
REMARK minimizedAffinity -8.84565735
REMARK  4 active torsions:
REMARK  status: ('A' for Active; 'I' for Inactive)
REMARK    1  A    between atoms: C4_4  and  C5_5 
REMARK    2  A    between atoms: C5_5  and  C6_7 
REMARK    3  A    between atoms: C6_7  and  C7_8 
REMARK    4  A    between atoms: C7_8  and  C8_9 
ROOT
HETATM    1  C8  UNL     1      -4.337  48.179 -21.317  1.00  0.00     0.028 C 
HETATM    2  C9  UNL     1      -5.693  48.507 -22.013  1.00  0.00     0.009 C 
HETATM    3  C10 UNL     1      -5.449  49.710 -22.934  1.00  0.00     0.011 C 
HETATM    4  C11 UNL     1      -3.954  49.632 -23.280  1.00  0.00    -0.032 C 
HETATM    5  C12 UNL     1      -3.794  48.461 -24.312  1.00  0.00     0.016 C 
HETATM    6  C13 UNL     1      -3.380  49.259 -21.884  1.00  0.00     0.001 C 
HETATM    7  C14 UNL     1      -1.893  48.933 -22.008  1.00  0.00     0.006 C 
HETATM    8  C15 UNL     1      -1.123  50.136 -22.582  1.00  0.00     0.006 C 
HETATM    9  C16 UNL     1      -1.702  50.692 -23.918  1.00  0.00     0.003 C 
HETATM   10  C17 UNL     1      -0.825  51.844 -24.585  1.00  0.00    -0.035 C 
HETATM   11  C18 UNL     1      -0.362  52.867 -23.514  1.00  0.00     0.016 C 
HETATM   12  C19 UNL     1       0.490  51.205 -25.152  1.00  0.00     0.017 C 
HETATM   13  C20 UNL     1       0.390  50.746 -26.596  1.00  0.00     0.080 C 
HETATM   14  C21 UNL     1       0.080  51.902 -27.516  1.00  0.00     0.135 C 
HETATM   15  O2  UNL     1       0.471  51.881 -28.686  1.00  0.00    -0.297 OA
HETATM   16  C22 UNL     1      -0.740  53.069 -26.955  1.00  0.00     0.017 C 
HETATM   17  C23 UNL     1       0.239  54.189 -26.552  1.00  0.00     0.023 C 
HETATM   18  C24 UNL     1      -1.610  53.651 -28.096  1.00  0.00     0.023 C 
HETATM   19  C25 UNL     1      -1.628  52.572 -25.745  1.00  0.00     0.009 C 
HETATM   20  C26 UNL     1      -2.808  51.693 -26.239  1.00  0.00     0.007 C 
HETATM   21  C27 UNL     1      -3.848  51.416 -25.161  1.00  0.00     0.011 C 
HETATM   22  C28 UNL     1      -3.258  50.974 -23.797  1.00  0.00    -0.032 C 
HETATM   23  C29 UNL     1      -3.531  52.162 -22.829  1.00  0.00     0.016 C 
ENDROOT
BRANCH   1  24
HETATM   24  C7  UNL     1      -4.405  48.132 -19.785  1.00  0.00     0.093 A 
HETATM   25  C30 UNL     1      -4.420  46.775 -19.085  1.00  0.00     0.207 A 
HETATM   26  O3  UNL     1      -5.612  47.561 -19.255  1.00  0.00    -0.374 OA
BRANCH  24  27
HETATM   27  C6  UNL     1      -3.918  49.356 -19.034  1.00  0.00     0.123 C 
BRANCH  27  28
HETATM   28  C5  UNL     1      -2.465  49.372 -18.617  1.00  0.00     0.152 C 
HETATM   29  O1  UNL     1      -1.952  48.377 -18.097  1.00  0.00    -0.293 OA
BRANCH  28  30
HETATM   30  C4  UNL     1      -1.569  50.539 -18.881  1.00  0.00     0.052 C 
HETATM   31  C2  UNL     1      -0.460  51.009 -18.277  1.00  0.00    -0.084 C 
HETATM   32  C1  UNL     1       0.179  52.281 -18.788  1.00  0.00     0.043 C 
HETATM   33  C3  UNL     1       0.280  50.395 -17.122  1.00  0.00     0.043 C 
ENDBRANCH  28  30
ENDBRANCH  27  28
ENDBRANCH  24  27
ENDBRANCH   1  24
TORSDOF 4
ENDMDL
MODEL 8
REMARK minimizedAffinity -8.83517742
REMARK  4 active torsions:
REMARK  status: ('A' for Active; 'I' for Inactive)
REMARK    1  A    between atoms: C4_4  and  C5_5 
REMARK    2  A    between atoms: C5_5  and  C6_7 
REMARK    3  A    between atoms: C6_7  and  C7_8 
REMARK    4  A    between atoms: C7_8  and  C8_9 
ROOT
HETATM    1  C8  UNL     1      -1.151  50.741 -22.902  1.00  0.00     0.028 C 
HETATM    2  C9  UNL     1      -0.454  50.932 -21.521  1.00  0.00     0.009 C 
HETATM    3  C10 UNL     1      -1.412  50.389 -20.452  1.00  0.00     0.011 C 
HETATM    4  C11 UNL     1      -2.259  49.342 -21.193  1.00  0.00    -0.032 C 
HETATM    5  C12 UNL     1      -1.340  48.087 -21.398  1.00  0.00     0.016 C 
HETATM    6  C13 UNL     1      -2.511  50.102 -22.525  1.00  0.00     0.001 C 
HETATM    7  C14 UNL     1      -3.192  49.172 -23.528  1.00  0.00     0.006 C 
HETATM    8  C15 UNL     1      -4.527  48.654 -22.964  1.00  0.00     0.006 C 
HETATM    9  C16 UNL     1      -4.418  47.998 -21.555  1.00  0.00     0.003 C 
HETATM   10  C17 UNL     1      -5.771  47.336 -21.033  1.00  0.00    -0.035 C 
HETATM   11  C18 UNL     1      -6.978  48.272 -21.305  1.00  0.00     0.016 C 
HETATM   12  C19 UNL     1      -6.049  46.039 -21.871  1.00  0.00     0.017 C 
HETATM   13  C20 UNL     1      -5.457  44.773 -21.278  1.00  0.00     0.080 C 
HETATM   14  C21 UNL     1      -6.028  44.492 -19.909  1.00  0.00     0.135 C 
HETATM   15  O2  UNL     1      -6.116  43.331 -19.503  1.00  0.00    -0.297 OA
HETATM   16  C22 UNL     1      -6.467  45.686 -19.053  1.00  0.00     0.017 C 
HETATM   17  C23 UNL     1      -7.992  45.845 -19.204  1.00  0.00     0.023 C 
HETATM   18  C24 UNL     1      -6.218  45.341 -17.565  1.00  0.00     0.023 C 
HETATM   19  C25 UNL     1      -5.674  46.982 -19.489  1.00  0.00     0.009 C 
HETATM   20  C26 UNL     1      -4.193  46.915 -19.027  1.00  0.00     0.007 C 
HETATM   21  C27 UNL     1      -3.455  48.240 -19.171  1.00  0.00     0.011 C 
HETATM   22  C28 UNL     1      -3.661  48.946 -20.535  1.00  0.00    -0.032 C 
HETATM   23  C29 UNL     1      -4.513  50.210 -20.218  1.00  0.00     0.016 C 
ENDROOT
BRANCH   1  24
HETATM   24  C7  UNL     1      -1.260  52.022 -23.739  1.00  0.00     0.093 A 
HETATM   25  C30 UNL     1      -2.625  52.689 -23.899  1.00  0.00     0.207 A 
HETATM   26  O3  UNL     1      -2.038  51.891 -24.940  1.00  0.00    -0.374 OA
BRANCH  24  27
HETATM   27  C6  UNL     1       0.000  52.848 -23.905  1.00  0.00     0.123 C 
BRANCH  27  28
HETATM   28  C5  UNL     1       0.151  53.619 -25.197  1.00  0.00     0.152 C 
HETATM   29  O1  UNL     1       0.214  54.852 -25.186  1.00  0.00    -0.293 OA
BRANCH  28  30
HETATM   30  C4  UNL     1       0.311  52.941 -26.520  1.00  0.00     0.052 C 
HETATM   31  C2  UNL     1       1.205  52.057 -27.004  1.00  0.00    -0.084 C 
HETATM   32  C1  UNL     1       1.097  51.610 -28.445  1.00  0.00     0.043 C 
HETATM   33  C3  UNL     1       2.336  51.403 -26.262  1.00  0.00     0.043 C 
ENDBRANCH  28  30
ENDBRANCH  27  28
ENDBRANCH  24  27
ENDBRANCH   1  24
TORSDOF 4
ENDMDL
MODEL 9
REMARK minimizedAffinity -8.83472061
REMARK  4 active torsions:
REMARK  status: ('A' for Active; 'I' for Inactive)
REMARK    1  A    between atoms: C4_4  and  C5_5 
REMARK    2  A    between atoms: C5_5  and  C6_7 
REMARK    3  A    between atoms: C6_7  and  C7_8 
REMARK    4  A    between atoms: C7_8  and  C8_9 
ROOT
HETATM    1  C8  UNL     1      -1.920  51.315 -25.030  1.00  0.00     0.028 C 
HETATM    2  C9  UNL     1      -1.869  52.527 -24.051  1.00  0.00     0.009 C 
HETATM    3  C10 UNL     1      -2.979  52.316 -23.012  1.00  0.00     0.011 C 
HETATM    4  C11 UNL     1      -3.179  50.793 -22.969  1.00  0.00    -0.032 C 
HETATM    5  C12 UNL     1      -1.956  50.203 -22.184  1.00  0.00     0.016 C 
HETATM    6  C13 UNL     1      -3.103  50.474 -24.489  1.00  0.00     0.001 C 
HETATM    7  C14 UNL     1      -3.088  48.962 -24.698  1.00  0.00     0.006 C 
HETATM    8  C15 UNL     1      -4.350  48.320 -24.095  1.00  0.00     0.006 C 
HETATM    9  C16 UNL     1      -4.610  48.691 -22.603  1.00  0.00     0.003 C 
HETATM   10  C17 UNL     1      -5.835  47.917 -21.939  1.00  0.00    -0.035 C 
HETATM   11  C18 UNL     1      -7.052  47.890 -22.902  1.00  0.00     0.016 C 
HETATM   12  C19 UNL     1      -5.427  46.416 -21.736  1.00  0.00     0.017 C 
HETATM   13  C20 UNL     1      -4.791  46.118 -20.390  1.00  0.00     0.080 C 
HETATM   14  C21 UNL     1      -5.739  46.429 -19.257  1.00  0.00     0.135 C 
HETATM   15  O2  UNL     1      -5.664  45.800 -18.199  1.00  0.00    -0.297 OA
HETATM   16  C22 UNL     1      -6.763  47.551 -19.463  1.00  0.00     0.017 C 
HETATM   17  C23 UNL     1      -8.105  46.904 -19.860  1.00  0.00     0.023 C 
HETATM   18  C24 UNL     1      -7.010  48.247 -18.102  1.00  0.00     0.023 C 
HETATM   19  C25 UNL     1      -6.235  48.571 -20.549  1.00  0.00     0.009 C 
HETATM   20  C26 UNL     1      -5.074  49.436 -19.988  1.00  0.00     0.007 C 
HETATM   21  C27 UNL     1      -4.712  50.614 -20.883  1.00  0.00     0.011 C 
HETATM   22  C28 UNL     1      -4.568  50.260 -22.386  1.00  0.00    -0.032 C 
HETATM   23  C29 UNL     1      -5.777  50.949 -23.085  1.00  0.00     0.016 C 
ENDROOT
BRANCH   1  24
HETATM   24  C7  UNL     1      -2.039  51.702 -26.510  1.00  0.00     0.093 A 
HETATM   25  C30 UNL     1      -2.943  50.875 -27.422  1.00  0.00     0.207 A 
HETATM   26  O3  UNL     1      -1.513  50.731 -27.429  1.00  0.00    -0.374 OA
BRANCH  24  27
HETATM   27  C6  UNL     1      -1.721  53.138 -26.877  1.00  0.00     0.123 C 
BRANCH  27  28
HETATM   28  C5  UNL     1      -0.287  53.587 -26.713  1.00  0.00     0.152 C 
HETATM   29  O1  UNL     1       0.022  54.771 -26.881  1.00  0.00    -0.293 OA
BRANCH  28  30
HETATM   30  C4  UNL     1       0.798  52.658 -26.270  1.00  0.00     0.052 C 
HETATM   31  C2  UNL     1       1.641  51.839 -26.929  1.00  0.00    -0.084 C 
HETATM   32  C1  UNL     1       2.602  50.977 -26.142  1.00  0.00     0.043 C 
HETATM   33  C3  UNL     1       1.781  51.678 -28.417  1.00  0.00     0.043 C 
ENDBRANCH  28  30
ENDBRANCH  27  28
ENDBRANCH  24  27
ENDBRANCH   1  24
TORSDOF 4
ENDMDL
