MODEL 1
REMARK minimizedAffinity -8.65229797
REMARK  8 active torsions:
REMARK  status: ('A' for Active; 'I' for Inactive)
REMARK    1  A    between atoms: C4_4  and  C5_5 
REMARK    2  A    between atoms: C5_5  and  C6_6 
REMARK    3  A    between atoms: C6_6  and  C7_7 
REMARK    4  A    between atoms: C9_9  and  C10_10 
REMARK    5  A    between atoms: C11_11  and  C12_12 
REMARK    6  A    between atoms: C14_14  and  C15_15 
REMARK    7  A    between atoms: C24_25  and  C26_27 
REMARK    8  A    between atoms: C29_31  and  O3_33 
ROOT
HETATM    1  C15 UNL     1      -3.122   9.158  16.201  1.00  0.00     0.149 C 
HETATM    2  C16 UNL     1      -3.178   7.649  15.989  1.00  0.00     0.054 C 
HETATM    3  C17 UNL     1      -4.136   7.439  14.792  1.00  0.00     0.050 C 
HETATM    4  C18 UNL     1      -4.126   8.863  14.157  1.00  0.00     0.272 C 
HETATM    5  O1  UNL     1      -3.896   8.882  12.759  1.00  0.00    -0.360 OA
HETATM    6  C19 UNL     1      -2.533   8.942  12.374  1.00  0.00     0.171 C 
HETATM    7  C20 UNL     1      -1.687   7.826  12.960  1.00  0.00     0.027 C 
HETATM    8  C21 UNL     1      -2.398   6.480  12.950  1.00  0.00     0.012 C 
HETATM    9  C22 UNL     1      -3.640   6.263  13.865  1.00  0.00     0.032 C 
HETATM   10  C23 UNL     1      -4.768   5.572  13.049  1.00  0.00    -0.066 C 
HETATM   11  C24 UNL     1      -4.676   4.280  12.631  1.00  0.00    -0.021 C 
HETATM   12  C25 UNL     1      -3.527   3.343  12.916  1.00  0.00     0.052 C 
HETATM   13  C27 UNL     1      -5.956   6.477  12.805  1.00  0.00     0.038 C 
HETATM   14  C28 UNL     1      -6.571   7.010  14.103  1.00  0.00     0.042 C 
HETATM   15  C29 UNL     1      -5.590   7.087  15.294  1.00  0.00     0.067 C 
HETATM   16  C30 UNL     1      -5.684   5.782  16.120  1.00  0.00     0.047 C 
HETATM   17  O4  UNL     1      -3.211   9.689  14.883  1.00  0.00    -0.351 OA
ENDROOT
BRANCH   1  18
HETATM   18  C14 UNL     1      -1.859   9.580  16.906  1.00  0.00     0.011 C 
HETATM   19  C12 UNL     1      -1.686  10.423  17.948  1.00  0.00    -0.063 C 
HETATM   20  C13 UNL     1      -2.823  11.061  18.706  1.00  0.00     0.048 C 
BRANCH  19  21
HETATM   21  C11 UNL     1      -0.318  10.708  18.391  1.00  0.00     0.006 C 
HETATM   22  C10 UNL     1       0.104  10.834  19.661  1.00  0.00     0.001 C 
BRANCH  22  23
HETATM   23  C9  UNL     1       1.484  11.127  19.994  1.00  0.00     0.002 C 
HETATM   24  C7  UNL     1       2.257  10.500  20.905  1.00  0.00    -0.084 C 
HETATM   25  C8  UNL     1       1.829   9.352  21.783  1.00  0.00     0.043 C 
BRANCH  24  26
HETATM   26  C6  UNL     1       3.685  10.973  21.128  1.00  0.00     0.037 C 
BRANCH  26  27
HETATM   27  C5  UNL     1       3.985  11.287  22.598  1.00  0.00     0.031 C 
BRANCH  27  28
HETATM   28  C4  UNL     1       5.466  11.319  22.865  1.00  0.00    -0.024 C 
HETATM   29  C2  UNL     1       6.255  12.406  22.983  1.00  0.00    -0.091 C 
HETATM   30  C1  UNL     1       5.773  13.829  22.928  1.00  0.00     0.042 C 
HETATM   31  C3  UNL     1       7.739  12.258  23.200  1.00  0.00     0.042 C 
ENDBRANCH  27  28
ENDBRANCH  26  27
ENDBRANCH  24  26
ENDBRANCH  22  23
ENDBRANCH  19  21
ENDBRANCH   1  18
BRANCH  15  32
HETATM   32  O3  UNL     1      -6.053   8.122  16.176  1.00  0.00    -0.389 OA
HETATM   33  H44 UNL     1      -6.952   7.895  16.472  1.00  0.00     0.210 HD
ENDBRANCH  15  32
BRANCH  11  34
HETATM   34  C26 UNL     1      -5.739   3.618  11.801  1.00  0.00     0.265 C 
HETATM   35  O2  UNL     1      -5.479   2.838  10.890  1.00  0.00    -0.302 OA
ENDBRANCH  11  34
TORSDOF 8
ENDMDL
MODEL 2
REMARK minimizedAffinity -8.57373619
REMARK  8 active torsions:
REMARK  status: ('A' for Active; 'I' for Inactive)
REMARK    1  A    between atoms: C4_4  and  C5_5 
REMARK    2  A    between atoms: C5_5  and  C6_6 
REMARK    3  A    between atoms: C6_6  and  C7_7 
REMARK    4  A    between atoms: C9_9  and  C10_10 
REMARK    5  A    between atoms: C11_11  and  C12_12 
REMARK    6  A    between atoms: C14_14  and  C15_15 
REMARK    7  A    between atoms: C24_25  and  C26_27 
REMARK    8  A    between atoms: C29_31  and  O3_33 
ROOT
HETATM    1  C15 UNL     1      -3.641   9.003  16.231  1.00  0.00     0.149 C 
HETATM    2  C16 UNL     1      -3.661   7.496  16.003  1.00  0.00     0.054 C 
HETATM    3  C17 UNL     1      -4.615   7.276  14.805  1.00  0.00     0.050 C 
HETATM    4  C18 UNL     1      -4.640   8.706  14.186  1.00  0.00     0.272 C 
HETATM    5  O1  UNL     1      -4.411   8.746  12.787  1.00  0.00    -0.360 OA
HETATM    6  C19 UNL     1      -3.050   8.842  12.402  1.00  0.00     0.171 C 
HETATM    7  C20 UNL     1      -2.178   7.741  12.975  1.00  0.00     0.027 C 
HETATM    8  C21 UNL     1      -2.857   6.378  12.952  1.00  0.00     0.012 C 
HETATM    9  C22 UNL     1      -4.092   6.122  13.865  1.00  0.00     0.032 C 
HETATM   10  C23 UNL     1      -5.205   5.413  13.043  1.00  0.00    -0.066 C 
HETATM   11  C24 UNL     1      -5.082   4.129  12.610  1.00  0.00    -0.021 C 
HETATM   12  C25 UNL     1      -3.911   3.216  12.885  1.00  0.00     0.052 C 
HETATM   13  C27 UNL     1      -6.413   6.292  12.809  1.00  0.00     0.038 C 
HETATM   14  C28 UNL     1      -7.040   6.797  14.113  1.00  0.00     0.042 C 
HETATM   15  C29 UNL     1      -6.060   6.885  15.305  1.00  0.00     0.067 C 
HETATM   16  C30 UNL     1      -6.122   5.569  16.117  1.00  0.00     0.047 C 
HETATM   17  O4  UNL     1      -3.744   9.546  14.920  1.00  0.00    -0.351 OA
ENDROOT
BRANCH   1  18
HETATM   18  C14 UNL     1      -2.388   9.448  16.940  1.00  0.00     0.011 C 
HETATM   19  C12 UNL     1      -2.208  10.425  17.856  1.00  0.00    -0.063 C 
HETATM   20  C13 UNL     1      -3.333  11.237  18.445  1.00  0.00     0.048 C 
BRANCH  19  21
HETATM   21  C11 UNL     1      -0.847  10.688  18.332  1.00  0.00     0.006 C 
HETATM   22  C10 UNL     1      -0.468  10.902  19.604  1.00  0.00     0.001 C 
BRANCH  22  23
HETATM   23  C9  UNL     1       0.909  11.164  19.971  1.00  0.00     0.002 C 
HETATM   24  C7  UNL     1       1.468  12.360  20.250  1.00  0.00    -0.084 C 
HETATM   25  C8  UNL     1       0.761  13.690  20.225  1.00  0.00     0.043 C 
BRANCH  24  26
HETATM   26  C6  UNL     1       2.948  12.432  20.595  1.00  0.00     0.037 C 
BRANCH  26  27
HETATM   27  C5  UNL     1       3.682  11.110  20.347  1.00  0.00     0.031 C 
BRANCH  27  28
HETATM   28  C4  UNL     1       3.072   9.984  21.139  1.00  0.00    -0.024 C 
HETATM   29  C2  UNL     1       3.412   9.574  22.378  1.00  0.00    -0.091 C 
HETATM   30  C1  UNL     1       4.454  10.225  23.244  1.00  0.00     0.042 C 
HETATM   31  C3  UNL     1       2.729   8.388  23.010  1.00  0.00     0.042 C 
ENDBRANCH  27  28
ENDBRANCH  26  27
ENDBRANCH  24  26
ENDBRANCH  22  23
ENDBRANCH  19  21
ENDBRANCH   1  18
BRANCH  15  32
HETATM   32  O3  UNL     1      -6.547   7.898  16.197  1.00  0.00    -0.389 OA
HETATM   33  H44 UNL     1      -7.440   7.647  16.492  1.00  0.00     0.210 HD
ENDBRANCH  15  32
BRANCH  11  34
HETATM   34  C26 UNL     1      -6.130   3.450  11.774  1.00  0.00     0.265 C 
HETATM   35  O2  UNL     1      -6.087   2.255  11.498  1.00  0.00    -0.302 OA
ENDBRANCH  11  34
TORSDOF 8
ENDMDL
MODEL 3
REMARK minimizedAffinity -8.23810768
REMARK  8 active torsions:
REMARK  status: ('A' for Active; 'I' for Inactive)
REMARK    1  A    between atoms: C4_4  and  C5_5 
REMARK    2  A    between atoms: C5_5  and  C6_6 
REMARK    3  A    between atoms: C6_6  and  C7_7 
REMARK    4  A    between atoms: C9_9  and  C10_10 
REMARK    5  A    between atoms: C11_11  and  C12_12 
REMARK    6  A    between atoms: C14_14  and  C15_15 
REMARK    7  A    between atoms: C24_25  and  C26_27 
REMARK    8  A    between atoms: C29_31  and  O3_33 
ROOT
HETATM    1  C15 UNL     1      -2.508   6.414  14.576  1.00  0.00     0.149 C 
HETATM    2  C16 UNL     1      -2.025   7.305  13.436  1.00  0.00     0.054 C 
HETATM    3  C17 UNL     1      -0.568   6.862  13.160  1.00  0.00     0.050 C 
HETATM    4  C18 UNL     1      -0.557   5.457  13.834  1.00  0.00     0.272 C 
HETATM    5  O1  UNL     1      -0.031   4.420  13.023  1.00  0.00    -0.360 OA
HETATM    6  C19 UNL     1      -0.975   3.769  12.189  1.00  0.00     0.171 C 
HETATM    7  C20 UNL     1      -1.736   4.717  11.280  1.00  0.00     0.027 C 
HETATM    8  C21 UNL     1      -0.850   5.802  10.685  1.00  0.00     0.012 C 
HETATM    9  C22 UNL     1      -0.247   6.895  11.617  1.00  0.00     0.032 C 
HETATM   10  C23 UNL     1       1.260   7.085  11.281  1.00  0.00    -0.066 C 
HETATM   11  C24 UNL     1       1.679   7.648  10.116  1.00  0.00    -0.021 C 
HETATM   12  C25 UNL     1       0.782   8.191   9.028  1.00  0.00     0.052 C 
HETATM   13  C27 UNL     1       2.173   6.603  12.386  1.00  0.00     0.038 C 
HETATM   14  C28 UNL     1       1.898   7.293  13.727  1.00  0.00     0.042 C 
HETATM   15  C29 UNL     1       0.453   7.815  13.895  1.00  0.00     0.067 C 
HETATM   16  C30 UNL     1       0.388   9.294  13.444  1.00  0.00     0.047 C 
HETATM   17  O4  UNL     1      -1.869   5.167  14.325  1.00  0.00    -0.351 OA
ENDROOT
BRANCH   1  18
HETATM   18  C14 UNL     1      -4.010   6.295  14.599  1.00  0.00     0.011 C 
HETATM   19  C12 UNL     1      -4.828   5.482  13.895  1.00  0.00    -0.063 C 
HETATM   20  C13 UNL     1      -4.337   4.403  12.964  1.00  0.00     0.048 C 
BRANCH  19  21
HETATM   21  C11 UNL     1      -6.276   5.632  14.071  1.00  0.00     0.006 C 
HETATM   22  C10 UNL     1      -7.179   5.892  13.110  1.00  0.00     0.001 C 
BRANCH  22  23
HETATM   23  C9  UNL     1      -8.593   6.031  13.391  1.00  0.00     0.002 C 
HETATM   24  C7  UNL     1      -9.180   6.926  14.213  1.00  0.00    -0.084 C 
HETATM   25  C8  UNL     1      -8.467   7.973  15.028  1.00  0.00     0.043 C 
BRANCH  24  26
HETATM   26  C6  UNL     1     -10.690   6.898  14.395  1.00  0.00     0.037 C 
BRANCH  26  27
HETATM   27  C5  UNL     1     -11.443   7.523  13.214  1.00  0.00     0.031 C 
BRANCH  27  28
HETATM   28  C4  UNL     1     -12.836   6.965  13.091  1.00  0.00    -0.024 C 
HETATM   29  C2  UNL     1     -13.983   7.652  12.919  1.00  0.00    -0.091 C 
HETATM   30  C1  UNL     1     -14.076   9.144  12.754  1.00  0.00     0.042 C 
HETATM   31  C3  UNL     1     -15.308   6.936  12.866  1.00  0.00     0.042 C 
ENDBRANCH  27  28
ENDBRANCH  26  27
ENDBRANCH  24  26
ENDBRANCH  22  23
ENDBRANCH  19  21
ENDBRANCH   1  18
BRANCH  15  32
HETATM   32  O3  UNL     1       0.158   7.839  15.300  1.00  0.00    -0.389 OA
HETATM   33  H44 UNL     1       0.799   8.425  15.740  1.00  0.00     0.210 HD
ENDBRANCH  15  32
BRANCH  11  34
HETATM   34  C26 UNL     1       3.132   7.793   9.761  1.00  0.00     0.265 C 
HETATM   35  O2  UNL     1       3.758   6.925   9.161  1.00  0.00    -0.302 OA
ENDBRANCH  11  34
TORSDOF 8
ENDMDL
MODEL 4
REMARK minimizedAffinity -8.22243977
REMARK  8 active torsions:
REMARK  status: ('A' for Active; 'I' for Inactive)
REMARK    1  A    between atoms: C4_4  and  C5_5 
REMARK    2  A    between atoms: C5_5  and  C6_6 
REMARK    3  A    between atoms: C6_6  and  C7_7 
REMARK    4  A    between atoms: C9_9  and  C10_10 
REMARK    5  A    between atoms: C11_11  and  C12_12 
REMARK    6  A    between atoms: C14_14  and  C15_15 
REMARK    7  A    between atoms: C24_25  and  C26_27 
REMARK    8  A    between atoms: C29_31  and  O3_33 
ROOT
HETATM    1  C15 UNL     1       2.478   8.098  11.853  1.00  0.00     0.149 C 
HETATM    2  C16 UNL     1       3.803   7.489  12.299  1.00  0.00     0.054 C 
HETATM    3  C17 UNL     1       4.798   8.672  12.356  1.00  0.00     0.050 C 
HETATM    4  C18 UNL     1       3.814   9.879  12.412  1.00  0.00     0.272 C 
HETATM    5  O1  UNL     1       4.093  10.819  13.436  1.00  0.00    -0.360 OA
HETATM    6  C19 UNL     1       3.483  10.547  14.686  1.00  0.00     0.171 C 
HETATM    7  C20 UNL     1       3.807   9.169  15.232  1.00  0.00     0.027 C 
HETATM    8  C21 UNL     1       5.263   8.778  15.021  1.00  0.00     0.012 C 
HETATM    9  C22 UNL     1       5.787   8.526  13.576  1.00  0.00     0.032 C 
HETATM   10  C23 UNL     1       7.149   9.251  13.386  1.00  0.00    -0.066 C 
HETATM   11  C24 UNL     1       8.283   8.844  14.018  1.00  0.00    -0.021 C 
HETATM   12  C25 UNL     1       8.399   7.649  14.935  1.00  0.00     0.052 C 
HETATM   13  C27 UNL     1       7.066  10.414  12.423  1.00  0.00     0.038 C 
HETATM   14  C28 UNL     1       6.554  10.003  11.038  1.00  0.00     0.042 C 
HETATM   15  C29 UNL     1       5.658   8.744  11.034  1.00  0.00     0.067 C 
HETATM   16  C30 UNL     1       6.530   7.494  10.769  1.00  0.00     0.047 C 
HETATM   17  O4  UNL     1       2.473   9.383  12.463  1.00  0.00    -0.351 OA
ENDROOT
BRANCH   1  18
HETATM   18  C14 UNL     1       1.302   7.256  12.276  1.00  0.00     0.011 C 
HETATM   19  C12 UNL     1       0.901   6.042  11.839  1.00  0.00    -0.063 C 
HETATM   20  C13 UNL     1       1.674   5.212  10.846  1.00  0.00     0.048 C 
BRANCH  19  21
HETATM   21  C11 UNL     1      -0.338   5.481  12.387  1.00  0.00     0.006 C 
HETATM   22  C10 UNL     1      -1.554   6.053  12.371  1.00  0.00     0.001 C 
BRANCH  22  23
HETATM   23  C9  UNL     1      -2.719   5.416  12.951  1.00  0.00     0.002 C 
HETATM   24  C7  UNL     1      -3.896   5.995  13.269  1.00  0.00    -0.084 C 
HETATM   25  C8  UNL     1      -4.237   7.452  13.091  1.00  0.00     0.043 C 
BRANCH  24  26
HETATM   26  C6  UNL     1      -4.999   5.156  13.895  1.00  0.00     0.037 C 
BRANCH  26  27
HETATM   27  C5  UNL     1      -6.151   4.869  12.925  1.00  0.00     0.031 C 
BRANCH  27  28
HETATM   28  C4  UNL     1      -6.236   3.404  12.588  1.00  0.00    -0.024 C 
HETATM   29  C2  UNL     1      -5.630   2.759  11.572  1.00  0.00    -0.091 C 
HETATM   30  C1  UNL     1      -4.680   3.395  10.594  1.00  0.00     0.042 C 
HETATM   31  C3  UNL     1      -5.865   1.288  11.345  1.00  0.00     0.042 C 
ENDBRANCH  27  28
ENDBRANCH  26  27
ENDBRANCH  24  26
ENDBRANCH  22  23
ENDBRANCH  19  21
ENDBRANCH   1  18
BRANCH  15  32
HETATM   32  O3  UNL     1       4.782   8.836   9.900  1.00  0.00    -0.389 OA
HETATM   33  H44 UNL     1       5.325   8.886   9.093  1.00  0.00     0.210 HD
ENDBRANCH  15  32
BRANCH  11  34
HETATM   34  C26 UNL     1       9.594   9.566  13.879  1.00  0.00     0.265 C 
HETATM   35  O2  UNL     1      10.526   9.125  13.214  1.00  0.00    -0.302 OA
ENDBRANCH  11  34
TORSDOF 8
ENDMDL
MODEL 5
REMARK minimizedAffinity -8.20940971
REMARK  8 active torsions:
REMARK  status: ('A' for Active; 'I' for Inactive)
REMARK    1  A    between atoms: C4_4  and  C5_5 
REMARK    2  A    between atoms: C5_5  and  C6_6 
REMARK    3  A    between atoms: C6_6  and  C7_7 
REMARK    4  A    between atoms: C9_9  and  C10_10 
REMARK    5  A    between atoms: C11_11  and  C12_12 
REMARK    6  A    between atoms: C14_14  and  C15_15 
REMARK    7  A    between atoms: C24_25  and  C26_27 
REMARK    8  A    between atoms: C29_31  and  O3_33 
ROOT
HETATM    1  C15 UNL     1       0.797   7.465  11.748  1.00  0.00     0.149 C 
HETATM    2  C16 UNL     1       2.085   6.816  12.243  1.00  0.00     0.054 C 
HETATM    3  C17 UNL     1       3.173   7.907  12.099  1.00  0.00     0.050 C 
HETATM    4  C18 UNL     1       2.291   9.188  12.004  1.00  0.00     0.272 C 
HETATM    5  O1  UNL     1       2.684  10.239  12.871  1.00  0.00    -0.360 OA
HETATM    6  C19 UNL     1       2.104  10.203  14.163  1.00  0.00     0.171 C 
HETATM    7  C20 UNL     1       2.337   8.894  14.897  1.00  0.00     0.027 C 
HETATM    8  C21 UNL     1       3.748   8.356  14.707  1.00  0.00     0.012 C 
HETATM    9  C22 UNL     1       4.193   7.854  13.301  1.00  0.00     0.032 C 
HETATM   10  C23 UNL     1       5.601   8.426  12.971  1.00  0.00    -0.066 C 
HETATM   11  C24 UNL     1       6.722   8.020  13.625  1.00  0.00    -0.021 C 
HETATM   12  C25 UNL     1       6.777   6.964  14.704  1.00  0.00     0.052 C 
HETATM   13  C27 UNL     1       5.574   9.442  11.850  1.00  0.00     0.038 C 
HETATM   14  C28 UNL     1       4.978   8.881  10.555  1.00  0.00     0.042 C 
HETATM   15  C29 UNL     1       3.984   7.715  10.759  1.00  0.00     0.067 C 
HETATM   16  C30 UNL     1       4.743   6.370  10.657  1.00  0.00     0.047 C 
HETATM   17  O4  UNL     1       0.918   8.820  12.163  1.00  0.00    -0.351 OA
ENDROOT
BRANCH   1  18
HETATM   18  C14 UNL     1      -0.426   6.795  12.321  1.00  0.00     0.011 C 
HETATM   19  C12 UNL     1      -0.884   5.535  12.155  1.00  0.00    -0.063 C 
HETATM   20  C13 UNL     1      -0.144   4.469  11.387  1.00  0.00     0.048 C 
BRANCH  19  21
HETATM   21  C11 UNL     1      -2.156   5.170  12.786  1.00  0.00     0.006 C 
HETATM   22  C10 UNL     1      -3.239   4.660  12.174  1.00  0.00     0.001 C 
BRANCH  22  23
HETATM   23  C9  UNL     1      -4.457   4.341  12.891  1.00  0.00     0.002 C 
HETATM   24  C7  UNL     1      -5.530   3.669  12.423  1.00  0.00    -0.084 C 
HETATM   25  C8  UNL     1      -5.684   3.117  11.029  1.00  0.00     0.043 C 
BRANCH  24  26
HETATM   26  C6  UNL     1      -6.732   3.452  13.330  1.00  0.00     0.037 C 
BRANCH  26  27
HETATM   27  C5  UNL     1      -7.877   4.429  13.043  1.00  0.00     0.031 C 
BRANCH  27  28
HETATM   28  C4  UNL     1      -7.499   5.842  13.402  1.00  0.00    -0.024 C 
HETATM   29  C2  UNL     1      -7.391   6.375  14.635  1.00  0.00    -0.091 C 
HETATM   30  C1  UNL     1      -7.577   5.615  15.920  1.00  0.00     0.042 C 
HETATM   31  C3  UNL     1      -7.050   7.831  14.817  1.00  0.00     0.042 C 
ENDBRANCH  27  28
ENDBRANCH  26  27
ENDBRANCH  24  26
ENDBRANCH  22  23
ENDBRANCH  19  21
ENDBRANCH   1  18
BRANCH  15  32
HETATM   32  O3  UNL     1       3.075   7.716   9.647  1.00  0.00    -0.389 OA
HETATM   33  H44 UNL     1       3.589   7.603   8.828  1.00  0.00     0.210 HD
ENDBRANCH  15  32
BRANCH  11  34
HETATM   34  C26 UNL     1       8.080   8.601  13.347  1.00  0.00     0.265 C 
HETATM   35  O2  UNL     1       8.271   9.461  12.493  1.00  0.00    -0.302 OA
ENDBRANCH  11  34
TORSDOF 8
ENDMDL
MODEL 6
REMARK minimizedAffinity -7.90417528
REMARK  8 active torsions:
REMARK  status: ('A' for Active; 'I' for Inactive)
REMARK    1  A    between atoms: C4_4  and  C5_5 
REMARK    2  A    between atoms: C5_5  and  C6_6 
REMARK    3  A    between atoms: C6_6  and  C7_7 
REMARK    4  A    between atoms: C9_9  and  C10_10 
REMARK    5  A    between atoms: C11_11  and  C12_12 
REMARK    6  A    between atoms: C14_14  and  C15_15 
REMARK    7  A    between atoms: C24_25  and  C26_27 
REMARK    8  A    between atoms: C29_31  and  O3_33 
ROOT
HETATM    1  C15 UNL     1      -1.723   9.230  14.540  1.00  0.00     0.149 C 
HETATM    2  C16 UNL     1      -0.822   9.135  15.766  1.00  0.00     0.054 C 
HETATM    3  C17 UNL     1      -0.619  10.594  16.239  1.00  0.00     0.050 C 
HETATM    4  C18 UNL     1      -1.814  11.299  15.529  1.00  0.00     0.272 C 
HETATM    5  O1  UNL     1      -2.595  12.128  16.375  1.00  0.00    -0.360 OA
HETATM    6  C19 UNL     1      -3.662  11.474  17.040  1.00  0.00     0.171 C 
HETATM    7  C20 UNL     1      -3.222  10.272  17.857  1.00  0.00     0.027 C 
HETATM    8  C21 UNL     1      -1.922  10.516  18.611  1.00  0.00     0.012 C 
HETATM    9  C22 UNL     1      -0.595  10.685  17.813  1.00  0.00     0.032 C 
HETATM   10  C23 UNL     1       0.192  11.904  18.372  1.00  0.00    -0.066 C 
HETATM   11  C24 UNL     1       0.769  11.893  19.604  1.00  0.00    -0.021 C 
HETATM   12  C25 UNL     1       0.770  10.728  20.565  1.00  0.00     0.052 C 
HETATM   13  C27 UNL     1       0.254  13.060  17.398  1.00  0.00     0.038 C 
HETATM   14  C28 UNL     1       0.880  12.670  16.055  1.00  0.00     0.042 C 
HETATM   15  C29 UNL     1       0.744  11.173  15.693  1.00  0.00     0.067 C 
HETATM   16  C30 UNL     1       2.002  10.413  16.177  1.00  0.00     0.047 C 
HETATM   17  O4  UNL     1      -2.592  10.316  14.842  1.00  0.00    -0.351 OA
ENDROOT
BRANCH   1  18
HETATM   18  C14 UNL     1      -2.473   7.946  14.293  1.00  0.00     0.011 C 
HETATM   19  C12 UNL     1      -3.786   7.740  14.046  1.00  0.00    -0.063 C 
HETATM   20  C13 UNL     1      -4.787   8.853  13.863  1.00  0.00     0.048 C 
BRANCH  19  21
HETATM   21  C11 UNL     1      -4.259   6.360  13.911  1.00  0.00     0.006 C 
HETATM   22  C10 UNL     1      -5.507   5.965  13.606  1.00  0.00     0.001 C 
BRANCH  22  23
HETATM   23  C9  UNL     1      -5.876   4.567  13.506  1.00  0.00     0.002 C 
HETATM   24  C7  UNL     1      -6.999   4.054  12.961  1.00  0.00    -0.084 C 
HETATM   25  C8  UNL     1      -8.122   4.849  12.345  1.00  0.00     0.043 C 
BRANCH  24  26
HETATM   26  C6  UNL     1      -7.217   2.549  12.972  1.00  0.00     0.037 C 
BRANCH  26  27
HETATM   27  C5  UNL     1      -6.642   1.856  11.732  1.00  0.00     0.031 C 
BRANCH  27  28
HETATM   28  C4  UNL     1      -5.613   2.716  11.046  1.00  0.00    -0.024 C 
HETATM   29  C2  UNL     1      -4.272   2.594  11.102  1.00  0.00    -0.091 C 
HETATM   30  C1  UNL     1      -3.537   1.505  11.833  1.00  0.00     0.042 C 
HETATM   31  C3  UNL     1      -3.380   3.579  10.391  1.00  0.00     0.042 C 
ENDBRANCH  27  28
ENDBRANCH  26  27
ENDBRANCH  24  26
ENDBRANCH  22  23
ENDBRANCH  19  21
ENDBRANCH   1  18
BRANCH  15  32
HETATM   32  O3  UNL     1       0.770  11.066  14.262  1.00  0.00    -0.389 OA
HETATM   33  H44 UNL     1       1.612  11.432  13.940  1.00  0.00     0.210 HD
ENDBRANCH  15  32
BRANCH  11  34
HETATM   34  C26 UNL     1       1.491  13.082  20.173  1.00  0.00     0.265 C 
HETATM   35  O2  UNL     1       1.705  13.215  21.374  1.00  0.00    -0.302 OA
ENDBRANCH  11  34
TORSDOF 8
ENDMDL
MODEL 7
REMARK minimizedAffinity -7.89856339
REMARK  8 active torsions:
REMARK  status: ('A' for Active; 'I' for Inactive)
REMARK    1  A    between atoms: C4_4  and  C5_5 
REMARK    2  A    between atoms: C5_5  and  C6_6 
REMARK    3  A    between atoms: C6_6  and  C7_7 
REMARK    4  A    between atoms: C9_9  and  C10_10 
REMARK    5  A    between atoms: C11_11  and  C12_12 
REMARK    6  A    between atoms: C14_14  and  C15_15 
REMARK    7  A    between atoms: C24_25  and  C26_27 
REMARK    8  A    between atoms: C29_31  and  O3_33 
ROOT
HETATM    1  C15 UNL     1      -5.791   7.393  15.285  1.00  0.00     0.149 C 
HETATM    2  C16 UNL     1      -4.956   8.186  14.285  1.00  0.00     0.054 C 
HETATM    3  C17 UNL     1      -3.484   7.900  14.663  1.00  0.00     0.050 C 
HETATM    4  C18 UNL     1      -3.647   6.604  15.513  1.00  0.00     0.272 C 
HETATM    5  O1  UNL     1      -2.775   5.547  15.149  1.00  0.00    -0.360 OA
HETATM    6  C19 UNL     1      -3.265   4.683  14.138  1.00  0.00     0.171 C 
HETATM    7  C20 UNL     1      -3.665   5.404  12.864  1.00  0.00     0.027 C 
HETATM    8  C21 UNL     1      -2.690   6.508  12.481  1.00  0.00     0.012 C 
HETATM    9  C22 UNL     1      -2.579   7.777  13.377  1.00  0.00     0.032 C 
HETATM   10  C23 UNL     1      -1.079   8.112  13.615  1.00  0.00    -0.066 C 
HETATM   11  C24 UNL     1      -0.271   8.572  12.622  1.00  0.00    -0.021 C 
HETATM   12  C25 UNL     1      -0.697   8.854  11.201  1.00  0.00     0.052 C 
HETATM   13  C27 UNL     1      -0.649   7.893  15.049  1.00  0.00     0.038 C 
HETATM   14  C28 UNL     1      -1.478   8.706  16.048  1.00  0.00     0.042 C 
HETATM   15  C29 UNL     1      -2.902   9.060  15.563  1.00  0.00     0.067 C 
HETATM   16  C30 UNL     1      -2.882  10.449  14.882  1.00  0.00     0.047 C 
HETATM   17  O4  UNL     1      -5.024   6.215  15.507  1.00  0.00    -0.351 OA
ENDROOT
BRANCH   1  18
HETATM   18  C14 UNL     1      -7.168   7.090  14.752  1.00  0.00     0.011 C 
HETATM   19  C12 UNL     1      -7.567   6.161  13.855  1.00  0.00    -0.063 C 
HETATM   20  C13 UNL     1      -6.649   5.123  13.260  1.00  0.00     0.048 C 
BRANCH  19  21
HETATM   21  C11 UNL     1      -8.980   6.136  13.464  1.00  0.00     0.006 C 
HETATM   22  C10 UNL     1      -9.959   6.923  13.941  1.00  0.00     0.001 C 
BRANCH  22  23
HETATM   23  C9  UNL     1     -11.333   6.811  13.493  1.00  0.00     0.002 C 
HETATM   24  C7  UNL     1     -12.269   7.782  13.472  1.00  0.00    -0.084 C 
HETATM   25  C8  UNL     1     -12.073   9.205  13.930  1.00  0.00     0.043 C 
BRANCH  24  26
HETATM   26  C6  UNL     1     -13.673   7.460  12.983  1.00  0.00     0.037 C 
BRANCH  26  27
HETATM   27  C5  UNL     1     -14.651   7.179  14.128  1.00  0.00     0.031 C 
BRANCH  27  28
HETATM   28  C4  UNL     1     -14.637   5.726  14.523  1.00  0.00    -0.024 C 
HETATM   29  C2  UNL     1     -15.620   4.820  14.353  1.00  0.00    -0.091 C 
HETATM   30  C1  UNL     1     -16.929   5.089  13.664  1.00  0.00     0.042 C 
HETATM   31  C3  UNL     1     -15.461   3.408  14.856  1.00  0.00     0.042 C 
ENDBRANCH  27  28
ENDBRANCH  26  27
ENDBRANCH  24  26
ENDBRANCH  22  23
ENDBRANCH  19  21
ENDBRANCH   1  18
BRANCH  15  32
HETATM   32  O3  UNL     1      -3.731   9.224  16.724  1.00  0.00    -0.389 OA
HETATM   33  H44 UNL     1      -3.357   9.937  17.271  1.00  0.00     0.210 HD
ENDBRANCH  15  32
BRANCH  11  34
HETATM   34  C26 UNL     1       1.191   8.853  12.829  1.00  0.00     0.265 C 
HETATM   35  O2  UNL     1       2.075   8.188  12.300  1.00  0.00    -0.302 OA
ENDBRANCH  11  34
TORSDOF 8
ENDMDL
MODEL 8
REMARK minimizedAffinity -7.87925625
REMARK  8 active torsions:
REMARK  status: ('A' for Active; 'I' for Inactive)
REMARK    1  A    between atoms: C4_4  and  C5_5 
REMARK    2  A    between atoms: C5_5  and  C6_6 
REMARK    3  A    between atoms: C6_6  and  C7_7 
REMARK    4  A    between atoms: C9_9  and  C10_10 
REMARK    5  A    between atoms: C11_11  and  C12_12 
REMARK    6  A    between atoms: C14_14  and  C15_15 
REMARK    7  A    between atoms: C24_25  and  C26_27 
REMARK    8  A    between atoms: C29_31  and  O3_33 
ROOT
HETATM    1  C15 UNL     1      -2.315   9.199  16.661  1.00  0.00     0.149 C 
HETATM    2  C16 UNL     1      -1.760   7.841  16.245  1.00  0.00     0.054 C 
HETATM    3  C17 UNL     1      -2.439   7.519  14.892  1.00  0.00     0.050 C 
HETATM    4  C18 UNL     1      -2.921   8.937  14.462  1.00  0.00     0.272 C 
HETATM    5  O1  UNL     1      -2.580   9.296  13.133  1.00  0.00    -0.360 OA
HETATM    6  C19 UNL     1      -1.317   9.921  12.983  1.00  0.00     0.171 C 
HETATM    7  C20 UNL     1      -0.166   9.106  13.545  1.00  0.00     0.027 C 
HETATM    8  C21 UNL     1      -0.294   7.620  13.243  1.00  0.00     0.012 C 
HETATM    9  C22 UNL     1      -1.437   6.799  13.910  1.00  0.00     0.032 C 
HETATM   10  C23 UNL     1      -2.123   5.904  12.839  1.00  0.00    -0.066 C 
HETATM   11  C24 UNL     1      -1.496   4.837  12.273  1.00  0.00    -0.021 C 
HETATM   12  C25 UNL     1      -0.107   4.352  12.613  1.00  0.00     0.052 C 
HETATM   13  C27 UNL     1      -3.539   6.339  12.530  1.00  0.00     0.038 C 
HETATM   14  C28 UNL     1      -4.437   6.361  13.771  1.00  0.00     0.042 C 
HETATM   15  C29 UNL     1      -3.684   6.572  15.104  1.00  0.00     0.067 C 
HETATM   16  C30 UNL     1      -3.344   5.196  15.724  1.00  0.00     0.047 C 
HETATM   17  O4  UNL     1      -2.474   9.892  15.428  1.00  0.00    -0.351 OA
ENDROOT
BRANCH   1  18
HETATM   18  C14 UNL     1      -1.391   9.918  17.609  1.00  0.00     0.011 C 
HETATM   19  C12 UNL     1      -1.644  10.927  18.471  1.00  0.00    -0.063 C 
HETATM   20  C13 UNL     1      -3.021  11.487  18.724  1.00  0.00     0.048 C 
BRANCH  19  21
HETATM   21  C11 UNL     1      -0.524  11.488  19.232  1.00  0.00     0.006 C 
HETATM   22  C10 UNL     1       0.378  10.804  19.956  1.00  0.00     0.001 C 
BRANCH  22  23
HETATM   23  C9  UNL     1       1.448  11.458  20.682  1.00  0.00     0.002 C 
HETATM   24  C7  UNL     1       2.360  10.880  21.492  1.00  0.00    -0.084 C 
HETATM   25  C8  UNL     1       2.443   9.411  21.819  1.00  0.00     0.043 C 
BRANCH  24  26
HETATM   26  C6  UNL     1       3.398  11.746  22.189  1.00  0.00     0.037 C 
BRANCH  26  27
HETATM   27  C5  UNL     1       4.654  10.963  22.588  1.00  0.00     0.031 C 
BRANCH  27  28
HETATM   28  C4  UNL     1       5.730  11.877  23.113  1.00  0.00    -0.024 C 
HETATM   29  C2  UNL     1       6.722  12.462  22.413  1.00  0.00    -0.091 C 
HETATM   30  C1  UNL     1       6.906  12.354  20.924  1.00  0.00     0.042 C 
HETATM   31  C3  UNL     1       7.754  13.314  23.107  1.00  0.00     0.042 C 
ENDBRANCH  27  28
ENDBRANCH  26  27
ENDBRANCH  24  26
ENDBRANCH  22  23
ENDBRANCH  19  21
ENDBRANCH   1  18
BRANCH  15  32
HETATM   32  O3  UNL     1      -4.596   7.184  16.029  1.00  0.00    -0.389 OA
HETATM   33  H44 UNL     1      -5.361   6.592  16.144  1.00  0.00     0.210 HD
ENDBRANCH  15  32
BRANCH  11  34
HETATM   34  C26 UNL     1      -2.131   3.995  11.203  1.00  0.00     0.265 C 
HETATM   35  O2  UNL     1      -1.510   3.148  10.570  1.00  0.00    -0.302 OA
ENDBRANCH  11  34
TORSDOF 8
ENDMDL
MODEL 9
REMARK minimizedAffinity -7.84647608
REMARK  8 active torsions:
REMARK  status: ('A' for Active; 'I' for Inactive)
REMARK    1  A    between atoms: C4_4  and  C5_5 
REMARK    2  A    between atoms: C5_5  and  C6_6 
REMARK    3  A    between atoms: C6_6  and  C7_7 
REMARK    4  A    between atoms: C9_9  and  C10_10 
REMARK    5  A    between atoms: C11_11  and  C12_12 
REMARK    6  A    between atoms: C14_14  and  C15_15 
REMARK    7  A    between atoms: C24_25  and  C26_27 
REMARK    8  A    between atoms: C29_31  and  O3_33 
ROOT
HETATM    1  C15 UNL     1      -8.923   7.170  14.290  1.00  0.00     0.149 C 
HETATM    2  C16 UNL     1      -7.813   6.907  13.278  1.00  0.00     0.054 C 
HETATM    3  C17 UNL     1      -6.564   6.561  14.123  1.00  0.00     0.050 C 
HETATM    4  C18 UNL     1      -7.225   6.190  15.484  1.00  0.00     0.272 C 
HETATM    5  O1  UNL     1      -6.780   4.964  16.040  1.00  0.00    -0.360 OA
HETATM    6  C19 UNL     1      -7.504   3.818  15.627  1.00  0.00     0.171 C 
HETATM    7  C20 UNL     1      -7.557   3.643  14.120  1.00  0.00     0.027 C 
HETATM    8  C21 UNL     1      -6.231   3.961  13.444  1.00  0.00     0.012 C 
HETATM    9  C22 UNL     1      -5.708   5.429  13.436  1.00  0.00     0.032 C 
HETATM   10  C23 UNL     1      -4.201   5.442  13.821  1.00  0.00    -0.066 C 
HETATM   11  C24 UNL     1      -3.237   4.945  12.999  1.00  0.00    -0.021 C 
HETATM   12  C25 UNL     1      -3.466   4.363  11.625  1.00  0.00     0.052 C 
HETATM   13  C27 UNL     1      -3.946   6.077  15.170  1.00  0.00     0.038 C 
HETATM   14  C28 UNL     1      -4.467   7.515  15.257  1.00  0.00     0.042 C 
HETATM   15  C29 UNL     1      -5.642   7.830  14.304  1.00  0.00     0.067 C 
HETATM   16  C30 UNL     1      -5.088   8.413  12.982  1.00  0.00     0.047 C 
HETATM   17  O4  UNL     1      -8.647   6.253  15.342  1.00  0.00    -0.351 OA
ENDROOT
BRANCH   1  18
HETATM   18  C14 UNL     1     -10.290   6.963  13.691  1.00  0.00     0.011 C 
HETATM   19  C12 UNL     1     -11.319   7.828  13.555  1.00  0.00    -0.063 C 
HETATM   20  C13 UNL     1     -11.238   9.289  13.918  1.00  0.00     0.048 C 
BRANCH  19  21
HETATM   21  C11 UNL     1     -12.576   7.329  12.989  1.00  0.00     0.006 C 
HETATM   22  C10 UNL     1     -13.808   7.494  13.500  1.00  0.00     0.001 C 
BRANCH  22  23
HETATM   23  C9  UNL     1     -14.991   6.950  12.865  1.00  0.00     0.002 C 
HETATM   24  C7  UNL     1     -15.945   6.182  13.432  1.00  0.00    -0.084 C 
HETATM   25  C8  UNL     1     -15.965   5.718  14.865  1.00  0.00     0.043 C 
BRANCH  24  26
HETATM   26  C6  UNL     1     -17.108   5.686  12.586  1.00  0.00     0.037 C 
BRANCH  26  27
HETATM   27  C5  UNL     1     -17.898   4.560  13.264  1.00  0.00     0.031 C 
BRANCH  27  28
HETATM   28  C4  UNL     1     -17.740   3.256  12.527  1.00  0.00    -0.024 C 
HETATM   29  C2  UNL     1     -17.070   2.160  12.935  1.00  0.00    -0.091 C 
HETATM   30  C1  UNL     1     -16.386   2.014  14.266  1.00  0.00     0.042 C 
HETATM   31  C3  UNL     1     -16.967   0.947  12.046  1.00  0.00     0.042 C 
ENDBRANCH  27  28
ENDBRANCH  26  27
ENDBRANCH  24  26
ENDBRANCH  22  23
ENDBRANCH  19  21
ENDBRANCH   1  18
BRANCH  15  32
HETATM   32  O3  UNL     1      -6.407   8.894  14.890  1.00  0.00    -0.389 OA
HETATM   33  H44 UNL     1      -5.825   9.667  15.002  1.00  0.00     0.210 HD
ENDBRANCH  15  32
BRANCH  11  34
HETATM   34  C26 UNL     1      -1.784   4.909  13.382  1.00  0.00     0.265 C 
HETATM   35  O2  UNL     1      -0.984   5.770  13.029  1.00  0.00    -0.302 OA
ENDBRANCH  11  34
TORSDOF 8
ENDMDL
