MODEL 1
REMARK minimizedAffinity -9.34460735
REMARK  7 active torsions:
REMARK  status: ('A' for Active; 'I' for Inactive)
REMARK    1  A    between atoms: C4_4  and  C5_5 
REMARK    2  A    between atoms: C5_5  and  O1_6 
REMARK    3  A    between atoms: C5_5  and  C6_7 
REMARK    4  A    between atoms: C6_7  and  C7_8 
REMARK    5  A    between atoms: C7_8  and  C8_9 
REMARK    6  A    between atoms: C7_8  and  C9_11 
REMARK    7  A    between atoms: C8_9  and  O2_10 
ROOT
HETATM    1  C9  UNL     1      -6.225   6.807  14.770  1.00  0.00     0.001 C 
HETATM    2  C10 UNL     1      -5.949   7.870  15.873  1.00  0.00     0.007 C 
HETATM    3  C11 UNL     1      -4.485   8.309  15.710  1.00  0.00     0.015 C 
HETATM    4  C12 UNL     1      -3.834   7.200  14.859  1.00  0.00    -0.013 C 
HETATM    5  C13 UNL     1      -3.494   6.037  15.841  1.00  0.00     0.021 C 
HETATM    6  C14 UNL     1      -2.556   7.522  14.107  1.00  0.00    -0.070 C 
HETATM    7  C15 UNL     1      -1.753   8.561  14.383  1.00  0.00    -0.022 C 
HETATM    8  C16 UNL     1      -0.553   8.857  13.541  1.00  0.00     0.034 C 
HETATM    9  C17 UNL     1       0.227   7.604  13.057  1.00  0.00     0.013 C 
HETATM   10  C18 UNL     1       1.167   7.918  11.845  1.00  0.00     0.018 C 
HETATM   11  C19 UNL     1       2.203   8.996  12.245  1.00  0.00     0.023 C 
HETATM   12  C20 UNL     1       0.448   8.437  10.588  1.00  0.00     0.023 C 
HETATM   13  C21 UNL     1       1.936   6.638  11.493  1.00  0.00     0.135 C 
HETATM   14  O3  UNL     1       3.154   6.630  11.291  1.00  0.00    -0.297 OA
HETATM   15  C22 UNL     1       1.173   5.341  11.378  1.00  0.00     0.080 C 
HETATM   16  C23 UNL     1      -0.314   5.473  11.651  1.00  0.00     0.017 C 
HETATM   17  C24 UNL     1      -0.664   6.292  12.919  1.00  0.00    -0.031 C 
HETATM   18  C25 UNL     1      -0.326   5.395  14.151  1.00  0.00     0.016 C 
HETATM   19  C26 UNL     1      -2.204   6.646  12.909  1.00  0.00     0.024 C 
HETATM   20  C27 UNL     1      -3.149   5.429  12.701  1.00  0.00     0.010 C 
HETATM   21  C28 UNL     1      -4.643   5.608  13.056  1.00  0.00     0.011 C 
HETATM   22  C29 UNL     1      -4.981   6.899  13.827  1.00  0.00    -0.029 C 
HETATM   23  C30 UNL     1      -5.179   8.036  12.783  1.00  0.00     0.016 C 
ENDROOT
BRANCH   1  24
HETATM   24  C7  UNL     1      -7.692   6.824  14.253  1.00  0.00     0.017 C 
BRANCH  24  25
HETATM   25  C6  UNL     1      -8.008   5.921  13.029  1.00  0.00     0.043 C 
BRANCH  25  26
HETATM   26  C5  UNL     1      -7.783   4.417  13.284  1.00  0.00     0.141 C 
BRANCH  26  27
HETATM   27  C4  UNL     1      -6.841   3.841  12.264  1.00  0.00     0.006 C 
HETATM   28  C2  UNL     1      -6.559   2.546  12.016  1.00  0.00    -0.089 C 
HETATM   29  C1  UNL     1      -7.155   1.367  12.734  1.00  0.00     0.042 C 
HETATM   30  C3  UNL     1      -5.570   2.175  10.941  1.00  0.00     0.042 C 
ENDBRANCH  26  27
BRANCH  26  31
HETATM   31  O1  UNL     1      -9.026   3.733  13.136  1.00  0.00    -0.392 OA
HETATM   32  H9  UNL     1      -8.814   2.786  13.063  1.00  0.00     0.210 HD
ENDBRANCH  26  31
ENDBRANCH  25  26
ENDBRANCH  24  25
BRANCH  24  33
HETATM   33  C8  UNL     1      -8.689   6.567  15.394  1.00  0.00     0.169 C 
BRANCH  33  34
HETATM   34  O2  UNL     1      -8.345   5.390  16.117  1.00  0.00    -0.400 OA
HETATM   35  H15 UNL     1      -8.296   4.663  15.464  1.00  0.00     0.209 HD
ENDBRANCH  33  34
ENDBRANCH  24  33
ENDBRANCH   1  24
TORSDOF 7
ENDMDL
MODEL 2
REMARK minimizedAffinity -9.04798698
REMARK  7 active torsions:
REMARK  status: ('A' for Active; 'I' for Inactive)
REMARK    1  A    between atoms: C4_4  and  C5_5 
REMARK    2  A    between atoms: C5_5  and  O1_6 
REMARK    3  A    between atoms: C5_5  and  C6_7 
REMARK    4  A    between atoms: C6_7  and  C7_8 
REMARK    5  A    between atoms: C7_8  and  C8_9 
REMARK    6  A    between atoms: C7_8  and  C9_11 
REMARK    7  A    between atoms: C8_9  and  O2_10 
ROOT
HETATM    1  C9  UNL     1      -1.685   5.247  12.221  1.00  0.00     0.001 C 
HETATM    2  C10 UNL     1      -0.157   5.094  12.467  1.00  0.00     0.007 C 
HETATM    3  C11 UNL     1       0.234   6.156  13.507  1.00  0.00     0.015 C 
HETATM    4  C12 UNL     1      -0.930   7.168  13.492  1.00  0.00    -0.013 C 
HETATM    5  C13 UNL     1      -0.679   8.107  12.273  1.00  0.00     0.021 C 
HETATM    6  C14 UNL     1      -1.124   8.065  14.699  1.00  0.00    -0.070 C 
HETATM    7  C15 UNL     1      -0.182   8.308  15.626  1.00  0.00    -0.022 C 
HETATM    8  C16 UNL     1      -0.479   9.140  16.831  1.00  0.00     0.034 C 
HETATM    9  C17 UNL     1      -1.393  10.368  16.565  1.00  0.00     0.013 C 
HETATM   10  C18 UNL     1      -2.035  10.929  17.878  1.00  0.00     0.018 C 
HETATM   11  C19 UNL     1      -0.925  11.369  18.863  1.00  0.00     0.023 C 
HETATM   12  C20 UNL     1      -2.932   9.934  18.635  1.00  0.00     0.023 C 
HETATM   13  C21 UNL     1      -2.857  12.172  17.514  1.00  0.00     0.135 C 
HETATM   14  O3  UNL     1      -2.787  13.225  18.155  1.00  0.00    -0.297 OA
HETATM   15  C22 UNL     1      -3.796  12.102  16.335  1.00  0.00     0.080 C 
HETATM   16  C23 UNL     1      -3.795  10.761  15.623  1.00  0.00     0.017 C 
HETATM   17  C24 UNL     1      -2.384  10.191  15.332  1.00  0.00    -0.031 C 
HETATM   18  C25 UNL     1      -1.785  11.027  14.158  1.00  0.00     0.016 C 
HETATM   19  C26 UNL     1      -2.506   8.672  14.912  1.00  0.00     0.024 C 
HETATM   20  C27 UNL     1      -3.515   8.396  13.762  1.00  0.00     0.010 C 
HETATM   21  C28 UNL     1      -3.423   7.034  13.034  1.00  0.00     0.011 C 
HETATM   22  C29 UNL     1      -2.166   6.204  13.359  1.00  0.00    -0.029 C 
HETATM   23  C30 UNL     1      -2.454   5.396  14.658  1.00  0.00     0.016 C 
ENDROOT
BRANCH   1  24
HETATM   24  C7  UNL     1      -2.391   3.902  11.881  1.00  0.00     0.017 C 
BRANCH  24  25
HETATM   25  C6  UNL     1      -3.857   3.743  12.372  1.00  0.00     0.043 C 
BRANCH  25  26
HETATM   26  C5  UNL     1      -4.743   2.896  11.437  1.00  0.00     0.141 C 
BRANCH  26  27
HETATM   27  C4  UNL     1      -6.160   2.859  11.939  1.00  0.00     0.006 C 
HETATM   28  C2  UNL     1      -6.826   3.794  12.646  1.00  0.00    -0.089 C 
HETATM   29  C1  UNL     1      -6.269   5.119  13.090  1.00  0.00     0.042 C 
HETATM   30  C3  UNL     1      -8.256   3.559  13.061  1.00  0.00     0.042 C 
ENDBRANCH  26  27
BRANCH  26  31
HETATM   31  O1  UNL     1      -4.265   1.552  11.442  1.00  0.00    -0.392 OA
HETATM   32  H9  UNL     1      -4.969   1.006  11.049  1.00  0.00     0.210 HD
ENDBRANCH  26  31
ENDBRANCH  25  26
ENDBRANCH  24  25
BRANCH  24  33
HETATM   33  C8  UNL     1      -2.277   3.575  10.384  1.00  0.00     0.169 C 
BRANCH  33  34
HETATM   34  O2  UNL     1      -1.651   2.312  10.183  1.00  0.00    -0.400 OA
HETATM   35  H15 UNL     1      -0.791   2.348  10.646  1.00  0.00     0.209 HD
ENDBRANCH  33  34
ENDBRANCH  24  33
ENDBRANCH   1  24
TORSDOF 7
ENDMDL
MODEL 3
REMARK minimizedAffinity -8.94508076
REMARK  7 active torsions:
REMARK  status: ('A' for Active; 'I' for Inactive)
REMARK    1  A    between atoms: C4_4  and  C5_5 
REMARK    2  A    between atoms: C5_5  and  O1_6 
REMARK    3  A    between atoms: C5_5  and  C6_7 
REMARK    4  A    between atoms: C6_7  and  C7_8 
REMARK    5  A    between atoms: C7_8  and  C8_9 
REMARK    6  A    between atoms: C7_8  and  C9_11 
REMARK    7  A    between atoms: C8_9  and  O2_10 
ROOT
HETATM    1  C9  UNL     1      -4.704   5.169  12.933  1.00  0.00     0.001 C 
HETATM    2  C10 UNL     1      -3.421   4.354  13.263  1.00  0.00     0.007 C 
HETATM    3  C11 UNL     1      -2.566   5.228  14.195  1.00  0.00     0.015 C 
HETATM    4  C12 UNL     1      -3.123   6.655  14.015  1.00  0.00    -0.013 C 
HETATM    5  C13 UNL     1      -2.478   7.216  12.711  1.00  0.00     0.021 C 
HETATM    6  C14 UNL     1      -2.860   7.677  15.104  1.00  0.00    -0.070 C 
HETATM    7  C15 UNL     1      -1.903   7.563  16.039  1.00  0.00    -0.022 C 
HETATM    8  C16 UNL     1      -1.761   8.575  17.130  1.00  0.00     0.034 C 
HETATM    9  C17 UNL     1      -2.000  10.045  16.687  1.00  0.00     0.013 C 
HETATM   10  C18 UNL     1      -2.289  10.993  17.899  1.00  0.00     0.018 C 
HETATM   11  C19 UNL     1      -1.090  10.981  18.878  1.00  0.00     0.023 C 
HETATM   12  C20 UNL     1      -3.537  10.628  18.721  1.00  0.00     0.023 C 
HETATM   13  C21 UNL     1      -2.440  12.423  17.363  1.00  0.00     0.135 C 
HETATM   14  O3  UNL     1      -1.879  13.390  17.885  1.00  0.00    -0.297 OA
HETATM   15  C22 UNL     1      -3.318  12.656  16.158  1.00  0.00     0.080 C 
HETATM   16  C23 UNL     1      -3.952  11.394  15.601  1.00  0.00     0.017 C 
HETATM   17  C24 UNL     1      -2.975  10.203  15.439  1.00  0.00    -0.031 C 
HETATM   18  C25 UNL     1      -2.070  10.518  14.207  1.00  0.00     0.016 C 
HETATM   19  C26 UNL     1      -3.797   8.878  15.186  1.00  0.00     0.024 C 
HETATM   20  C27 UNL     1      -4.833   8.967  14.030  1.00  0.00     0.010 C 
HETATM   21  C28 UNL     1      -5.396   7.642  13.463  1.00  0.00     0.011 C 
HETATM   22  C29 UNL     1      -4.667   6.368  13.935  1.00  0.00    -0.029 C 
HETATM   23  C30 UNL     1      -5.283   5.949  15.302  1.00  0.00     0.016 C 
ENDROOT
BRANCH   1  24
HETATM   24  C7  UNL     1      -5.960   4.276  12.715  1.00  0.00     0.017 C 
BRANCH  24  25
HETATM   25  C6  UNL     1      -7.200   4.965  12.081  1.00  0.00     0.043 C 
BRANCH  25  26
HETATM   26  C5  UNL     1      -8.474   4.883  12.946  1.00  0.00     0.141 C 
BRANCH  26  27
HETATM   27  C4  UNL     1      -8.455   5.937  14.019  1.00  0.00     0.006 C 
HETATM   28  C2  UNL     1      -9.376   6.885  14.282  1.00  0.00    -0.089 C 
HETATM   29  C1  UNL     1     -10.663   7.090  13.531  1.00  0.00     0.042 C 
HETATM   30  C3  UNL     1      -9.163   7.860  15.412  1.00  0.00     0.042 C 
ENDBRANCH  26  27
BRANCH  26  31
HETATM   31  O1  UNL     1      -8.503   3.619  13.605  1.00  0.00    -0.392 OA
HETATM   32  H9  UNL     1      -9.169   3.690  14.312  1.00  0.00     0.210 HD
ENDBRANCH  26  31
ENDBRANCH  25  26
ENDBRANCH  24  25
BRANCH  24  33
HETATM   33  C8  UNL     1      -5.603   2.987  11.957  1.00  0.00     0.169 C 
BRANCH  33  34
HETATM   34  O2  UNL     1      -6.675   2.051  12.009  1.00  0.00    -0.400 OA
HETATM   35  H15 UNL     1      -6.880   1.910  12.954  1.00  0.00     0.209 HD
ENDBRANCH  33  34
ENDBRANCH  24  33
ENDBRANCH   1  24
TORSDOF 7
ENDMDL
MODEL 4
REMARK minimizedAffinity -8.80887318
REMARK  7 active torsions:
REMARK  status: ('A' for Active; 'I' for Inactive)
REMARK    1  A    between atoms: C4_4  and  C5_5 
REMARK    2  A    between atoms: C5_5  and  O1_6 
REMARK    3  A    between atoms: C5_5  and  C6_7 
REMARK    4  A    between atoms: C6_7  and  C7_8 
REMARK    5  A    between atoms: C7_8  and  C8_9 
REMARK    6  A    between atoms: C7_8  and  C9_11 
REMARK    7  A    between atoms: C8_9  and  O2_10 
ROOT
HETATM    1  C9  UNL     1      -4.012   6.999  14.349  1.00  0.00     0.001 C 
HETATM    2  C10 UNL     1      -4.686   8.156  13.555  1.00  0.00     0.007 C 
HETATM    3  C11 UNL     1      -3.650   8.658  12.537  1.00  0.00     0.015 C 
HETATM    4  C12 UNL     1      -2.298   8.126  13.056  1.00  0.00    -0.013 C 
HETATM    5  C13 UNL     1      -1.841   9.109  14.176  1.00  0.00     0.021 C 
HETATM    6  C14 UNL     1      -1.143   8.011  12.080  1.00  0.00    -0.070 C 
HETATM    7  C15 UNL     1      -1.078   8.649  10.900  1.00  0.00    -0.022 C 
HETATM    8  C16 UNL     1       0.059   8.419   9.957  1.00  0.00     0.034 C 
HETATM    9  C17 UNL     1       1.447   8.267  10.637  1.00  0.00     0.013 C 
HETATM   10  C18 UNL     1       2.501   7.593   9.697  1.00  0.00     0.018 C 
HETATM   11  C19 UNL     1       2.690   8.444   8.418  1.00  0.00     0.023 C 
HETATM   12  C20 UNL     1       2.138   6.170   9.235  1.00  0.00     0.023 C 
HETATM   13  C21 UNL     1       3.845   7.553  10.436  1.00  0.00     0.135 C 
HETATM   14  O3  UNL     1       4.905   7.896   9.903  1.00  0.00    -0.297 OA
HETATM   15  C22 UNL     1       3.875   7.068  11.864  1.00  0.00     0.080 C 
HETATM   16  C23 UNL     1       2.513   6.678  12.412  1.00  0.00     0.017 C 
HETATM   17  C24 UNL     1       1.389   7.705  12.125  1.00  0.00    -0.031 C 
HETATM   18  C25 UNL     1       1.630   8.924  13.070  1.00  0.00     0.016 C 
HETATM   19  C26 UNL     1      -0.015   7.047  12.432  1.00  0.00     0.024 C 
HETATM   20  C27 UNL     1      -0.136   6.402  13.842  1.00  0.00     0.010 C 
HETATM   21  C28 UNL     1      -1.554   6.086  14.370  1.00  0.00     0.011 C 
HETATM   22  C29 UNL     1      -2.708   6.688  13.545  1.00  0.00    -0.029 C 
HETATM   23  C30 UNL     1      -3.016   5.709  12.375  1.00  0.00     0.016 C 
ENDROOT
BRANCH   1  24
HETATM   24  C7  UNL     1      -5.016   5.901  14.806  1.00  0.00     0.017 C 
BRANCH  24  25
HETATM   25  C6  UNL     1      -5.985   6.282  15.959  1.00  0.00     0.043 C 
BRANCH  25  26
HETATM   26  C5  UNL     1      -7.477   6.151  15.594  1.00  0.00     0.141 C 
BRANCH  26  27
HETATM   27  C4  UNL     1      -8.283   7.233  16.259  1.00  0.00     0.006 C 
HETATM   28  C2  UNL     1      -9.465   7.756  15.876  1.00  0.00    -0.089 C 
HETATM   29  C1  UNL     1     -10.253   7.347  14.662  1.00  0.00     0.042 C 
HETATM   30  C3  UNL     1     -10.112   8.850  16.688  1.00  0.00     0.042 C 
ENDBRANCH  26  27
BRANCH  26  31
HETATM   31  O1  UNL     1      -7.965   4.906  16.089  1.00  0.00    -0.392 OA
HETATM   32  H9  UNL     1      -8.937   4.957  16.061  1.00  0.00     0.210 HD
ENDBRANCH  26  31
ENDBRANCH  25  26
ENDBRANCH  24  25
BRANCH  24  33
HETATM   33  C8  UNL     1      -5.789   5.320  13.611  1.00  0.00     0.169 C 
BRANCH  33  34
HETATM   34  O2  UNL     1      -6.821   6.206  13.191  1.00  0.00    -0.400 OA
HETATM   35  H15 UNL     1      -7.379   6.381  13.975  1.00  0.00     0.209 HD
ENDBRANCH  33  34
ENDBRANCH  24  33
ENDBRANCH   1  24
TORSDOF 7
ENDMDL
MODEL 5
REMARK minimizedAffinity -8.72880268
REMARK  7 active torsions:
REMARK  status: ('A' for Active; 'I' for Inactive)
REMARK    1  A    between atoms: C4_4  and  C5_5 
REMARK    2  A    between atoms: C5_5  and  O1_6 
REMARK    3  A    between atoms: C5_5  and  C6_7 
REMARK    4  A    between atoms: C6_7  and  C7_8 
REMARK    5  A    between atoms: C7_8  and  C8_9 
REMARK    6  A    between atoms: C7_8  and  C9_11 
REMARK    7  A    between atoms: C8_9  and  O2_10 
ROOT
HETATM    1  C9  UNL     1       2.254   7.050  10.997  1.00  0.00     0.001 C 
HETATM    2  C10 UNL     1       2.079   5.538  10.674  1.00  0.00     0.007 C 
HETATM    3  C11 UNL     1       0.704   5.124  11.221  1.00  0.00     0.015 C 
HETATM    4  C12 UNL     1       0.328   6.235  12.223  1.00  0.00    -0.013 C 
HETATM    5  C13 UNL     1       1.080   5.904  13.547  1.00  0.00     0.021 C 
HETATM    6  C14 UNL     1      -1.133   6.416  12.586  1.00  0.00    -0.070 C 
HETATM    7  C15 UNL     1      -2.086   5.490  12.394  1.00  0.00    -0.022 C 
HETATM    8  C16 UNL     1      -3.519   5.777  12.705  1.00  0.00     0.034 C 
HETATM    9  C17 UNL     1      -3.750   6.621  13.988  1.00  0.00     0.013 C 
HETATM   10  C18 UNL     1      -5.175   7.270  14.028  1.00  0.00     0.018 C 
HETATM   11  C19 UNL     1      -6.260   6.167  13.984  1.00  0.00     0.023 C 
HETATM   12  C20 UNL     1      -5.476   8.236  12.868  1.00  0.00     0.023 C 
HETATM   13  C21 UNL     1      -5.322   8.020  15.358  1.00  0.00     0.135 C 
HETATM   14  O3  UNL     1      -6.324   7.915  16.071  1.00  0.00    -0.297 OA
HETATM   15  C22 UNL     1      -4.204   8.928  15.807  1.00  0.00     0.080 C 
HETATM   16  C23 UNL     1      -3.024   8.975  14.853  1.00  0.00     0.017 C 
HETATM   17  C24 UNL     1      -2.541   7.587  14.363  1.00  0.00    -0.031 C 
HETATM   18  C25 UNL     1      -1.791   6.915  15.556  1.00  0.00     0.016 C 
HETATM   19  C26 UNL     1      -1.559   7.773  13.139  1.00  0.00     0.024 C 
HETATM   20  C27 UNL     1      -0.387   8.763  13.391  1.00  0.00     0.010 C 
HETATM   21  C28 UNL     1       0.815   8.718  12.419  1.00  0.00     0.011 C 
HETATM   22  C29 UNL     1       0.834   7.513  11.459  1.00  0.00    -0.029 C 
HETATM   23  C30 UNL     1      -0.042   7.876  10.225  1.00  0.00     0.016 C 
ENDROOT
BRANCH   1  24
HETATM   24  C7  UNL     1       3.097   7.812   9.933  1.00  0.00     0.017 C 
BRANCH  24  25
HETATM   25  C6  UNL     1       4.639   7.796  10.126  1.00  0.00     0.043 C 
BRANCH  25  26
HETATM   26  C5  UNL     1       5.131   6.761  11.157  1.00  0.00     0.141 C 
BRANCH  26  27
HETATM   27  C4  UNL     1       6.371   7.253  11.852  1.00  0.00     0.006 C 
HETATM   28  C2  UNL     1       6.495   7.742  13.102  1.00  0.00    -0.089 C 
HETATM   29  C1  UNL     1       5.378   7.900  14.097  1.00  0.00     0.042 C 
HETATM   30  C3  UNL     1       7.840   8.191  13.613  1.00  0.00     0.042 C 
ENDBRANCH  26  27
BRANCH  26  31
HETATM   31  O1  UNL     1       5.487   5.561  10.472  1.00  0.00    -0.392 OA
HETATM   32  H9  UNL     1       6.009   5.029  11.098  1.00  0.00     0.210 HD
ENDBRANCH  26  31
ENDBRANCH  25  26
ENDBRANCH  24  25
BRANCH  24  33
HETATM   33  C8  UNL     1       2.720   7.379   8.508  1.00  0.00     0.169 C 
BRANCH  33  34
HETATM   34  O2  UNL     1       2.809   8.473   7.601  1.00  0.00    -0.400 OA
HETATM   35  H15 UNL     1       2.243   9.184   7.961  1.00  0.00     0.209 HD
ENDBRANCH  33  34
ENDBRANCH  24  33
ENDBRANCH   1  24
TORSDOF 7
ENDMDL
MODEL 6
REMARK minimizedAffinity -8.48270798
REMARK  7 active torsions:
REMARK  status: ('A' for Active; 'I' for Inactive)
REMARK    1  A    between atoms: C4_4  and  C5_5 
REMARK    2  A    between atoms: C5_5  and  O1_6 
REMARK    3  A    between atoms: C5_5  and  C6_7 
REMARK    4  A    between atoms: C6_7  and  C7_8 
REMARK    5  A    between atoms: C7_8  and  C8_9 
REMARK    6  A    between atoms: C7_8  and  C9_11 
REMARK    7  A    between atoms: C8_9  and  O2_10 
ROOT
HETATM    1  C9  UNL     1      -2.967   8.154  14.425  1.00  0.00     0.001 C 
HETATM    2  C10 UNL     1      -2.548   7.588  15.812  1.00  0.00     0.007 C 
HETATM    3  C11 UNL     1      -1.030   7.354  15.756  1.00  0.00     0.015 C 
HETATM    4  C12 UNL     1      -0.688   7.343  14.252  1.00  0.00    -0.013 C 
HETATM    5  C13 UNL     1      -1.041   5.916  13.733  1.00  0.00     0.021 C 
HETATM    6  C14 UNL     1       0.744   7.616  13.834  1.00  0.00    -0.070 C 
HETATM    7  C15 UNL     1       1.805   7.522  14.651  1.00  0.00    -0.022 C 
HETATM    8  C16 UNL     1       3.177   7.887  14.182  1.00  0.00     0.034 C 
HETATM    9  C17 UNL     1       3.500   7.465  12.723  1.00  0.00     0.013 C 
HETATM   10  C18 UNL     1       4.726   8.241  12.134  1.00  0.00     0.018 C 
HETATM   11  C19 UNL     1       5.984   7.974  12.995  1.00  0.00     0.023 C 
HETATM   12  C20 UNL     1       4.550   9.769  12.066  1.00  0.00     0.023 C 
HETATM   13  C21 UNL     1       5.000   7.703  10.724  1.00  0.00     0.135 C 
HETATM   14  O3  UNL     1       6.134   7.407  10.336  1.00  0.00    -0.297 OA
HETATM   15  C22 UNL     1       3.842   7.541   9.771  1.00  0.00     0.080 C 
HETATM   16  C23 UNL     1       2.498   7.934  10.359  1.00  0.00     0.017 C 
HETATM   17  C24 UNL     1       2.226   7.364  11.773  1.00  0.00    -0.031 C 
HETATM   18  C25 UNL     1       1.919   5.842  11.604  1.00  0.00     0.016 C 
HETATM   19  C26 UNL     1       0.982   8.102  12.409  1.00  0.00     0.024 C 
HETATM   20  C27 UNL     1      -0.290   8.120  11.513  1.00  0.00     0.010 C 
HETATM   21  C28 UNL     1      -1.639   8.467  12.185  1.00  0.00     0.011 C 
HETATM   22  C29 UNL     1      -1.612   8.502  13.725  1.00  0.00    -0.029 C 
HETATM   23  C30 UNL     1      -1.128   9.915  14.159  1.00  0.00     0.016 C 
ENDROOT
BRANCH   1  24
HETATM   24  C7  UNL     1      -4.166   9.143  14.501  1.00  0.00     0.017 C 
BRANCH  24  25
HETATM   25  C6  UNL     1      -5.579   8.540  14.270  1.00  0.00     0.043 C 
BRANCH  25  26
HETATM   26  C5  UNL     1      -5.672   7.029  14.561  1.00  0.00     0.141 C 
BRANCH  26  27
HETATM   27  C4  UNL     1      -6.828   6.416  13.820  1.00  0.00     0.006 C 
HETATM   28  C2  UNL     1      -6.873   5.244  13.155  1.00  0.00    -0.089 C 
HETATM   29  C1  UNL     1      -5.735   4.271  13.014  1.00  0.00     0.042 C 
HETATM   30  C3  UNL     1      -8.142   4.808  12.467  1.00  0.00     0.042 C 
ENDBRANCH  26  27
BRANCH  26  31
HETATM   31  O1  UNL     1      -5.923   6.842  15.953  1.00  0.00    -0.392 OA
HETATM   32  H9  UNL     1      -6.213   5.919  16.061  1.00  0.00     0.210 HD
ENDBRANCH  26  31
ENDBRANCH  25  26
ENDBRANCH  24  25
BRANCH  24  33
HETATM   33  C8  UNL     1      -4.128   9.967  15.798  1.00  0.00     0.169 C 
BRANCH  33  34
HETATM   34  O2  UNL     1      -4.794  11.214  15.630  1.00  0.00    -0.400 OA
HETATM   35  H15 UNL     1      -4.372  11.658  14.868  1.00  0.00     0.209 HD
ENDBRANCH  33  34
ENDBRANCH  24  33
ENDBRANCH   1  24
TORSDOF 7
ENDMDL
MODEL 7
REMARK minimizedAffinity -8.41715527
REMARK  7 active torsions:
REMARK  status: ('A' for Active; 'I' for Inactive)
REMARK    1  A    between atoms: C4_4  and  C5_5 
REMARK    2  A    between atoms: C5_5  and  O1_6 
REMARK    3  A    between atoms: C5_5  and  C6_7 
REMARK    4  A    between atoms: C6_7  and  C7_8 
REMARK    5  A    between atoms: C7_8  and  C8_9 
REMARK    6  A    between atoms: C7_8  and  C9_11 
REMARK    7  A    between atoms: C8_9  and  O2_10 
ROOT
HETATM    1  C9  UNL     1      -1.827   5.698  12.625  1.00  0.00     0.001 C 
HETATM    2  C10 UNL     1      -0.984   6.473  11.572  1.00  0.00     0.007 C 
HETATM    3  C11 UNL     1      -0.678   7.853  12.176  1.00  0.00     0.015 C 
HETATM    4  C12 UNL     1      -1.703   8.019  13.317  1.00  0.00    -0.013 C 
HETATM    5  C13 UNL     1      -3.033   8.480  12.648  1.00  0.00     0.021 C 
HETATM    6  C14 UNL     1      -1.402   9.015  14.420  1.00  0.00    -0.070 C 
HETATM    7  C15 UNL     1      -0.507  10.012  14.321  1.00  0.00    -0.022 C 
HETATM    8  C16 UNL     1      -0.209  10.903  15.484  1.00  0.00     0.034 C 
HETATM    9  C17 UNL     1      -1.445  11.286  16.343  1.00  0.00     0.013 C 
HETATM   10  C18 UNL     1      -1.045  11.817  17.760  1.00  0.00     0.018 C 
HETATM   11  C19 UNL     1      -0.156  13.077  17.621  1.00  0.00     0.023 C 
HETATM   12  C20 UNL     1      -0.264  10.815  18.629  1.00  0.00     0.023 C 
HETATM   13  C21 UNL     1      -2.327  12.229  18.496  1.00  0.00     0.135 C 
HETATM   14  O3  UNL     1      -2.430  13.299  19.102  1.00  0.00    -0.297 OA
HETATM   15  C22 UNL     1      -3.504  11.285  18.487  1.00  0.00     0.080 C 
HETATM   16  C23 UNL     1      -3.263  10.004  17.709  1.00  0.00     0.017 C 
HETATM   17  C24 UNL     1      -2.620  10.212  16.314  1.00  0.00    -0.031 C 
HETATM   18  C25 UNL     1      -3.729  10.793  15.381  1.00  0.00     0.016 C 
HETATM   19  C26 UNL     1      -2.111   8.824  15.756  1.00  0.00     0.024 C 
HETATM   20  C27 UNL     1      -3.176   7.691  15.763  1.00  0.00     0.010 C 
HETATM   21  C28 UNL     1      -2.901   6.438  14.900  1.00  0.00     0.011 C 
HETATM   22  C29 UNL     1      -1.718   6.567  13.921  1.00  0.00    -0.029 C 
HETATM   23  C30 UNL     1      -0.417   6.214  14.699  1.00  0.00     0.016 C 
ENDROOT
BRANCH   1  24
HETATM   24  C7  UNL     1      -1.577   4.162  12.603  1.00  0.00     0.017 C 
BRANCH  24  25
HETATM   25  C6  UNL     1      -2.765   3.271  12.147  1.00  0.00     0.043 C 
BRANCH  25  26
HETATM   26  C5  UNL     1      -3.877   4.040  11.406  1.00  0.00     0.141 C 
BRANCH  26  27
HETATM   27  C4  UNL     1      -5.201   3.852  12.095  1.00  0.00     0.006 C 
HETATM   28  C2  UNL     1      -6.022   2.783  12.061  1.00  0.00    -0.089 C 
HETATM   29  C1  UNL     1      -5.772   1.509  11.301  1.00  0.00     0.042 C 
HETATM   30  C3  UNL     1      -7.321   2.797  12.826  1.00  0.00     0.042 C 
ENDBRANCH  26  27
BRANCH  26  31
HETATM   31  O1  UNL     1      -4.012   3.503  10.092  1.00  0.00    -0.392 OA
HETATM   32  H9  UNL     1      -4.860   3.832   9.744  1.00  0.00     0.210 HD
ENDBRANCH  26  31
ENDBRANCH  25  26
ENDBRANCH  24  25
BRANCH  24  33
HETATM   33  C8  UNL     1      -0.301   3.816  11.820  1.00  0.00     0.169 C 
BRANCH  33  34
HETATM   34  O2  UNL     1      -0.478   2.629  11.053  1.00  0.00    -0.400 OA
HETATM   35  H15 UNL     1      -0.760   1.931  11.677  1.00  0.00     0.209 HD
ENDBRANCH  33  34
ENDBRANCH  24  33
ENDBRANCH   1  24
TORSDOF 7
ENDMDL
MODEL 8
REMARK minimizedAffinity -8.40850639
REMARK  7 active torsions:
REMARK  status: ('A' for Active; 'I' for Inactive)
REMARK    1  A    between atoms: C4_4  and  C5_5 
REMARK    2  A    between atoms: C5_5  and  O1_6 
REMARK    3  A    between atoms: C5_5  and  C6_7 
REMARK    4  A    between atoms: C6_7  and  C7_8 
REMARK    5  A    between atoms: C7_8  and  C8_9 
REMARK    6  A    between atoms: C7_8  and  C9_11 
REMARK    7  A    between atoms: C8_9  and  O2_10 
ROOT
HETATM    1  C9  UNL     1       0.750   6.888  12.202  1.00  0.00     0.001 C 
HETATM    2  C10 UNL     1       0.202   7.703  10.995  1.00  0.00     0.007 C 
HETATM    3  C11 UNL     1      -0.648   8.843  11.578  1.00  0.00     0.015 C 
HETATM    4  C12 UNL     1      -0.951   8.408  13.026  1.00  0.00    -0.013 C 
HETATM    5  C13 UNL     1      -2.145   7.409  12.942  1.00  0.00     0.021 C 
HETATM    6  C14 UNL     1      -1.344   9.471  14.033  1.00  0.00    -0.070 C 
HETATM    7  C15 UNL     1      -1.790  10.696  13.712  1.00  0.00    -0.022 C 
HETATM    8  C16 UNL     1      -2.079  11.716  14.766  1.00  0.00     0.034 C 
HETATM    9  C17 UNL     1      -2.742  11.152  16.052  1.00  0.00     0.013 C 
HETATM   10  C18 UNL     1      -2.611  12.129  17.268  1.00  0.00     0.018 C 
HETATM   11  C19 UNL     1      -3.292  13.480  16.937  1.00  0.00     0.023 C 
HETATM   12  C20 UNL     1      -1.165  12.451  17.685  1.00  0.00     0.023 C 
HETATM   13  C21 UNL     1      -3.353  11.511  18.460  1.00  0.00     0.135 C 
HETATM   14  O3  UNL     1      -4.133  12.159  19.165  1.00  0.00    -0.297 OA
HETATM   15  C22 UNL     1      -3.112  10.059  18.791  1.00  0.00     0.080 C 
HETATM   16  C23 UNL     1      -2.138   9.365  17.856  1.00  0.00     0.017 C 
HETATM   17  C24 UNL     1      -2.397   9.627  16.352  1.00  0.00    -0.031 C 
HETATM   18  C25 UNL     1      -3.660   8.800  15.953  1.00  0.00     0.016 C 
HETATM   19  C26 UNL     1      -1.147   9.149  15.511  1.00  0.00     0.024 C 
HETATM   20  C27 UNL     1      -0.691   7.691  15.797  1.00  0.00     0.010 C 
HETATM   21  C28 UNL     1       0.253   7.017  14.774  1.00  0.00     0.011 C 
HETATM   22  C29 UNL     1       0.428   7.779  13.446  1.00  0.00    -0.029 C 
HETATM   23  C30 UNL     1       1.546   8.841  13.653  1.00  0.00     0.016 C 
ENDROOT
BRANCH   1  24
HETATM   24  C7  UNL     1       2.151   6.264  11.939  1.00  0.00     0.017 C 
BRANCH  24  25
HETATM   25  C6  UNL     1       2.254   5.263  10.754  1.00  0.00     0.043 C 
BRANCH  25  26
HETATM   26  C5  UNL     1       3.314   5.643   9.702  1.00  0.00     0.141 C 
BRANCH  26  27
HETATM   27  C4  UNL     1       2.669   5.898   8.367  1.00  0.00     0.006 C 
HETATM   28  C2  UNL     1       2.465   7.075   7.743  1.00  0.00    -0.089 C 
HETATM   29  C1  UNL     1       2.858   8.427   8.272  1.00  0.00     0.042 C 
HETATM   30  C3  UNL     1       1.789   7.115   6.396  1.00  0.00     0.042 C 
ENDBRANCH  26  27
BRANCH  26  31
HETATM   31  O1  UNL     1       4.208   4.545   9.530  1.00  0.00    -0.392 OA
HETATM   32  H9  UNL     1       4.702   4.716   8.709  1.00  0.00     0.210 HD
ENDBRANCH  26  31
ENDBRANCH  25  26
ENDBRANCH  24  25
BRANCH  24  33
HETATM   33  C8  UNL     1       3.234   7.349  11.833  1.00  0.00     0.169 C 
BRANCH  33  34
HETATM   34  O2  UNL     1       4.374   7.011  12.616  1.00  0.00    -0.400 OA
HETATM   35  H15 UNL     1       4.054   6.859  13.528  1.00  0.00     0.209 HD
ENDBRANCH  33  34
ENDBRANCH  24  33
ENDBRANCH   1  24
TORSDOF 7
ENDMDL
MODEL 9
REMARK minimizedAffinity -8.23469353
REMARK  7 active torsions:
REMARK  status: ('A' for Active; 'I' for Inactive)
REMARK    1  A    between atoms: C4_4  and  C5_5 
REMARK    2  A    between atoms: C5_5  and  O1_6 
REMARK    3  A    between atoms: C5_5  and  C6_7 
REMARK    4  A    between atoms: C6_7  and  C7_8 
REMARK    5  A    between atoms: C7_8  and  C8_9 
REMARK    6  A    between atoms: C7_8  and  C9_11 
REMARK    7  A    between atoms: C8_9  and  O2_10 
ROOT
HETATM    1  C9  UNL     1      -3.339   7.101  14.158  1.00  0.00     0.001 C 
HETATM    2  C10 UNL     1      -3.486   5.622  13.697  1.00  0.00     0.007 C 
HETATM    3  C11 UNL     1      -4.993   5.320  13.648  1.00  0.00     0.015 C 
HETATM    4  C12 UNL     1      -5.644   6.430  14.498  1.00  0.00    -0.013 C 
HETATM    5  C13 UNL     1      -5.489   5.990  15.986  1.00  0.00     0.021 C 
HETATM    6  C14 UNL     1      -7.115   6.734  14.286  1.00  0.00    -0.070 C 
HETATM    7  C15 UNL     1      -7.984   5.906  13.685  1.00  0.00    -0.022 C 
HETATM    8  C16 UNL     1      -9.401   6.315  13.441  1.00  0.00     0.034 C 
HETATM    9  C17 UNL     1     -10.047   7.137  14.590  1.00  0.00     0.013 C 
HETATM   10  C18 UNL     1     -11.324   7.913  14.122  1.00  0.00     0.018 C 
HETATM   11  C19 UNL     1     -12.386   6.916  13.596  1.00  0.00     0.023 C 
HETATM   12  C20 UNL     1     -11.082   8.938  13.000  1.00  0.00     0.023 C 
HETATM   13  C21 UNL     1     -11.920   8.631  15.340  1.00  0.00     0.135 C 
HETATM   14  O3  UNL     1     -13.124   8.598  15.607  1.00  0.00    -0.297 OA
HETATM   15  C22 UNL     1     -10.999   9.418  16.240  1.00  0.00     0.080 C 
HETATM   16  C23 UNL     1      -9.542   9.385  15.815  1.00  0.00     0.017 C 
HETATM   17  C24 UNL     1      -9.010   7.974  15.460  1.00  0.00    -0.031 C 
HETATM   18  C25 UNL     1      -8.832   7.200  16.803  1.00  0.00     0.016 C 
HETATM   19  C26 UNL     1      -7.620   8.106  14.719  1.00  0.00     0.024 C 
HETATM   20  C27 UNL     1      -6.568   8.975  15.464  1.00  0.00     0.010 C 
HETATM   21  C28 UNL     1      -5.090   8.850  15.025  1.00  0.00     0.011 C 
HETATM   22  C29 UNL     1      -4.789   7.679  14.070  1.00  0.00    -0.029 C 
HETATM   23  C30 UNL     1      -5.091   8.159  12.621  1.00  0.00     0.016 C 
ENDROOT
BRANCH   1  24
HETATM   24  C7  UNL     1      -2.097   7.814  13.549  1.00  0.00     0.017 C 
BRANCH  24  25
HETATM   25  C6  UNL     1      -1.018   6.901  12.905  1.00  0.00     0.043 C 
BRANCH  25  26
HETATM   26  C5  UNL     1       0.141   6.534  13.853  1.00  0.00     0.141 C 
BRANCH  26  27
HETATM   27  C4  UNL     1       1.464   6.662  13.149  1.00  0.00     0.006 C 
HETATM   28  C2  UNL     1       1.793   6.272  11.902  1.00  0.00    -0.089 C 
HETATM   29  C1  UNL     1       0.869   5.607  10.918  1.00  0.00     0.042 C 
HETATM   30  C3  UNL     1       3.191   6.489  11.381  1.00  0.00     0.042 C 
ENDBRANCH  26  27
BRANCH  26  31
HETATM   31  O1  UNL     1       0.005   5.168  14.239  1.00  0.00    -0.392 OA
HETATM   32  H9  UNL     1       0.858   4.903  14.628  1.00  0.00     0.210 HD
ENDBRANCH  26  31
ENDBRANCH  25  26
ENDBRANCH  24  25
BRANCH  24  33
HETATM   33  C8  UNL     1      -2.515   8.933  12.582  1.00  0.00     0.169 C 
BRANCH  33  34
HETATM   34  O2  UNL     1      -1.420   9.341  11.769  1.00  0.00    -0.400 OA
HETATM   35  H15 UNL     1      -0.697   9.594  12.377  1.00  0.00     0.209 HD
ENDBRANCH  33  34
ENDBRANCH  24  33
ENDBRANCH   1  24
TORSDOF 7
ENDMDL
