MODEL 1
REMARK minimizedAffinity -9.13024902
REMARK  5 active torsions:
REMARK  status: ('A' for Active; 'I' for Inactive)
REMARK    1  A    between atoms: C2_2  and  C3_3 
REMARK    2  A    between atoms: C2_2  and  C9_10 
REMARK    3  A    between atoms: C3_3  and  C4_4 
REMARK    4  A    between atoms: C5_5  and  C6_6 
REMARK    5  A    between atoms: C6_6  and  O1_9 
ROOT
HETATM    1  C9  UNL     1      -5.616   7.209  14.033  1.00  0.00    -0.002 C 
HETATM    2  C10 UNL     1      -5.669   8.654  14.615  1.00  0.00     0.006 C 
HETATM    3  C11 UNL     1      -4.212   9.134  14.764  1.00  0.00     0.011 C 
HETATM    4  C12 UNL     1      -3.385   8.156  13.901  1.00  0.00    -0.032 C 
HETATM    5  C13 UNL     1      -3.525   8.660  12.424  1.00  0.00     0.016 C 
HETATM    6  C14 UNL     1      -1.874   8.041  14.280  1.00  0.00     0.003 C 
HETATM    7  C15 UNL     1      -1.093   9.351  13.998  1.00  0.00     0.007 C 
HETATM    8  C16 UNL     1       0.386   9.204  14.347  1.00  0.00     0.011 C 
HETATM    9  C17 UNL     1       1.125   8.115  13.496  1.00  0.00    -0.030 C 
HETATM   10  C18 UNL     1       2.074   7.363  14.464  1.00  0.00     0.016 C 
HETATM   11  C19 UNL     1       0.071   7.189  12.788  1.00  0.00     0.003 C 
HETATM   12  C20 UNL     1       0.720   6.059  11.959  1.00  0.00     0.013 C 
HETATM   13  C21 UNL     1       2.079   6.396  11.360  1.00  0.00     0.079 C 
HETATM   14  C22 UNL     1       2.346   7.874  11.220  1.00  0.00     0.131 C 
HETATM   15  O2  UNL     1       2.936   8.296  10.217  1.00  0.00    -0.298 OA
HETATM   16  C23 UNL     1       1.949   8.820  12.352  1.00  0.00     0.060 C 
HETATM   17  C24 UNL     1       3.206   9.569  12.807  1.00  0.00     0.018 C 
HETATM   18  C25 UNL     1      -1.169   6.744  13.671  1.00  0.00    -0.035 C 
HETATM   19  C26 UNL     1      -0.704   5.803  14.820  1.00  0.00     0.016 C 
HETATM   20  C27 UNL     1      -2.145   5.881  12.796  1.00  0.00     0.011 C 
HETATM   21  C28 UNL     1      -3.589   5.682  13.304  1.00  0.00     0.011 C 
HETATM   22  C29 UNL     1      -4.121   6.797  14.229  1.00  0.00    -0.032 C 
HETATM   23  C30 UNL     1      -3.930   6.332  15.706  1.00  0.00     0.016 C 
ENDROOT
BRANCH   1  24
HETATM   24  C2  UNL     1      -6.825   6.320  14.454  1.00  0.00    -0.010 C 
HETATM   25  C1  UNL     1      -6.669   5.463  15.718  1.00  0.00     0.010 C 
BRANCH  24  26
HETATM   26  C3  UNL     1      -7.332   5.468  13.264  1.00  0.00     0.031 C 
BRANCH  26  27
HETATM   27  C4  UNL     1      -6.332   4.452  12.782  1.00  0.00    -0.027 C 
HETATM   28  C5  UNL     1      -6.521   3.658  11.717  1.00  0.00     0.006 C 
BRANCH  28  29
HETATM   29  C6  UNL     1      -5.558   2.610  11.204  1.00  0.00     0.068 C 
HETATM   30  C7  UNL     1      -6.161   1.206  11.316  1.00  0.00     0.050 C 
HETATM   31  C8  UNL     1      -4.234   2.679  11.971  1.00  0.00     0.050 C 
BRANCH  29  32
HETATM   32  O1  UNL     1      -5.269   2.859   9.826  1.00  0.00    -0.387 OA
HETATM   33  H15 UNL     1      -6.091   2.675   9.330  1.00  0.00     0.211 HD
ENDBRANCH  29  32
ENDBRANCH  28  29
ENDBRANCH  26  27
ENDBRANCH  24  26
ENDBRANCH   1  24
TORSDOF 5
ENDMDL
MODEL 2
REMARK minimizedAffinity -9.08197784
REMARK  5 active torsions:
REMARK  status: ('A' for Active; 'I' for Inactive)
REMARK    1  A    between atoms: C2_2  and  C3_3 
REMARK    2  A    between atoms: C2_2  and  C9_10 
REMARK    3  A    between atoms: C3_3  and  C4_4 
REMARK    4  A    between atoms: C5_5  and  C6_6 
REMARK    5  A    between atoms: C6_6  and  O1_9 
ROOT
HETATM    1  C9  UNL     1      -6.700   7.147  14.402  1.00  0.00    -0.002 C 
HETATM    2  C10 UNL     1      -6.576   8.559  15.048  1.00  0.00     0.006 C 
HETATM    3  C11 UNL     1      -5.079   8.927  15.046  1.00  0.00     0.011 C 
HETATM    4  C12 UNL     1      -4.433   7.939  14.051  1.00  0.00    -0.032 C 
HETATM    5  C13 UNL     1      -4.700   8.527  12.624  1.00  0.00     0.016 C 
HETATM    6  C14 UNL     1      -2.902   7.698  14.245  1.00  0.00     0.003 C 
HETATM    7  C15 UNL     1      -2.060   8.962  13.930  1.00  0.00     0.007 C 
HETATM    8  C16 UNL     1      -0.567   8.693  14.097  1.00  0.00     0.011 C 
HETATM    9  C17 UNL     1      -0.015   7.600  13.119  1.00  0.00    -0.030 C 
HETATM   10  C18 UNL     1       0.978   6.733  13.935  1.00  0.00     0.016 C 
HETATM   11  C19 UNL     1      -1.210   6.789  12.499  1.00  0.00     0.003 C 
HETATM   12  C20 UNL     1      -0.747   5.660  11.552  1.00  0.00     0.013 C 
HETATM   13  C21 UNL     1       0.557   5.931  10.813  1.00  0.00     0.079 C 
HETATM   14  C22 UNL     1       0.918   7.392  10.707  1.00  0.00     0.131 C 
HETATM   15  O2  UNL     1       1.420   7.823   9.661  1.00  0.00    -0.298 OA
HETATM   16  C23 UNL     1       0.726   8.303  11.918  1.00  0.00     0.060 C 
HETATM   17  C24 UNL     1       2.080   8.937  12.254  1.00  0.00     0.018 C 
HETATM   18  C25 UNL     1      -2.371   6.387  13.501  1.00  0.00    -0.035 C 
HETATM   19  C26 UNL     1      -1.853   5.357  14.547  1.00  0.00     0.016 C 
HETATM   20  C27 UNL     1      -3.504   5.642  12.710  1.00  0.00     0.011 C 
HETATM   21  C28 UNL     1      -4.892   5.521  13.375  1.00  0.00     0.011 C 
HETATM   22  C29 UNL     1      -5.229   6.620  14.403  1.00  0.00    -0.032 C 
HETATM   23  C30 UNL     1      -4.907   6.067  15.827  1.00  0.00     0.016 C 
ENDROOT
BRANCH   1  24
HETATM   24  C2  UNL     1      -7.918   6.325  14.923  1.00  0.00    -0.010 C 
HETATM   25  C1  UNL     1      -7.631   4.956  15.555  1.00  0.00     0.010 C 
BRANCH  24  26
HETATM   26  C3  UNL     1      -9.022   6.218  13.842  1.00  0.00     0.031 C 
BRANCH  26  27
HETATM   27  C4  UNL     1      -9.962   7.393  13.823  1.00  0.00    -0.027 C 
HETATM   28  C5  UNL     1     -10.877   7.609  12.865  1.00  0.00     0.006 C 
BRANCH  28  29
HETATM   29  C6  UNL     1     -11.830   8.782  12.790  1.00  0.00     0.068 C 
HETATM   30  C7  UNL     1     -11.534   9.802  13.894  1.00  0.00     0.050 C 
HETATM   31  C8  UNL     1     -13.280   8.299  12.890  1.00  0.00     0.050 C 
BRANCH  29  32
HETATM   32  O1  UNL     1     -11.682   9.439  11.529  1.00  0.00    -0.387 OA
HETATM   33  H15 UNL     1     -10.801   9.861  11.535  1.00  0.00     0.211 HD
ENDBRANCH  29  32
ENDBRANCH  28  29
ENDBRANCH  26  27
ENDBRANCH  24  26
ENDBRANCH   1  24
TORSDOF 5
ENDMDL
MODEL 3
REMARK minimizedAffinity -8.57535553
REMARK  5 active torsions:
REMARK  status: ('A' for Active; 'I' for Inactive)
REMARK    1  A    between atoms: C2_2  and  C3_3 
REMARK    2  A    between atoms: C2_2  and  C9_10 
REMARK    3  A    between atoms: C3_3  and  C4_4 
REMARK    4  A    between atoms: C5_5  and  C6_6 
REMARK    5  A    between atoms: C6_6  and  O1_9 
ROOT
HETATM    1  C9  UNL     1      -3.702   7.276  14.806  1.00  0.00    -0.002 C 
HETATM    2  C10 UNL     1      -3.952   5.782  14.442  1.00  0.00     0.006 C 
HETATM    3  C11 UNL     1      -2.883   5.385  13.405  1.00  0.00     0.011 C 
HETATM    4  C12 UNL     1      -1.812   6.493  13.500  1.00  0.00    -0.032 C 
HETATM    5  C13 UNL     1      -0.920   6.126  14.734  1.00  0.00     0.016 C 
HETATM    6  C14 UNL     1      -0.915   6.668  12.233  1.00  0.00     0.003 C 
HETATM    7  C15 UNL     1       0.007   5.445  11.987  1.00  0.00     0.007 C 
HETATM    8  C16 UNL     1       0.894   5.653  10.763  1.00  0.00     0.011 C 
HETATM    9  C17 UNL     1       1.878   6.864  10.902  1.00  0.00    -0.030 C 
HETATM   10  C18 UNL     1       1.900   7.580   9.527  1.00  0.00     0.016 C 
HETATM   11  C19 UNL     1       1.423   7.784  12.092  1.00  0.00     0.003 C 
HETATM   12  C20 UNL     1       2.320   9.029  12.270  1.00  0.00     0.013 C 
HETATM   13  C21 UNL     1       3.776   8.840  11.863  1.00  0.00     0.079 C 
HETATM   14  C22 UNL     1       4.234   7.403  11.846  1.00  0.00     0.131 C 
HETATM   15  O2  UNL     1       5.370   7.119  12.247  1.00  0.00    -0.298 OA
HETATM   16  C23 UNL     1       3.315   6.329  11.268  1.00  0.00     0.060 C 
HETATM   17  C24 UNL     1       4.066   5.622  10.135  1.00  0.00     0.018 C 
HETATM   18  C25 UNL     1      -0.134   8.061  12.202  1.00  0.00    -0.035 C 
HETATM   19  C26 UNL     1      -0.619   8.914  10.994  1.00  0.00     0.016 C 
HETATM   20  C27 UNL     1      -0.417   8.939  13.472  1.00  0.00     0.011 C 
HETATM   21  C28 UNL     1      -1.863   8.994  14.007  1.00  0.00     0.011 C 
HETATM   22  C29 UNL     1      -2.734   7.763  13.680  1.00  0.00    -0.032 C 
HETATM   23  C30 UNL     1      -3.583   8.094  12.413  1.00  0.00     0.016 C 
ENDROOT
BRANCH   1  24
HETATM   24  C2  UNL     1      -4.991   8.040  15.235  1.00  0.00    -0.010 C 
HETATM   25  C1  UNL     1      -4.834   9.187  16.243  1.00  0.00     0.010 C 
BRANCH  24  26
HETATM   26  C3  UNL     1      -6.101   7.056  15.681  1.00  0.00     0.031 C 
BRANCH  26  27
HETATM   27  C4  UNL     1      -6.888   6.477  14.536  1.00  0.00    -0.027 C 
HETATM   28  C5  UNL     1      -6.907   5.173  14.220  1.00  0.00     0.006 C 
BRANCH  28  29
HETATM   29  C6  UNL     1      -7.665   4.545  13.070  1.00  0.00     0.068 C 
HETATM   30  C7  UNL     1      -6.708   3.847  12.098  1.00  0.00     0.050 C 
HETATM   31  C8  UNL     1      -8.490   5.604  12.333  1.00  0.00     0.050 C 
BRANCH  29  32
HETATM   32  O1  UNL     1      -8.575   3.566  13.575  1.00  0.00    -0.387 OA
HETATM   33  H15 UNL     1      -8.031   2.829  13.919  1.00  0.00     0.211 HD
ENDBRANCH  29  32
ENDBRANCH  28  29
ENDBRANCH  26  27
ENDBRANCH  24  26
ENDBRANCH   1  24
TORSDOF 5
ENDMDL
MODEL 4
REMARK minimizedAffinity -8.56745529
REMARK  5 active torsions:
REMARK  status: ('A' for Active; 'I' for Inactive)
REMARK    1  A    between atoms: C2_2  and  C3_3 
REMARK    2  A    between atoms: C2_2  and  C9_10 
REMARK    3  A    between atoms: C3_3  and  C4_4 
REMARK    4  A    between atoms: C5_5  and  C6_6 
REMARK    5  A    between atoms: C6_6  and  O1_9 
ROOT
HETATM    1  C9  UNL     1      -4.993   6.388  14.032  1.00  0.00    -0.002 C 
HETATM    2  C10 UNL     1      -4.138   5.587  13.006  1.00  0.00     0.006 C 
HETATM    3  C11 UNL     1      -2.746   6.247  12.966  1.00  0.00     0.011 C 
HETATM    4  C12 UNL     1      -2.689   7.125  14.235  1.00  0.00    -0.032 C 
HETATM    5  C13 UNL     1      -2.328   6.158  15.413  1.00  0.00     0.016 C 
HETATM    6  C14 UNL     1      -1.668   8.306  14.187  1.00  0.00     0.003 C 
HETATM    7  C15 UNL     1      -0.198   7.815  14.154  1.00  0.00     0.007 C 
HETATM    8  C16 UNL     1       0.781   8.986  14.139  1.00  0.00     0.011 C 
HETATM    9  C17 UNL     1       0.697   9.888  15.418  1.00  0.00    -0.030 C 
HETATM   10  C18 UNL     1       0.825  11.356  14.936  1.00  0.00     0.016 C 
HETATM   11  C19 UNL     1      -0.635   9.585  16.195  1.00  0.00     0.003 C 
HETATM   12  C20 UNL     1      -0.815  10.466  17.451  1.00  0.00     0.013 C 
HETATM   13  C21 UNL     1       0.479  10.888  18.135  1.00  0.00     0.079 C 
HETATM   14  C22 UNL     1       1.662  10.006  17.823  1.00  0.00     0.131 C 
HETATM   15  O2  UNL     1       2.473   9.732  18.718  1.00  0.00    -0.298 OA
HETATM   16  C23 UNL     1       1.882   9.522  16.391  1.00  0.00     0.060 C 
HETATM   17  C24 UNL     1       3.274   9.982  15.943  1.00  0.00     0.018 C 
HETATM   18  C25 UNL     1      -1.936   9.415  15.305  1.00  0.00    -0.035 C 
HETATM   19  C26 UNL     1      -2.312  10.767  14.632  1.00  0.00     0.016 C 
HETATM   20  C27 UNL     1      -3.154   9.058  16.230  1.00  0.00     0.011 C 
HETATM   21  C28 UNL     1      -4.411   8.455  15.569  1.00  0.00     0.011 C 
HETATM   22  C29 UNL     1      -4.163   7.695  14.250  1.00  0.00    -0.032 C 
HETATM   23  C30 UNL     1      -4.461   8.668  13.067  1.00  0.00     0.016 C 
ENDROOT
BRANCH   1  24
HETATM   24  C2  UNL     1      -6.521   6.372  13.723  1.00  0.00    -0.010 C 
HETATM   25  C1  UNL     1      -7.433   7.240  14.602  1.00  0.00     0.010 C 
BRANCH  24  26
HETATM   26  C3  UNL     1      -7.056   4.921  13.631  1.00  0.00     0.031 C 
BRANCH  26  27
HETATM   27  C4  UNL     1      -6.545   4.167  12.433  1.00  0.00    -0.027 C 
HETATM   28  C5  UNL     1      -5.893   2.995  12.505  1.00  0.00     0.006 C 
BRANCH  28  29
HETATM   29  C6  UNL     1      -5.344   2.208  11.335  1.00  0.00     0.068 C 
HETATM   30  C7  UNL     1      -6.171   0.943  11.086  1.00  0.00     0.050 C 
HETATM   31  C8  UNL     1      -3.877   1.841  11.580  1.00  0.00     0.050 C 
BRANCH  29  32
HETATM   32  O1  UNL     1      -5.394   3.009  10.152  1.00  0.00    -0.387 OA
HETATM   33  H15 UNL     1      -6.340   3.119   9.929  1.00  0.00     0.211 HD
ENDBRANCH  29  32
ENDBRANCH  28  29
ENDBRANCH  26  27
ENDBRANCH  24  26
ENDBRANCH   1  24
TORSDOF 5
ENDMDL
MODEL 5
REMARK minimizedAffinity -8.51695824
REMARK  5 active torsions:
REMARK  status: ('A' for Active; 'I' for Inactive)
REMARK    1  A    between atoms: C2_2  and  C3_3 
REMARK    2  A    between atoms: C2_2  and  C9_10 
REMARK    3  A    between atoms: C3_3  and  C4_4 
REMARK    4  A    between atoms: C5_5  and  C6_6 
REMARK    5  A    between atoms: C6_6  and  O1_9 
ROOT
HETATM    1  C9  UNL     1      -5.415   5.954  14.454  1.00  0.00    -0.002 C 
HETATM    2  C10 UNL     1      -5.212   4.967  13.266  1.00  0.00     0.006 C 
HETATM    3  C11 UNL     1      -3.833   5.279  12.651  1.00  0.00     0.011 C 
HETATM    4  C12 UNL     1      -3.108   6.126  13.718  1.00  0.00    -0.032 C 
HETATM    5  C13 UNL     1      -2.542   5.108  14.766  1.00  0.00     0.016 C 
HETATM    6  C14 UNL     1      -1.953   7.032  13.184  1.00  0.00     0.003 C 
HETATM    7  C15 UNL     1      -0.751   6.207  12.656  1.00  0.00     0.007 C 
HETATM    8  C16 UNL     1       0.376   7.114  12.168  1.00  0.00     0.011 C 
HETATM    9  C17 UNL     1       0.984   8.017  13.295  1.00  0.00    -0.030 C 
HETATM   10  C18 UNL     1       1.233   9.410  12.662  1.00  0.00     0.016 C 
HETATM   11  C19 UNL     1       0.019   8.042  14.535  1.00  0.00     0.003 C 
HETATM   12  C20 UNL     1       0.528   8.948  15.678  1.00  0.00     0.013 C 
HETATM   13  C21 UNL     1       2.042   9.056  15.791  1.00  0.00     0.079 C 
HETATM   14  C22 UNL     1       2.796   7.918  15.149  1.00  0.00     0.131 C 
HETATM   15  O2  UNL     1       3.807   7.465  15.703  1.00  0.00    -0.298 OA
HETATM   16  C23 UNL     1       2.342   7.387  13.792  1.00  0.00     0.060 C 
HETATM   17  C24 UNL     1       3.520   7.502  12.819  1.00  0.00     0.018 C 
HETATM   18  C25 UNL     1      -1.527   8.180  14.210  1.00  0.00    -0.035 C 
HETATM   19  C26 UNL     1      -1.829   9.578  13.597  1.00  0.00     0.016 C 
HETATM   20  C27 UNL     1      -2.345   8.126  15.549  1.00  0.00     0.011 C 
HETATM   21  C28 UNL     1      -3.858   7.834  15.461  1.00  0.00     0.011 C 
HETATM   22  C29 UNL     1      -4.303   7.028  14.223  1.00  0.00    -0.032 C 
HETATM   23  C30 UNL     1      -4.812   8.038  13.147  1.00  0.00     0.016 C 
ENDROOT
BRANCH   1  24
HETATM   24  C2  UNL     1      -6.909   6.297  14.734  1.00  0.00    -0.010 C 
HETATM   25  C1  UNL     1      -7.355   6.381  16.201  1.00  0.00     0.010 C 
BRANCH  24  26
HETATM   26  C3  UNL     1      -7.854   5.382  13.918  1.00  0.00     0.031 C 
BRANCH  26  27
HETATM   27  C4  UNL     1      -9.040   6.105  13.337  1.00  0.00    -0.027 C 
HETATM   28  C5  UNL     1      -9.915   6.818  14.063  1.00  0.00     0.006 C 
BRANCH  28  29
HETATM   29  C6  UNL     1     -11.131   7.546  13.532  1.00  0.00     0.068 C 
HETATM   30  C7  UNL     1     -11.141   9.007  13.991  1.00  0.00     0.050 C 
HETATM   31  C8  UNL     1     -12.414   6.841  13.980  1.00  0.00     0.050 C 
BRANCH  29  32
HETATM   32  O1  UNL     1     -11.110   7.532  12.103  1.00  0.00    -0.387 OA
HETATM   33  H15 UNL     1     -10.364   8.102  11.828  1.00  0.00     0.211 HD
ENDBRANCH  29  32
ENDBRANCH  28  29
ENDBRANCH  26  27
ENDBRANCH  24  26
ENDBRANCH   1  24
TORSDOF 5
ENDMDL
MODEL 6
REMARK minimizedAffinity -8.50681114
REMARK  5 active torsions:
REMARK  status: ('A' for Active; 'I' for Inactive)
REMARK    1  A    between atoms: C2_2  and  C3_3 
REMARK    2  A    between atoms: C2_2  and  C9_10 
REMARK    3  A    between atoms: C3_3  and  C4_4 
REMARK    4  A    between atoms: C5_5  and  C6_6 
REMARK    5  A    between atoms: C6_6  and  O1_9 
ROOT
HETATM    1  C9  UNL     1       0.377  10.275  16.900  1.00  0.00    -0.002 C 
HETATM    2  C10 UNL     1       1.762   9.718  17.347  1.00  0.00     0.006 C 
HETATM    3  C11 UNL     1       2.252   8.777  16.230  1.00  0.00     0.011 C 
HETATM    4  C12 UNL     1       1.371   9.121  15.010  1.00  0.00    -0.032 C 
HETATM    5  C13 UNL     1       2.003  10.403  14.369  1.00  0.00     0.016 C 
HETATM    6  C14 UNL     1       1.249   7.996  13.933  1.00  0.00     0.003 C 
HETATM    7  C15 UNL     1       2.592   7.725  13.207  1.00  0.00     0.007 C 
HETATM    8  C16 UNL     1       2.440   6.645  12.139  1.00  0.00     0.011 C 
HETATM    9  C17 UNL     1       1.446   7.034  10.992  1.00  0.00    -0.030 C 
HETATM   10  C18 UNL     1       0.626   5.760  10.663  1.00  0.00     0.016 C 
HETATM   11  C19 UNL     1       0.569   8.259  11.442  1.00  0.00     0.003 C 
HETATM   12  C20 UNL     1      -0.470   8.680  10.380  1.00  0.00     0.013 C 
HETATM   13  C21 UNL     1      -0.057   8.429   8.936  1.00  0.00     0.079 C 
HETATM   14  C22 UNL     1       1.433   8.304   8.730  1.00  0.00     0.131 C 
HETATM   15  O2  UNL     1       1.954   8.801   7.723  1.00  0.00    -0.298 OA
HETATM   16  C23 UNL     1       2.265   7.504   9.730  1.00  0.00     0.060 C 
HETATM   17  C24 UNL     1       2.993   6.395   8.962  1.00  0.00     0.018 C 
HETATM   18  C25 UNL     1       0.024   8.214  12.930  1.00  0.00    -0.035 C 
HETATM   19  C26 UNL     1      -1.008   7.061  13.095  1.00  0.00     0.016 C 
HETATM   20  C27 UNL     1      -0.773   9.533  13.230  1.00  0.00     0.011 C 
HETATM   21  C28 UNL     1      -1.042   9.897  14.706  1.00  0.00     0.011 C 
HETATM   22  C29 UNL     1      -0.025   9.333  15.720  1.00  0.00    -0.032 C 
HETATM   23  C30 UNL     1      -0.618   8.020  16.320  1.00  0.00     0.016 C 
ENDROOT
BRANCH   1  24
HETATM   24  C2  UNL     1      -0.568  10.632  18.088  1.00  0.00    -0.010 C 
HETATM   25  C1  UNL     1      -1.970  11.156  17.746  1.00  0.00     0.010 C 
BRANCH  24  26
HETATM   26  C3  UNL     1       0.140  11.562  19.103  1.00  0.00     0.031 C 
BRANCH  26  27
HETATM   27  C4  UNL     1       0.822  10.822  20.223  1.00  0.00    -0.027 C 
HETATM   28  C5  UNL     1       2.122  10.955  20.529  1.00  0.00     0.006 C 
BRANCH  28  29
HETATM   29  C6  UNL     1       2.859  10.222  21.629  1.00  0.00     0.068 C 
HETATM   30  C7  UNL     1       2.071   8.992  22.093  1.00  0.00     0.050 C 
HETATM   31  C8  UNL     1       3.124  11.158  22.812  1.00  0.00     0.050 C 
BRANCH  29  32
HETATM   32  O1  UNL     1       4.126   9.776  21.141  1.00  0.00    -0.387 OA
HETATM   33  H15 UNL     1       3.943   9.077  20.483  1.00  0.00     0.211 HD
ENDBRANCH  29  32
ENDBRANCH  28  29
ENDBRANCH  26  27
ENDBRANCH  24  26
ENDBRANCH   1  24
TORSDOF 5
ENDMDL
MODEL 7
REMARK minimizedAffinity -8.50412655
REMARK  5 active torsions:
REMARK  status: ('A' for Active; 'I' for Inactive)
REMARK    1  A    between atoms: C2_2  and  C3_3 
REMARK    2  A    between atoms: C2_2  and  C9_10 
REMARK    3  A    between atoms: C3_3  and  C4_4 
REMARK    4  A    between atoms: C5_5  and  C6_6 
REMARK    5  A    between atoms: C6_6  and  O1_9 
ROOT
HETATM    1  C9  UNL     1      -2.708   7.921  14.819  1.00  0.00    -0.002 C 
HETATM    2  C10 UNL     1      -1.922   8.860  15.782  1.00  0.00     0.006 C 
HETATM    3  C11 UNL     1      -0.466   8.906  15.278  1.00  0.00     0.011 C 
HETATM    4  C12 UNL     1      -0.530   8.350  13.839  1.00  0.00    -0.032 C 
HETATM    5  C13 UNL     1      -1.004   9.539  12.937  1.00  0.00     0.016 C 
HETATM    6  C14 UNL     1       0.811   7.769  13.285  1.00  0.00     0.003 C 
HETATM    7  C15 UNL     1       1.892   8.863  13.087  1.00  0.00     0.007 C 
HETATM    8  C16 UNL     1       3.180   8.276  12.517  1.00  0.00     0.011 C 
HETATM    9  C17 UNL     1       3.003   7.637  11.097  1.00  0.00    -0.030 C 
HETATM   10  C18 UNL     1       3.842   6.333  11.088  1.00  0.00     0.016 C 
HETATM   11  C19 UNL     1       1.475   7.415  10.802  1.00  0.00     0.003 C 
HETATM   12  C20 UNL     1       1.215   6.746   9.433  1.00  0.00     0.013 C 
HETATM   13  C21 UNL     1       2.241   7.065   8.354  1.00  0.00     0.079 C 
HETATM   14  C22 UNL     1       3.025   8.331   8.597  1.00  0.00     0.131 C 
HETATM   15  O2  UNL     1       3.298   9.073   7.645  1.00  0.00    -0.298 OA
HETATM   16  C23 UNL     1       3.532   8.642  10.004  1.00  0.00     0.060 C 
HETATM   17  C24 UNL     1       5.055   8.802   9.934  1.00  0.00     0.018 C 
HETATM   18  C25 UNL     1       0.612   6.840  12.001  1.00  0.00    -0.035 C 
HETATM   19  C26 UNL     1       1.044   5.381  12.330  1.00  0.00     0.016 C 
HETATM   20  C27 UNL     1      -0.891   6.739  11.557  1.00  0.00     0.011 C 
HETATM   21  C28 UNL     1      -1.963   6.599  12.658  1.00  0.00     0.011 C 
HETATM   22  C29 UNL     1      -1.577   7.183  14.033  1.00  0.00    -0.032 C 
HETATM   23  C30 UNL     1      -1.043   6.016  14.921  1.00  0.00     0.016 C 
ENDROOT
BRANCH   1  24
HETATM   24  C2  UNL     1      -3.911   7.196  15.496  1.00  0.00    -0.010 C 
HETATM   25  C1  UNL     1      -3.885   5.661  15.531  1.00  0.00     0.010 C 
BRANCH  24  26
HETATM   26  C3  UNL     1      -5.260   7.716  14.940  1.00  0.00     0.031 C 
BRANCH  26  27
HETATM   27  C4  UNL     1      -6.263   6.625  14.677  1.00  0.00    -0.027 C 
HETATM   28  C5  UNL     1      -6.318   5.913  13.540  1.00  0.00     0.006 C 
BRANCH  28  29
HETATM   29  C6  UNL     1      -7.317   4.822  13.219  1.00  0.00     0.068 C 
HETATM   30  C7  UNL     1      -6.735   3.823  12.214  1.00  0.00     0.050 C 
HETATM   31  C8  UNL     1      -8.613   5.428  12.674  1.00  0.00     0.050 C 
BRANCH  29  32
HETATM   32  O1  UNL     1      -7.646   4.108  14.413  1.00  0.00    -0.387 OA
HETATM   33  H15 UNL     1      -6.843   3.614  14.673  1.00  0.00     0.211 HD
ENDBRANCH  29  32
ENDBRANCH  28  29
ENDBRANCH  26  27
ENDBRANCH  24  26
ENDBRANCH   1  24
TORSDOF 5
ENDMDL
MODEL 8
REMARK minimizedAffinity -8.40238857
REMARK  5 active torsions:
REMARK  status: ('A' for Active; 'I' for Inactive)
REMARK    1  A    between atoms: C2_2  and  C3_3 
REMARK    2  A    between atoms: C2_2  and  C9_10 
REMARK    3  A    between atoms: C3_3  and  C4_4 
REMARK    4  A    between atoms: C5_5  and  C6_6 
REMARK    5  A    between atoms: C6_6  and  O1_9 
ROOT
HETATM    1  C9  UNL     1      -3.157   5.772  13.076  1.00  0.00    -0.002 C 
HETATM    2  C10 UNL     1      -4.343   5.531  14.056  1.00  0.00     0.006 C 
HETATM    3  C11 UNL     1      -4.164   6.512  15.232  1.00  0.00     0.011 C 
HETATM    4  C12 UNL     1      -3.148   7.556  14.721  1.00  0.00    -0.032 C 
HETATM    5  C13 UNL     1      -3.968   8.567  13.850  1.00  0.00     0.016 C 
HETATM    6  C14 UNL     1      -2.366   8.329  15.832  1.00  0.00     0.003 C 
HETATM    7  C15 UNL     1      -3.287   9.258  16.665  1.00  0.00     0.007 C 
HETATM    8  C16 UNL     1      -2.496  10.024  17.722  1.00  0.00     0.011 C 
HETATM    9  C17 UNL     1      -1.413  10.983  17.120  1.00  0.00    -0.030 C 
HETATM   10  C18 UNL     1      -0.159  10.860  18.023  1.00  0.00     0.016 C 
HETATM   11  C19 UNL     1      -1.155  10.614  15.614  1.00  0.00     0.003 C 
HETATM   12  C20 UNL     1      -0.065  11.489  14.956  1.00  0.00     0.013 C 
HETATM   13  C21 UNL     1       0.043  12.906  15.504  1.00  0.00     0.079 C 
HETATM   14  C22 UNL     1      -1.201  13.399  16.199  1.00  0.00     0.131 C 
HETATM   15  O2  UNL     1      -1.559  14.575  16.049  1.00  0.00    -0.298 OA
HETATM   16  C23 UNL     1      -1.961  12.461  17.135  1.00  0.00     0.060 C 
HETATM   17  C24 UNL     1      -2.036  13.126  18.514  1.00  0.00     0.018 C 
HETATM   18  C25 UNL     1      -1.058   9.066  15.285  1.00  0.00    -0.035 C 
HETATM   19  C26 UNL     1       0.211   8.450  15.941  1.00  0.00     0.016 C 
HETATM   20  C27 UNL     1      -0.861   8.876  13.739  1.00  0.00     0.011 C 
HETATM   21  C28 UNL     1      -1.147   7.483  13.139  1.00  0.00     0.011 C 
HETATM   22  C29 UNL     1      -2.155   6.620  13.925  1.00  0.00    -0.032 C 
HETATM   23  C30 UNL     1      -1.349   5.651  14.844  1.00  0.00     0.016 C 
ENDROOT
BRANCH   1  24
HETATM   24  C2  UNL     1      -2.751   4.507  12.261  1.00  0.00    -0.010 C 
HETATM   25  C1  UNL     1      -1.520   4.615  11.350  1.00  0.00     0.010 C 
BRANCH  24  26
HETATM   26  C3  UNL     1      -3.963   3.927  11.490  1.00  0.00     0.031 C 
BRANCH  26  27
HETATM   27  C4  UNL     1      -5.277   4.133  12.194  1.00  0.00    -0.027 C 
HETATM   28  C5  UNL     1      -6.273   3.232  12.205  1.00  0.00     0.006 C 
BRANCH  28  29
HETATM   29  C6  UNL     1      -7.617   3.398  12.879  1.00  0.00     0.068 C 
HETATM   30  C7  UNL     1      -8.348   4.637  12.352  1.00  0.00     0.050 C 
HETATM   31  C8  UNL     1      -7.446   3.491  14.399  1.00  0.00     0.050 C 
BRANCH  29  32
HETATM   32  O1  UNL     1      -8.432   2.255  12.609  1.00  0.00    -0.387 OA
HETATM   33  H15 UNL     1      -8.649   2.286  11.656  1.00  0.00     0.211 HD
ENDBRANCH  29  32
ENDBRANCH  28  29
ENDBRANCH  26  27
ENDBRANCH  24  26
ENDBRANCH   1  24
TORSDOF 5
ENDMDL
MODEL 9
REMARK minimizedAffinity -8.38971138
REMARK  5 active torsions:
REMARK  status: ('A' for Active; 'I' for Inactive)
REMARK    1  A    between atoms: C2_2  and  C3_3 
REMARK    2  A    between atoms: C2_2  and  C9_10 
REMARK    3  A    between atoms: C3_3  and  C4_4 
REMARK    4  A    between atoms: C5_5  and  C6_6 
REMARK    5  A    between atoms: C6_6  and  O1_9 
ROOT
HETATM    1  C9  UNL     1      -2.223   6.270  13.412  1.00  0.00    -0.002 C 
HETATM    2  C10 UNL     1      -2.127   5.406  12.120  1.00  0.00     0.006 C 
HETATM    3  C11 UNL     1      -0.742   5.676  11.498  1.00  0.00     0.011 C 
HETATM    4  C12 UNL     1       0.072   6.344  12.627  1.00  0.00    -0.032 C 
HETATM    5  C13 UNL     1       0.580   5.178  13.542  1.00  0.00     0.016 C 
HETATM    6  C14 UNL     1       1.283   7.212  12.156  1.00  0.00     0.003 C 
HETATM    7  C15 UNL     1       2.403   6.360  11.505  1.00  0.00     0.007 C 
HETATM    8  C16 UNL     1       3.587   7.225  11.081  1.00  0.00     0.011 C 
HETATM    9  C17 UNL     1       4.291   7.952  12.277  1.00  0.00    -0.030 C 
HETATM   10  C18 UNL     1       4.635   9.382  11.789  1.00  0.00     0.016 C 
HETATM   11  C19 UNL     1       3.360   7.915  13.543  1.00  0.00     0.003 C 
HETATM   12  C20 UNL     1       3.965   8.650  14.760  1.00  0.00     0.013 C 
HETATM   13  C21 UNL     1       5.486   8.630  14.835  1.00  0.00     0.079 C 
HETATM   14  C22 UNL     1       6.131   7.513  14.053  1.00  0.00     0.131 C 
HETATM   15  O2  UNL     1       7.116   6.927  14.522  1.00  0.00    -0.298 OA
HETATM   16  C23 UNL     1       5.605   7.169  12.661  1.00  0.00     0.060 C 
HETATM   17  C24 UNL     1       6.766   7.299  11.669  1.00  0.00     0.018 C 
HETATM   18  C25 UNL     1       1.823   8.206  13.284  1.00  0.00    -0.035 C 
HETATM   19  C26 UNL     1       1.618   9.681  12.833  1.00  0.00     0.016 C 
HETATM   20  C27 UNL     1       1.034   8.070  14.635  1.00  0.00     0.011 C 
HETATM   21  C28 UNL     1      -0.499   7.905  14.564  1.00  0.00     0.011 C 
HETATM   22  C29 UNL     1      -1.035   7.275  13.262  1.00  0.00    -0.032 C 
HETATM   23  C30 UNL     1      -1.487   8.431  12.316  1.00  0.00     0.016 C 
ENDROOT
BRANCH   1  24
HETATM   24  C2  UNL     1      -3.679   6.694  13.775  1.00  0.00    -0.010 C 
HETATM   25  C1  UNL     1      -3.868   7.613  14.991  1.00  0.00     0.010 C 
BRANCH  24  26
HETATM   26  C3  UNL     1      -4.614   5.463  13.858  1.00  0.00     0.031 C 
BRANCH  26  27
HETATM   27  C4  UNL     1      -4.356   4.438  12.787  1.00  0.00    -0.027 C 
HETATM   28  C5  UNL     1      -5.224   3.473  12.445  1.00  0.00     0.006 C 
BRANCH  28  29
HETATM   29  C6  UNL     1      -5.005   2.409  11.390  1.00  0.00     0.068 C 
HETATM   30  C7  UNL     1      -6.144   1.385  11.399  1.00  0.00     0.050 C 
HETATM   31  C8  UNL     1      -3.661   1.709  11.609  1.00  0.00     0.050 C 
BRANCH  29  32
HETATM   32  O1  UNL     1      -4.967   3.018  10.098  1.00  0.00    -0.387 OA
HETATM   33  H15 UNL     1      -5.872   3.339   9.913  1.00  0.00     0.211 HD
ENDBRANCH  29  32
ENDBRANCH  28  29
ENDBRANCH  26  27
ENDBRANCH  24  26
ENDBRANCH   1  24
TORSDOF 5
ENDMDL
