MODEL 1
REMARK minimizedAffinity -6.17668962
REMARK CNNscore 0.659012675
REMARK CNNaffinity 6.62338305
REMARK  13 active torsions:
REMARK  status: ('A' for Active; 'I' for Inactive)
REMARK    1  A    between atoms: C2_2  and  C3_3 
REMARK    2  A    between atoms: C2_2  and  C14_14 
REMARK    3  A    between atoms: C4_4  and  C5_5 
REMARK    4  A    between atoms: C6_6  and  C8_8 
REMARK    5  A    between atoms: C8_8  and  C9_9 
REMARK    6  A    between atoms: C9_9  and  C10_10 
REMARK    7  A    between atoms: C18_18  and  C19_19 
REMARK    8  A    between atoms: C19_19  and  C20_20 
REMARK    9  A    between atoms: C20_20  and  C21_21 
REMARK   10  A    between atoms: C21_21  and  O1_22 
REMARK   11  A    between atoms: C23_24  and  C25_26 
REMARK   12  A    between atoms: C28_30  and  O3_32 
REMARK   13  A    between atoms: C30_33  and  O4_34 
ROOT
HETATM    1  C14 UNL     1       0.280  11.155  18.773  1.00  0.00     0.047 C 
HETATM    2  C15 UNL     1       1.127  10.397  17.738  1.00  0.00     0.013 C 
HETATM    3  C16 UNL     1       2.496  10.289  18.385  1.00  0.00     0.017 C 
HETATM    4  C17 UNL     1       2.715  11.622  19.178  1.00  0.00     0.024 C 
HETATM    5  C18 UNL     1       3.284  11.227  20.623  1.00  0.00     0.029 C 
HETATM    6  C22 UNL     1       4.207  12.312  21.205  1.00  0.00    -0.066 C 
HETATM    7  C23 UNL     1       4.014  13.203  22.205  1.00  0.00    -0.021 C 
HETATM    8  C24 UNL     1       5.083  14.066  22.826  1.00  0.00     0.052 C 
HETATM    9  C26 UNL     1       5.501  12.363  20.390  1.00  0.00     0.038 C 
HETATM   10  C27 UNL     1       5.241  12.167  18.881  1.00  0.00     0.042 C 
HETATM   11  C28 UNL     1       3.804  12.555  18.453  1.00  0.00     0.065 C 
HETATM   12  C29 UNL     1       3.741  12.565  16.914  1.00  0.00     0.047 C 
HETATM   13  C30 UNL     1       1.274  12.265  19.212  1.00  0.00     0.138 C 
ENDROOT
BRANCH   5  14
HETATM   14  C19 UNL     1       2.493  10.284  21.584  1.00  0.00     0.012 C 
BRANCH  14  15
HETATM   15  C20 UNL     1       3.093   9.723  22.868  1.00  0.00     0.027 C 
BRANCH  15  16
HETATM   16  C21 UNL     1       2.419   8.419  23.297  1.00  0.00     0.164 C 
BRANCH  16  17
HETATM   17  O1  UNL     1       1.793   7.783  22.192  1.00  0.00    -0.401 OA
HETATM   18  H32 UNL     1       2.495   7.517  21.570  1.00  0.00     0.209 HD
ENDBRANCH  16  17
ENDBRANCH  15  16
ENDBRANCH  14  15
ENDBRANCH   5  14
BRANCH  11  19
HETATM   19  O3  UNL     1       3.588  13.924  18.867  1.00  0.00    -0.389 OA
HETATM   20  H44 UNL     1       4.294  14.468  18.470  1.00  0.00     0.210 HD
ENDBRANCH  11  19
BRANCH  13  21
HETATM   21  O4  UNL     1       1.146  13.374  18.321  1.00  0.00    -0.394 OA
HETATM   22  H46 UNL     1       1.862  13.996  18.568  1.00  0.00     0.210 HD
ENDBRANCH  13  21
BRANCH   1  23
HETATM   23  C2  UNL     1      -1.108  11.595  18.283  1.00  0.00    -0.061 C 
HETATM   24  C1  UNL     1      -1.837  12.535  18.912  1.00  0.00     0.019 C 
BRANCH  23  25
HETATM   25  C3  UNL     1      -1.697  11.027  17.067  1.00  0.00     0.007 C 
HETATM   26  C4  UNL     1      -2.951  10.593  16.869  1.00  0.00     0.001 C 
BRANCH  26  27
HETATM   27  C5  UNL     1      -3.377  10.020  15.608  1.00  0.00     0.002 C 
HETATM   28  C6  UNL     1      -3.214   8.749  15.184  1.00  0.00    -0.084 C 
HETATM   29  C7  UNL     1      -2.577   7.631  15.961  1.00  0.00     0.043 C 
BRANCH  28  30
HETATM   30  C8  UNL     1      -3.709   8.360  13.801  1.00  0.00     0.037 C 
BRANCH  30  31
HETATM   31  C9  UNL     1      -5.239   8.421  13.705  1.00  0.00     0.031 C 
BRANCH  31  32
HETATM   32  C10 UNL     1      -5.892   7.721  14.869  1.00  0.00    -0.024 C 
HETATM   33  C11 UNL     1      -6.231   6.422  14.970  1.00  0.00    -0.091 C 
HETATM   34  C12 UNL     1      -6.897   5.899  16.218  1.00  0.00     0.042 C 
HETATM   35  C13 UNL     1      -5.998   5.378  13.910  1.00  0.00     0.042 C 
ENDBRANCH  31  32
ENDBRANCH  30  31
ENDBRANCH  28  30
ENDBRANCH  26  27
ENDBRANCH  23  25
ENDBRANCH   1  23
BRANCH   7  36
HETATM   36  C25 UNL     1       2.667  13.504  22.753  1.00  0.00     0.265 C 
HETATM   37  O2  UNL     1       2.384  13.396  23.940  1.00  0.00    -0.302 OA
ENDBRANCH   7  36
TORSDOF 13
ENDMDL
MODEL 2
REMARK minimizedAffinity -7.39369678
REMARK CNNscore 0.416556031
REMARK CNNaffinity 6.6415329
REMARK  13 active torsions:
REMARK  status: ('A' for Active; 'I' for Inactive)
REMARK    1  A    between atoms: C2_2  and  C3_3 
REMARK    2  A    between atoms: C2_2  and  C14_14 
REMARK    3  A    between atoms: C4_4  and  C5_5 
REMARK    4  A    between atoms: C6_6  and  C8_8 
REMARK    5  A    between atoms: C8_8  and  C9_9 
REMARK    6  A    between atoms: C9_9  and  C10_10 
REMARK    7  A    between atoms: C18_18  and  C19_19 
REMARK    8  A    between atoms: C19_19  and  C20_20 
REMARK    9  A    between atoms: C20_20  and  C21_21 
REMARK   10  A    between atoms: C21_21  and  O1_22 
REMARK   11  A    between atoms: C23_24  and  C25_26 
REMARK   12  A    between atoms: C28_30  and  O3_32 
REMARK   13  A    between atoms: C30_33  and  O4_34 
ROOT
HETATM    1  C14 UNL     1      -3.527   6.840  13.393  1.00  0.00     0.047 C 
HETATM    2  C15 UNL     1      -3.199   6.698  14.888  1.00  0.00     0.013 C 
HETATM    3  C16 UNL     1      -4.470   6.133  15.496  1.00  0.00     0.017 C 
HETATM    4  C17 UNL     1      -5.661   6.791  14.718  1.00  0.00     0.024 C 
HETATM    5  C18 UNL     1      -6.696   5.622  14.357  1.00  0.00     0.029 C 
HETATM    6  C22 UNL     1      -8.149   6.126  14.293  1.00  0.00    -0.066 C 
HETATM    7  C23 UNL     1      -8.972   6.340  13.241  1.00  0.00    -0.021 C 
HETATM    8  C24 UNL     1     -10.449   6.624  13.330  1.00  0.00     0.052 C 
HETATM    9  C26 UNL     1      -8.615   6.498  15.702  1.00  0.00     0.038 C 
HETATM   10  C27 UNL     1      -7.498   7.181  16.519  1.00  0.00     0.042 C 
HETATM   11  C28 UNL     1      -6.426   7.866  15.635  1.00  0.00     0.065 C 
HETATM   12  C29 UNL     1      -5.521   8.720  16.543  1.00  0.00     0.047 C 
HETATM   13  C30 UNL     1      -4.960   7.436  13.461  1.00  0.00     0.138 C 
ENDROOT
BRANCH   5  14
HETATM   14  C19 UNL     1      -6.266   4.382  13.509  1.00  0.00     0.012 C 
BRANCH  14  15
HETATM   15  C20 UNL     1      -7.260   3.336  13.017  1.00  0.00     0.027 C 
BRANCH  15  16
HETATM   16  C21 UNL     1      -6.574   2.210  12.243  1.00  0.00     0.164 C 
BRANCH  16  17
HETATM   17  O1  UNL     1      -5.973   2.703  11.054  1.00  0.00    -0.401 OA
HETATM   18  H32 UNL     1      -5.256   3.309  11.316  1.00  0.00     0.209 HD
ENDBRANCH  16  17
ENDBRANCH  15  16
ENDBRANCH  14  15
ENDBRANCH   5  14
BRANCH  11  19
HETATM   19  O3  UNL     1      -7.115   8.800  14.772  1.00  0.00    -0.389 OA
HETATM   20  H44 UNL     1      -7.626   9.407  15.341  1.00  0.00     0.210 HD
ENDBRANCH  11  19
BRANCH  13  21
HETATM   21  O4  UNL     1      -4.861   8.858  13.556  1.00  0.00    -0.394 OA
HETATM   22  H46 UNL     1      -5.775   9.178  13.706  1.00  0.00     0.210 HD
ENDBRANCH  13  21
BRANCH   1  23
HETATM   23  C2  UNL     1      -2.478   7.598  12.566  1.00  0.00    -0.061 C 
HETATM   24  C1  UNL     1      -2.627   8.886  12.206  1.00  0.00     0.019 C 
BRANCH  23  25
HETATM   25  C3  UNL     1      -1.229   6.953  12.152  1.00  0.00     0.007 C 
HETATM   26  C4  UNL     1      -1.000   5.654  11.906  1.00  0.00     0.001 C 
BRANCH  26  27
HETATM   27  C5  UNL     1       0.312   5.160  11.536  1.00  0.00     0.002 C 
HETATM   28  C6  UNL     1       1.196   5.728  10.690  1.00  0.00    -0.084 C 
HETATM   29  C7  UNL     1       1.019   7.035   9.969  1.00  0.00     0.043 C 
BRANCH  28  30
HETATM   30  C8  UNL     1       2.512   5.022  10.410  1.00  0.00     0.037 C 
BRANCH  30  31
HETATM   31  C9  UNL     1       3.352   5.773   9.369  1.00  0.00     0.031 C 
BRANCH  31  32
HETATM   32  C10 UNL     1       3.230   5.145   8.006  1.00  0.00    -0.024 C 
HETATM   33  C11 UNL     1       3.857   4.048   7.540  1.00  0.00    -0.091 C 
HETATM   34  C12 UNL     1       3.621   3.570   6.130  1.00  0.00     0.042 C 
HETATM   35  C13 UNL     1       4.821   3.199   8.326  1.00  0.00     0.042 C 
ENDBRANCH  31  32
ENDBRANCH  30  31
ENDBRANCH  28  30
ENDBRANCH  26  27
ENDBRANCH  23  25
ENDBRANCH   1  23
BRANCH   7  36
HETATM   36  C25 UNL     1      -8.474   6.413  11.843  1.00  0.00     0.265 C 
HETATM   37  O2  UNL     1      -9.041   5.875  10.899  1.00  0.00    -0.302 OA
ENDBRANCH   7  36
TORSDOF 13
ENDMDL
MODEL 3
REMARK minimizedAffinity -6.16470766
REMARK CNNscore 0.343152612
REMARK CNNaffinity 6.2802906
REMARK  13 active torsions:
REMARK  status: ('A' for Active; 'I' for Inactive)
REMARK    1  A    between atoms: C2_2  and  C3_3 
REMARK    2  A    between atoms: C2_2  and  C14_14 
REMARK    3  A    between atoms: C4_4  and  C5_5 
REMARK    4  A    between atoms: C6_6  and  C8_8 
REMARK    5  A    between atoms: C8_8  and  C9_9 
REMARK    6  A    between atoms: C9_9  and  C10_10 
REMARK    7  A    between atoms: C18_18  and  C19_19 
REMARK    8  A    between atoms: C19_19  and  C20_20 
REMARK    9  A    between atoms: C20_20  and  C21_21 
REMARK   10  A    between atoms: C21_21  and  O1_22 
REMARK   11  A    between atoms: C23_24  and  C25_26 
REMARK   12  A    between atoms: C28_30  and  O3_32 
REMARK   13  A    between atoms: C30_33  and  O4_34 
ROOT
HETATM    1  C14 UNL     1     -13.186   8.413  13.968  1.00  0.00     0.047 C 
HETATM    2  C15 UNL     1     -13.253   7.236  12.981  1.00  0.00     0.013 C 
HETATM    3  C16 UNL     1     -14.740   6.986  12.802  1.00  0.00     0.017 C 
HETATM    4  C17 UNL     1     -15.404   7.254  14.195  1.00  0.00     0.024 C 
HETATM    5  C18 UNL     1     -16.706   8.151  13.936  1.00  0.00     0.029 C 
HETATM    6  C22 UNL     1     -17.812   7.891  14.973  1.00  0.00    -0.066 C 
HETATM    7  C23 UNL     1     -18.256   8.640  16.008  1.00  0.00    -0.021 C 
HETATM    8  C24 UNL     1     -19.500   8.367  16.816  1.00  0.00     0.052 C 
HETATM    9  C26 UNL     1     -18.383   6.488  14.759  1.00  0.00     0.038 C 
HETATM   10  C27 UNL     1     -17.285   5.468  14.391  1.00  0.00     0.042 C 
HETATM   11  C28 UNL     1     -15.876   5.881  14.884  1.00  0.00     0.065 C 
HETATM   12  C29 UNL     1     -14.923   4.686  14.692  1.00  0.00     0.047 C 
HETATM   13  C30 UNL     1     -14.267   7.993  15.002  1.00  0.00     0.138 C 
ENDROOT
BRANCH   5  14
HETATM   14  C19 UNL     1     -16.613   9.544  13.233  1.00  0.00     0.012 C 
BRANCH  14  15
HETATM   15  C20 UNL     1     -17.746  10.120  12.392  1.00  0.00     0.027 C 
BRANCH  15  16
HETATM   16  C21 UNL     1     -17.403  10.142  10.902  1.00  0.00     0.164 C 
BRANCH  16  17
HETATM   17  O1  UNL     1     -16.345   9.241  10.611  1.00  0.00    -0.401 OA
HETATM   18  H32 UNL     1     -16.670   8.339  10.786  1.00  0.00     0.209 HD
ENDBRANCH  16  17
ENDBRANCH  15  16
ENDBRANCH  14  15
ENDBRANCH   5  14
BRANCH  11  19
HETATM   19  O3  UNL     1     -15.966   6.090  16.313  1.00  0.00    -0.389 OA
HETATM   20  H44 UNL     1     -16.314   5.269  16.711  1.00  0.00     0.210 HD
ENDBRANCH  11  19
BRANCH  13  21
HETATM   21  O4  UNL     1     -13.659   7.155  15.987  1.00  0.00    -0.394 OA
HETATM   22  H46 UNL     1     -14.394   6.830  16.548  1.00  0.00     0.210 HD
ENDBRANCH  13  21
BRANCH   1  23
HETATM   23  C2  UNL     1     -11.782   8.740  14.498  1.00  0.00    -0.061 C 
HETATM   24  C1  UNL     1     -11.548   9.736  15.373  1.00  0.00     0.019 C 
BRANCH  23  25
HETATM   25  C3  UNL     1     -10.618   7.946  14.098  1.00  0.00     0.007 C 
HETATM   26  C4  UNL     1      -9.918   7.060  14.824  1.00  0.00     0.001 C 
BRANCH  26  27
HETATM   27  C5  UNL     1      -8.758   6.373  14.293  1.00  0.00     0.002 C 
HETATM   28  C6  UNL     1      -7.642   6.008  14.958  1.00  0.00    -0.084 C 
HETATM   29  C7  UNL     1      -7.379   6.209  16.424  1.00  0.00     0.043 C 
BRANCH  28  30
HETATM   30  C8  UNL     1      -6.519   5.322  14.200  1.00  0.00     0.037 C 
BRANCH  30  31
HETATM   31  C9  UNL     1      -6.964   4.881  12.799  1.00  0.00     0.031 C 
BRANCH  31  32
HETATM   32  C10 UNL     1      -6.210   3.659  12.341  1.00  0.00    -0.024 C 
HETATM   33  C11 UNL     1      -4.893   3.547  12.082  1.00  0.00    -0.091 C 
HETATM   34  C12 UNL     1      -4.313   2.236  11.615  1.00  0.00     0.042 C 
HETATM   35  C13 UNL     1      -3.883   4.655  12.221  1.00  0.00     0.042 C 
ENDBRANCH  31  32
ENDBRANCH  30  31
ENDBRANCH  28  30
ENDBRANCH  26  27
ENDBRANCH  23  25
ENDBRANCH   1  23
BRANCH   7  36
HETATM   36  C25 UNL     1     -17.491   9.797  16.540  1.00  0.00     0.265 C 
HETATM   37  O2  UNL     1     -18.019  10.837  16.917  1.00  0.00    -0.302 OA
ENDBRANCH   7  36
TORSDOF 13
ENDMDL
MODEL 4
REMARK minimizedAffinity -6.66970015
REMARK CNNscore 0.316739023
REMARK CNNaffinity 6.30076027
REMARK  13 active torsions:
REMARK  status: ('A' for Active; 'I' for Inactive)
REMARK    1  A    between atoms: C2_2  and  C3_3 
REMARK    2  A    between atoms: C2_2  and  C14_14 
REMARK    3  A    between atoms: C4_4  and  C5_5 
REMARK    4  A    between atoms: C6_6  and  C8_8 
REMARK    5  A    between atoms: C8_8  and  C9_9 
REMARK    6  A    between atoms: C9_9  and  C10_10 
REMARK    7  A    between atoms: C18_18  and  C19_19 
REMARK    8  A    between atoms: C19_19  and  C20_20 
REMARK    9  A    between atoms: C20_20  and  C21_21 
REMARK   10  A    between atoms: C21_21  and  O1_22 
REMARK   11  A    between atoms: C23_24  and  C25_26 
REMARK   12  A    between atoms: C28_30  and  O3_32 
REMARK   13  A    between atoms: C30_33  and  O4_34 
ROOT
HETATM    1  C14 UNL     1      -0.440   7.994  14.430  1.00  0.00     0.047 C 
HETATM    2  C15 UNL     1       0.809   7.503  15.178  1.00  0.00     0.013 C 
HETATM    3  C16 UNL     1       1.016   8.534  16.273  1.00  0.00     0.017 C 
HETATM    4  C17 UNL     1       0.609   9.917  15.661  1.00  0.00     0.024 C 
HETATM    5  C18 UNL     1      -0.314  10.661  16.738  1.00  0.00     0.029 C 
HETATM    6  C22 UNL     1      -0.183  12.192  16.664  1.00  0.00    -0.066 C 
HETATM    7  C23 UNL     1      -1.031  13.137  16.197  1.00  0.00    -0.021 C 
HETATM    8  C24 UNL     1      -0.874  14.624  16.386  1.00  0.00     0.052 C 
HETATM    9  C26 UNL     1       1.210  12.602  17.147  1.00  0.00     0.038 C 
HETATM   10  C27 UNL     1       2.299  11.617  16.673  1.00  0.00     0.042 C 
HETATM   11  C28 UNL     1       1.901  10.834  15.396  1.00  0.00     0.065 C 
HETATM   12  C29 UNL     1       3.144  10.087  14.877  1.00  0.00     0.047 C 
HETATM   13  C30 UNL     1      -0.149   9.518  14.336  1.00  0.00     0.138 C 
ENDROOT
BRANCH   5  14
HETATM   14  C19 UNL     1      -1.640  10.020  17.261  1.00  0.00     0.012 C 
BRANCH  14  15
HETATM   15  C20 UNL     1      -2.982  10.741  17.206  1.00  0.00     0.027 C 
BRANCH  15  16
HETATM   16  C21 UNL     1      -3.627  10.863  18.587  1.00  0.00     0.164 C 
BRANCH  16  17
HETATM   17  O1  UNL     1      -3.390   9.698  19.364  1.00  0.00    -0.401 OA
HETATM   18  H32 UNL     1      -2.431   9.647  19.532  1.00  0.00     0.209 HD
ENDBRANCH  16  17
ENDBRANCH  15  16
ENDBRANCH  14  15
ENDBRANCH   5  14
BRANCH  11  19
HETATM   19  O3  UNL     1       1.573  11.810  14.380  1.00  0.00    -0.389 OA
HETATM   20  H44 UNL     1       2.344  12.400  14.275  1.00  0.00     0.210 HD
ENDBRANCH  11  19
BRANCH  13  21
HETATM   21  O4  UNL     1       0.629   9.764  13.162  1.00  0.00    -0.394 OA
HETATM   22  H46 UNL     1       0.878  10.710  13.204  1.00  0.00     0.210 HD
ENDBRANCH  13  21
BRANCH   1  23
HETATM   23  C2  UNL     1      -0.754   7.247  13.125  1.00  0.00    -0.061 C 
HETATM   24  C1  UNL     1      -1.871   6.515  12.956  1.00  0.00     0.019 C 
BRANCH  23  25
HETATM   25  C3  UNL     1       0.145   7.326  11.971  1.00  0.00     0.007 C 
HETATM   26  C4  UNL     1       0.159   6.565  10.867  1.00  0.00     0.001 C 
BRANCH  26  27
HETATM   27  C5  UNL     1       1.143   6.746   9.818  1.00  0.00     0.002 C 
HETATM   28  C6  UNL     1       1.085   7.598   8.774  1.00  0.00    -0.084 C 
HETATM   29  C7  UNL     1      -0.015   8.582   8.493  1.00  0.00     0.043 C 
BRANCH  28  30
HETATM   30  C8  UNL     1       2.217   7.604   7.760  1.00  0.00     0.037 C 
BRANCH  30  31
HETATM   31  C9  UNL     1       2.381   6.239   7.080  1.00  0.00     0.031 C 
BRANCH  31  32
HETATM   32  C10 UNL     1       3.194   5.295   7.927  1.00  0.00    -0.024 C 
HETATM   33  C11 UNL     1       3.769   4.136   7.556  1.00  0.00    -0.091 C 
HETATM   34  C12 UNL     1       4.540   3.309   8.554  1.00  0.00     0.042 C 
HETATM   35  C13 UNL     1       3.723   3.547   6.171  1.00  0.00     0.042 C 
ENDBRANCH  31  32
ENDBRANCH  30  31
ENDBRANCH  28  30
ENDBRANCH  26  27
ENDBRANCH  23  25
ENDBRANCH   1  23
BRANCH   7  36
HETATM   36  C25 UNL     1      -2.197  12.805  15.338  1.00  0.00     0.265 C 
HETATM   37  O2  UNL     1      -2.091  12.325  14.216  1.00  0.00    -0.302 OA
ENDBRANCH   7  36
TORSDOF 13
ENDMDL
MODEL 5
REMARK minimizedAffinity -6.06874275
REMARK CNNscore 0.302091658
REMARK CNNaffinity 6.11771727
REMARK  13 active torsions:
REMARK  status: ('A' for Active; 'I' for Inactive)
REMARK    1  A    between atoms: C2_2  and  C3_3 
REMARK    2  A    between atoms: C2_2  and  C14_14 
REMARK    3  A    between atoms: C4_4  and  C5_5 
REMARK    4  A    between atoms: C6_6  and  C8_8 
REMARK    5  A    between atoms: C8_8  and  C9_9 
REMARK    6  A    between atoms: C9_9  and  C10_10 
REMARK    7  A    between atoms: C18_18  and  C19_19 
REMARK    8  A    between atoms: C19_19  and  C20_20 
REMARK    9  A    between atoms: C20_20  and  C21_21 
REMARK   10  A    between atoms: C21_21  and  O1_22 
REMARK   11  A    between atoms: C23_24  and  C25_26 
REMARK   12  A    between atoms: C28_30  and  O3_32 
REMARK   13  A    between atoms: C30_33  and  O4_34 
ROOT
HETATM    1  C14 UNL     1     -13.716   7.631  13.269  1.00  0.00     0.047 C 
HETATM    2  C15 UNL     1     -13.896   6.267  13.954  1.00  0.00     0.013 C 
HETATM    3  C16 UNL     1     -15.368   6.227  14.323  1.00  0.00     0.017 C 
HETATM    4  C17 UNL     1     -15.761   7.689  14.729  1.00  0.00     0.024 C 
HETATM    5  C18 UNL     1     -17.146   8.028  13.999  1.00  0.00     0.029 C 
HETATM    6  C22 UNL     1     -18.005   9.018  14.806  1.00  0.00    -0.066 C 
HETATM    7  C23 UNL     1     -18.286  10.325  14.601  1.00  0.00    -0.021 C 
HETATM    8  C24 UNL     1     -19.324  11.124  15.347  1.00  0.00     0.052 C 
HETATM    9  C26 UNL     1     -18.510   8.328  16.075  1.00  0.00     0.038 C 
HETATM   10  C27 UNL     1     -17.439   7.407  16.696  1.00  0.00     0.042 C 
HETATM   11  C28 UNL     1     -15.992   7.807  16.314  1.00  0.00     0.065 C 
HETATM   12  C29 UNL     1     -15.016   6.992  17.184  1.00  0.00     0.047 C 
HETATM   13  C30 UNL     1     -14.540   8.547  14.215  1.00  0.00     0.138 C 
ENDROOT
BRANCH   5  14
HETATM   14  C19 UNL     1     -17.289   7.964  12.445  1.00  0.00     0.012 C 
BRANCH  14  15
HETATM   15  C20 UNL     1     -16.805   9.079  11.525  1.00  0.00     0.027 C 
BRANCH  15  16
HETATM   16  C21 UNL     1     -17.867   9.482  10.501  1.00  0.00     0.164 C 
BRANCH  16  17
HETATM   17  O1  UNL     1     -17.788  10.869  10.207  1.00  0.00    -0.401 OA
HETATM   18  H32 UNL     1     -16.933  11.028   9.767  1.00  0.00     0.209 HD
ENDBRANCH  16  17
ENDBRANCH  15  16
ENDBRANCH  14  15
ENDBRANCH   5  14
BRANCH  11  19
HETATM   19  O3  UNL     1     -15.811   9.188  16.705  1.00  0.00    -0.389 OA
HETATM   20  H44 UNL     1     -16.017   9.256  17.657  1.00  0.00     0.210 HD
ENDBRANCH  11  19
BRANCH  13  21
HETATM   21  O4  UNL     1     -13.693   8.989  15.278  1.00  0.00    -0.394 OA
HETATM   22  H46 UNL     1     -14.278   9.468  15.901  1.00  0.00     0.210 HD
ENDBRANCH  13  21
BRANCH   1  23
HETATM   23  C2  UNL     1     -12.261   8.029  12.981  1.00  0.00    -0.061 C 
HETATM   24  C1  UNL     1     -11.919   9.235  12.491  1.00  0.00     0.019 C 
BRANCH  23  25
HETATM   25  C3  UNL     1     -11.154   7.111  13.266  1.00  0.00     0.007 C 
HETATM   26  C4  UNL     1     -10.102   6.804  12.492  1.00  0.00     0.001 C 
BRANCH  26  27
HETATM   27  C5  UNL     1      -9.099   5.842  12.903  1.00  0.00     0.002 C 
HETATM   28  C6  UNL     1      -8.182   5.977  13.883  1.00  0.00    -0.084 C 
HETATM   29  C7  UNL     1      -8.029   7.161  14.797  1.00  0.00     0.043 C 
BRANCH  28  30
HETATM   30  C8  UNL     1      -7.191   4.852  14.130  1.00  0.00     0.037 C 
BRANCH  30  31
HETATM   31  C9  UNL     1      -5.873   5.079  13.378  1.00  0.00     0.031 C 
BRANCH  31  32
HETATM   32  C10 UNL     1      -5.565   3.934  12.449  1.00  0.00    -0.024 C 
HETATM   33  C11 UNL     1      -6.297   2.826  12.228  1.00  0.00    -0.091 C 
HETATM   34  C12 UNL     1      -5.819   1.771  11.263  1.00  0.00     0.042 C 
HETATM   35  C13 UNL     1      -7.619   2.515  12.878  1.00  0.00     0.042 C 
ENDBRANCH  31  32
ENDBRANCH  30  31
ENDBRANCH  28  30
ENDBRANCH  26  27
ENDBRANCH  23  25
ENDBRANCH   1  23
BRANCH   7  36
HETATM   36  C25 UNL     1     -17.512  11.167  13.653  1.00  0.00     0.265 C 
HETATM   37  O2  UNL     1     -18.018  12.048  12.968  1.00  0.00    -0.302 OA
ENDBRANCH   7  36
TORSDOF 13
ENDMDL
MODEL 6
REMARK minimizedAffinity -7.88556528
REMARK CNNscore 0.274507284
REMARK CNNaffinity 6.78791809
REMARK  13 active torsions:
REMARK  status: ('A' for Active; 'I' for Inactive)
REMARK    1  A    between atoms: C2_2  and  C3_3 
REMARK    2  A    between atoms: C2_2  and  C14_14 
REMARK    3  A    between atoms: C4_4  and  C5_5 
REMARK    4  A    between atoms: C6_6  and  C8_8 
REMARK    5  A    between atoms: C8_8  and  C9_9 
REMARK    6  A    between atoms: C9_9  and  C10_10 
REMARK    7  A    between atoms: C18_18  and  C19_19 
REMARK    8  A    between atoms: C19_19  and  C20_20 
REMARK    9  A    between atoms: C20_20  and  C21_21 
REMARK   10  A    between atoms: C21_21  and  O1_22 
REMARK   11  A    between atoms: C23_24  and  C25_26 
REMARK   12  A    between atoms: C28_30  and  O3_32 
REMARK   13  A    between atoms: C30_33  and  O4_34 
ROOT
HETATM    1  C14 UNL     1      -1.814   7.537  13.724  1.00  0.00     0.047 C 
HETATM    2  C15 UNL     1      -1.679   9.013  14.132  1.00  0.00     0.013 C 
HETATM    3  C16 UNL     1      -0.517   9.524  13.299  1.00  0.00     0.017 C 
HETATM    4  C17 UNL     1       0.507   8.343  13.199  1.00  0.00     0.024 C 
HETATM    5  C18 UNL     1       0.967   8.242  11.667  1.00  0.00     0.029 C 
HETATM    6  C22 UNL     1       2.405   7.715  11.521  1.00  0.00    -0.066 C 
HETATM    7  C23 UNL     1       2.877   6.519  11.101  1.00  0.00    -0.021 C 
HETATM    8  C24 UNL     1       4.319   6.206  10.793  1.00  0.00     0.052 C 
HETATM    9  C26 UNL     1       3.383   8.769  12.045  1.00  0.00     0.038 C 
HETATM   10  C27 UNL     1       2.846   9.478  13.306  1.00  0.00     0.042 C 
HETATM   11  C28 UNL     1       1.812   8.632  14.091  1.00  0.00     0.065 C 
HETATM   12  C29 UNL     1       1.546   9.321  15.443  1.00  0.00     0.047 C 
HETATM   13  C30 UNL     1      -0.323   7.099  13.702  1.00  0.00     0.138 C 
ENDROOT
BRANCH   5  14
HETATM   14  C19 UNL     1      -0.066   8.010  10.517  1.00  0.00     0.012 C 
BRANCH  14  15
HETATM   15  C20 UNL     1      -0.013   8.769   9.197  1.00  0.00     0.027 C 
BRANCH  15  16
HETATM   16  C21 UNL     1       0.959   8.130   8.204  1.00  0.00     0.164 C 
BRANCH  16  17
HETATM   17  O1  UNL     1       2.079   8.972   7.975  1.00  0.00    -0.401 OA
HETATM   18  H32 UNL     1       2.573   9.038   8.813  1.00  0.00     0.209 HD
ENDBRANCH  16  17
ENDBRANCH  15  16
ENDBRANCH  14  15
ENDBRANCH   5  14
BRANCH  11  19
HETATM   19  O3  UNL     1       2.444   7.370  14.407  1.00  0.00    -0.389 OA
HETATM   20  H44 UNL     1       3.267   7.564  14.893  1.00  0.00     0.210 HD
ENDBRANCH  11  19
BRANCH  13  21
HETATM   21  O4  UNL     1       0.052   6.683  15.016  1.00  0.00    -0.394 OA
HETATM   22  H46 UNL     1       1.018   6.523  14.978  1.00  0.00     0.210 HD
ENDBRANCH  13  21
BRANCH   1  23
HETATM   23  C2  UNL     1      -2.786   6.711  14.579  1.00  0.00    -0.061 C 
HETATM   24  C1  UNL     1      -2.822   6.789  15.922  1.00  0.00     0.019 C 
BRANCH  23  25
HETATM   25  C3  UNL     1      -3.762   5.810  13.959  1.00  0.00     0.007 C 
HETATM   26  C4  UNL     1      -5.074   6.006  13.760  1.00  0.00     0.001 C 
BRANCH  26  27
HETATM   27  C5  UNL     1      -5.922   4.996  13.159  1.00  0.00     0.002 C 
HETATM   28  C6  UNL     1      -6.952   4.340  13.732  1.00  0.00    -0.084 C 
HETATM   29  C7  UNL     1      -7.469   4.547  15.127  1.00  0.00     0.043 C 
BRANCH  28  30
HETATM   30  C8  UNL     1      -7.695   3.284  12.930  1.00  0.00     0.037 C 
BRANCH  30  31
HETATM   31  C9  UNL     1      -6.735   2.263  12.304  1.00  0.00     0.031 C 
BRANCH  31  32
HETATM   32  C10 UNL     1      -5.927   2.877  11.192  1.00  0.00    -0.024 C 
HETATM   33  C11 UNL     1      -4.594   2.821  11.008  1.00  0.00    -0.091 C 
HETATM   34  C12 UNL     1      -3.952   3.515   9.833  1.00  0.00     0.042 C 
HETATM   35  C13 UNL     1      -3.624   2.095  11.901  1.00  0.00     0.042 C 
ENDBRANCH  31  32
ENDBRANCH  30  31
ENDBRANCH  28  30
ENDBRANCH  26  27
ENDBRANCH  23  25
ENDBRANCH   1  23
BRANCH   7  36
HETATM   36  C25 UNL     1       2.010   5.318  10.982  1.00  0.00     0.265 C 
HETATM   37  O2  UNL     1       1.138   5.199  10.129  1.00  0.00    -0.302 OA
ENDBRANCH   7  36
TORSDOF 13
ENDMDL
MODEL 7
REMARK minimizedAffinity -8.45158482
REMARK CNNscore 0.273948133
REMARK CNNaffinity 6.31932974
REMARK  13 active torsions:
REMARK  status: ('A' for Active; 'I' for Inactive)
REMARK    1  A    between atoms: C2_2  and  C3_3 
REMARK    2  A    between atoms: C2_2  and  C14_14 
REMARK    3  A    between atoms: C4_4  and  C5_5 
REMARK    4  A    between atoms: C6_6  and  C8_8 
REMARK    5  A    between atoms: C8_8  and  C9_9 
REMARK    6  A    between atoms: C9_9  and  C10_10 
REMARK    7  A    between atoms: C18_18  and  C19_19 
REMARK    8  A    between atoms: C19_19  and  C20_20 
REMARK    9  A    between atoms: C20_20  and  C21_21 
REMARK   10  A    between atoms: C21_21  and  O1_22 
REMARK   11  A    between atoms: C23_24  and  C25_26 
REMARK   12  A    between atoms: C28_30  and  O3_32 
REMARK   13  A    between atoms: C30_33  and  O4_34 
ROOT
HETATM    1  C14 UNL     1       0.431   6.030  11.025  1.00  0.00     0.047 C 
HETATM    2  C15 UNL     1      -0.320   7.367  11.121  1.00  0.00     0.013 C 
HETATM    3  C16 UNL     1       0.764   8.416  10.947  1.00  0.00     0.017 C 
HETATM    4  C17 UNL     1       2.042   7.852  11.656  1.00  0.00     0.024 C 
HETATM    5  C18 UNL     1       3.277   8.084  10.663  1.00  0.00     0.029 C 
HETATM    6  C22 UNL     1       4.603   8.293  11.417  1.00  0.00    -0.066 C 
HETATM    7  C23 UNL     1       5.675   7.484  11.573  1.00  0.00    -0.021 C 
HETATM    8  C24 UNL     1       7.005   7.895  12.151  1.00  0.00     0.052 C 
HETATM    9  C26 UNL     1       4.562   9.638  12.145  1.00  0.00     0.038 C 
HETATM   10  C27 UNL     1       3.170   9.927  12.746  1.00  0.00     0.042 C 
HETATM   11  C28 UNL     1       2.344   8.645  13.020  1.00  0.00     0.065 C 
HETATM   12  C29 UNL     1       1.102   9.034  13.845  1.00  0.00     0.047 C 
HETATM   13  C30 UNL     1       1.686   6.332  11.889  1.00  0.00     0.138 C 
ENDROOT
BRANCH   5  14
HETATM   14  C19 UNL     1       3.291   7.486   9.220  1.00  0.00     0.012 C 
BRANCH  14  15
HETATM   15  C20 UNL     1       2.723   6.109   8.893  1.00  0.00     0.027 C 
BRANCH  15  16
HETATM   16  C21 UNL     1       3.690   4.985   9.265  1.00  0.00     0.164 C 
BRANCH  16  17
HETATM   17  O1  UNL     1       3.238   3.738   8.761  1.00  0.00    -0.401 OA
HETATM   18  H32 UNL     1       3.264   3.787   7.788  1.00  0.00     0.209 HD
ENDBRANCH  16  17
ENDBRANCH  15  16
ENDBRANCH  14  15
ENDBRANCH   5  14
BRANCH  11  19
HETATM   19  O3  UNL     1       3.141   7.798  13.880  1.00  0.00    -0.389 OA
HETATM   20  H44 UNL     1       3.370   8.315  14.675  1.00  0.00     0.210 HD
ENDBRANCH  11  19
BRANCH  13  21
HETATM   21  O4  UNL     1       1.382   6.043  13.255  1.00  0.00    -0.394 OA
HETATM   22  H46 UNL     1       2.157   6.350  13.769  1.00  0.00     0.210 HD
ENDBRANCH  13  21
BRANCH   1  23
HETATM   23  C2  UNL     1      -0.400   4.789  11.384  1.00  0.00    -0.061 C 
HETATM   24  C1  UNL     1       0.151   3.576  11.580  1.00  0.00     0.019 C 
BRANCH  23  25
HETATM   25  C3  UNL     1      -1.851   4.876  11.568  1.00  0.00     0.007 C 
HETATM   26  C4  UNL     1      -2.709   3.906  11.919  1.00  0.00     0.001 C 
BRANCH  26  27
HETATM   27  C5  UNL     1      -4.135   4.142  12.028  1.00  0.00     0.002 C 
HETATM   28  C6  UNL     1      -5.134   3.269  11.782  1.00  0.00    -0.084 C 
HETATM   29  C7  UNL     1      -4.975   1.832  11.372  1.00  0.00     0.043 C 
BRANCH  28  30
HETATM   30  C8  UNL     1      -6.574   3.732  11.924  1.00  0.00     0.037 C 
BRANCH  30  31
HETATM   31  C9  UNL     1      -7.116   3.484  13.338  1.00  0.00     0.031 C 
BRANCH  31  32
HETATM   32  C10 UNL     1      -7.166   4.757  14.141  1.00  0.00    -0.024 C 
HETATM   33  C11 UNL     1      -8.004   5.799  13.990  1.00  0.00    -0.091 C 
HETATM   34  C12 UNL     1      -7.895   7.007  14.887  1.00  0.00     0.042 C 
HETATM   35  C13 UNL     1      -9.103   5.889  12.965  1.00  0.00     0.042 C 
ENDBRANCH  31  32
ENDBRANCH  30  31
ENDBRANCH  28  30
ENDBRANCH  26  27
ENDBRANCH  23  25
ENDBRANCH   1  23
BRANCH   7  36
HETATM   36  C25 UNL     1       5.627   6.031  11.268  1.00  0.00     0.265 C 
HETATM   37  O2  UNL     1       6.525   5.435  10.684  1.00  0.00    -0.302 OA
ENDBRANCH   7  36
TORSDOF 13
ENDMDL
MODEL 8
REMARK minimizedAffinity -7.69073963
REMARK CNNscore 0.260713071
REMARK CNNaffinity 5.60752058
REMARK  13 active torsions:
REMARK  status: ('A' for Active; 'I' for Inactive)
REMARK    1  A    between atoms: C2_2  and  C3_3 
REMARK    2  A    between atoms: C2_2  and  C14_14 
REMARK    3  A    between atoms: C4_4  and  C5_5 
REMARK    4  A    between atoms: C6_6  and  C8_8 
REMARK    5  A    between atoms: C8_8  and  C9_9 
REMARK    6  A    between atoms: C9_9  and  C10_10 
REMARK    7  A    between atoms: C18_18  and  C19_19 
REMARK    8  A    between atoms: C19_19  and  C20_20 
REMARK    9  A    between atoms: C20_20  and  C21_21 
REMARK   10  A    between atoms: C21_21  and  O1_22 
REMARK   11  A    between atoms: C23_24  and  C25_26 
REMARK   12  A    between atoms: C28_30  and  O3_32 
REMARK   13  A    between atoms: C30_33  and  O4_34 
ROOT
HETATM    1  C14 UNL     1       0.603  10.465  16.628  1.00  0.00     0.047 C 
HETATM    2  C15 UNL     1       1.747  11.298  16.028  1.00  0.00     0.013 C 
HETATM    3  C16 UNL     1       1.947  10.712  14.642  1.00  0.00     0.017 C 
HETATM    4  C17 UNL     1       1.701   9.170  14.775  1.00  0.00     0.024 C 
HETATM    5  C18 UNL     1       0.758   8.733  13.556  1.00  0.00     0.029 C 
HETATM    6  C22 UNL     1       1.016   7.285  13.107  1.00  0.00    -0.066 C 
HETATM    7  C23 UNL     1       0.285   6.158  13.270  1.00  0.00    -0.021 C 
HETATM    8  C24 UNL     1       0.544   4.840  12.587  1.00  0.00     0.052 C 
HETATM    9  C26 UNL     1       2.394   7.199  12.448  1.00  0.00     0.038 C 
HETATM   10  C27 UNL     1       3.435   8.079  13.172  1.00  0.00     0.042 C 
HETATM   11  C28 UNL     1       3.079   8.353  14.655  1.00  0.00     0.065 C 
HETATM   12  C29 UNL     1       4.296   9.009  15.334  1.00  0.00     0.047 C 
HETATM   13  C30 UNL     1       1.021   9.033  16.192  1.00  0.00     0.138 C 
ENDROOT
BRANCH   5  14
HETATM   14  C19 UNL     1      -0.652   9.373  13.342  1.00  0.00     0.012 C 
BRANCH  14  15
HETATM   15  C20 UNL     1      -1.565   8.987  12.184  1.00  0.00     0.027 C 
BRANCH  15  16
HETATM   16  C21 UNL     1      -3.001   8.736  12.644  1.00  0.00     0.164 C 
BRANCH  16  17
HETATM   17  O1  UNL     1      -3.056   8.518  14.046  1.00  0.00    -0.401 OA
HETATM   18  H32 UNL     1      -2.788   9.348  14.483  1.00  0.00     0.209 HD
ENDBRANCH  16  17
ENDBRANCH  15  16
ENDBRANCH  14  15
ENDBRANCH   5  14
BRANCH  11  19
HETATM   19  O3  UNL     1       2.911   7.069  15.300  1.00  0.00    -0.389 OA
HETATM   20  H44 UNL     1       3.732   6.559  15.164  1.00  0.00     0.210 HD
ENDBRANCH  11  19
BRANCH  13  21
HETATM   21  O4  UNL     1       1.906   8.494  17.176  1.00  0.00    -0.394 OA
HETATM   22  H46 UNL     1       2.225   7.645  16.808  1.00  0.00     0.210 HD
ENDBRANCH  13  21
BRANCH   1  23
HETATM   23  C2  UNL     1       0.335  10.705  18.121  1.00  0.00    -0.061 C 
HETATM   24  C1  UNL     1      -0.904  10.868  18.620  1.00  0.00     0.019 C 
BRANCH  23  25
HETATM   25  C3  UNL     1       1.431  10.733  19.092  1.00  0.00     0.007 C 
HETATM   26  C4  UNL     1       1.396  10.440  20.401  1.00  0.00     0.001 C 
BRANCH  26  27
HETATM   27  C5  UNL     1       2.569  10.549  21.246  1.00  0.00     0.002 C 
HETATM   28  C6  UNL     1       2.970   9.696  22.212  1.00  0.00    -0.084 C 
HETATM   29  C7  UNL     1       2.292   8.411  22.596  1.00  0.00     0.043 C 
BRANCH  28  30
HETATM   30  C8  UNL     1       4.221  10.017  23.012  1.00  0.00     0.037 C 
BRANCH  30  31
HETATM   31  C9  UNL     1       4.621  11.492  22.875  1.00  0.00     0.031 C 
BRANCH  31  32
HETATM   32  C10 UNL     1       6.111  11.673  23.003  1.00  0.00    -0.024 C 
HETATM   33  C11 UNL     1       6.806  12.826  23.034  1.00  0.00    -0.091 C 
HETATM   34  C12 UNL     1       8.309  12.812  23.154  1.00  0.00     0.042 C 
HETATM   35  C13 UNL     1       6.206  14.205  22.962  1.00  0.00     0.042 C 
ENDBRANCH  31  32
ENDBRANCH  30  31
ENDBRANCH  28  30
ENDBRANCH  26  27
ENDBRANCH  23  25
ENDBRANCH   1  23
BRANCH   7  36
HETATM   36  C25 UNL     1      -0.832   6.069  14.245  1.00  0.00     0.265 C 
HETATM   37  O2  UNL     1      -0.858   6.695  15.298  1.00  0.00    -0.302 OA
ENDBRANCH   7  36
TORSDOF 13
ENDMDL
MODEL 9
REMARK minimizedAffinity -7.02613354
REMARK CNNscore 0.236228943
REMARK CNNaffinity 5.03307772
REMARK  13 active torsions:
REMARK  status: ('A' for Active; 'I' for Inactive)
REMARK    1  A    between atoms: C2_2  and  C3_3 
REMARK    2  A    between atoms: C2_2  and  C14_14 
REMARK    3  A    between atoms: C4_4  and  C5_5 
REMARK    4  A    between atoms: C6_6  and  C8_8 
REMARK    5  A    between atoms: C8_8  and  C9_9 
REMARK    6  A    between atoms: C9_9  and  C10_10 
REMARK    7  A    between atoms: C18_18  and  C19_19 
REMARK    8  A    between atoms: C19_19  and  C20_20 
REMARK    9  A    between atoms: C20_20  and  C21_21 
REMARK   10  A    between atoms: C21_21  and  O1_22 
REMARK   11  A    between atoms: C23_24  and  C25_26 
REMARK   12  A    between atoms: C28_30  and  O3_32 
REMARK   13  A    between atoms: C30_33  and  O4_34 
ROOT
HETATM    1  C14 UNL     1       1.554  10.487  20.762  1.00  0.00     0.047 C 
HETATM    2  C15 UNL     1       1.628  12.008  20.970  1.00  0.00     0.013 C 
HETATM    3  C16 UNL     1       0.818  12.581  19.821  1.00  0.00     0.017 C 
HETATM    4  C17 UNL     1       1.087  11.654  18.586  1.00  0.00     0.024 C 
HETATM    5  C18 UNL     1      -0.330  11.348  17.904  1.00  0.00     0.029 C 
HETATM    6  C22 UNL     1      -0.213  11.127  16.386  1.00  0.00    -0.066 C 
HETATM    7  C23 UNL     1      -0.304  10.002  15.640  1.00  0.00    -0.021 C 
HETATM    8  C24 UNL     1      -0.391   9.954  14.136  1.00  0.00     0.052 C 
HETATM    9  C26 UNL     1       0.152  12.451  15.711  1.00  0.00     0.038 C 
HETATM   10  C27 UNL     1       1.160  13.267  16.546  1.00  0.00     0.042 C 
HETATM   11  C28 UNL     1       2.013  12.393  17.500  1.00  0.00     0.065 C 
HETATM   12  C29 UNL     1       3.142  13.266  18.081  1.00  0.00     0.047 C 
HETATM   13  C30 UNL     1       1.776  10.388  19.228  1.00  0.00     0.138 C 
ENDROOT
BRANCH   5  14
HETATM   14  C19 UNL     1      -1.492  10.671  18.700  1.00  0.00     0.012 C 
BRANCH  14  15
HETATM   15  C20 UNL     1      -2.945  11.113  18.572  1.00  0.00     0.027 C 
BRANCH  15  16
HETATM   16  C21 UNL     1      -3.642  10.459  17.378  1.00  0.00     0.164 C 
BRANCH  16  17
HETATM   17  O1  UNL     1      -3.630  11.319  16.249  1.00  0.00    -0.401 OA
HETATM   18  H32 UNL     1      -2.701  11.431  15.974  1.00  0.00     0.209 HD
ENDBRANCH  16  17
ENDBRANCH  15  16
ENDBRANCH  14  15
ENDBRANCH   5  14
BRANCH  11  19
HETATM   19  O3  UNL     1       2.666  11.388  16.691  1.00  0.00    -0.389 OA
HETATM   20  H44 UNL     1       3.173  11.850  15.997  1.00  0.00     0.210 HD
ENDBRANCH  11  19
BRANCH  13  21
HETATM   21  O4  UNL     1       3.180  10.337  18.970  1.00  0.00    -0.394 OA
HETATM   22  H46 UNL     1       3.273  10.385  17.996  1.00  0.00     0.210 HD
ENDBRANCH  13  21
BRANCH   1  23
HETATM   23  C2  UNL     1       2.475   9.660  21.671  1.00  0.00    -0.061 C 
HETATM   24  C1  UNL     1       2.082   8.512  22.254  1.00  0.00     0.019 C 
BRANCH  23  25
HETATM   25  C3  UNL     1       3.859  10.069  21.920  1.00  0.00     0.007 C 
HETATM   26  C4  UNL     1       4.410  10.506  23.063  1.00  0.00     0.001 C 
BRANCH  26  27
HETATM   27  C5  UNL     1       5.799  10.910  23.144  1.00  0.00     0.002 C 
HETATM   28  C6  UNL     1       6.303  12.155  23.010  1.00  0.00    -0.084 C 
HETATM   29  C7  UNL     1       5.511  13.411  22.780  1.00  0.00     0.043 C 
BRANCH  28  30
HETATM   30  C8  UNL     1       7.807  12.358  23.095  1.00  0.00     0.037 C 
BRANCH  30  31
HETATM   31  C9  UNL     1       8.170  13.829  23.336  1.00  0.00     0.031 C 
BRANCH  31  32
HETATM   32  C10 UNL     1       8.683  14.483  22.079  1.00  0.00    -0.024 C 
HETATM   33  C11 UNL     1       9.550  13.981  21.179  1.00  0.00    -0.091 C 
HETATM   34  C12 UNL     1       9.963  14.793  19.978  1.00  0.00     0.042 C 
HETATM   35  C13 UNL     1      10.182  12.616  21.249  1.00  0.00     0.042 C 
ENDBRANCH  31  32
ENDBRANCH  30  31
ENDBRANCH  28  30
ENDBRANCH  26  27
ENDBRANCH  23  25
ENDBRANCH   1  23
BRANCH   7  36
HETATM   36  C25 UNL     1      -0.230   8.644  16.237  1.00  0.00     0.265 C 
HETATM   37  O2  UNL     1       0.815   8.134  16.624  1.00  0.00    -0.302 OA
ENDBRANCH   7  36
TORSDOF 13
ENDMDL
