MODEL 1
REMARK minimizedAffinity -7.31455421
REMARK CNNscore 0.888178885
REMARK CNNaffinity 7.51480627
REMARK  8 active torsions:
REMARK  status: ('A' for Active; 'I' for Inactive)
REMARK    1  A    between atoms: C2_2  and  C3_3 
REMARK    2  A    between atoms: C2_2  and  C9_11 
REMARK    3  A    between atoms: C3_3  and  C4_4 
REMARK    4  A    between atoms: C4_4  and  C5_5 
REMARK    5  A    between atoms: C6_6  and  C7_7 
REMARK    6  A    between atoms: C6_6  and  C8_9 
REMARK    7  A    between atoms: C7_7  and  O1_8 
REMARK    8  A    between atoms: C8_9  and  O2_10 
ROOT
HETATM    1  C9  UNL     1      -1.720  52.382 -10.009  1.00  0.00    -0.002 C 
HETATM    2  C10 UNL     1      -1.026  51.022 -10.296  1.00  0.00     0.007 C 
HETATM    3  C11 UNL     1       0.469  51.186  -9.973  1.00  0.00     0.015 C 
HETATM    4  C12 UNL     1       0.571  52.509  -9.188  1.00  0.00    -0.005 C 
HETATM    5  C13 UNL     1       0.231  52.183  -7.702  1.00  0.00     0.021 C 
HETATM    6  C14 UNL     1       1.890  53.271  -9.125  1.00  0.00    -0.000 C 
HETATM    7  C15 UNL     1       1.912  54.625  -9.003  1.00  0.00    -0.060 C 
HETATM    8  C16 UNL     1       0.606  55.430  -8.971  1.00  0.00     0.036 C 
HETATM    9  C17 UNL     1      -0.718  54.661  -9.160  1.00  0.00     0.015 C 
HETATM   10  C18 UNL     1      -0.513  53.368  -9.956  1.00  0.00    -0.028 C 
HETATM   11  C19 UNL     1      -0.088  53.742 -11.411  1.00  0.00     0.016 C 
HETATM   12  C20 UNL     1       3.232  55.442  -8.953  1.00  0.00    -0.014 C 
HETATM   13  C21 UNL     1       3.514  55.862 -10.414  1.00  0.00     0.020 C 
HETATM   14  C22 UNL     1       3.097  56.708  -8.069  1.00  0.00     0.021 C 
HETATM   15  C23 UNL     1       4.401  57.469  -7.896  1.00  0.00     0.080 C 
HETATM   16  C24 UNL     1       5.467  56.586  -7.300  1.00  0.00     0.135 C 
HETATM   17  O3  UNL     1       6.172  57.012  -6.383  1.00  0.00    -0.297 OA
HETATM   18  C25 UNL     1       5.712  55.216  -7.955  1.00  0.00     0.018 C 
HETATM   19  C26 UNL     1       6.663  55.421  -9.142  1.00  0.00     0.023 C 
HETATM   20  C27 UNL     1       6.460  54.335  -6.921  1.00  0.00     0.023 C 
HETATM   21  C28 UNL     1       4.339  54.540  -8.307  1.00  0.00     0.020 C 
HETATM   22  C29 UNL     1       4.483  53.238  -9.101  1.00  0.00     0.090 C 
HETATM   23  C30 UNL     1       3.171  52.493  -9.162  1.00  0.00     0.157 C 
HETATM   24  O4  UNL     1       3.172  51.268  -9.264  1.00  0.00    -0.293 OA
ENDROOT
BRANCH   1  25
HETATM   25  C2  UNL     1      -2.898  52.653 -10.989  1.00  0.00    -0.014 C 
HETATM   26  C1  UNL     1      -3.808  53.793 -10.521  1.00  0.00     0.010 C 
BRANCH  25  27
HETATM   27  C3  UNL     1      -3.749  51.388 -11.279  1.00  0.00     0.008 C 
BRANCH  27  28
HETATM   28  C4  UNL     1      -4.277  50.655 -10.042  1.00  0.00     0.028 C 
BRANCH  28  29
HETATM   29  C5  UNL     1      -5.714  50.252 -10.238  1.00  0.00    -0.020 C 
HETATM   30  C6  UNL     1      -6.194  49.105 -10.766  1.00  0.00    -0.037 C 
BRANCH  30  31
HETATM   31  C7  UNL     1      -7.676  48.818 -10.896  1.00  0.00     0.200 C 
BRANCH  31  32
HETATM   32  O1  UNL     1      -8.471  49.968 -10.636  1.00  0.00    -0.397 OA
HETATM   33  H12 UNL     1      -8.260  50.596 -11.350  1.00  0.00     0.209 HD
ENDBRANCH  31  32
ENDBRANCH  30  31
BRANCH  30  34
HETATM   34  C8  UNL     1      -5.333  47.974 -11.265  1.00  0.00     0.200 C 
BRANCH  34  35
HETATM   35  O2  UNL     1      -5.662  47.718 -12.624  1.00  0.00    -0.397 OA
HETATM   36  H15 UNL     1      -5.043  47.040 -12.939  1.00  0.00     0.209 HD
ENDBRANCH  34  35
ENDBRANCH  30  34
ENDBRANCH  28  29
ENDBRANCH  27  28
ENDBRANCH  25  27
ENDBRANCH   1  25
TORSDOF 8
ENDMDL
MODEL 2
REMARK minimizedAffinity -7.39483118
REMARK CNNscore 0.83927089
REMARK CNNaffinity 7.25294542
REMARK  8 active torsions:
REMARK  status: ('A' for Active; 'I' for Inactive)
REMARK    1  A    between atoms: C2_2  and  C3_3 
REMARK    2  A    between atoms: C2_2  and  C9_11 
REMARK    3  A    between atoms: C3_3  and  C4_4 
REMARK    4  A    between atoms: C4_4  and  C5_5 
REMARK    5  A    between atoms: C6_6  and  C7_7 
REMARK    6  A    between atoms: C6_6  and  C8_9 
REMARK    7  A    between atoms: C7_7  and  O1_8 
REMARK    8  A    between atoms: C8_9  and  O2_10 
ROOT
HETATM    1  C9  UNL     1       4.869  56.004  -8.331  1.00  0.00    -0.002 C 
HETATM    2  C10 UNL     1       5.761  55.005  -9.119  1.00  0.00     0.007 C 
HETATM    3  C11 UNL     1       4.828  54.100  -9.944  1.00  0.00     0.015 C 
HETATM    4  C12 UNL     1       3.451  54.789  -9.898  1.00  0.00    -0.005 C 
HETATM    5  C13 UNL     1       3.453  55.886 -11.006  1.00  0.00     0.021 C 
HETATM    6  C14 UNL     1       2.177  53.989 -10.148  1.00  0.00    -0.000 C 
HETATM    7  C15 UNL     1       1.001  54.341  -9.563  1.00  0.00    -0.060 C 
HETATM    8  C16 UNL     1       0.934  55.529  -8.594  1.00  0.00     0.036 C 
HETATM    9  C17 UNL     1       2.252  56.255  -8.252  1.00  0.00     0.015 C 
HETATM   10  C18 UNL     1       3.464  55.331  -8.412  1.00  0.00    -0.028 C 
HETATM   11  C19 UNL     1       3.371  54.200  -7.340  1.00  0.00     0.016 C 
HETATM   12  C20 UNL     1      -0.314  53.544  -9.777  1.00  0.00    -0.014 C 
HETATM   13  C21 UNL     1      -0.376  52.527  -8.614  1.00  0.00     0.020 C 
HETATM   14  C22 UNL     1      -1.562  54.462  -9.727  1.00  0.00     0.021 C 
HETATM   15  C23 UNL     1      -2.860  53.739 -10.053  1.00  0.00     0.080 C 
HETATM   16  C24 UNL     1      -2.795  53.101 -11.417  1.00  0.00     0.135 C 
HETATM   17  O3  UNL     1      -3.745  53.218 -12.192  1.00  0.00    -0.297 OA
HETATM   18  C25 UNL     1      -1.578  52.217 -11.736  1.00  0.00     0.018 C 
HETATM   19  C26 UNL     1      -1.853  50.812 -11.183  1.00  0.00     0.023 C 
HETATM   20  C27 UNL     1      -1.492  52.089 -13.280  1.00  0.00     0.023 C 
HETATM   21  C28 UNL     1      -0.268  52.900 -11.206  1.00  0.00     0.020 C 
HETATM   22  C29 UNL     1       0.981  52.023 -11.343  1.00  0.00     0.090 C 
HETATM   23  C30 UNL     1       2.236  52.822 -11.089  1.00  0.00     0.157 C 
HETATM   24  O4  UNL     1       3.287  52.494 -11.635  1.00  0.00    -0.293 OA
ENDROOT
BRANCH   1  25
HETATM   25  C2  UNL     1       5.477  56.360  -6.945  1.00  0.00    -0.014 C 
HETATM   26  C1  UNL     1       5.360  57.850  -6.611  1.00  0.00     0.010 C 
BRANCH  25  27
HETATM   27  C3  UNL     1       6.954  55.904  -6.796  1.00  0.00     0.008 C 
BRANCH  27  28
HETATM   28  C4  UNL     1       7.688  56.449  -5.567  1.00  0.00     0.028 C 
BRANCH  28  29
HETATM   29  C5  UNL     1       9.081  55.884  -5.489  1.00  0.00    -0.020 C 
HETATM   30  C6  UNL     1      10.230  56.535  -5.205  1.00  0.00    -0.037 C 
BRANCH  30  31
HETATM   31  C7  UNL     1      11.575  55.839  -5.147  1.00  0.00     0.200 C 
BRANCH  31  32
HETATM   32  O1  UNL     1      12.640  56.748  -4.897  1.00  0.00    -0.397 OA
HETATM   33  H12 UNL     1      12.482  57.092  -4.000  1.00  0.00     0.209 HD
ENDBRANCH  31  32
ENDBRANCH  30  31
BRANCH  30  34
HETATM   34  C8  UNL     1      10.319  58.006  -4.895  1.00  0.00     0.200 C 
BRANCH  34  35
HETATM   35  O2  UNL     1      10.452  58.167  -3.489  1.00  0.00    -0.397 OA
HETATM   36  H15 UNL     1      10.581  59.116  -3.327  1.00  0.00     0.209 HD
ENDBRANCH  34  35
ENDBRANCH  30  34
ENDBRANCH  28  29
ENDBRANCH  27  28
ENDBRANCH  25  27
ENDBRANCH   1  25
TORSDOF 8
ENDMDL
MODEL 3
REMARK minimizedAffinity -6.92675972
REMARK CNNscore 0.779646933
REMARK CNNaffinity 7.17760706
REMARK  8 active torsions:
REMARK  status: ('A' for Active; 'I' for Inactive)
REMARK    1  A    between atoms: C2_2  and  C3_3 
REMARK    2  A    between atoms: C2_2  and  C9_11 
REMARK    3  A    between atoms: C3_3  and  C4_4 
REMARK    4  A    between atoms: C4_4  and  C5_5 
REMARK    5  A    between atoms: C6_6  and  C7_7 
REMARK    6  A    between atoms: C6_6  and  C8_9 
REMARK    7  A    between atoms: C7_7  and  O1_8 
REMARK    8  A    between atoms: C8_9  and  O2_10 
ROOT
HETATM    1  C9  UNL     1       4.729  56.362  -8.378  1.00  0.00    -0.002 C 
HETATM    2  C10 UNL     1       5.661  55.410  -9.178  1.00  0.00     0.007 C 
HETATM    3  C11 UNL     1       4.765  54.453  -9.983  1.00  0.00     0.015 C 
HETATM    4  C12 UNL     1       3.354  55.067  -9.917  1.00  0.00    -0.005 C 
HETATM    5  C13 UNL     1       3.279  56.158 -11.029  1.00  0.00     0.021 C 
HETATM    6  C14 UNL     1       2.121  54.198 -10.144  1.00  0.00    -0.000 C 
HETATM    7  C15 UNL     1       0.938  54.489  -9.541  1.00  0.00    -0.060 C 
HETATM    8  C16 UNL     1       0.822  55.675  -8.575  1.00  0.00     0.036 C 
HETATM    9  C17 UNL     1       2.104  56.472  -8.256  1.00  0.00     0.015 C 
HETATM   10  C18 UNL     1       3.361  55.615  -8.433  1.00  0.00    -0.028 C 
HETATM   11  C19 UNL     1       3.347  54.485  -7.356  1.00  0.00     0.016 C 
HETATM   12  C20 UNL     1      -0.336  53.621  -9.731  1.00  0.00    -0.014 C 
HETATM   13  C21 UNL     1      -0.324  52.607  -8.563  1.00  0.00     0.020 C 
HETATM   14  C22 UNL     1      -1.631  54.470  -9.663  1.00  0.00     0.021 C 
HETATM   15  C23 UNL     1      -2.892  53.678  -9.966  1.00  0.00     0.080 C 
HETATM   16  C24 UNL     1      -2.816  53.038 -11.328  1.00  0.00     0.135 C 
HETATM   17  O3  UNL     1      -3.783  53.100 -12.088  1.00  0.00    -0.297 OA
HETATM   18  C25 UNL     1      -1.558  52.220 -11.665  1.00  0.00     0.018 C 
HETATM   19  C26 UNL     1      -1.748  50.804 -11.103  1.00  0.00     0.023 C 
HETATM   20  C27 UNL     1      -1.490  52.090 -13.209  1.00  0.00     0.023 C 
HETATM   21  C28 UNL     1      -0.278  52.975 -11.158  1.00  0.00     0.020 C 
HETATM   22  C29 UNL     1       1.013  52.165 -11.313  1.00  0.00     0.090 C 
HETATM   23  C30 UNL     1       2.228  53.032 -11.082  1.00  0.00     0.157 C 
HETATM   24  O4  UNL     1       3.286  52.758 -11.644  1.00  0.00    -0.293 OA
ENDROOT
BRANCH   1  25
HETATM   25  C2  UNL     1       5.340  56.757  -7.003  1.00  0.00    -0.014 C 
HETATM   26  C1  UNL     1       6.619  55.980  -6.677  1.00  0.00     0.010 C 
BRANCH  25  27
HETATM   27  C3  UNL     1       4.331  56.621  -5.831  1.00  0.00     0.008 C 
BRANCH  27  28
HETATM   28  C4  UNL     1       3.883  57.940  -5.194  1.00  0.00     0.028 C 
BRANCH  28  29
HETATM   29  C5  UNL     1       2.381  58.017  -5.135  1.00  0.00    -0.020 C 
HETATM   30  C6  UNL     1       1.542  57.340  -4.320  1.00  0.00    -0.037 C 
BRANCH  30  31
HETATM   31  C7  UNL     1       0.039  57.522  -4.356  1.00  0.00     0.200 C 
BRANCH  31  32
HETATM   32  O1  UNL     1      -0.589  56.629  -5.268  1.00  0.00    -0.397 OA
HETATM   33  H12 UNL     1      -0.439  55.739  -4.905  1.00  0.00     0.209 HD
ENDBRANCH  31  32
ENDBRANCH  30  31
BRANCH  30  34
HETATM   34  C8  UNL     1       1.988  56.351  -3.276  1.00  0.00     0.200 C 
BRANCH  34  35
HETATM   35  O2  UNL     1       1.162  55.197  -3.363  1.00  0.00    -0.397 OA
HETATM   36  H15 UNL     1       1.519  54.550  -2.732  1.00  0.00     0.209 HD
ENDBRANCH  34  35
ENDBRANCH  30  34
ENDBRANCH  28  29
ENDBRANCH  27  28
ENDBRANCH  25  27
ENDBRANCH   1  25
TORSDOF 8
ENDMDL
MODEL 4
REMARK minimizedAffinity -6.96778297
REMARK CNNscore 0.772529781
REMARK CNNaffinity 6.96138716
REMARK  8 active torsions:
REMARK  status: ('A' for Active; 'I' for Inactive)
REMARK    1  A    between atoms: C2_2  and  C3_3 
REMARK    2  A    between atoms: C2_2  and  C9_11 
REMARK    3  A    between atoms: C3_3  and  C4_4 
REMARK    4  A    between atoms: C4_4  and  C5_5 
REMARK    5  A    between atoms: C6_6  and  C7_7 
REMARK    6  A    between atoms: C6_6  and  C8_9 
REMARK    7  A    between atoms: C7_7  and  O1_8 
REMARK    8  A    between atoms: C8_9  and  O2_10 
ROOT
HETATM    1  C9  UNL     1       4.118  56.196  -8.156  1.00  0.00    -0.002 C 
HETATM    2  C10 UNL     1       5.080  55.223  -8.892  1.00  0.00     0.007 C 
HETATM    3  C11 UNL     1       4.221  54.294  -9.767  1.00  0.00     0.015 C 
HETATM    4  C12 UNL     1       2.825  54.945  -9.799  1.00  0.00    -0.005 C 
HETATM    5  C13 UNL     1       2.860  56.043 -10.906  1.00  0.00     0.021 C 
HETATM    6  C14 UNL     1       1.589  54.111 -10.120  1.00  0.00    -0.000 C 
HETATM    7  C15 UNL     1       0.373  54.430  -9.602  1.00  0.00    -0.060 C 
HETATM    8  C16 UNL     1       0.219  55.615  -8.640  1.00  0.00     0.036 C 
HETATM    9  C17 UNL     1       1.495  56.375  -8.224  1.00  0.00     0.015 C 
HETATM   10  C18 UNL     1       2.739  55.485  -8.315  1.00  0.00    -0.028 C 
HETATM   11  C19 UNL     1       2.617  54.351  -7.249  1.00  0.00     0.016 C 
HETATM   12  C20 UNL     1      -0.906  53.598  -9.890  1.00  0.00    -0.014 C 
HETATM   13  C21 UNL     1      -1.005  52.578  -8.732  1.00  0.00     0.020 C 
HETATM   14  C22 UNL     1      -2.179  54.481  -9.911  1.00  0.00     0.021 C 
HETATM   15  C23 UNL     1      -3.436  53.724 -10.309  1.00  0.00     0.080 C 
HETATM   16  C24 UNL     1      -3.277  53.089 -11.667  1.00  0.00     0.135 C 
HETATM   17  O3  UNL     1      -4.185  53.181 -12.495  1.00  0.00    -0.297 OA
HETATM   18  C25 UNL     1      -2.020  52.240 -11.917  1.00  0.00     0.018 C 
HETATM   19  C26 UNL     1      -2.288  50.826 -11.380  1.00  0.00     0.023 C 
HETATM   20  C27 UNL     1      -1.844  52.115 -13.453  1.00  0.00     0.023 C 
HETATM   21  C28 UNL     1      -0.761  52.957 -11.313  1.00  0.00     0.020 C 
HETATM   22  C29 UNL     1       0.516  52.114 -11.380  1.00  0.00     0.090 C 
HETATM   23  C30 UNL     1       1.733  52.947 -11.056  1.00  0.00     0.157 C 
HETATM   24  O4  UNL     1       2.822  52.648 -11.541  1.00  0.00    -0.293 OA
ENDROOT
BRANCH   1  25
HETATM   25  C2  UNL     1       4.638  56.567  -6.737  1.00  0.00    -0.014 C 
HETATM   26  C1  UNL     1       3.956  57.812  -6.163  1.00  0.00     0.010 C 
BRANCH  25  27
HETATM   27  C3  UNL     1       6.180  56.741  -6.683  1.00  0.00     0.008 C 
BRANCH  27  28
HETATM   28  C4  UNL     1       6.770  56.932  -5.283  1.00  0.00     0.028 C 
BRANCH  28  29
HETATM   29  C5  UNL     1       7.703  58.113  -5.258  1.00  0.00    -0.020 C 
HETATM   30  C6  UNL     1       7.504  59.322  -4.689  1.00  0.00    -0.037 C 
BRANCH  30  31
HETATM   31  C7  UNL     1       8.540  60.427  -4.727  1.00  0.00     0.200 C 
BRANCH  31  32
HETATM   32  O1  UNL     1       9.082  60.700  -3.440  1.00  0.00    -0.397 OA
HETATM   33  H12 UNL     1       9.565  59.895  -3.186  1.00  0.00     0.209 HD
ENDBRANCH  31  32
ENDBRANCH  30  31
BRANCH  30  34
HETATM   34  C8  UNL     1       6.257  59.713  -3.940  1.00  0.00     0.200 C 
BRANCH  34  35
HETATM   35  O2  UNL     1       6.201  61.131  -3.862  1.00  0.00    -0.397 OA
HETATM   36  H15 UNL     1       5.353  61.355  -3.442  1.00  0.00     0.209 HD
ENDBRANCH  34  35
ENDBRANCH  30  34
ENDBRANCH  28  29
ENDBRANCH  27  28
ENDBRANCH  25  27
ENDBRANCH   1  25
TORSDOF 8
ENDMDL
MODEL 5
REMARK minimizedAffinity -6.77608061
REMARK CNNscore 0.523396134
REMARK CNNaffinity 6.12286234
REMARK  8 active torsions:
REMARK  status: ('A' for Active; 'I' for Inactive)
REMARK    1  A    between atoms: C2_2  and  C3_3 
REMARK    2  A    between atoms: C2_2  and  C9_11 
REMARK    3  A    between atoms: C3_3  and  C4_4 
REMARK    4  A    between atoms: C4_4  and  C5_5 
REMARK    5  A    between atoms: C6_6  and  C7_7 
REMARK    6  A    between atoms: C6_6  and  C8_9 
REMARK    7  A    between atoms: C7_7  and  O1_8 
REMARK    8  A    between atoms: C8_9  and  O2_10 
ROOT
HETATM    1  C9  UNL     1     -10.861  45.555 -27.653  1.00  0.00    -0.002 C 
HETATM    2  C10 UNL     1     -11.001  44.210 -28.417  1.00  0.00     0.007 C 
HETATM    3  C11 UNL     1     -12.455  43.733 -28.254  1.00  0.00     0.015 C 
HETATM    4  C12 UNL     1     -13.221  44.951 -27.701  1.00  0.00    -0.005 C 
HETATM    5  C13 UNL     1     -13.595  45.846 -28.922  1.00  0.00     0.021 C 
HETATM    6  C14 UNL     1     -14.531  44.762 -26.944  1.00  0.00    -0.000 C 
HETATM    7  C15 UNL     1     -14.911  45.633 -25.972  1.00  0.00    -0.060 C 
HETATM    8  C16 UNL     1     -14.006  46.807 -25.576  1.00  0.00     0.036 C 
HETATM    9  C17 UNL     1     -12.628  46.917 -26.261  1.00  0.00     0.015 C 
HETATM   10  C18 UNL     1     -12.122  45.551 -26.735  1.00  0.00    -0.028 C 
HETATM   11  C19 UNL     1     -11.846  44.661 -25.483  1.00  0.00     0.016 C 
HETATM   12  C20 UNL     1     -16.228  45.468 -25.165  1.00  0.00    -0.014 C 
HETATM   13  C21 UNL     1     -15.839  44.675 -23.896  1.00  0.00     0.020 C 
HETATM   14  C22 UNL     1     -16.831  46.836 -24.755  1.00  0.00     0.021 C 
HETATM   15  C23 UNL     1     -18.183  46.721 -24.069  1.00  0.00     0.080 C 
HETATM   16  C24 UNL     1     -19.177  46.010 -24.950  1.00  0.00     0.135 C 
HETATM   17  O3  UNL     1     -20.316  46.463 -25.076  1.00  0.00    -0.297 OA
HETATM   18  C25 UNL     1     -18.756  44.665 -25.565  1.00  0.00     0.018 C 
HETATM   19  C26 UNL     1     -19.017  43.565 -24.525  1.00  0.00     0.023 C 
HETATM   20  C27 UNL     1     -19.699  44.388 -26.764  1.00  0.00     0.023 C 
HETATM   21  C28 UNL     1     -17.278  44.755 -26.085  1.00  0.00     0.020 C 
HETATM   22  C29 UNL     1     -16.718  43.417 -26.577  1.00  0.00     0.090 C 
HETATM   23  C30 UNL     1     -15.418  43.613 -27.321  1.00  0.00     0.157 C 
HETATM   24  O4  UNL     1     -15.097  42.820 -28.203  1.00  0.00    -0.293 OA
ENDROOT
BRANCH   1  25
HETATM   25  C2  UNL     1      -9.448  45.724 -27.024  1.00  0.00    -0.014 C 
HETATM   26  C1  UNL     1      -8.888  44.413 -26.464  1.00  0.00     0.010 C 
BRANCH  25  27
HETATM   27  C3  UNL     1      -9.399  46.825 -25.931  1.00  0.00     0.008 C 
BRANCH  27  28
HETATM   28  C4  UNL     1      -8.040  47.507 -25.747  1.00  0.00     0.028 C 
BRANCH  28  29
HETATM   29  C5  UNL     1      -8.097  48.508 -24.624  1.00  0.00    -0.020 C 
HETATM   30  C6  UNL     1      -7.084  48.949 -23.847  1.00  0.00    -0.037 C 
BRANCH  30  31
HETATM   31  C7  UNL     1      -7.277  49.976 -22.750  1.00  0.00     0.200 C 
BRANCH  31  32
HETATM   32  O1  UNL     1      -6.660  51.218 -23.063  1.00  0.00    -0.397 OA
HETATM   33  H12 UNL     1      -7.143  51.562 -23.835  1.00  0.00     0.209 HD
ENDBRANCH  31  32
ENDBRANCH  30  31
BRANCH  30  34
HETATM   34  C8  UNL     1      -5.653  48.498 -23.981  1.00  0.00     0.200 C 
BRANCH  34  35
HETATM   35  O2  UNL     1      -5.144  48.966 -25.223  1.00  0.00    -0.397 OA
HETATM   36  H15 UNL     1      -4.203  48.726 -25.247  1.00  0.00     0.209 HD
ENDBRANCH  34  35
ENDBRANCH  30  34
ENDBRANCH  28  29
ENDBRANCH  27  28
ENDBRANCH  25  27
ENDBRANCH   1  25
TORSDOF 8
ENDMDL
MODEL 6
REMARK minimizedAffinity -7.2191515
REMARK CNNscore 0.457883924
REMARK CNNaffinity 5.85358429
REMARK  8 active torsions:
REMARK  status: ('A' for Active; 'I' for Inactive)
REMARK    1  A    between atoms: C2_2  and  C3_3 
REMARK    2  A    between atoms: C2_2  and  C9_11 
REMARK    3  A    between atoms: C3_3  and  C4_4 
REMARK    4  A    between atoms: C4_4  and  C5_5 
REMARK    5  A    between atoms: C6_6  and  C7_7 
REMARK    6  A    between atoms: C6_6  and  C8_9 
REMARK    7  A    between atoms: C7_7  and  O1_8 
REMARK    8  A    between atoms: C8_9  and  O2_10 
ROOT
HETATM    1  C9  UNL     1     -10.793  45.876 -27.661  1.00  0.00    -0.002 C 
HETATM    2  C10 UNL     1     -10.915  44.573 -28.497  1.00  0.00     0.007 C 
HETATM    3  C11 UNL     1     -12.368  44.079 -28.377  1.00  0.00     0.015 C 
HETATM    4  C12 UNL     1     -13.148  45.260 -27.768  1.00  0.00    -0.005 C 
HETATM    5  C13 UNL     1     -13.515  46.217 -28.943  1.00  0.00     0.021 C 
HETATM    6  C14 UNL     1     -14.465  45.022 -27.037  1.00  0.00    -0.000 C 
HETATM    7  C15 UNL     1     -14.861  45.837 -26.023  1.00  0.00    -0.060 C 
HETATM    8  C16 UNL     1     -13.969  46.994 -25.555  1.00  0.00     0.036 C 
HETATM    9  C17 UNL     1     -12.584  47.149 -26.217  1.00  0.00     0.015 C 
HETATM   10  C18 UNL     1     -12.064  45.814 -26.759  1.00  0.00    -0.028 C 
HETATM   11  C19 UNL     1     -11.795  44.860 -25.553  1.00  0.00     0.016 C 
HETATM   12  C20 UNL     1     -16.186  45.620 -25.242  1.00  0.00    -0.014 C 
HETATM   13  C21 UNL     1     -15.805  44.762 -24.013  1.00  0.00     0.020 C 
HETATM   14  C22 UNL     1     -16.803  46.959 -24.765  1.00  0.00     0.021 C 
HETATM   15  C23 UNL     1     -18.161  46.799 -24.101  1.00  0.00     0.080 C 
HETATM   16  C24 UNL     1     -19.141  46.130 -25.031  1.00  0.00     0.135 C 
HETATM   17  O3  UNL     1     -20.281  46.582 -25.145  1.00  0.00    -0.297 OA
HETATM   18  C25 UNL     1     -18.703  44.823 -25.712  1.00  0.00     0.018 C 
HETATM   19  C26 UNL     1     -18.968  43.667 -24.736  1.00  0.00     0.023 C 
HETATM   20  C27 UNL     1     -19.632  44.605 -26.935  1.00  0.00     0.023 C 
HETATM   21  C28 UNL     1     -17.220  44.951 -26.211  1.00  0.00     0.020 C 
HETATM   22  C29 UNL     1     -16.645  43.644 -26.768  1.00  0.00     0.090 C 
HETATM   23  C30 UNL     1     -15.340  43.889 -27.485  1.00  0.00     0.157 C 
HETATM   24  O4  UNL     1     -15.003  43.147 -28.405  1.00  0.00    -0.293 OA
ENDROOT
BRANCH   1  25
HETATM   25  C2  UNL     1      -9.388  46.020 -27.008  1.00  0.00    -0.014 C 
HETATM   26  C1  UNL     1      -9.106  47.442 -26.514  1.00  0.00     0.010 C 
BRANCH  25  27
HETATM   27  C3  UNL     1      -8.237  45.550 -27.939  1.00  0.00     0.008 C 
BRANCH  27  28
HETATM   28  C4  UNL     1      -7.290  46.654 -28.420  1.00  0.00     0.028 C 
BRANCH  28  29
HETATM   29  C5  UNL     1      -6.514  46.198 -29.626  1.00  0.00    -0.020 C 
HETATM   30  C6  UNL     1      -5.970  46.955 -30.603  1.00  0.00    -0.037 C 
BRANCH  30  31
HETATM   31  C7  UNL     1      -5.196  46.364 -31.764  1.00  0.00     0.200 C 
BRANCH  31  32
HETATM   32  O1  UNL     1      -3.910  46.954 -31.908  1.00  0.00    -0.397 OA
HETATM   33  H12 UNL     1      -3.417  46.702 -31.107  1.00  0.00     0.209 HD
ENDBRANCH  31  32
ENDBRANCH  30  31
BRANCH  30  34
HETATM   34  C8  UNL     1      -6.045  48.458 -30.654  1.00  0.00     0.200 C 
BRANCH  34  35
HETATM   35  O2  UNL     1      -4.923  48.992 -29.963  1.00  0.00    -0.397 OA
HETATM   36  H15 UNL     1      -4.958  49.956 -30.076  1.00  0.00     0.209 HD
ENDBRANCH  34  35
ENDBRANCH  30  34
ENDBRANCH  28  29
ENDBRANCH  27  28
ENDBRANCH  25  27
ENDBRANCH   1  25
TORSDOF 8
ENDMDL
MODEL 7
REMARK minimizedAffinity -9.09205532
REMARK CNNscore 0.453933001
REMARK CNNaffinity 7.1219306
REMARK  8 active torsions:
REMARK  status: ('A' for Active; 'I' for Inactive)
REMARK    1  A    between atoms: C2_2  and  C3_3 
REMARK    2  A    between atoms: C2_2  and  C9_11 
REMARK    3  A    between atoms: C3_3  and  C4_4 
REMARK    4  A    between atoms: C4_4  and  C5_5 
REMARK    5  A    between atoms: C6_6  and  C7_7 
REMARK    6  A    between atoms: C6_6  and  C8_9 
REMARK    7  A    between atoms: C7_7  and  O1_8 
REMARK    8  A    between atoms: C8_9  and  O2_10 
ROOT
HETATM    1  C9  UNL     1      -1.792  50.558 -22.807  1.00  0.00    -0.002 C 
HETATM    2  C10 UNL     1      -1.392  52.044 -23.025  1.00  0.00     0.007 C 
HETATM    3  C11 UNL     1      -0.686  52.527 -21.746  1.00  0.00     0.015 C 
HETATM    4  C12 UNL     1      -0.380  51.247 -20.944  1.00  0.00    -0.005 C 
HETATM    5  C13 UNL     1       0.946  50.658 -21.517  1.00  0.00     0.021 C 
HETATM    6  C14 UNL     1      -0.155  51.313 -19.438  1.00  0.00    -0.000 C 
HETATM    7  C15 UNL     1      -0.474  50.264 -18.634  1.00  0.00    -0.060 C 
HETATM    8  C16 UNL     1      -1.115  48.998 -19.218  1.00  0.00     0.036 C 
HETATM    9  C17 UNL     1      -1.452  48.990 -20.723  1.00  0.00     0.015 C 
HETATM   10  C18 UNL     1      -1.682  50.407 -21.259  1.00  0.00    -0.028 C 
HETATM   11  C19 UNL     1      -2.969  50.987 -20.591  1.00  0.00     0.016 C 
HETATM   12  C20 UNL     1      -0.278  50.297 -17.094  1.00  0.00    -0.014 C 
HETATM   13  C21 UNL     1      -1.629  50.775 -16.514  1.00  0.00     0.020 C 
HETATM   14  C22 UNL     1       0.062  48.896 -16.523  1.00  0.00     0.021 C 
HETATM   15  C23 UNL     1       0.381  48.907 -15.037  1.00  0.00     0.080 C 
HETATM   16  C24 UNL     1       1.533  49.833 -14.739  1.00  0.00     0.135 C 
HETATM   17  O3  UNL     1       2.436  49.462 -13.987  1.00  0.00    -0.297 OA
HETATM   18  C25 UNL     1       1.465  51.263 -15.298  1.00  0.00     0.018 C 
HETATM   19  C26 UNL     1       0.638  52.115 -14.325  1.00  0.00     0.023 C 
HETATM   20  C27 UNL     1       2.908  51.834 -15.286  1.00  0.00     0.023 C 
HETATM   21  C28 UNL     1       0.938  51.235 -16.777  1.00  0.00     0.020 C 
HETATM   22  C29 UNL     1       0.692  52.626 -17.368  1.00  0.00     0.090 C 
HETATM   23  C30 UNL     1       0.466  52.550 -18.859  1.00  0.00     0.157 C 
HETATM   24  O4  UNL     1       0.770  53.506 -19.569  1.00  0.00    -0.293 OA
ENDROOT
BRANCH   1  25
HETATM   25  C2  UNL     1      -3.124  50.202 -23.526  1.00  0.00    -0.014 C 
HETATM   26  C1  UNL     1      -4.310  50.099 -22.562  1.00  0.00     0.010 C 
BRANCH  25  27
HETATM   27  C3  UNL     1      -3.026  48.906 -24.376  1.00  0.00     0.008 C 
BRANCH  27  28
HETATM   28  C4  UNL     1      -3.002  49.116 -25.893  1.00  0.00     0.028 C 
BRANCH  28  29
HETATM   29  C5  UNL     1      -1.746  49.833 -26.309  1.00  0.00    -0.020 C 
HETATM   30  C6  UNL     1      -1.631  51.047 -26.890  1.00  0.00    -0.037 C 
BRANCH  30  31
HETATM   31  C7  UNL     1      -0.294  51.661 -27.250  1.00  0.00     0.200 C 
BRANCH  31  32
HETATM   32  O1  UNL     1      -0.178  51.921 -28.644  1.00  0.00    -0.397 OA
HETATM   33  H12 UNL     1      -0.844  52.604 -28.836  1.00  0.00     0.209 HD
ENDBRANCH  31  32
ENDBRANCH  30  31
BRANCH  30  34
HETATM   34  C8  UNL     1      -2.796  51.938 -27.232  1.00  0.00     0.200 C 
BRANCH  34  35
HETATM   35  O2  UNL     1      -3.127  52.711 -26.087  1.00  0.00    -0.397 OA
HETATM   36  H15 UNL     1      -3.829  53.326 -26.358  1.00  0.00     0.209 HD
ENDBRANCH  34  35
ENDBRANCH  30  34
ENDBRANCH  28  29
ENDBRANCH  27  28
ENDBRANCH  25  27
ENDBRANCH   1  25
TORSDOF 8
ENDMDL
MODEL 8
REMARK minimizedAffinity -8.95634556
REMARK CNNscore 0.446735978
REMARK CNNaffinity 7.11931276
REMARK  8 active torsions:
REMARK  status: ('A' for Active; 'I' for Inactive)
REMARK    1  A    between atoms: C2_2  and  C3_3 
REMARK    2  A    between atoms: C2_2  and  C9_11 
REMARK    3  A    between atoms: C3_3  and  C4_4 
REMARK    4  A    between atoms: C4_4  and  C5_5 
REMARK    5  A    between atoms: C6_6  and  C7_7 
REMARK    6  A    between atoms: C6_6  and  C8_9 
REMARK    7  A    between atoms: C7_7  and  O1_8 
REMARK    8  A    between atoms: C8_9  and  O2_10 
ROOT
HETATM    1  C9  UNL     1      -1.001  51.150 -23.667  1.00  0.00    -0.002 C 
HETATM    2  C10 UNL     1      -0.517  52.626 -23.687  1.00  0.00     0.007 C 
HETATM    3  C11 UNL     1      -0.021  52.972 -22.272  1.00  0.00     0.015 C 
HETATM    4  C12 UNL     1       0.100  51.619 -21.544  1.00  0.00    -0.005 C 
HETATM    5  C13 UNL     1       1.481  51.012 -21.938  1.00  0.00     0.021 C 
HETATM    6  C14 UNL     1       0.070  51.555 -20.021  1.00  0.00    -0.000 C 
HETATM    7  C15 UNL     1      -0.419  50.463 -19.374  1.00  0.00    -0.060 C 
HETATM    8  C16 UNL     1      -0.997  49.281 -20.163  1.00  0.00     0.036 C 
HETATM    9  C17 UNL     1      -1.076  49.408 -21.698  1.00  0.00     0.015 C 
HETATM   10  C18 UNL     1      -1.160  50.873 -22.141  1.00  0.00    -0.028 C 
HETATM   11  C19 UNL     1      -2.519  51.462 -21.648  1.00  0.00     0.016 C 
HETATM   12  C20 UNL     1      -0.484  50.365 -17.826  1.00  0.00    -0.014 C 
HETATM   13  C21 UNL     1      -1.896  50.863 -17.439  1.00  0.00     0.020 C 
HETATM   14  C22 UNL     1      -0.297  48.909 -17.330  1.00  0.00     0.021 C 
HETATM   15  C23 UNL     1      -0.233  48.787 -15.816  1.00  0.00     0.080 C 
HETATM   16  C24 UNL     1       0.884  49.627 -15.253  1.00  0.00     0.135 C 
HETATM   17  O3  UNL     1       1.633  49.154 -14.397  1.00  0.00    -0.297 OA
HETATM   18  C25 UNL     1       0.964  51.099 -15.691  1.00  0.00     0.018 C 
HETATM   19  C26 UNL     1       0.015  51.912 -14.798  1.00  0.00     0.023 C 
HETATM   20  C27 UNL     1       2.403  51.594 -15.391  1.00  0.00     0.023 C 
HETATM   21  C28 UNL     1       0.693  51.213 -17.233  1.00  0.00     0.020 C 
HETATM   22  C29 UNL     1       0.601  52.658 -17.734  1.00  0.00     0.090 C 
HETATM   23  C30 UNL     1       0.627  52.710 -19.243  1.00  0.00     0.157 C 
HETATM   24  O4  UNL     1       1.081  53.703 -19.809  1.00  0.00    -0.293 OA
ENDROOT
BRANCH   1  25
HETATM   25  C2  UNL     1      -2.205  50.919 -24.625  1.00  0.00    -0.014 C 
HETATM   26  C1  UNL     1      -3.402  51.817 -24.301  1.00  0.00     0.010 C 
BRANCH  25  27
HETATM   27  C3  UNL     1      -2.661  49.436 -24.676  1.00  0.00     0.008 C 
BRANCH  27  28
HETATM   28  C4  UNL     1      -4.174  49.217 -24.769  1.00  0.00     0.028 C 
BRANCH  28  29
HETATM   29  C5  UNL     1      -4.527  48.487 -26.038  1.00  0.00    -0.020 C 
HETATM   30  C6  UNL     1      -4.236  48.836 -27.310  1.00  0.00    -0.037 C 
BRANCH  30  31
HETATM   31  C7  UNL     1      -4.643  47.998 -28.504  1.00  0.00     0.200 C 
BRANCH  31  32
HETATM   32  O1  UNL     1      -5.917  47.391 -28.326  1.00  0.00    -0.397 OA
HETATM   33  H12 UNL     1      -6.553  48.127 -28.291  1.00  0.00     0.209 HD
ENDBRANCH  31  32
ENDBRANCH  30  31
BRANCH  30  34
HETATM   34  C8  UNL     1      -3.465  50.071 -27.696  1.00  0.00     0.200 C 
BRANCH  34  35
HETATM   35  O2  UNL     1      -3.644  50.302 -29.087  1.00  0.00    -0.397 OA
HETATM   36  H15 UNL     1      -3.200  51.141 -29.291  1.00  0.00     0.209 HD
ENDBRANCH  34  35
ENDBRANCH  30  34
ENDBRANCH  28  29
ENDBRANCH  27  28
ENDBRANCH  25  27
ENDBRANCH   1  25
TORSDOF 8
ENDMDL
MODEL 9
REMARK minimizedAffinity -7.2423563
REMARK CNNscore 0.427696288
REMARK CNNaffinity 6.56373453
REMARK  8 active torsions:
REMARK  status: ('A' for Active; 'I' for Inactive)
REMARK    1  A    between atoms: C2_2  and  C3_3 
REMARK    2  A    between atoms: C2_2  and  C9_11 
REMARK    3  A    between atoms: C3_3  and  C4_4 
REMARK    4  A    between atoms: C4_4  and  C5_5 
REMARK    5  A    between atoms: C6_6  and  C7_7 
REMARK    6  A    between atoms: C6_6  and  C8_9 
REMARK    7  A    between atoms: C7_7  and  O1_8 
REMARK    8  A    between atoms: C8_9  and  O2_10 
ROOT
HETATM    1  C9  UNL     1       2.358  54.064 -10.470  1.00  0.00    -0.002 C 
HETATM    2  C10 UNL     1       1.164  54.869  -9.889  1.00  0.00     0.007 C 
HETATM    3  C11 UNL     1       1.706  55.743  -8.745  1.00  0.00     0.015 C 
HETATM    4  C12 UNL     1       3.239  55.699  -8.893  1.00  0.00    -0.005 C 
HETATM    5  C13 UNL     1       3.624  56.768  -9.962  1.00  0.00     0.021 C 
HETATM    6  C14 UNL     1       4.140  56.003  -7.701  1.00  0.00    -0.000 C 
HETATM    7  C15 UNL     1       5.367  55.428  -7.586  1.00  0.00    -0.060 C 
HETATM    8  C16 UNL     1       5.861  54.419  -8.631  1.00  0.00     0.036 C 
HETATM    9  C17 UNL     1       4.892  54.026  -9.766  1.00  0.00     0.015 C 
HETATM   10  C18 UNL     1       3.429  54.195  -9.344  1.00  0.00    -0.028 C 
HETATM   11  C19 UNL     1       3.116  53.166  -8.212  1.00  0.00     0.016 C 
HETATM   12  C20 UNL     1       6.309  55.696  -6.380  1.00  0.00    -0.014 C 
HETATM   13  C21 UNL     1       6.009  54.571  -5.363  1.00  0.00     0.020 C 
HETATM   14  C22 UNL     1       7.803  55.637  -6.788  1.00  0.00     0.021 C 
HETATM   15  C23 UNL     1       8.754  56.014  -5.663  1.00  0.00     0.080 C 
HETATM   16  C24 UNL     1       8.458  57.398  -5.145  1.00  0.00     0.135 C 
HETATM   17  O3  UNL     1       9.383  58.187  -4.946  1.00  0.00    -0.297 OA
HETATM   18  C25 UNL     1       7.003  57.725  -4.769  1.00  0.00     0.018 C 
HETATM   19  C26 UNL     1       6.760  57.228  -3.337  1.00  0.00     0.023 C 
HETATM   20  C27 UNL     1       6.869  59.270  -4.742  1.00  0.00     0.023 C 
HETATM   21  C28 UNL     1       6.027  57.145  -5.853  1.00  0.00     0.020 C 
HETATM   22  C29 UNL     1       4.547  57.290  -5.487  1.00  0.00     0.090 C 
HETATM   23  C30 UNL     1       3.663  56.983  -6.671  1.00  0.00     0.157 C 
HETATM   24  O4  UNL     1       2.561  57.520  -6.762  1.00  0.00    -0.293 OA
ENDROOT
BRANCH   1  25
HETATM   25  C2  UNL     1       1.925  52.654 -10.965  1.00  0.00    -0.014 C 
HETATM   26  C1  UNL     1       1.035  51.920  -9.958  1.00  0.00     0.010 C 
BRANCH  25  27
HETATM   27  C3  UNL     1       3.128  51.753 -11.355  1.00  0.00     0.008 C 
BRANCH  27  28
HETATM   28  C4  UNL     1       2.855  50.743 -12.473  1.00  0.00     0.028 C 
BRANCH  28  29
HETATM   29  C5  UNL     1       3.303  51.289 -13.802  1.00  0.00    -0.020 C 
HETATM   30  C6  UNL     1       2.538  51.697 -14.838  1.00  0.00    -0.037 C 
BRANCH  30  31
HETATM   31  C7  UNL     1       3.122  52.242 -16.125  1.00  0.00     0.200 C 
BRANCH  31  32
HETATM   32  O1  UNL     1       2.417  53.386 -16.593  1.00  0.00    -0.397 OA
HETATM   33  H12 UNL     1       2.567  54.076 -15.922  1.00  0.00     0.209 HD
ENDBRANCH  31  32
ENDBRANCH  30  31
BRANCH  30  34
HETATM   34  C8  UNL     1       1.032  51.681 -14.839  1.00  0.00     0.200 C 
BRANCH  34  35
HETATM   35  O2  UNL     1       0.565  52.852 -14.181  1.00  0.00    -0.397 OA
HETATM   36  H15 UNL     1      -0.403  52.851 -14.263  1.00  0.00     0.209 HD
ENDBRANCH  34  35
ENDBRANCH  30  34
ENDBRANCH  28  29
ENDBRANCH  27  28
ENDBRANCH  25  27
ENDBRANCH   1  25
TORSDOF 8
ENDMDL
