MODEL 1
REMARK minimizedAffinity -7.85139656
REMARK CNNscore 0.333521903
REMARK CNNaffinity 6.54631758
REMARK  11 active torsions:
REMARK  status: ('A' for Active; 'I' for Inactive)
REMARK    1  A    between atoms: C2_2  and  C3_3 
REMARK    2  A    between atoms: C2_2  and  C4_5 
REMARK    3  A    between atoms: C3_3  and  O1_4 
REMARK    4  A    between atoms: C13_14  and  C14_15 
REMARK    5  A    between atoms: C14_15  and  C16_17 
REMARK    6  A    between atoms: C16_17  and  C17_18 
REMARK    7  A    between atoms: C17_18  and  C18_19 
REMARK    8  A    between atoms: C27_28  and  C28_29 
REMARK    9  A    between atoms: C28_29  and  C29_30 
REMARK   10  A    between atoms: C29_30  and  C30_31 
REMARK   11  A    between atoms: C30_31  and  O3_33 
ROOT
HETATM    1  C4  UNL     1      -5.315  48.187 -23.695  1.00  0.00     0.025 C 
HETATM    2  C5  UNL     1      -5.274  47.422 -22.361  1.00  0.00     0.010 C 
HETATM    3  C6  UNL     1      -3.883  47.450 -21.751  1.00  0.00     0.007 C 
HETATM    4  C7  UNL     1      -3.571  48.871 -21.270  1.00  0.00     0.004 C 
HETATM    5  C8  UNL     1      -3.639  49.887 -22.441  1.00  0.00    -0.027 A 
HETATM    6  C9  UNL     1      -2.394  50.771 -22.663  1.00  0.00     0.011 C 
HETATM    7  C10 UNL     1      -1.553  51.180 -21.440  1.00  0.00     0.011 C 
HETATM    8  C11 UNL     1      -1.953  50.485 -20.136  1.00  0.00    -0.032 C 
HETATM    9  C12 UNL     1      -3.165  51.253 -19.548  1.00  0.00     0.016 C 
HETATM   10  C13 UNL     1      -0.813  50.359 -19.076  1.00  0.00    -0.002 C 
HETATM   11  C22 UNL     1      -1.186  49.096 -18.263  1.00  0.00     0.006 C 
HETATM   12  C23 UNL     1      -2.312  48.385 -19.039  1.00  0.00     0.011 C 
HETATM   13  C24 UNL     1      -2.250  48.977 -20.462  1.00  0.00    -0.032 C 
HETATM   14  C25 UNL     1      -1.103  48.224 -21.211  1.00  0.00     0.016 C 
HETATM   15  C26 UNL     1      -4.969  50.586 -22.650  1.00  0.00     0.022 A 
HETATM   16  C27 UNL     1      -4.570  49.552 -23.671  1.00  0.00    -0.024 A 
ENDROOT
BRANCH  10  17
HETATM   17  C14 UNL     1      -0.276  51.591 -18.291  1.00  0.00    -0.014 C 
HETATM   18  C15 UNL     1       0.613  52.438 -19.226  1.00  0.00     0.010 C 
BRANCH  17  19
HETATM   19  C16 UNL     1       0.435  51.446 -16.925  1.00  0.00     0.008 C 
BRANCH  19  20
HETATM   20  C17 UNL     1       1.615  52.373 -16.629  1.00  0.00     0.028 C 
BRANCH  20  21
HETATM   21  C18 UNL     1       2.458  51.826 -15.506  1.00  0.00    -0.025 C 
HETATM   22  C19 UNL     1       2.126  51.705 -14.205  1.00  0.00    -0.091 C 
HETATM   23  C20 UNL     1       3.116  51.156 -13.211  1.00  0.00     0.042 C 
HETATM   24  C21 UNL     1       0.793  52.066 -13.612  1.00  0.00     0.042 C 
ENDBRANCH  20  21
ENDBRANCH  19  20
ENDBRANCH  17  19
ENDBRANCH  10  17
BRANCH  16  25
HETATM   25  C28 UNL     1      -4.065  49.998 -25.059  1.00  0.00     0.021 C 
BRANCH  25  26
HETATM   26  C29 UNL     1      -3.634  48.895 -26.018  1.00  0.00     0.111 C 
BRANCH  26  27
HETATM   27  C30 UNL     1      -3.311  49.416 -27.388  1.00  0.00     0.139 C 
HETATM   28  O2  UNL     1      -3.896  49.162 -28.427  1.00  0.00    -0.650 OA
BRANCH  27  29
HETATM   29  O3  UNL     1      -2.271  50.277 -27.377  1.00  0.00    -0.776 OA
HETATM   30  H48 UNL     1      -2.159  50.506 -28.326  1.00  0.00     0.167 HD
ENDBRANCH  27  29
ENDBRANCH  26  27
ENDBRANCH  25  26
ENDBRANCH  16  25
BRANCH   1  31
HETATM   31  C2  UNL     1      -6.746  48.169 -24.249  1.00  0.00    -0.061 C 
HETATM   32  C1  UNL     1      -7.096  47.272 -25.194  1.00  0.00     0.017 C 
BRANCH  31  33
HETATM   33  C3  UNL     1      -7.799  49.075 -23.657  1.00  0.00     0.198 C 
BRANCH  33  34
HETATM   34  O1  UNL     1      -8.432  49.847 -24.659  1.00  0.00    -0.397 OA
HETATM   35  H5  UNL     1      -8.681  49.240 -25.381  1.00  0.00     0.209 HD
ENDBRANCH  33  34
ENDBRANCH  31  33
ENDBRANCH   1  31
TORSDOF 11
ENDMDL
MODEL 2
REMARK minimizedAffinity -8.35850143
REMARK CNNscore 0.331722528
REMARK CNNaffinity 6.42855215
REMARK  11 active torsions:
REMARK  status: ('A' for Active; 'I' for Inactive)
REMARK    1  A    between atoms: C2_2  and  C3_3 
REMARK    2  A    between atoms: C2_2  and  C4_5 
REMARK    3  A    between atoms: C3_3  and  O1_4 
REMARK    4  A    between atoms: C13_14  and  C14_15 
REMARK    5  A    between atoms: C14_15  and  C16_17 
REMARK    6  A    between atoms: C16_17  and  C17_18 
REMARK    7  A    between atoms: C17_18  and  C18_19 
REMARK    8  A    between atoms: C27_28  and  C28_29 
REMARK    9  A    between atoms: C28_29  and  C29_30 
REMARK   10  A    between atoms: C29_30  and  C30_31 
REMARK   11  A    between atoms: C30_31  and  O3_33 
ROOT
HETATM    1  C4  UNL     1      -6.314  47.554 -23.654  1.00  0.00     0.025 C 
HETATM    2  C5  UNL     1      -6.094  47.594 -22.132  1.00  0.00     0.010 C 
HETATM    3  C6  UNL     1      -4.615  47.648 -21.790  1.00  0.00     0.007 C 
HETATM    4  C7  UNL     1      -4.052  49.016 -22.192  1.00  0.00     0.004 C 
HETATM    5  C8  UNL     1      -4.238  49.274 -23.710  1.00  0.00    -0.027 A 
HETATM    6  C9  UNL     1      -2.970  49.642 -24.509  1.00  0.00     0.011 C 
HETATM    7  C10 UNL     1      -1.860  50.440 -23.803  1.00  0.00     0.011 C 
HETATM    8  C11 UNL     1      -2.066  50.614 -22.296  1.00  0.00    -0.032 C 
HETATM    9  C12 UNL     1      -3.040  51.803 -22.090  1.00  0.00     0.016 C 
HETATM   10  C13 UNL     1      -0.759  50.822 -21.468  1.00  0.00    -0.002 C 
HETATM   11  C22 UNL     1      -1.102  50.264 -20.066  1.00  0.00     0.006 C 
HETATM   12  C23 UNL     1      -2.434  49.502 -20.206  1.00  0.00     0.011 C 
HETATM   13  C24 UNL     1      -2.593  49.250 -21.719  1.00  0.00    -0.032 C 
HETATM   14  C25 UNL     1      -1.713  48.005 -22.061  1.00  0.00     0.016 C 
HETATM   15  C26 UNL     1      -5.494  50.020 -24.118  1.00  0.00     0.022 A 
HETATM   16  C27 UNL     1      -5.429  48.552 -24.453  1.00  0.00    -0.024 A 
ENDROOT
BRANCH  10  17
HETATM   17  C14 UNL     1       0.062  52.142 -21.538  1.00  0.00    -0.014 C 
HETATM   18  C15 UNL     1       0.554  52.355 -22.986  1.00  0.00     0.010 C 
BRANCH  17  19
HETATM   19  C16 UNL     1       1.231  52.434 -20.567  1.00  0.00     0.008 C 
BRANCH  19  20
HETATM   20  C17 UNL     1       0.950  53.321 -19.354  1.00  0.00     0.028 C 
BRANCH  20  21
HETATM   21  C18 UNL     1       0.551  52.490 -18.163  1.00  0.00    -0.025 C 
HETATM   22  C19 UNL     1       1.297  52.176 -17.085  1.00  0.00    -0.091 C 
HETATM   23  C20 UNL     1       0.735  51.303 -15.993  1.00  0.00     0.042 C 
HETATM   24  C21 UNL     1       2.704  52.643 -16.837  1.00  0.00     0.042 C 
ENDBRANCH  20  21
ENDBRANCH  19  20
ENDBRANCH  17  19
ENDBRANCH  10  17
BRANCH  16  25
HETATM   25  C28 UNL     1      -5.166  48.107 -25.907  1.00  0.00     0.021 C 
BRANCH  25  26
HETATM   26  C29 UNL     1      -3.819  48.487 -26.507  1.00  0.00     0.111 C 
BRANCH  26  27
HETATM   27  C30 UNL     1      -3.906  48.802 -27.972  1.00  0.00     0.139 C 
HETATM   28  O2  UNL     1      -4.447  48.133 -28.836  1.00  0.00    -0.650 OA
BRANCH  27  29
HETATM   29  O3  UNL     1      -3.334  49.985 -28.277  1.00  0.00    -0.776 OA
HETATM   30  H48 UNL     1      -3.440  50.042 -29.252  1.00  0.00     0.167 HD
ENDBRANCH  27  29
ENDBRANCH  26  27
ENDBRANCH  25  26
ENDBRANCH  16  25
BRANCH   1  31
HETATM   31  C2  UNL     1      -7.820  47.546 -23.950  1.00  0.00    -0.061 C 
HETATM   32  C1  UNL     1      -8.710  47.545 -22.937  1.00  0.00     0.017 C 
BRANCH  31  33
HETATM   33  C3  UNL     1      -8.312  47.656 -25.374  1.00  0.00     0.198 C 
BRANCH  33  34
HETATM   34  O1  UNL     1      -8.664  48.989 -25.692  1.00  0.00    -0.397 OA
HETATM   35  H5  UNL     1      -7.931  49.562 -25.399  1.00  0.00     0.209 HD
ENDBRANCH  33  34
ENDBRANCH  31  33
ENDBRANCH   1  31
TORSDOF 11
ENDMDL
MODEL 3
REMARK minimizedAffinity -6.69246006
REMARK CNNscore 0.279510677
REMARK CNNaffinity 6.38038397
REMARK  11 active torsions:
REMARK  status: ('A' for Active; 'I' for Inactive)
REMARK    1  A    between atoms: C2_2  and  C3_3 
REMARK    2  A    between atoms: C2_2  and  C4_5 
REMARK    3  A    between atoms: C3_3  and  O1_4 
REMARK    4  A    between atoms: C13_14  and  C14_15 
REMARK    5  A    between atoms: C14_15  and  C16_17 
REMARK    6  A    between atoms: C16_17  and  C17_18 
REMARK    7  A    between atoms: C17_18  and  C18_19 
REMARK    8  A    between atoms: C27_28  and  C28_29 
REMARK    9  A    between atoms: C28_29  and  C29_30 
REMARK   10  A    between atoms: C29_30  and  C30_31 
REMARK   11  A    between atoms: C30_31  and  O3_33 
ROOT
HETATM    1  C4  UNL     1       0.580  52.733 -11.612  1.00  0.00     0.025 C 
HETATM    2  C5  UNL     1       1.965  52.076 -11.741  1.00  0.00     0.010 C 
HETATM    3  C6  UNL     1       3.078  53.100 -11.589  1.00  0.00     0.007 C 
HETATM    4  C7  UNL     1       3.128  53.579 -10.134  1.00  0.00     0.004 C 
HETATM    5  C8  UNL     1       1.781  54.218  -9.708  1.00  0.00    -0.027 A 
HETATM    6  C9  UNL     1       1.846  55.644  -9.122  1.00  0.00     0.011 C 
HETATM    7  C10 UNL     1       3.092  56.053  -8.316  1.00  0.00     0.011 C 
HETATM    8  C11 UNL     1       4.232  55.033  -8.353  1.00  0.00    -0.032 C 
HETATM    9  C12 UNL     1       3.920  53.941  -7.298  1.00  0.00     0.016 C 
HETATM   10  C13 UNL     1       5.659  55.626  -8.125  1.00  0.00    -0.002 C 
HETATM   11  C22 UNL     1       6.600  54.660  -8.885  1.00  0.00     0.006 C 
HETATM   12  C23 UNL     1       5.702  53.753  -9.748  1.00  0.00     0.011 C 
HETATM   13  C24 UNL     1       4.348  54.487  -9.822  1.00  0.00    -0.032 C 
HETATM   14  C25 UNL     1       4.493  55.585 -10.925  1.00  0.00     0.016 C 
HETATM   15  C26 UNL     1       0.779  53.295  -9.041  1.00  0.00     0.022 A 
HETATM   16  C27 UNL     1       0.464  53.750 -10.442  1.00  0.00    -0.024 A 
ENDROOT
BRANCH  10  17
HETATM   17  C14 UNL     1       6.126  56.144  -6.734  1.00  0.00    -0.014 C 
HETATM   18  C15 UNL     1       5.698  57.618  -6.573  1.00  0.00     0.010 C 
BRANCH  17  19
HETATM   19  C16 UNL     1       7.589  55.995  -6.253  1.00  0.00     0.008 C 
BRANCH  19  20
HETATM   20  C17 UNL     1       8.142  57.057  -5.302  1.00  0.00     0.028 C 
BRANCH  20  21
HETATM   21  C18 UNL     1       9.592  56.795  -4.990  1.00  0.00    -0.025 C 
HETATM   22  C19 UNL     1      10.581  57.698  -4.830  1.00  0.00    -0.091 C 
HETATM   23  C20 UNL     1      11.990  57.247  -4.546  1.00  0.00     0.042 C 
HETATM   24  C21 UNL     1      10.413  59.190  -4.894  1.00  0.00     0.042 C 
ENDBRANCH  20  21
ENDBRANCH  19  20
ENDBRANCH  17  19
ENDBRANCH  10  17
BRANCH  16  25
HETATM   25  C28 UNL     1      -0.616  54.828 -10.674  1.00  0.00     0.021 C 
BRANCH  25  26
HETATM   26  C29 UNL     1      -1.856  54.757  -9.793  1.00  0.00     0.111 C 
BRANCH  26  27
HETATM   27  C30 UNL     1      -2.927  53.881 -10.374  1.00  0.00     0.139 C 
HETATM   28  O2  UNL     1      -3.422  52.890  -9.864  1.00  0.00    -0.650 OA
BRANCH  27  29
HETATM   29  O3  UNL     1      -3.359  54.326 -11.573  1.00  0.00    -0.776 OA
HETATM   30  H48 UNL     1      -4.022  53.651 -11.837  1.00  0.00     0.167 HD
ENDBRANCH  27  29
ENDBRANCH  26  27
ENDBRANCH  25  26
ENDBRANCH  16  25
BRANCH   1  31
HETATM   31  C2  UNL     1      -0.507  51.656 -11.728  1.00  0.00    -0.061 C 
HETATM   32  C1  UNL     1      -0.688  50.766 -10.731  1.00  0.00     0.017 C 
BRANCH  31  33
HETATM   33  C3  UNL     1      -1.453  51.659 -12.904  1.00  0.00     0.198 C 
BRANCH  33  34
HETATM   34  O1  UNL     1      -2.768  51.324 -12.504  1.00  0.00    -0.397 OA
HETATM   35  H5  UNL     1      -2.982  51.865 -11.722  1.00  0.00     0.209 HD
ENDBRANCH  33  34
ENDBRANCH  31  33
ENDBRANCH   1  31
TORSDOF 11
ENDMDL
MODEL 4
REMARK minimizedAffinity -7.00154448
REMARK CNNscore 0.277245849
REMARK CNNaffinity 6.27544785
REMARK  11 active torsions:
REMARK  status: ('A' for Active; 'I' for Inactive)
REMARK    1  A    between atoms: C2_2  and  C3_3 
REMARK    2  A    between atoms: C2_2  and  C4_5 
REMARK    3  A    between atoms: C3_3  and  O1_4 
REMARK    4  A    between atoms: C13_14  and  C14_15 
REMARK    5  A    between atoms: C14_15  and  C16_17 
REMARK    6  A    between atoms: C16_17  and  C17_18 
REMARK    7  A    between atoms: C17_18  and  C18_19 
REMARK    8  A    between atoms: C27_28  and  C28_29 
REMARK    9  A    between atoms: C28_29  and  C29_30 
REMARK   10  A    between atoms: C29_30  and  C30_31 
REMARK   11  A    between atoms: C30_31  and  O3_33 
ROOT
HETATM    1  C4  UNL     1      -6.990  47.937 -19.694  1.00  0.00     0.025 C 
HETATM    2  C5  UNL     1      -5.703  47.647 -18.903  1.00  0.00     0.010 C 
HETATM    3  C6  UNL     1      -4.499  47.552 -19.825  1.00  0.00     0.007 C 
HETATM    4  C7  UNL     1      -4.179  48.943 -20.383  1.00  0.00     0.004 C 
HETATM    5  C8  UNL     1      -5.383  49.522 -21.171  1.00  0.00    -0.027 A 
HETATM    6  C9  UNL     1      -5.107  49.984 -22.616  1.00  0.00     0.011 C 
HETATM    7  C10 UNL     1      -3.720  50.558 -22.954  1.00  0.00     0.011 C 
HETATM    8  C11 UNL     1      -2.689  50.423 -21.831  1.00  0.00    -0.032 C 
HETATM    9  C12 UNL     1      -2.921  51.591 -20.838  1.00  0.00     0.016 C 
HETATM   10  C13 UNL     1      -1.200  50.386 -22.300  1.00  0.00    -0.002 C 
HETATM   11  C22 UNL     1      -0.475  49.566 -21.205  1.00  0.00     0.006 C 
HETATM   12  C23 UNL     1      -1.571  48.919 -20.337  1.00  0.00     0.011 C 
HETATM   13  C24 UNL     1      -2.854  48.998 -21.190  1.00  0.00    -0.032 C 
HETATM   14  C25 UNL     1      -2.794  47.808 -22.201  1.00  0.00     0.016 C 
HETATM   15  C26 UNL     1      -6.341  50.400 -20.387  1.00  0.00     0.022 A 
HETATM   16  C27 UNL     1      -6.835  49.033 -20.786  1.00  0.00    -0.024 A 
ENDROOT
BRANCH  10  17
HETATM   17  C14 UNL     1      -0.476  51.649 -22.853  1.00  0.00    -0.014 C 
HETATM   18  C15 UNL     1       0.168  52.417 -21.680  1.00  0.00     0.010 C 
BRANCH  17  19
HETATM   19  C16 UNL     1      -1.190  52.662 -23.779  1.00  0.00     0.008 C 
BRANCH  19  20
HETATM   20  C17 UNL     1      -0.774  52.703 -25.251  1.00  0.00     0.028 C 
BRANCH  20  21
HETATM   21  C18 UNL     1       0.644  52.226 -25.421  1.00  0.00    -0.025 C 
HETATM   22  C19 UNL     1       1.245  51.803 -26.552  1.00  0.00    -0.091 C 
HETATM   23  C20 UNL     1       2.676  51.333 -26.527  1.00  0.00     0.042 C 
HETATM   24  C21 UNL     1       0.607  51.764 -27.912  1.00  0.00     0.042 C 
ENDBRANCH  20  21
ENDBRANCH  19  20
ENDBRANCH  17  19
ENDBRANCH  10  17
BRANCH  16  25
HETATM   25  C28 UNL     1      -7.843  48.889 -21.945  1.00  0.00     0.021 C 
BRANCH  25  26
HETATM   26  C29 UNL     1      -7.622  47.727 -22.905  1.00  0.00     0.111 C 
BRANCH  26  27
HETATM   27  C30 UNL     1      -8.183  47.992 -24.272  1.00  0.00     0.139 C 
HETATM   28  O2  UNL     1      -8.893  47.252 -24.931  1.00  0.00    -0.650 OA
BRANCH  27  29
HETATM   29  O3  UNL     1      -7.848  49.215 -24.735  1.00  0.00    -0.776 OA
HETATM   30  H48 UNL     1      -8.252  49.235 -25.630  1.00  0.00     0.167 HD
ENDBRANCH  27  29
ENDBRANCH  26  27
ENDBRANCH  25  26
ENDBRANCH  16  25
BRANCH   1  31
HETATM   31  C2  UNL     1      -8.168  48.068 -18.719  1.00  0.00    -0.061 C 
HETATM   32  C1  UNL     1      -9.414  47.738 -19.114  1.00  0.00     0.017 C 
BRANCH  31  33
HETATM   33  C3  UNL     1      -7.921  48.455 -17.281  1.00  0.00     0.198 C 
BRANCH  33  34
HETATM   34  O1  UNL     1      -7.602  47.323 -16.494  1.00  0.00    -0.397 OA
HETATM   35  H5  UNL     1      -6.920  46.818 -16.972  1.00  0.00     0.209 HD
ENDBRANCH  33  34
ENDBRANCH  31  33
ENDBRANCH   1  31
TORSDOF 11
ENDMDL
MODEL 5
REMARK minimizedAffinity -6.68945742
REMARK CNNscore 0.202107936
REMARK CNNaffinity 6.13074446
REMARK  11 active torsions:
REMARK  status: ('A' for Active; 'I' for Inactive)
REMARK    1  A    between atoms: C2_2  and  C3_3 
REMARK    2  A    between atoms: C2_2  and  C4_5 
REMARK    3  A    between atoms: C3_3  and  O1_4 
REMARK    4  A    between atoms: C13_14  and  C14_15 
REMARK    5  A    between atoms: C14_15  and  C16_17 
REMARK    6  A    between atoms: C16_17  and  C17_18 
REMARK    7  A    between atoms: C17_18  and  C18_19 
REMARK    8  A    between atoms: C27_28  and  C28_29 
REMARK    9  A    between atoms: C28_29  and  C29_30 
REMARK   10  A    between atoms: C29_30  and  C30_31 
REMARK   11  A    between atoms: C30_31  and  O3_33 
ROOT
HETATM    1  C4  UNL     1      -1.864  52.585 -10.426  1.00  0.00     0.025 C 
HETATM    2  C5  UNL     1      -2.288  52.472  -8.951  1.00  0.00     0.010 C 
HETATM    3  C6  UNL     1      -1.087  52.565  -8.025  1.00  0.00     0.007 C 
HETATM    4  C7  UNL     1      -0.537  53.995  -8.051  1.00  0.00     0.004 C 
HETATM    5  C8  UNL     1      -0.111  54.405  -9.486  1.00  0.00    -0.027 A 
HETATM    6  C9  UNL     1       1.332  54.922  -9.657  1.00  0.00     0.011 C 
HETATM    7  C10 UNL     1       1.981  55.695  -8.495  1.00  0.00     0.011 C 
HETATM    8  C11 UNL     1       1.164  55.695  -7.201  1.00  0.00    -0.032 C 
HETATM    9  C12 UNL     1       0.087  56.803  -7.326  1.00  0.00     0.016 C 
HETATM   10  C13 UNL     1       1.997  55.880  -5.893  1.00  0.00    -0.002 C 
HETATM   11  C22 UNL     1       1.165  55.157  -4.806  1.00  0.00     0.006 C 
HETATM   12  C23 UNL     1       0.081  54.347  -5.542  1.00  0.00     0.011 C 
HETATM   13  C24 UNL     1       0.575  54.252  -7.000  1.00  0.00    -0.032 C 
HETATM   14  C25 UNL     1       1.628  53.097  -7.042  1.00  0.00     0.016 C 
HETATM   15  C26 UNL     1      -1.155  55.124 -10.319  1.00  0.00     0.022 A 
HETATM   16  C27 UNL     1      -0.826  53.707 -10.708  1.00  0.00    -0.024 A 
ENDROOT
BRANCH  10  17
HETATM   17  C14 UNL     1       2.651  57.241  -5.515  1.00  0.00    -0.014 C 
HETATM   18  C15 UNL     1       1.814  57.913  -4.407  1.00  0.00     0.010 C 
BRANCH  17  19
HETATM   19  C16 UNL     1       3.009  58.302  -6.583  1.00  0.00     0.008 C 
BRANCH  19  20
HETATM   20  C17 UNL     1       4.119  57.969  -7.580  1.00  0.00     0.028 C 
BRANCH  20  21
HETATM   21  C18 UNL     1       5.282  57.309  -6.887  1.00  0.00    -0.025 C 
HETATM   22  C19 UNL     1       5.977  56.225  -7.287  1.00  0.00    -0.091 C 
HETATM   23  C20 UNL     1       7.103  55.685  -6.444  1.00  0.00     0.042 C 
HETATM   24  C21 UNL     1       5.743  55.465  -8.562  1.00  0.00     0.042 C 
ENDBRANCH  20  21
ENDBRANCH  19  20
ENDBRANCH  17  19
ENDBRANCH  10  17
BRANCH  16  25
HETATM   25  C28 UNL     1       0.046  53.435 -11.952  1.00  0.00     0.021 C 
BRANCH  25  26
HETATM   26  C29 UNL     1       0.457  51.988 -12.198  1.00  0.00     0.111 C 
BRANCH  26  27
HETATM   27  C30 UNL     1       0.518  51.645 -13.658  1.00  0.00     0.139 C 
HETATM   28  O2  UNL     1       0.357  50.547 -14.162  1.00  0.00    -0.650 OA
BRANCH  27  29
HETATM   29  O3  UNL     1       0.743  52.729 -14.430  1.00  0.00    -0.776 OA
HETATM   30  H48 UNL     1       0.786  52.354 -15.337  1.00  0.00     0.167 HD
ENDBRANCH  27  29
ENDBRANCH  26  27
ENDBRANCH  25  26
ENDBRANCH  16  25
BRANCH   1  31
HETATM   31  C2  UNL     1      -3.111  52.531 -11.319  1.00  0.00    -0.061 C 
HETATM   32  C1  UNL     1      -4.188  53.288 -11.026  1.00  0.00     0.017 C 
BRANCH  31  33
HETATM   33  C3  UNL     1      -3.096  51.720 -12.593  1.00  0.00     0.198 C 
BRANCH  33  34
HETATM   34  O1  UNL     1      -3.057  52.557 -13.733  1.00  0.00    -0.397 OA
HETATM   35  H5  UNL     1      -2.357  53.219 -13.584  1.00  0.00     0.209 HD
ENDBRANCH  33  34
ENDBRANCH  31  33
ENDBRANCH   1  31
TORSDOF 11
ENDMDL
MODEL 6
REMARK minimizedAffinity -8.01766491
REMARK CNNscore 0.201258883
REMARK CNNaffinity 5.97655725
REMARK  11 active torsions:
REMARK  status: ('A' for Active; 'I' for Inactive)
REMARK    1  A    between atoms: C2_2  and  C3_3 
REMARK    2  A    between atoms: C2_2  and  C4_5 
REMARK    3  A    between atoms: C3_3  and  O1_4 
REMARK    4  A    between atoms: C13_14  and  C14_15 
REMARK    5  A    between atoms: C14_15  and  C16_17 
REMARK    6  A    between atoms: C16_17  and  C17_18 
REMARK    7  A    between atoms: C17_18  and  C18_19 
REMARK    8  A    between atoms: C27_28  and  C28_29 
REMARK    9  A    between atoms: C28_29  and  C29_30 
REMARK   10  A    between atoms: C29_30  and  C30_31 
REMARK   11  A    between atoms: C30_31  and  O3_33 
ROOT
HETATM    1  C4  UNL     1      -0.948  52.522 -24.771  1.00  0.00     0.025 C 
HETATM    2  C5  UNL     1      -0.372  52.412 -23.348  1.00  0.00     0.010 C 
HETATM    3  C6  UNL     1      -1.463  52.119 -22.332  1.00  0.00     0.007 C 
HETATM    4  C7  UNL     1      -1.977  50.690 -22.540  1.00  0.00     0.004 C 
HETATM    5  C8  UNL     1      -2.544  50.501 -23.971  1.00  0.00    -0.027 A 
HETATM    6  C9  UNL     1      -3.984  49.958 -24.078  1.00  0.00     0.011 C 
HETATM    7  C10 UNL     1      -4.485  48.979 -23.001  1.00  0.00     0.011 C 
HETATM    8  C11 UNL     1      -3.534  48.804 -21.814  1.00  0.00    -0.032 C 
HETATM    9  C12 UNL     1      -2.449  47.778 -22.230  1.00  0.00     0.016 C 
HETATM   10  C13 UNL     1      -4.216  48.375 -20.477  1.00  0.00    -0.002 C 
HETATM   11  C22 UNL     1      -3.290  48.946 -19.376  1.00  0.00     0.006 C 
HETATM   12  C23 UNL     1      -2.312  49.910 -20.074  1.00  0.00     0.011 C 
HETATM   13  C24 UNL     1      -2.963  50.219 -21.438  1.00  0.00    -0.032 C 
HETATM   14  C25 UNL     1      -4.042  51.320 -21.180  1.00  0.00     0.016 C 
HETATM   15  C26 UNL     1      -1.578  49.971 -25.014  1.00  0.00     0.022 A 
HETATM   16  C27 UNL     1      -1.983  51.418 -25.127  1.00  0.00    -0.024 A 
ENDROOT
BRANCH  10  17
HETATM   17  C14 UNL     1      -4.791  46.944 -20.266  1.00  0.00    -0.014 C 
HETATM   18  C15 UNL     1      -3.745  46.083 -19.525  1.00  0.00     0.010 C 
BRANCH  17  19
HETATM   19  C16 UNL     1      -5.381  46.117 -21.433  1.00  0.00     0.008 C 
BRANCH  19  20
HETATM   20  C17 UNL     1      -6.864  46.297 -21.760  1.00  0.00     0.028 C 
BRANCH  20  21
HETATM   21  C18 UNL     1      -7.090  46.281 -23.250  1.00  0.00    -0.025 C 
HETATM   22  C19 UNL     1      -7.594  47.265 -24.021  1.00  0.00    -0.091 C 
HETATM   23  C20 UNL     1      -7.775  47.060 -25.502  1.00  0.00     0.042 C 
HETATM   24  C21 UNL     1      -8.006  48.626 -23.533  1.00  0.00     0.042 C 
ENDBRANCH  20  21
ENDBRANCH  19  20
ENDBRANCH  17  19
ENDBRANCH  10  17
BRANCH  16  25
HETATM   25  C28 UNL     1      -2.989  51.851 -26.214  1.00  0.00     0.021 C 
BRANCH  25  26
HETATM   26  C29 UNL     1      -2.649  51.477 -27.651  1.00  0.00     0.111 C 
BRANCH  26  27
HETATM   27  C30 UNL     1      -3.440  50.300 -28.143  1.00  0.00     0.139 C 
HETATM   28  O2  UNL     1      -3.822  49.345 -27.488  1.00  0.00    -0.650 OA
BRANCH  27  29
HETATM   29  O3  UNL     1      -3.750  50.402 -29.453  1.00  0.00    -0.776 OA
HETATM   30  H48 UNL     1      -4.230  49.566 -29.637  1.00  0.00     0.167 HD
ENDBRANCH  27  29
ENDBRANCH  26  27
ENDBRANCH  25  26
ENDBRANCH  16  25
BRANCH   1  31
HETATM   31  C2  UNL     1       0.194  52.773 -25.764  1.00  0.00    -0.061 C 
HETATM   32  C1  UNL     1       1.254  51.941 -25.803  1.00  0.00     0.017 C 
BRANCH  31  33
HETATM   33  C3  UNL     1       0.082  53.883 -26.782  1.00  0.00     0.198 C 
BRANCH  33  34
HETATM   34  O1  UNL     1       0.170  55.154 -26.165  1.00  0.00    -0.397 OA
HETATM   35  H5  UNL     1       0.940  55.135 -25.568  1.00  0.00     0.209 HD
ENDBRANCH  33  34
ENDBRANCH  31  33
ENDBRANCH   1  31
TORSDOF 11
ENDMDL
MODEL 7
REMARK minimizedAffinity -6.801682
REMARK CNNscore 0.196262315
REMARK CNNaffinity 5.55756521
REMARK  11 active torsions:
REMARK  status: ('A' for Active; 'I' for Inactive)
REMARK    1  A    between atoms: C2_2  and  C3_3 
REMARK    2  A    between atoms: C2_2  and  C4_5 
REMARK    3  A    between atoms: C3_3  and  O1_4 
REMARK    4  A    between atoms: C13_14  and  C14_15 
REMARK    5  A    between atoms: C14_15  and  C16_17 
REMARK    6  A    between atoms: C16_17  and  C17_18 
REMARK    7  A    between atoms: C17_18  and  C18_19 
REMARK    8  A    between atoms: C27_28  and  C28_29 
REMARK    9  A    between atoms: C28_29  and  C29_30 
REMARK   10  A    between atoms: C29_30  and  C30_31 
REMARK   11  A    between atoms: C30_31  and  O3_33 
ROOT
HETATM    1  C4  UNL     1      -7.921  46.187 -31.448  1.00  0.00     0.025 C 
HETATM    2  C5  UNL     1      -9.302  45.691 -31.911  1.00  0.00     0.010 C 
HETATM    3  C6  UNL     1     -10.046  44.998 -30.781  1.00  0.00     0.007 C 
HETATM    4  C7  UNL     1     -10.456  46.037 -29.733  1.00  0.00     0.004 C 
HETATM    5  C8  UNL     1      -9.216  46.771 -29.157  1.00  0.00    -0.027 A 
HETATM    6  C9  UNL     1      -9.060  46.764 -27.622  1.00  0.00     0.011 C 
HETATM    7  C10 UNL     1     -10.329  46.763 -26.751  1.00  0.00     0.011 C 
HETATM    8  C11 UNL     1     -11.631  46.571 -27.532  1.00  0.00    -0.032 C 
HETATM    9  C12 UNL     1     -12.040  47.951 -28.110  1.00  0.00     0.016 C 
HETATM   10  C13 UNL     1     -12.807  45.945 -26.717  1.00  0.00    -0.002 C 
HETATM   11  C22 UNL     1     -13.664  45.217 -27.780  1.00  0.00     0.006 C 
HETATM   12  C23 UNL     1     -12.831  45.184 -29.075  1.00  0.00     0.011 C 
HETATM   13  C24 UNL     1     -11.383  45.469 -28.625  1.00  0.00    -0.032 C 
HETATM   14  C25 UNL     1     -10.807  44.121 -28.085  1.00  0.00     0.016 C 
HETATM   15  C26 UNL     1      -8.826  48.070 -29.836  1.00  0.00     0.022 A 
HETATM   16  C27 UNL     1      -7.925  46.883 -30.058  1.00  0.00    -0.024 A 
ENDROOT
BRANCH  10  17
HETATM   17  C14 UNL     1     -13.555  46.738 -25.605  1.00  0.00    -0.014 C 
HETATM   18  C15 UNL     1     -12.820  46.540 -24.262  1.00  0.00     0.010 C 
BRANCH  17  19
HETATM   19  C16 UNL     1     -15.076  46.581 -25.368  1.00  0.00     0.008 C 
BRANCH  19  20
HETATM   20  C17 UNL     1     -15.714  47.397 -24.244  1.00  0.00     0.028 C 
BRANCH  20  21
HETATM   21  C18 UNL     1     -16.605  46.532 -23.392  1.00  0.00    -0.025 C 
HETATM   22  C19 UNL     1     -17.942  46.385 -23.476  1.00  0.00    -0.091 C 
HETATM   23  C20 UNL     1     -18.675  45.487 -22.513  1.00  0.00     0.042 C 
HETATM   24  C21 UNL     1     -18.826  47.047 -24.496  1.00  0.00     0.042 C 
ENDBRANCH  20  21
ENDBRANCH  19  20
ENDBRANCH  17  19
ENDBRANCH  10  17
BRANCH  16  25
HETATM   25  C28 UNL     1      -6.567  46.803 -29.330  1.00  0.00     0.021 C 
BRANCH  25  26
HETATM   26  C29 UNL     1      -5.726  48.073 -29.308  1.00  0.00     0.111 C 
BRANCH  26  27
HETATM   27  C30 UNL     1      -4.869  48.177 -28.081  1.00  0.00     0.139 C 
HETATM   28  O2  UNL     1      -3.650  48.186 -28.034  1.00  0.00    -0.650 OA
BRANCH  27  29
HETATM   29  O3  UNL     1      -5.601  48.306 -26.954  1.00  0.00    -0.776 OA
HETATM   30  H48 UNL     1      -4.921  48.332 -26.246  1.00  0.00     0.167 HD
ENDBRANCH  27  29
ENDBRANCH  26  27
ENDBRANCH  25  26
ENDBRANCH  16  25
BRANCH   1  31
HETATM   31  C2  UNL     1      -7.229  46.917 -32.607  1.00  0.00    -0.061 C 
HETATM   32  C1  UNL     1      -7.927  47.768 -33.386  1.00  0.00     0.017 C 
BRANCH  31  33
HETATM   33  C3  UNL     1      -5.739  46.777 -32.808  1.00  0.00     0.198 C 
BRANCH  33  34
HETATM   34  O1  UNL     1      -5.363  47.135 -34.124  1.00  0.00    -0.397 OA
HETATM   35  H5  UNL     1      -5.791  47.987 -34.328  1.00  0.00     0.209 HD
ENDBRANCH  33  34
ENDBRANCH  31  33
ENDBRANCH   1  31
TORSDOF 11
ENDMDL
MODEL 8
REMARK minimizedAffinity -6.86217976
REMARK CNNscore 0.174877077
REMARK CNNaffinity 6.14257288
REMARK  11 active torsions:
REMARK  status: ('A' for Active; 'I' for Inactive)
REMARK    1  A    between atoms: C2_2  and  C3_3 
REMARK    2  A    between atoms: C2_2  and  C4_5 
REMARK    3  A    between atoms: C3_3  and  O1_4 
REMARK    4  A    between atoms: C13_14  and  C14_15 
REMARK    5  A    between atoms: C14_15  and  C16_17 
REMARK    6  A    between atoms: C16_17  and  C17_18 
REMARK    7  A    between atoms: C17_18  and  C18_19 
REMARK    8  A    between atoms: C27_28  and  C28_29 
REMARK    9  A    between atoms: C28_29  and  C29_30 
REMARK   10  A    between atoms: C29_30  and  C30_31 
REMARK   11  A    between atoms: C30_31  and  O3_33 
ROOT
HETATM    1  C4  UNL     1      -7.666  47.583 -19.285  1.00  0.00     0.025 C 
HETATM    2  C5  UNL     1      -6.484  48.438 -18.794  1.00  0.00     0.010 C 
HETATM    3  C6  UNL     1      -5.221  48.136 -19.582  1.00  0.00     0.007 C 
HETATM    4  C7  UNL     1      -5.377  48.667 -21.011  1.00  0.00     0.004 C 
HETATM    5  C8  UNL     1      -6.593  48.015 -21.721  1.00  0.00    -0.027 A 
HETATM    6  C9  UNL     1      -6.318  47.337 -23.079  1.00  0.00     0.011 C 
HETATM    7  C10 UNL     1      -5.219  47.919 -23.986  1.00  0.00     0.011 C 
HETATM    8  C11 UNL     1      -4.376  49.017 -23.331  1.00  0.00    -0.032 C 
HETATM    9  C12 UNL     1      -5.164  50.346 -23.448  1.00  0.00     0.016 C 
HETATM   10  C13 UNL     1      -2.934  49.178 -23.910  1.00  0.00    -0.002 C 
HETATM   11  C22 UNL     1      -2.109  49.741 -22.728  1.00  0.00     0.006 C 
HETATM   12  C23 UNL     1      -2.986  49.603 -21.469  1.00  0.00     0.011 C 
HETATM   13  C24 UNL     1      -4.075  48.580 -21.852  1.00  0.00    -0.032 C 
HETATM   14  C25 UNL     1      -3.434  47.163 -21.699  1.00  0.00     0.016 C 
HETATM   15  C26 UNL     1      -7.907  48.766 -21.632  1.00  0.00     0.022 A 
HETATM   16  C27 UNL     1      -7.789  47.495 -20.833  1.00  0.00    -0.024 A 
ENDROOT
BRANCH  10  17
HETATM   17  C14 UNL     1      -2.674  49.778 -25.323  1.00  0.00    -0.014 C 
HETATM   18  C15 UNL     1      -2.631  48.633 -26.357  1.00  0.00     0.010 C 
BRANCH  17  19
HETATM   19  C16 UNL     1      -1.497  50.743 -25.599  1.00  0.00     0.008 C 
BRANCH  19  20
HETATM   20  C17 UNL     1      -1.246  51.171 -27.045  1.00  0.00     0.028 C 
BRANCH  20  21
HETATM   21  C18 UNL     1       0.229  51.182 -27.353  1.00  0.00    -0.025 C 
HETATM   22  C19 UNL     1       1.217  51.770 -26.649  1.00  0.00    -0.091 C 
HETATM   23  C20 UNL     1       2.644  51.699 -27.128  1.00  0.00     0.042 C 
HETATM   24  C21 UNL     1       1.037  52.519 -25.358  1.00  0.00     0.042 C 
ENDBRANCH  20  21
ENDBRANCH  19  20
ENDBRANCH  17  19
ENDBRANCH  10  17
BRANCH  16  25
HETATM   25  C28 UNL     1      -8.502  46.214 -21.317  1.00  0.00     0.021 C 
BRANCH  25  26
HETATM   26  C29 UNL     1      -8.208  44.934 -20.546  1.00  0.00     0.111 C 
BRANCH  26  27
HETATM   27  C30 UNL     1      -6.854  44.368 -20.860  1.00  0.00     0.139 C 
HETATM   28  O2  UNL     1      -5.927  44.204 -20.085  1.00  0.00    -0.650 OA
BRANCH  27  29
HETATM   29  O3  UNL     1      -6.744  43.990 -22.152  1.00  0.00    -0.776 OA
HETATM   30  H48 UNL     1      -5.817  43.674 -22.216  1.00  0.00     0.167 HD
ENDBRANCH  27  29
ENDBRANCH  26  27
ENDBRANCH  25  26
ENDBRANCH  16  25
BRANCH   1  31
HETATM   31  C2  UNL     1      -8.926  47.954 -18.492  1.00  0.00    -0.061 C 
HETATM   32  C1  UNL     1      -9.983  48.509 -19.120  1.00  0.00     0.017 C 
BRANCH  31  33
HETATM   33  C3  UNL     1      -9.034  47.594 -17.030  1.00  0.00     0.198 C 
BRANCH  33  34
HETATM   34  O1  UNL     1      -9.954  48.435 -16.361  1.00  0.00    -0.397 OA
HETATM   35  H5  UNL     1     -10.765  48.468 -16.902  1.00  0.00     0.209 HD
ENDBRANCH  33  34
ENDBRANCH  31  33
ENDBRANCH   1  31
TORSDOF 11
ENDMDL
MODEL 9
REMARK minimizedAffinity -8.14661503
REMARK CNNscore 0.174458474
REMARK CNNaffinity 6.14571428
REMARK  11 active torsions:
REMARK  status: ('A' for Active; 'I' for Inactive)
REMARK    1  A    between atoms: C2_2  and  C3_3 
REMARK    2  A    between atoms: C2_2  and  C4_5 
REMARK    3  A    between atoms: C3_3  and  O1_4 
REMARK    4  A    between atoms: C13_14  and  C14_15 
REMARK    5  A    between atoms: C14_15  and  C16_17 
REMARK    6  A    between atoms: C16_17  and  C17_18 
REMARK    7  A    between atoms: C17_18  and  C18_19 
REMARK    8  A    between atoms: C27_28  and  C28_29 
REMARK    9  A    between atoms: C28_29  and  C29_30 
REMARK   10  A    between atoms: C29_30  and  C30_31 
REMARK   11  A    between atoms: C30_31  and  O3_33 
ROOT
HETATM    1  C4  UNL     1      -3.243  51.145 -25.654  1.00  0.00     0.025 C 
HETATM    2  C5  UNL     1      -3.307  52.301 -24.640  1.00  0.00     0.010 C 
HETATM    3  C6  UNL     1      -3.850  51.830 -23.301  1.00  0.00     0.007 C 
HETATM    4  C7  UNL     1      -2.816  50.922 -22.628  1.00  0.00     0.004 C 
HETATM    5  C8  UNL     1      -2.492  49.689 -23.512  1.00  0.00    -0.027 A 
HETATM    6  C9  UNL     1      -2.651  48.304 -22.852  1.00  0.00     0.011 C 
HETATM    7  C10 UNL     1      -2.367  48.167 -21.346  1.00  0.00     0.011 C 
HETATM    8  C11 UNL     1      -2.139  49.497 -20.623  1.00  0.00    -0.032 C 
HETATM    9  C12 UNL     1      -0.663  49.910 -20.854  1.00  0.00     0.016 C 
HETATM   10  C13 UNL     1      -2.476  49.487 -19.098  1.00  0.00    -0.002 C 
HETATM   11  C22 UNL     1      -2.864  50.953 -18.784  1.00  0.00     0.006 C 
HETATM   12  C23 UNL     1      -3.032  51.668 -20.138  1.00  0.00     0.011 C 
HETATM   13  C24 UNL     1      -3.186  50.533 -21.171  1.00  0.00    -0.032 C 
HETATM   14  C25 UNL     1      -4.675  50.066 -21.105  1.00  0.00     0.016 C 
HETATM   15  C26 UNL     1      -1.304  49.823 -24.446  1.00  0.00     0.022 A 
HETATM   16  C27 UNL     1      -2.673  49.819 -25.075  1.00  0.00    -0.024 A 
ENDROOT
BRANCH  10  17
HETATM   17  C14 UNL     1      -1.591  48.737 -18.061  1.00  0.00    -0.014 C 
HETATM   18  C15 UNL     1      -2.468  48.304 -16.867  1.00  0.00     0.010 C 
BRANCH  17  19
HETATM   19  C16 UNL     1      -0.274  49.340 -17.518  1.00  0.00     0.008 C 
BRANCH  19  20
HETATM   20  C17 UNL     1      -0.359  50.286 -16.319  1.00  0.00     0.028 C 
BRANCH  20  21
HETATM   21  C18 UNL     1       0.914  51.076 -16.168  1.00  0.00    -0.025 C 
HETATM   22  C19 UNL     1       1.392  52.040 -16.979  1.00  0.00    -0.091 C 
HETATM   23  C20 UNL     1       2.709  52.708 -16.681  1.00  0.00     0.042 C 
HETATM   24  C21 UNL     1       0.704  52.557 -18.212  1.00  0.00     0.042 C 
ENDBRANCH  20  21
ENDBRANCH  19  20
ENDBRANCH  17  19
ENDBRANCH  10  17
BRANCH  16  25
HETATM   25  C28 UNL     1      -3.173  48.563 -25.818  1.00  0.00     0.021 C 
BRANCH  25  26
HETATM   26  C29 UNL     1      -4.665  48.492 -26.117  1.00  0.00     0.111 C 
BRANCH  26  27
HETATM   27  C30 UNL     1      -4.952  48.046 -27.521  1.00  0.00     0.139 C 
HETATM   28  O2  UNL     1      -6.036  47.743 -27.989  1.00  0.00    -0.650 OA
BRANCH  27  29
HETATM   29  O3  UNL     1      -3.845  48.041 -28.294  1.00  0.00    -0.776 OA
HETATM   30  H48 UNL     1      -4.174  47.707 -29.156  1.00  0.00     0.167 HD
ENDBRANCH  27  29
ENDBRANCH  26  27
ENDBRANCH  25  26
ENDBRANCH  16  25
BRANCH   1  31
HETATM   31  C2  UNL     1      -2.649  51.658 -26.973  1.00  0.00    -0.061 C 
HETATM   32  C1  UNL     1      -3.092  51.171 -28.150  1.00  0.00     0.017 C 
BRANCH  31  33
HETATM   33  C3  UNL     1      -1.651  52.791 -26.963  1.00  0.00     0.198 C 
BRANCH  33  34
HETATM   34  O1  UNL     1      -1.926  53.724 -27.990  1.00  0.00    -0.397 OA
HETATM   35  H5  UNL     1      -2.878  53.931 -27.948  1.00  0.00     0.209 HD
ENDBRANCH  33  34
ENDBRANCH  31  33
ENDBRANCH   1  31
TORSDOF 11
ENDMDL
