MODEL 1
REMARK minimizedAffinity -8.99441719
REMARK  6 active torsions:
REMARK  status: ('A' for Active; 'I' for Inactive)
REMARK    1  A    between atoms: C10_10  and  O1_12 
REMARK    2  A    between atoms: C12_13  and  C14_15 
REMARK    3  A    between atoms: C14_15  and  O2_16 
REMARK    4  A    between atoms: C15_17  and  C16_18 
REMARK    5  A    between atoms: C16_18  and  C17_19 
REMARK    6  A    between atoms: C21_25  and  O5_26 
ROOT
HETATM    1  C1  UNL     1       0.081  52.586 -20.418  1.00  0.00     0.015 C 
HETATM    2  C2  UNL     1      -0.078  51.556 -21.267  1.00  0.00    -0.084 C 
HETATM    3  C3  UNL     1      -0.114  50.127 -20.760  1.00  0.00     0.034 C 
HETATM    4  C4  UNL     1      -1.278  49.323 -21.372  1.00  0.00     0.010 C 
HETATM    5  C5  UNL     1      -2.374  50.266 -21.917  1.00  0.00     0.008 C 
HETATM    6  C6  UNL     1      -1.802  51.120 -23.123  1.00  0.00    -0.032 C 
HETATM    7  C7  UNL     1      -1.629  50.315 -24.437  1.00  0.00     0.016 C 
HETATM    8  C8  UNL     1      -2.816  52.262 -23.373  1.00  0.00     0.013 C 
HETATM    9  C9  UNL     1      -4.254  51.769 -23.589  1.00  0.00     0.039 C 
HETATM   10  C10 UNL     1      -4.800  50.902 -22.435  1.00  0.00     0.064 C 
HETATM   11  C11 UNL     1      -6.241  50.493 -22.784  1.00  0.00     0.046 C 
HETATM   12  C12 UNL     1      -3.839  49.689 -22.082  1.00  0.00     0.012 C 
HETATM   13  C13 UNL     1      -4.263  49.072 -20.712  1.00  0.00     0.021 C 
HETATM   14  C15 UNL     1      -0.332  51.651 -22.769  1.00  0.00     0.025 C 
ENDROOT
BRANCH  14  15
HETATM   15  C16 UNL     1       0.039  52.993 -23.455  1.00  0.00     0.037 C 
BRANCH  15  16
HETATM   16  C17 UNL     1      -0.632  53.182 -24.797  1.00  0.00    -0.010 C 
HETATM   17  C18 UNL     1      -0.137  52.876 -26.008  1.00  0.00     0.044 C 
HETATM   18  C19 UNL     1       1.186  52.283 -26.320  1.00  0.00     0.291 C 
HETATM   19  C21 UNL     1      -0.845  53.052 -27.299  1.00  0.00     0.181 C 
HETATM   20  O3  UNL     1       2.132  52.173 -25.563  1.00  0.00    -0.260 OA
HETATM   21  O4  UNL     1       1.178  51.880 -27.621  1.00  0.00    -0.315 OA
HETATM   22  C20 UNL     1      -0.135  52.038 -28.171  1.00  0.00     0.215 C 
BRANCH  19  23
HETATM   23  O5  UNL     1      -0.636  54.372 -27.790  1.00  0.00    -0.389 OA
HETATM   24  H32 UNL     1      -0.806  54.991 -27.058  1.00  0.00     0.210 HD
ENDBRANCH  19  23
ENDBRANCH  15  16
ENDBRANCH  14  15
BRANCH  12  25
HETATM   25  C14 UNL     1      -3.988  48.548 -23.121  1.00  0.00     0.176 C 
BRANCH  25  26
HETATM   26  O2  UNL     1      -5.236  48.595 -23.795  1.00  0.00    -0.400 OA
HETATM   27  H24 UNL     1      -5.279  47.821 -24.382  1.00  0.00     0.209 HD
ENDBRANCH  25  26
ENDBRANCH  12  25
BRANCH  10  28
HETATM   28  O1  UNL     1      -4.894  51.793 -21.307  1.00  0.00    -0.389 OA
HETATM   29  H18 UNL     1      -5.423  51.361 -20.616  1.00  0.00     0.210 HD
ENDBRANCH  10  28
TORSDOF 6
ENDMDL
MODEL 2
REMARK minimizedAffinity -8.93535709
REMARK  6 active torsions:
REMARK  status: ('A' for Active; 'I' for Inactive)
REMARK    1  A    between atoms: C10_10  and  O1_12 
REMARK    2  A    between atoms: C12_13  and  C14_15 
REMARK    3  A    between atoms: C14_15  and  O2_16 
REMARK    4  A    between atoms: C15_17  and  C16_18 
REMARK    5  A    between atoms: C16_18  and  C17_19 
REMARK    6  A    between atoms: C21_25  and  O5_26 
ROOT
HETATM    1  C1  UNL     1      -0.259  52.407 -20.964  1.00  0.00     0.015 C 
HETATM    2  C2  UNL     1      -0.507  51.246 -21.592  1.00  0.00    -0.084 C 
HETATM    3  C3  UNL     1      -0.430  49.925 -20.850  1.00  0.00     0.034 C 
HETATM    4  C4  UNL     1      -1.645  49.023 -21.142  1.00  0.00     0.010 C 
HETATM    5  C5  UNL     1      -2.834  49.854 -21.673  1.00  0.00     0.008 C 
HETATM    6  C6  UNL     1      -2.464  50.489 -23.077  1.00  0.00    -0.032 C 
HETATM    7  C7  UNL     1      -2.457  49.470 -24.247  1.00  0.00     0.016 C 
HETATM    8  C8  UNL     1      -3.536  51.568 -23.369  1.00  0.00     0.013 C 
HETATM    9  C9  UNL     1      -4.975  51.039 -23.286  1.00  0.00     0.039 C 
HETATM   10  C10 UNL     1      -5.326  50.382 -21.935  1.00  0.00     0.064 C 
HETATM   11  C11 UNL     1      -6.790  49.913 -21.997  1.00  0.00     0.046 C 
HETATM   12  C12 UNL     1      -4.291  49.251 -21.524  1.00  0.00     0.012 C 
HETATM   13  C13 UNL     1      -4.497  48.878 -20.023  1.00  0.00     0.021 C 
HETATM   14  C15 UNL     1      -0.974  51.079 -23.036  1.00  0.00     0.025 C 
ENDROOT
BRANCH  14  15
HETATM   15  C16 UNL     1      -0.744  52.284 -23.987  1.00  0.00     0.037 C 
BRANCH  15  16
HETATM   16  C17 UNL     1       0.611  52.263 -24.658  1.00  0.00    -0.010 C 
HETATM   17  C18 UNL     1       0.897  51.872 -25.911  1.00  0.00     0.044 C 
HETATM   18  C19 UNL     1      -0.048  51.365 -26.936  1.00  0.00     0.291 C 
HETATM   19  C21 UNL     1       2.240  51.897 -26.538  1.00  0.00     0.181 C 
HETATM   20  O3  UNL     1      -1.197  51.010 -26.756  1.00  0.00    -0.260 OA
HETATM   21  O4  UNL     1       0.594  51.349 -28.137  1.00  0.00    -0.315 OA
HETATM   22  C20 UNL     1       1.884  51.957 -28.008  1.00  0.00     0.215 C 
BRANCH  19  23
HETATM   23  O5  UNL     1       2.936  50.692 -26.238  1.00  0.00    -0.389 OA
HETATM   24  H32 UNL     1       2.854  50.532 -25.281  1.00  0.00     0.210 HD
ENDBRANCH  19  23
ENDBRANCH  15  16
ENDBRANCH  14  15
BRANCH  12  25
HETATM   25  C14 UNL     1      -4.553  47.948 -22.321  1.00  0.00     0.176 C 
BRANCH  25  26
HETATM   26  O2  UNL     1      -5.197  48.197 -23.561  1.00  0.00    -0.400 OA
HETATM   27  H24 UNL     1      -5.379  47.335 -23.972  1.00  0.00     0.209 HD
ENDBRANCH  25  26
ENDBRANCH  12  25
BRANCH  10  28
HETATM   28  O1  UNL     1      -5.284  51.453 -20.973  1.00  0.00    -0.389 OA
HETATM   29  H18 UNL     1      -5.697  51.146 -20.149  1.00  0.00     0.210 HD
ENDBRANCH  10  28
TORSDOF 6
ENDMDL
MODEL 3
REMARK minimizedAffinity -8.87640095
REMARK  6 active torsions:
REMARK  status: ('A' for Active; 'I' for Inactive)
REMARK    1  A    between atoms: C10_10  and  O1_12 
REMARK    2  A    between atoms: C12_13  and  C14_15 
REMARK    3  A    between atoms: C14_15  and  O2_16 
REMARK    4  A    between atoms: C15_17  and  C16_18 
REMARK    5  A    between atoms: C16_18  and  C17_19 
REMARK    6  A    between atoms: C21_25  and  O5_26 
ROOT
HETATM    1  C1  UNL     1      -2.710  48.790 -26.278  1.00  0.00     0.015 C 
HETATM    2  C2  UNL     1      -3.678  49.338 -25.524  1.00  0.00    -0.084 C 
HETATM    3  C3  UNL     1      -4.751  48.476 -24.887  1.00  0.00     0.034 C 
HETATM    4  C4  UNL     1      -4.978  48.834 -23.404  1.00  0.00     0.010 C 
HETATM    5  C5  UNL     1      -3.757  49.581 -22.824  1.00  0.00     0.008 C 
HETATM    6  C6  UNL     1      -3.585  50.979 -23.549  1.00  0.00    -0.032 C 
HETATM    7  C7  UNL     1      -4.630  52.043 -23.121  1.00  0.00     0.016 C 
HETATM    8  C8  UNL     1      -2.174  51.497 -23.178  1.00  0.00     0.013 C 
HETATM    9  C9  UNL     1      -1.918  51.546 -21.664  1.00  0.00     0.039 C 
HETATM   10  C10 UNL     1      -2.125  50.195 -20.948  1.00  0.00     0.064 C 
HETATM   11  C11 UNL     1      -1.826  50.396 -19.452  1.00  0.00     0.046 C 
HETATM   12  C12 UNL     1      -3.547  49.559 -21.255  1.00  0.00     0.012 C 
HETATM   13  C13 UNL     1      -3.560  48.068 -20.795  1.00  0.00     0.021 C 
HETATM   14  C15 UNL     1      -3.796  50.808 -25.128  1.00  0.00     0.025 C 
ENDROOT
BRANCH  14  15
HETATM   15  C16 UNL     1      -3.001  51.827 -25.988  1.00  0.00     0.037 C 
BRANCH  15  16
HETATM   16  C17 UNL     1      -1.731  51.250 -26.573  1.00  0.00    -0.010 C 
HETATM   17  C18 UNL     1      -0.489  51.754 -26.487  1.00  0.00     0.044 C 
HETATM   18  C19 UNL     1      -0.065  52.998 -25.798  1.00  0.00     0.291 C 
HETATM   19  C21 UNL     1       0.734  51.137 -27.052  1.00  0.00     0.181 C 
HETATM   20  O3  UNL     1      -0.788  53.885 -25.384  1.00  0.00    -0.260 OA
HETATM   21  O4  UNL     1       1.294  52.995 -25.710  1.00  0.00    -0.315 OA
HETATM   22  C20 UNL     1       1.810  51.743 -26.176  1.00  0.00     0.215 C 
BRANCH  19  23
HETATM   23  O5  UNL     1       0.900  51.545 -28.406  1.00  0.00    -0.389 OA
HETATM   24  H32 UNL     1       0.046  51.426 -28.859  1.00  0.00     0.210 HD
ENDBRANCH  19  23
ENDBRANCH  15  16
ENDBRANCH  14  15
BRANCH  12  25
HETATM   25  C14 UNL     1      -4.655  50.263 -20.428  1.00  0.00     0.176 C 
BRANCH  25  26
HETATM   26  O2  UNL     1      -5.451  51.127 -21.224  1.00  0.00    -0.400 OA
HETATM   27  H24 UNL     1      -6.079  51.572 -20.630  1.00  0.00     0.209 HD
ENDBRANCH  25  26
ENDBRANCH  12  25
BRANCH  10  28
HETATM   28  O1  UNL     1      -1.088  49.336 -21.457  1.00  0.00    -0.389 OA
HETATM   29  H18 UNL     1      -1.038  48.545 -20.895  1.00  0.00     0.210 HD
ENDBRANCH  10  28
TORSDOF 6
ENDMDL
MODEL 4
REMARK minimizedAffinity -8.46112061
REMARK  6 active torsions:
REMARK  status: ('A' for Active; 'I' for Inactive)
REMARK    1  A    between atoms: C10_10  and  O1_12 
REMARK    2  A    between atoms: C12_13  and  C14_15 
REMARK    3  A    between atoms: C14_15  and  O2_16 
REMARK    4  A    between atoms: C15_17  and  C16_18 
REMARK    5  A    between atoms: C16_18  and  C17_19 
REMARK    6  A    between atoms: C21_25  and  O5_26 
ROOT
HETATM    1  C1  UNL     1      -2.521  48.423 -26.192  1.00  0.00     0.015 C 
HETATM    2  C2  UNL     1      -3.315  49.122 -25.364  1.00  0.00    -0.084 C 
HETATM    3  C3  UNL     1      -4.800  48.825 -25.272  1.00  0.00     0.034 C 
HETATM    4  C4  UNL     1      -5.285  48.737 -23.812  1.00  0.00     0.010 C 
HETATM    5  C5  UNL     1      -4.104  48.465 -22.853  1.00  0.00     0.008 C 
HETATM    6  C6  UNL     1      -3.104  49.694 -22.867  1.00  0.00    -0.032 C 
HETATM    7  C7  UNL     1      -3.629  50.942 -22.110  1.00  0.00     0.016 C 
HETATM    8  C8  UNL     1      -1.804  49.211 -22.180  1.00  0.00     0.013 C 
HETATM    9  C9  UNL     1      -2.034  48.613 -20.785  1.00  0.00     0.039 C 
HETATM   10  C10 UNL     1      -3.039  47.443 -20.761  1.00  0.00     0.064 C 
HETATM   11  C11 UNL     1      -3.159  46.945 -19.311  1.00  0.00     0.046 C 
HETATM   12  C12 UNL     1      -4.422  47.819 -21.443  1.00  0.00     0.012 C 
HETATM   13  C13 UNL     1      -5.249  46.519 -21.694  1.00  0.00     0.021 C 
HETATM   14  C15 UNL     1      -2.872  50.195 -24.372  1.00  0.00     0.025 C 
ENDROOT
BRANCH  14  15
HETATM   15  C16 UNL     1      -1.480  50.838 -24.618  1.00  0.00     0.037 C 
BRANCH  15  16
HETATM   16  C17 UNL     1      -1.177  51.060 -26.082  1.00  0.00    -0.010 C 
HETATM   17  C18 UNL     1      -0.067  51.598 -26.614  1.00  0.00     0.044 C 
HETATM   18  C19 UNL     1       1.127  52.102 -25.894  1.00  0.00     0.291 C 
HETATM   19  C21 UNL     1       0.201  51.769 -28.063  1.00  0.00     0.181 C 
HETATM   20  O3  UNL     1       1.220  52.320 -24.700  1.00  0.00    -0.260 OA
HETATM   21  O4  UNL     1       2.124  52.298 -26.801  1.00  0.00    -0.315 OA
HETATM   22  C20 UNL     1       1.714  51.815 -28.086  1.00  0.00     0.215 C 
BRANCH  19  23
HETATM   23  O5  UNL     1      -0.347  53.004 -28.512  1.00  0.00    -0.389 OA
HETATM   24  H32 UNL     1      -1.261  53.063 -28.180  1.00  0.00     0.210 HD
ENDBRANCH  19  23
ENDBRANCH  15  16
ENDBRANCH  14  15
BRANCH  12  25
HETATM   25  C14 UNL     1      -5.286  48.690 -20.495  1.00  0.00     0.176 C 
BRANCH  25  26
HETATM   26  O2  UNL     1      -4.503  49.356 -19.516  1.00  0.00    -0.400 OA
HETATM   27  H24 UNL     1      -5.115  49.830 -18.928  1.00  0.00     0.209 HD
ENDBRANCH  25  26
ENDBRANCH  12  25
BRANCH  10  28
HETATM   28  O1  UNL     1      -2.403  46.385 -21.502  1.00  0.00    -0.389 OA
HETATM   29  H18 UNL     1      -2.892  45.560 -21.345  1.00  0.00     0.210 HD
ENDBRANCH  10  28
TORSDOF 6
ENDMDL
MODEL 5
REMARK minimizedAffinity -8.34913445
REMARK  6 active torsions:
REMARK  status: ('A' for Active; 'I' for Inactive)
REMARK    1  A    between atoms: C10_10  and  O1_12 
REMARK    2  A    between atoms: C12_13  and  C14_15 
REMARK    3  A    between atoms: C14_15  and  O2_16 
REMARK    4  A    between atoms: C15_17  and  C16_18 
REMARK    5  A    between atoms: C16_18  and  C17_19 
REMARK    6  A    between atoms: C21_25  and  O5_26 
ROOT
HETATM    1  C1  UNL     1      -3.355  51.699 -24.810  1.00  0.00     0.015 C 
HETATM    2  C2  UNL     1      -3.170  52.113 -23.546  1.00  0.00    -0.084 C 
HETATM    3  C3  UNL     1      -4.351  52.435 -22.650  1.00  0.00     0.034 C 
HETATM    4  C4  UNL     1      -4.209  51.802 -21.252  1.00  0.00     0.010 C 
HETATM    5  C5  UNL     1      -3.208  50.625 -21.278  1.00  0.00     0.008 C 
HETATM    6  C6  UNL     1      -1.757  51.158 -21.623  1.00  0.00    -0.032 C 
HETATM    7  C7  UNL     1      -1.070  51.914 -20.455  1.00  0.00     0.016 C 
HETATM    8  C8  UNL     1      -0.903  49.915 -21.975  1.00  0.00     0.013 C 
HETATM    9  C9  UNL     1      -0.925  48.830 -20.890  1.00  0.00     0.039 C 
HETATM   10  C10 UNL     1      -2.340  48.338 -20.522  1.00  0.00     0.064 C 
HETATM   11  C11 UNL     1      -2.203  47.254 -19.438  1.00  0.00     0.046 C 
HETATM   12  C12 UNL     1      -3.315  49.530 -20.139  1.00  0.00     0.012 C 
HETATM   13  C13 UNL     1      -4.787  49.012 -20.117  1.00  0.00     0.021 C 
HETATM   14  C15 UNL     1      -1.834  52.226 -22.815  1.00  0.00     0.025 C 
ENDROOT
BRANCH  14  15
HETATM   15  C16 UNL     1      -0.559  52.282 -23.699  1.00  0.00     0.037 C 
BRANCH  15  16
HETATM   16  C17 UNL     1      -0.710  51.542 -25.009  1.00  0.00    -0.010 C 
HETATM   17  C18 UNL     1      -0.422  51.995 -26.241  1.00  0.00     0.044 C 
HETATM   18  C19 UNL     1       0.109  53.329 -26.612  1.00  0.00     0.291 C 
HETATM   19  C21 UNL     1      -0.558  51.221 -27.498  1.00  0.00     0.181 C 
HETATM   20  O3  UNL     1       0.170  54.313 -25.899  1.00  0.00    -0.260 OA
HETATM   21  O4  UNL     1       0.518  53.281 -27.910  1.00  0.00    -0.315 OA
HETATM   22  C20 UNL     1       0.425  51.938 -28.400  1.00  0.00     0.215 C 
BRANCH  19  23
HETATM   23  O5  UNL     1      -1.884  51.344 -28.001  1.00  0.00    -0.389 OA
HETATM   24  H32 UNL     1      -2.498  51.178 -27.264  1.00  0.00     0.210 HD
ENDBRANCH  19  23
ENDBRANCH  15  16
ENDBRANCH  14  15
BRANCH  12  25
HETATM   25  C14 UNL     1      -3.027  50.038 -18.703  1.00  0.00     0.176 C 
BRANCH  25  26
HETATM   26  O2  UNL     1      -3.454  51.378 -18.512  1.00  0.00    -0.400 OA
HETATM   27  H24 UNL     1      -3.189  51.642 -17.614  1.00  0.00     0.209 HD
ENDBRANCH  25  26
ENDBRANCH  12  25
BRANCH  10  28
HETATM   28  O1  UNL     1      -2.826  47.671 -21.702  1.00  0.00    -0.389 OA
HETATM   29  H18 UNL     1      -3.620  47.163 -21.466  1.00  0.00     0.210 HD
ENDBRANCH  10  28
TORSDOF 6
ENDMDL
MODEL 6
REMARK minimizedAffinity -8.15028954
REMARK  6 active torsions:
REMARK  status: ('A' for Active; 'I' for Inactive)
REMARK    1  A    between atoms: C10_10  and  O1_12 
REMARK    2  A    between atoms: C12_13  and  C14_15 
REMARK    3  A    between atoms: C14_15  and  O2_16 
REMARK    4  A    between atoms: C15_17  and  C16_18 
REMARK    5  A    between atoms: C16_18  and  C17_19 
REMARK    6  A    between atoms: C21_25  and  O5_26 
ROOT
HETATM    1  C1  UNL     1      -3.053  51.843 -26.567  1.00  0.00     0.015 C 
HETATM    2  C2  UNL     1      -2.520  51.104 -25.580  1.00  0.00    -0.084 C 
HETATM    3  C3  UNL     1      -1.714  51.751 -24.470  1.00  0.00     0.034 C 
HETATM    4  C4  UNL     1      -2.129  51.239 -23.076  1.00  0.00     0.010 C 
HETATM    5  C5  UNL     1      -3.544  50.620 -23.115  1.00  0.00     0.008 C 
HETATM    6  C6  UNL     1      -3.542  49.326 -24.031  1.00  0.00    -0.032 C 
HETATM    7  C7  UNL     1      -2.857  48.096 -23.380  1.00  0.00     0.016 C 
HETATM    8  C8  UNL     1      -5.025  48.977 -24.303  1.00  0.00     0.013 C 
HETATM    9  C9  UNL     1      -5.866  48.833 -23.026  1.00  0.00     0.039 C 
HETATM   10  C10 UNL     1      -5.836  50.076 -22.112  1.00  0.00     0.064 C 
HETATM   11  C11 UNL     1      -6.723  49.790 -20.887  1.00  0.00     0.046 C 
HETATM   12  C12 UNL     1      -4.358  50.534 -21.760  1.00  0.00     0.012 C 
HETATM   13  C13 UNL     1      -4.391  51.965 -21.136  1.00  0.00     0.021 C 
HETATM   14  C15 UNL     1      -2.705  49.603 -25.369  1.00  0.00     0.025 C 
ENDROOT
BRANCH  14  15
HETATM   15  C16 UNL     1      -3.183  48.781 -26.597  1.00  0.00     0.037 C 
BRANCH  15  16
HETATM   16  C17 UNL     1      -4.586  48.238 -26.441  1.00  0.00    -0.010 C 
HETATM   17  C18 UNL     1      -5.467  47.961 -27.416  1.00  0.00     0.044 C 
HETATM   18  C19 UNL     1      -5.278  48.123 -28.878  1.00  0.00     0.291 C 
HETATM   19  C21 UNL     1      -6.825  47.399 -27.217  1.00  0.00     0.181 C 
HETATM   20  O3  UNL     1      -4.385  48.734 -29.434  1.00  0.00    -0.260 OA
HETATM   21  O4  UNL     1      -6.291  47.473 -29.515  1.00  0.00    -0.315 OA
HETATM   22  C20 UNL     1      -7.083  46.753 -28.562  1.00  0.00     0.215 C 
BRANCH  19  23
HETATM   23  O5  UNL     1      -7.753  48.452 -26.978  1.00  0.00    -0.389 OA
HETATM   24  H32 UNL     1      -7.370  49.038 -26.302  1.00  0.00     0.210 HD
ENDBRANCH  19  23
ENDBRANCH  15  16
ENDBRANCH  14  15
BRANCH  12  25
HETATM   25  C14 UNL     1      -3.740  49.617 -20.673  1.00  0.00     0.176 C 
BRANCH  25  26
HETATM   26  O2  UNL     1      -2.531  50.143 -20.150  1.00  0.00    -0.400 OA
HETATM   27  H24 UNL     1      -2.176  49.490 -19.524  1.00  0.00     0.209 HD
ENDBRANCH  25  26
ENDBRANCH  12  25
BRANCH  10  28
HETATM   28  O1  UNL     1      -6.501  51.110 -22.861  1.00  0.00    -0.389 OA
HETATM   29  H18 UNL     1      -6.698  51.849 -22.261  1.00  0.00     0.210 HD
ENDBRANCH  10  28
TORSDOF 6
ENDMDL
MODEL 7
REMARK minimizedAffinity -8.05762768
REMARK  6 active torsions:
REMARK  status: ('A' for Active; 'I' for Inactive)
REMARK    1  A    between atoms: C10_10  and  O1_12 
REMARK    2  A    between atoms: C12_13  and  C14_15 
REMARK    3  A    between atoms: C14_15  and  O2_16 
REMARK    4  A    between atoms: C15_17  and  C16_18 
REMARK    5  A    between atoms: C16_18  and  C17_19 
REMARK    6  A    between atoms: C21_25  and  O5_26 
ROOT
HETATM    1  C1  UNL     1      -6.169  48.409 -24.156  1.00  0.00     0.015 C 
HETATM    2  C2  UNL     1      -5.386  49.468 -23.894  1.00  0.00    -0.084 C 
HETATM    3  C3  UNL     1      -5.896  50.626 -23.057  1.00  0.00     0.034 C 
HETATM    4  C4  UNL     1      -4.880  51.055 -21.980  1.00  0.00     0.010 C 
HETATM    5  C5  UNL     1      -3.870  49.922 -21.691  1.00  0.00     0.008 C 
HETATM    6  C6  UNL     1      -2.991  49.641 -22.979  1.00  0.00    -0.032 C 
HETATM    7  C7  UNL     1      -1.921  50.728 -23.260  1.00  0.00     0.016 C 
HETATM    8  C8  UNL     1      -2.271  48.292 -22.735  1.00  0.00     0.013 C 
HETATM    9  C9  UNL     1      -1.479  48.250 -21.420  1.00  0.00     0.039 C 
HETATM   10  C10 UNL     1      -2.324  48.564 -20.168  1.00  0.00     0.064 C 
HETATM   11  C11 UNL     1      -1.405  48.475 -18.937  1.00  0.00     0.046 C 
HETATM   12  C12 UNL     1      -3.116  49.934 -20.299  1.00  0.00     0.012 C 
HETATM   13  C13 UNL     1      -4.195  50.020 -19.176  1.00  0.00     0.021 C 
HETATM   14  C15 UNL     1      -3.919  49.631 -24.285  1.00  0.00     0.025 C 
ENDROOT
BRANCH  14  15
HETATM   15  C16 UNL     1      -3.398  48.717 -25.426  1.00  0.00     0.037 C 
BRANCH  15  16
HETATM   16  C17 UNL     1      -4.505  48.120 -26.265  1.00  0.00    -0.010 C 
HETATM   17  C18 UNL     1      -4.770  48.362 -27.560  1.00  0.00     0.044 C 
HETATM   18  C19 UNL     1      -4.042  49.274 -28.476  1.00  0.00     0.291 C 
HETATM   19  C21 UNL     1      -5.851  47.729 -28.352  1.00  0.00     0.181 C 
HETATM   20  O3  UNL     1      -3.224  50.119 -28.165  1.00  0.00    -0.260 OA
HETATM   21  O4  UNL     1      -4.451  49.016 -29.749  1.00  0.00    -0.315 OA
HETATM   22  C20 UNL     1      -5.317  47.875 -29.761  1.00  0.00     0.215 C 
BRANCH  19  23
HETATM   23  O5  UNL     1      -7.060  48.464 -28.195  1.00  0.00    -0.389 OA
HETATM   24  H32 UNL     1      -7.189  48.623 -27.242  1.00  0.00     0.210 HD
ENDBRANCH  19  23
ENDBRANCH  15  16
ENDBRANCH  14  15
BRANCH  12  25
HETATM   25  C14 UNL     1      -2.171  51.141 -20.068  1.00  0.00     0.176 C 
BRANCH  25  26
HETATM   26  O2  UNL     1      -2.548  51.909 -18.936  1.00  0.00    -0.400 OA
HETATM   27  H24 UNL     1      -1.950  52.674 -18.891  1.00  0.00     0.209 HD
ENDBRANCH  25  26
ENDBRANCH  12  25
BRANCH  10  28
HETATM   28  O1  UNL     1      -3.256  47.472 -20.058  1.00  0.00    -0.389 OA
HETATM   29  H18 UNL     1      -3.670  47.506 -19.180  1.00  0.00     0.210 HD
ENDBRANCH  10  28
TORSDOF 6
ENDMDL
MODEL 8
REMARK minimizedAffinity -7.99431562
REMARK  6 active torsions:
REMARK  status: ('A' for Active; 'I' for Inactive)
REMARK    1  A    between atoms: C10_10  and  O1_12 
REMARK    2  A    between atoms: C12_13  and  C14_15 
REMARK    3  A    between atoms: C14_15  and  O2_16 
REMARK    4  A    between atoms: C15_17  and  C16_18 
REMARK    5  A    between atoms: C16_18  and  C17_19 
REMARK    6  A    between atoms: C21_25  and  O5_26 
ROOT
HETATM    1  C1  UNL     1      -3.842  48.744 -24.094  1.00  0.00     0.015 C 
HETATM    2  C2  UNL     1      -3.664  49.885 -23.408  1.00  0.00    -0.084 C 
HETATM    3  C3  UNL     1      -4.799  50.501 -22.611  1.00  0.00     0.034 C 
HETATM    4  C4  UNL     1      -4.353  50.925 -21.198  1.00  0.00     0.010 C 
HETATM    5  C5  UNL     1      -3.067  50.178 -20.778  1.00  0.00     0.008 C 
HETATM    6  C6  UNL     1      -1.865  50.604 -21.719  1.00  0.00    -0.032 C 
HETATM    7  C7  UNL     1      -1.314  52.025 -21.433  1.00  0.00     0.016 C 
HETATM    8  C8  UNL     1      -0.731  49.578 -21.476  1.00  0.00     0.013 C 
HETATM    9  C9  UNL     1      -0.342  49.434 -19.997  1.00  0.00     0.039 C 
HETATM   10  C10 UNL     1      -1.519  49.061 -19.072  1.00  0.00     0.064 C 
HETATM   11  C11 UNL     1      -0.979  48.944 -17.636  1.00  0.00     0.046 C 
HETATM   12  C12 UNL     1      -2.752  50.048 -19.232  1.00  0.00     0.012 C 
HETATM   13  C13 UNL     1      -4.008  49.427 -18.544  1.00  0.00     0.021 C 
HETATM   14  C15 UNL     1      -2.353  50.651 -23.245  1.00  0.00     0.025 C 
ENDROOT
BRANCH  14  15
HETATM   15  C16 UNL     1      -1.235  50.344 -24.278  1.00  0.00     0.037 C 
BRANCH  15  16
HETATM   16  C17 UNL     1      -1.492  50.962 -25.634  1.00  0.00    -0.010 C 
HETATM   17  C18 UNL     1      -0.902  52.048 -26.161  1.00  0.00     0.044 C 
HETATM   18  C19 UNL     1       0.139  52.902 -25.540  1.00  0.00     0.291 C 
HETATM   19  C21 UNL     1      -1.164  52.602 -27.511  1.00  0.00     0.181 C 
HETATM   20  O3  UNL     1       0.482  52.902 -24.372  1.00  0.00    -0.260 OA
HETATM   21  O4  UNL     1       0.658  53.713 -26.504  1.00  0.00    -0.315 OA
HETATM   22  C20 UNL     1       0.122  53.354 -27.783  1.00  0.00     0.215 C 
BRANCH  19  23
HETATM   23  O5  UNL     1      -2.269  53.498 -27.460  1.00  0.00    -0.389 OA
HETATM   24  H32 UNL     1      -2.987  53.056 -26.972  1.00  0.00     0.210 HD
ENDBRANCH  19  23
ENDBRANCH  15  16
ENDBRANCH  14  15
BRANCH  12  25
HETATM   25  C14 UNL     1      -2.486  51.386 -18.495  1.00  0.00     0.176 C 
BRANCH  25  26
HETATM   26  O2  UNL     1      -3.056  51.404 -17.195  1.00  0.00    -0.400 OA
HETATM   27  H24 UNL     1      -2.899  52.288 -16.822  1.00  0.00     0.209 HD
ENDBRANCH  25  26
ENDBRANCH  12  25
BRANCH  10  28
HETATM   28  O1  UNL     1      -1.904  47.732 -19.470  1.00  0.00    -0.389 OA
HETATM   29  H18 UNL     1      -2.496  47.365 -18.792  1.00  0.00     0.210 HD
ENDBRANCH  10  28
TORSDOF 6
ENDMDL
MODEL 9
REMARK minimizedAffinity -7.86081839
REMARK  6 active torsions:
REMARK  status: ('A' for Active; 'I' for Inactive)
REMARK    1  A    between atoms: C10_10  and  O1_12 
REMARK    2  A    between atoms: C12_13  and  C14_15 
REMARK    3  A    between atoms: C14_15  and  O2_16 
REMARK    4  A    between atoms: C15_17  and  C16_18 
REMARK    5  A    between atoms: C16_18  and  C17_19 
REMARK    6  A    between atoms: C21_25  and  O5_26 
ROOT
HETATM    1  C1  UNL     1      -2.716  48.471 -26.244  1.00  0.00     0.015 C 
HETATM    2  C2  UNL     1      -3.517  49.111 -25.375  1.00  0.00    -0.084 C 
HETATM    3  C3  UNL     1      -4.960  48.682 -25.184  1.00  0.00     0.034 C 
HETATM    4  C4  UNL     1      -5.341  48.578 -23.694  1.00  0.00     0.010 C 
HETATM    5  C5  UNL     1      -4.082  48.432 -22.811  1.00  0.00     0.008 C 
HETATM    6  C6  UNL     1      -3.202  49.746 -22.905  1.00  0.00    -0.032 C 
HETATM    7  C7  UNL     1      -3.789  50.955 -22.131  1.00  0.00     0.016 C 
HETATM    8  C8  UNL     1      -1.821  49.395 -22.298  1.00  0.00     0.013 C 
HETATM    9  C9  UNL     1      -1.907  48.805 -20.883  1.00  0.00     0.039 C 
HETATM   10  C10 UNL     1      -2.798  47.549 -20.779  1.00  0.00     0.064 C 
HETATM   11  C11 UNL     1      -2.780  47.069 -19.317  1.00  0.00     0.046 C 
HETATM   12  C12 UNL     1      -4.250  47.786 -21.375  1.00  0.00     0.012 C 
HETATM   13  C13 UNL     1      -4.969  46.412 -21.555  1.00  0.00     0.021 C 
HETATM   14  C15 UNL     1      -3.111  50.237 -24.428  1.00  0.00     0.025 C 
ENDROOT
BRANCH  14  15
HETATM   15  C16 UNL     1      -1.803  50.999 -24.772  1.00  0.00     0.037 C 
BRANCH  15  16
HETATM   16  C17 UNL     1      -1.157  51.648 -23.568  1.00  0.00    -0.010 C 
HETATM   17  C18 UNL     1      -0.104  52.482 -23.556  1.00  0.00     0.044 C 
HETATM   18  C19 UNL     1       0.679  52.965 -24.720  1.00  0.00     0.291 C 
HETATM   19  C21 UNL     1       0.478  53.120 -22.351  1.00  0.00     0.181 C 
HETATM   20  O3  UNL     1       0.646  52.524 -25.854  1.00  0.00    -0.260 OA
HETATM   21  O4  UNL     1       1.466  53.996 -24.307  1.00  0.00    -0.315 OA
HETATM   22  C20 UNL     1       1.153  54.335 -22.951  1.00  0.00     0.215 C 
BRANCH  19  23
HETATM   23  O5  UNL     1       1.439  52.251 -21.760  1.00  0.00    -0.389 OA
HETATM   24  H32 UNL     1       1.037  51.367 -21.692  1.00  0.00     0.210 HD
ENDBRANCH  19  23
ENDBRANCH  15  16
ENDBRANCH  14  15
BRANCH  12  25
HETATM   25  C14 UNL     1      -5.128  48.593 -20.384  1.00  0.00     0.176 C 
BRANCH  25  26
HETATM   26  O2  UNL     1      -5.221  49.963 -20.743  1.00  0.00    -0.400 OA
HETATM   27  H24 UNL     1      -5.734  50.411 -20.048  1.00  0.00     0.209 HD
ENDBRANCH  25  26
ENDBRANCH  12  25
BRANCH  10  28
HETATM   28  O1  UNL     1      -2.116  46.539 -21.546  1.00  0.00    -0.389 OA
HETATM   29  H18 UNL     1      -2.516  45.677 -21.347  1.00  0.00     0.210 HD
ENDBRANCH  10  28
TORSDOF 6
ENDMDL
