MODEL 1
REMARK minimizedAffinity -10.102725
REMARK  4 active torsions:
REMARK  status: ('A' for Active; 'I' for Inactive)
REMARK    1  A    between atoms: C4_4  and  O1_5 
REMARK    2  A    between atoms: C4_4  and  C5_6 
REMARK    3  A    between atoms: C5_6  and  C6_7 
REMARK    4  A    between atoms: C6_7  and  C8_9 
ROOT
HETATM    1  C8  UNL     1       0.782   6.324  11.649  1.00  0.00    -0.001 C 
HETATM    2  C9  UNL     1       1.084   4.800  11.655  1.00  0.00     0.007 C 
HETATM    3  C10 UNL     1      -0.221   4.092  12.114  1.00  0.00     0.015 C 
HETATM    4  C11 UNL     1      -1.300   5.197  12.088  1.00  0.00    -0.013 C 
HETATM    5  C12 UNL     1      -1.792   5.295  10.599  1.00  0.00     0.021 C 
HETATM    6  C13 UNL     1      -2.580   5.031  12.916  1.00  0.00    -0.070 C 
HETATM    7  C14 UNL     1      -3.267   3.874  12.893  1.00  0.00    -0.022 C 
HETATM    8  C15 UNL     1      -4.693   3.748  13.331  1.00  0.00     0.034 C 
HETATM    9  C16 UNL     1      -5.410   5.117  13.291  1.00  0.00     0.013 C 
HETATM   10  C17 UNL     1      -6.963   5.014  13.504  1.00  0.00     0.018 C 
HETATM   11  C18 UNL     1      -7.600   4.396  12.232  1.00  0.00     0.023 C 
HETATM   12  C19 UNL     1      -7.411   4.148  14.692  1.00  0.00     0.023 C 
HETATM   13  C20 UNL     1      -7.570   6.414  13.692  1.00  0.00     0.135 C 
HETATM   14  O2  UNL     1      -8.667   6.723  13.222  1.00  0.00    -0.297 OA
HETATM   15  C21 UNL     1      -6.832   7.388  14.574  1.00  0.00     0.080 C 
HETATM   16  C22 UNL     1      -5.383   7.505  14.131  1.00  0.00     0.017 C 
HETATM   17  C23 UNL     1      -4.622   6.159  14.158  1.00  0.00    -0.031 C 
HETATM   18  C24 UNL     1      -4.479   5.710  15.641  1.00  0.00     0.016 C 
HETATM   19  C25 UNL     1      -3.130   6.300  13.602  1.00  0.00     0.024 C 
HETATM   20  C26 UNL     1      -2.802   7.554  12.758  1.00  0.00     0.010 C 
HETATM   21  C27 UNL     1      -1.296   7.716  12.412  1.00  0.00     0.011 C 
HETATM   22  C28 UNL     1      -0.461   6.428  12.585  1.00  0.00    -0.029 C 
HETATM   23  C29 UNL     1      -0.016   6.265  14.073  1.00  0.00     0.016 C 
ENDROOT
BRANCH   1  24
HETATM   24  C6  UNL     1       2.002   7.287  11.779  1.00  0.00    -0.008 C 
HETATM   25  C7  UNL     1       1.787   8.469  10.815  1.00  0.00     0.010 C 
BRANCH  24  26
HETATM   26  C5  UNL     1       3.407   6.656  11.598  1.00  0.00     0.078 C 
BRANCH  26  27
HETATM   27  C4  UNL     1       4.019   6.726  10.184  1.00  0.00     0.191 A 
HETATM   28  C3  UNL     1       3.128   7.422   9.228  1.00  0.00     0.054 A 
HETATM   29  C2  UNL     1       2.741   6.596   8.258  1.00  0.00     0.015 A 
HETATM   30  C1  UNL     1       1.853   6.817   7.099  1.00  0.00     0.054 C 
HETATM   31  C30 UNL     1       3.385   5.307   8.533  1.00  0.00     0.291 A 
HETATM   32  O3  UNL     1       4.166   5.421   9.640  1.00  0.00    -0.276 OA
HETATM   33  O4  UNL     1       3.251   4.299   7.865  1.00  0.00    -0.260 OA
BRANCH  27  34
HETATM   34  O1  UNL     1       5.259   7.405  10.217  1.00  0.00    -0.362 OA
HETATM   35  H5  UNL     1       5.515   7.572   9.296  1.00  0.00     0.213 HD
ENDBRANCH  27  34
ENDBRANCH  26  27
ENDBRANCH  24  26
ENDBRANCH   1  24
TORSDOF 4
ENDMDL
MODEL 2
REMARK minimizedAffinity -10.071909
REMARK  4 active torsions:
REMARK  status: ('A' for Active; 'I' for Inactive)
REMARK    1  A    between atoms: C4_4  and  O1_5 
REMARK    2  A    between atoms: C4_4  and  C5_6 
REMARK    3  A    between atoms: C5_6  and  C6_7 
REMARK    4  A    between atoms: C6_7  and  C8_9 
ROOT
HETATM    1  C8  UNL     1      -6.792   7.224  14.447  1.00  0.00    -0.001 C 
HETATM    2  C9  UNL     1      -6.524   8.546  15.218  1.00  0.00     0.007 C 
HETATM    3  C10 UNL     1      -5.009   8.850  15.062  1.00  0.00     0.015 C 
HETATM    4  C11 UNL     1      -4.515   7.856  13.987  1.00  0.00    -0.013 C 
HETATM    5  C12 UNL     1      -4.861   8.504  12.598  1.00  0.00     0.021 C 
HETATM    6  C13 UNL     1      -3.024   7.508  13.899  1.00  0.00    -0.070 C 
HETATM    7  C14 UNL     1      -2.091   8.476  13.931  1.00  0.00    -0.022 C 
HETATM    8  C15 UNL     1      -0.681   8.285  13.464  1.00  0.00     0.034 C 
HETATM    9  C16 UNL     1      -0.577   7.091  12.488  1.00  0.00     0.013 C 
HETATM   10  C17 UNL     1       0.820   6.986  11.777  1.00  0.00     0.018 C 
HETATM   11  C18 UNL     1       0.935   8.131  10.736  1.00  0.00     0.023 C 
HETATM   12  C19 UNL     1       2.042   7.101  12.701  1.00  0.00     0.023 C 
HETATM   13  C20 UNL     1       0.934   5.656  11.015  1.00  0.00     0.135 C 
HETATM   14  O2  UNL     1       1.496   5.571   9.922  1.00  0.00    -0.297 OA
HETATM   15  C21 UNL     1       0.432   4.410  11.698  1.00  0.00     0.080 C 
HETATM   16  C22 UNL     1      -0.996   4.613  12.179  1.00  0.00     0.017 C 
HETATM   17  C23 UNL     1      -1.151   5.797  13.162  1.00  0.00    -0.031 C 
HETATM   18  C24 UNL     1      -0.406   5.434  14.480  1.00  0.00     0.016 C 
HETATM   19  C25 UNL     1      -2.675   6.039  13.578  1.00  0.00     0.024 C 
HETATM   20  C26 UNL     1      -3.765   5.409  12.679  1.00  0.00     0.010 C 
HETATM   21  C27 UNL     1      -5.207   5.528  13.245  1.00  0.00     0.011 C 
HETATM   22  C28 UNL     1      -5.371   6.591  14.354  1.00  0.00    -0.029 C 
HETATM   23  C29 UNL     1      -4.964   5.996  15.740  1.00  0.00     0.016 C 
ENDROOT
BRANCH   1  24
HETATM   24  C6  UNL     1      -8.043   6.397  14.877  1.00  0.00    -0.008 C 
HETATM   25  C7  UNL     1      -7.597   4.943  15.122  1.00  0.00     0.010 C 
BRANCH  24  26
HETATM   26  C5  UNL     1      -9.275   6.462  13.939  1.00  0.00     0.078 C 
BRANCH  26  27
HETATM   27  C4  UNL     1     -10.462   7.324  14.416  1.00  0.00     0.191 A 
HETATM   28  C3  UNL     1     -11.754   6.614  14.278  1.00  0.00     0.054 A 
HETATM   29  C2  UNL     1     -12.549   7.246  13.416  1.00  0.00     0.015 A 
HETATM   30  C1  UNL     1     -13.909   6.922  12.943  1.00  0.00     0.054 C 
HETATM   31  C30 UNL     1     -11.805   8.425  12.959  1.00  0.00     0.291 A 
HETATM   32  O3  UNL     1     -10.604   8.475  13.594  1.00  0.00    -0.276 OA
HETATM   33  O4  UNL     1     -12.210   9.237  12.148  1.00  0.00    -0.260 OA
BRANCH  27  34
HETATM   34  O1  UNL     1     -10.293   7.687  15.772  1.00  0.00    -0.362 OA
HETATM   35  H5  UNL     1     -11.132   8.074  16.069  1.00  0.00     0.213 HD
ENDBRANCH  27  34
ENDBRANCH  26  27
ENDBRANCH  24  26
ENDBRANCH   1  24
TORSDOF 4
ENDMDL
MODEL 3
REMARK minimizedAffinity -9.92435932
REMARK  4 active torsions:
REMARK  status: ('A' for Active; 'I' for Inactive)
REMARK    1  A    between atoms: C4_4  and  O1_5 
REMARK    2  A    between atoms: C4_4  and  C5_6 
REMARK    3  A    between atoms: C5_6  and  C6_7 
REMARK    4  A    between atoms: C6_7  and  C8_9 
ROOT
HETATM    1  C8  UNL     1      -5.907   7.230  14.525  1.00  0.00    -0.001 C 
HETATM    2  C9  UNL     1      -5.655   8.605  15.202  1.00  0.00     0.007 C 
HETATM    3  C10 UNL     1      -4.176   8.978  14.910  1.00  0.00     0.015 C 
HETATM    4  C11 UNL     1      -3.711   7.952  13.853  1.00  0.00    -0.013 C 
HETATM    5  C12 UNL     1      -4.198   8.502  12.464  1.00  0.00     0.021 C 
HETATM    6  C13 UNL     1      -2.214   7.677  13.664  1.00  0.00    -0.070 C 
HETATM    7  C14 UNL     1      -1.337   8.694  13.572  1.00  0.00    -0.022 C 
HETATM    8  C15 UNL     1       0.042   8.550  13.004  1.00  0.00     0.034 C 
HETATM    9  C16 UNL     1       0.138   7.310  12.086  1.00  0.00     0.013 C 
HETATM   10  C17 UNL     1       1.479   7.238  11.273  1.00  0.00     0.018 C 
HETATM   11  C18 UNL     1       1.450   8.327  10.168  1.00  0.00     0.023 C 
HETATM   12  C19 UNL     1       2.761   7.468  12.090  1.00  0.00     0.023 C 
HETATM   13  C20 UNL     1       1.609   5.875  10.575  1.00  0.00     0.135 C 
HETATM   14  O2  UNL     1       2.089   5.757   9.446  1.00  0.00    -0.297 OA
HETATM   15  C21 UNL     1       1.232   4.644  11.359  1.00  0.00     0.080 C 
HETATM   16  C22 UNL     1      -0.164   4.800  11.941  1.00  0.00     0.017 C 
HETATM   17  C23 UNL     1      -0.309   6.028  12.871  1.00  0.00    -0.031 C 
HETATM   18  C24 UNL     1       0.554   5.779  14.142  1.00  0.00     0.016 C 
HETATM   19  C25 UNL     1      -1.808   6.213  13.393  1.00  0.00     0.024 C 
HETATM   20  C26 UNL     1      -2.927   5.478  12.618  1.00  0.00     0.010 C 
HETATM   21  C27 UNL     1      -4.326   5.553  13.290  1.00  0.00     0.011 C 
HETATM   22  C28 UNL     1      -4.463   6.667  14.352  1.00  0.00    -0.029 C 
HETATM   23  C29 UNL     1      -3.919   6.173  15.730  1.00  0.00     0.016 C 
ENDROOT
BRANCH   1  24
HETATM   24  C6  UNL     1      -7.072   6.364  15.096  1.00  0.00    -0.008 C 
HETATM   25  C7  UNL     1      -7.202   6.663  16.601  1.00  0.00     0.010 C 
BRANCH  24  26
HETATM   26  C5  UNL     1      -7.003   4.840  14.824  1.00  0.00     0.078 C 
BRANCH  26  27
HETATM   27  C4  UNL     1      -7.693   4.335  13.539  1.00  0.00     0.191 A 
HETATM   28  C3  UNL     1      -7.699   2.857  13.457  1.00  0.00     0.054 A 
HETATM   29  C2  UNL     1      -6.997   2.441  12.405  1.00  0.00     0.015 A 
HETATM   30  C1  UNL     1      -6.704   1.078  11.918  1.00  0.00     0.054 C 
HETATM   31  C30 UNL     1      -6.506   3.650  11.734  1.00  0.00     0.291 A 
HETATM   32  O3  UNL     1      -6.966   4.748  12.389  1.00  0.00    -0.276 OA
HETATM   33  O4  UNL     1      -5.808   3.663  10.736  1.00  0.00    -0.260 OA
BRANCH  27  34
HETATM   34  O1  UNL     1      -9.030   4.793  13.486  1.00  0.00    -0.362 OA
HETATM   35  H5  UNL     1      -9.464   4.316  12.761  1.00  0.00     0.213 HD
ENDBRANCH  27  34
ENDBRANCH  26  27
ENDBRANCH  24  26
ENDBRANCH   1  24
TORSDOF 4
ENDMDL
MODEL 4
REMARK minimizedAffinity -9.67451668
REMARK  4 active torsions:
REMARK  status: ('A' for Active; 'I' for Inactive)
REMARK    1  A    between atoms: C4_4  and  O1_5 
REMARK    2  A    between atoms: C4_4  and  C5_6 
REMARK    3  A    between atoms: C5_6  and  C6_7 
REMARK    4  A    between atoms: C6_7  and  C8_9 
ROOT
HETATM    1  C8  UNL     1      -3.306   8.524  14.397  1.00  0.00    -0.001 C 
HETATM    2  C9  UNL     1      -2.913   7.857  15.744  1.00  0.00     0.007 C 
HETATM    3  C10 UNL     1      -1.419   7.449  15.617  1.00  0.00     0.015 C 
HETATM    4  C11 UNL     1      -0.930   8.138  14.323  1.00  0.00    -0.013 C 
HETATM    5  C12 UNL     1      -0.568   9.614  14.721  1.00  0.00     0.021 C 
HETATM    6  C13 UNL     1       0.315   7.608  13.602  1.00  0.00    -0.070 C 
HETATM    7  C14 UNL     1       1.436   7.323  14.290  1.00  0.00    -0.022 C 
HETATM    8  C15 UNL     1       2.786   7.189  13.655  1.00  0.00     0.034 C 
HETATM    9  C16 UNL     1       2.833   7.915  12.291  1.00  0.00     0.013 C 
HETATM   10  C17 UNL     1       4.281   8.018  11.689  1.00  0.00     0.018 C 
HETATM   11  C18 UNL     1       5.090   9.051  12.516  1.00  0.00     0.023 C 
HETATM   12  C19 UNL     1       5.092   6.713  11.691  1.00  0.00     0.023 C 
HETATM   13  C20 UNL     1       4.222   8.529  10.240  1.00  0.00     0.135 C 
HETATM   14  O2  UNL     1       5.062   9.306   9.783  1.00  0.00    -0.297 OA
HETATM   15  C21 UNL     1       3.156   7.962   9.338  1.00  0.00     0.080 C 
HETATM   16  C22 UNL     1       1.790   8.092   9.991  1.00  0.00     0.017 C 
HETATM   17  C23 UNL     1       1.692   7.377  11.359  1.00  0.00    -0.031 C 
HETATM   18  C24 UNL     1       1.798   5.844  11.115  1.00  0.00     0.016 C 
HETATM   19  C25 UNL     1       0.274   7.609  12.059  1.00  0.00     0.024 C 
HETATM   20  C26 UNL     1      -0.589   8.784  11.544  1.00  0.00     0.010 C 
HETATM   21  C27 UNL     1      -2.023   8.833  12.139  1.00  0.00     0.011 C 
HETATM   22  C28 UNL     1      -2.209   7.994  13.423  1.00  0.00    -0.029 C 
HETATM   23  C29 UNL     1      -2.500   6.503  13.060  1.00  0.00     0.016 C 
ENDROOT
BRANCH   1  24
HETATM   24  C6  UNL     1      -4.820   8.522  14.022  1.00  0.00    -0.008 C 
HETATM   25  C7  UNL     1      -5.637   8.661  15.320  1.00  0.00     0.010 C 
BRANCH  24  26
HETATM   26  C5  UNL     1      -5.321   7.334  13.161  1.00  0.00     0.078 C 
BRANCH  26  27
HETATM   27  C4  UNL     1      -5.953   6.149  13.919  1.00  0.00     0.191 A 
HETATM   28  C3  UNL     1      -5.481   4.845  13.403  1.00  0.00     0.054 A 
HETATM   29  C2  UNL     1      -6.492   4.147  12.890  1.00  0.00     0.015 A 
HETATM   30  C1  UNL     1      -6.520   2.816  12.251  1.00  0.00     0.054 C 
HETATM   31  C30 UNL     1      -7.693   4.972  13.065  1.00  0.00     0.291 A 
HETATM   32  O3  UNL     1      -7.360   6.120  13.713  1.00  0.00    -0.276 OA
HETATM   33  O4  UNL     1      -8.813   4.667  12.699  1.00  0.00    -0.260 OA
BRANCH  27  34
HETATM   34  O1  UNL     1      -5.645   6.226  15.297  1.00  0.00    -0.362 OA
HETATM   35  H5  UNL     1      -5.913   5.382  15.695  1.00  0.00     0.213 HD
ENDBRANCH  27  34
ENDBRANCH  26  27
ENDBRANCH  24  26
ENDBRANCH   1  24
TORSDOF 4
ENDMDL
MODEL 5
REMARK minimizedAffinity -9.47984982
REMARK  4 active torsions:
REMARK  status: ('A' for Active; 'I' for Inactive)
REMARK    1  A    between atoms: C4_4  and  O1_5 
REMARK    2  A    between atoms: C4_4  and  C5_6 
REMARK    3  A    between atoms: C5_6  and  C6_7 
REMARK    4  A    between atoms: C6_7  and  C8_9 
ROOT
HETATM    1  C8  UNL     1      -3.240   4.788  13.230  1.00  0.00    -0.001 C 
HETATM    2  C9  UNL     1      -2.311   5.039  12.011  1.00  0.00     0.007 C 
HETATM    3  C10 UNL     1      -1.477   6.307  12.343  1.00  0.00     0.015 C 
HETATM    4  C11 UNL     1      -1.749   6.578  13.840  1.00  0.00    -0.013 C 
HETATM    5  C12 UNL     1      -0.775   5.640  14.640  1.00  0.00     0.021 C 
HETATM    6  C13 UNL     1      -1.509   7.979  14.417  1.00  0.00    -0.070 C 
HETATM    7  C14 UNL     1      -0.374   8.648  14.143  1.00  0.00    -0.022 C 
HETATM    8  C15 UNL     1       0.119   9.808  14.951  1.00  0.00     0.034 C 
HETATM    9  C16 UNL     1      -0.495   9.799  16.369  1.00  0.00     0.013 C 
HETATM   10  C17 UNL     1       0.162  10.844  17.341  1.00  0.00     0.018 C 
HETATM   11  C18 UNL     1       1.585  10.350  17.714  1.00  0.00     0.023 C 
HETATM   12  C19 UNL     1       0.318  12.264  16.775  1.00  0.00     0.023 C 
HETATM   13  C20 UNL     1      -0.648  10.946  18.643  1.00  0.00     0.135 C 
HETATM   14  O2  UNL     1      -0.110  11.090  19.742  1.00  0.00    -0.297 OA
HETATM   15  C21 UNL     1      -2.151  10.980  18.535  1.00  0.00     0.080 C 
HETATM   16  C22 UNL     1      -2.645   9.806  17.707  1.00  0.00     0.017 C 
HETATM   17  C23 UNL     1      -2.060   9.774  16.275  1.00  0.00    -0.031 C 
HETATM   18  C24 UNL     1      -2.627  10.993  15.491  1.00  0.00     0.016 C 
HETATM   19  C25 UNL     1      -2.528   8.480  15.462  1.00  0.00     0.024 C 
HETATM   20  C26 UNL     1      -3.091   7.293  16.278  1.00  0.00     0.010 C 
HETATM   21  C27 UNL     1      -3.696   6.152  15.414  1.00  0.00     0.011 C 
HETATM   22  C28 UNL     1      -3.266   6.181  13.930  1.00  0.00    -0.029 C 
HETATM   23  C29 UNL     1      -4.173   7.162  13.121  1.00  0.00     0.016 C 
ENDROOT
BRANCH   1  24
HETATM   24  C6  UNL     1      -4.538   3.964  12.971  1.00  0.00    -0.008 C 
HETATM   25  C7  UNL     1      -4.230   2.906  11.896  1.00  0.00     0.010 C 
BRANCH  24  26
HETATM   26  C5  UNL     1      -5.815   4.771  12.624  1.00  0.00     0.078 C 
BRANCH  26  27
HETATM   27  C4  UNL     1      -7.071   4.474  13.469  1.00  0.00     0.191 A 
HETATM   28  C3  UNL     1      -8.304   4.984  12.827  1.00  0.00     0.054 A 
HETATM   29  C2  UNL     1      -8.876   5.921  13.582  1.00  0.00     0.015 A 
HETATM   30  C1  UNL     1     -10.095   6.724  13.365  1.00  0.00     0.054 C 
HETATM   31  C30 UNL     1      -8.035   6.055  14.777  1.00  0.00     0.291 A 
HETATM   32  O3  UNL     1      -7.011   5.164  14.710  1.00  0.00    -0.276 OA
HETATM   33  O4  UNL     1      -8.235   6.833  15.692  1.00  0.00    -0.260 OA
BRANCH  27  34
HETATM   34  O1  UNL     1      -7.212   3.082  13.669  1.00  0.00    -0.362 OA
HETATM   35  H5  UNL     1      -8.093   2.938  14.050  1.00  0.00     0.213 HD
ENDBRANCH  27  34
ENDBRANCH  26  27
ENDBRANCH  24  26
ENDBRANCH   1  24
TORSDOF 4
ENDMDL
MODEL 6
REMARK minimizedAffinity -9.40270901
REMARK  4 active torsions:
REMARK  status: ('A' for Active; 'I' for Inactive)
REMARK    1  A    between atoms: C4_4  and  O1_5 
REMARK    2  A    between atoms: C4_4  and  C5_6 
REMARK    3  A    between atoms: C5_6  and  C6_7 
REMARK    4  A    between atoms: C6_7  and  C8_9 
ROOT
HETATM    1  C8  UNL     1      -5.304   4.945  13.743  1.00  0.00    -0.001 C 
HETATM    2  C9  UNL     1      -4.804   4.514  12.336  1.00  0.00     0.007 C 
HETATM    3  C10 UNL     1      -3.413   5.176  12.139  1.00  0.00     0.015 C 
HETATM    4  C11 UNL     1      -3.037   5.730  13.531  1.00  0.00    -0.013 C 
HETATM    5  C12 UNL     1      -2.430   4.524  14.334  1.00  0.00     0.021 C 
HETATM    6  C13 UNL     1      -1.994   6.848  13.650  1.00  0.00    -0.070 C 
HETATM    7  C14 UNL     1      -0.830   6.773  12.980  1.00  0.00    -0.022 C 
HETATM    8  C15 UNL     1       0.381   7.584  13.329  1.00  0.00     0.034 C 
HETATM    9  C16 UNL     1       0.318   8.074  14.793  1.00  0.00     0.013 C 
HETATM   10  C17 UNL     1       1.659   8.721  15.293  1.00  0.00     0.018 C 
HETATM   11  C18 UNL     1       2.712   7.598  15.483  1.00  0.00     0.023 C 
HETATM   12  C19 UNL     1       2.284   9.760  14.348  1.00  0.00     0.023 C 
HETATM   13  C20 UNL     1       1.451   9.396  16.658  1.00  0.00     0.135 C 
HETATM   14  O2  UNL     1       2.308   9.365  17.544  1.00  0.00    -0.297 OA
HETATM   15  C21 UNL     1       0.198  10.209  16.857  1.00  0.00     0.080 C 
HETATM   16  C22 UNL     1      -1.026   9.384  16.493  1.00  0.00     0.017 C 
HETATM   17  C23 UNL     1      -1.011   8.873  15.033  1.00  0.00    -0.031 C 
HETATM   18  C24 UNL     1      -1.145  10.101  14.086  1.00  0.00     0.016 C 
HETATM   19  C25 UNL     1      -2.265   7.937  14.710  1.00  0.00     0.024 C 
HETATM   20  C26 UNL     1      -3.035   7.340  15.912  1.00  0.00     0.010 C 
HETATM   21  C27 UNL     1      -4.345   6.598  15.527  1.00  0.00     0.011 C 
HETATM   22  C28 UNL     1      -4.444   6.213  14.035  1.00  0.00    -0.029 C 
HETATM   23  C29 UNL     1      -4.979   7.418  13.198  1.00  0.00     0.016 C 
ENDROOT
BRANCH   1  24
HETATM   24  C6  UNL     1      -6.844   4.912  13.987  1.00  0.00    -0.008 C 
HETATM   25  C7  UNL     1      -7.433   3.739  13.182  1.00  0.00     0.010 C 
BRANCH  24  26
HETATM   26  C5  UNL     1      -7.618   6.228  13.721  1.00  0.00     0.078 C 
BRANCH  26  27
HETATM   27  C4  UNL     1      -8.547   6.723  14.848  1.00  0.00     0.191 A 
HETATM   28  C3  UNL     1      -9.924   6.970  14.364  1.00  0.00     0.054 A 
HETATM   29  C2  UNL     1     -10.245   8.256  14.490  1.00  0.00     0.015 A 
HETATM   30  C1  UNL     1     -11.481   8.981  14.138  1.00  0.00     0.054 C 
HETATM   31  C30 UNL     1      -9.077   8.914  15.087  1.00  0.00     0.291 A 
HETATM   32  O3  UNL     1      -8.113   7.987  15.332  1.00  0.00    -0.276 OA
HETATM   33  O4  UNL     1      -8.994  10.103  15.338  1.00  0.00    -0.260 OA
BRANCH  27  34
HETATM   34  O1  UNL     1      -8.602   5.772  15.893  1.00  0.00    -0.362 OA
HETATM   35  H5  UNL     1      -9.320   6.045  16.487  1.00  0.00     0.213 HD
ENDBRANCH  27  34
ENDBRANCH  26  27
ENDBRANCH  24  26
ENDBRANCH   1  24
TORSDOF 4
ENDMDL
MODEL 7
REMARK minimizedAffinity -9.09669781
REMARK  4 active torsions:
REMARK  status: ('A' for Active; 'I' for Inactive)
REMARK    1  A    between atoms: C4_4  and  O1_5 
REMARK    2  A    between atoms: C4_4  and  C5_6 
REMARK    3  A    between atoms: C5_6  and  C6_7 
REMARK    4  A    between atoms: C6_7  and  C8_9 
ROOT
HETATM    1  C8  UNL     1       0.786   6.557  11.653  1.00  0.00    -0.001 C 
HETATM    2  C9  UNL     1       1.138   5.046  11.730  1.00  0.00     0.007 C 
HETATM    3  C10 UNL     1      -0.145   4.317  12.217  1.00  0.00     0.015 C 
HETATM    4  C11 UNL     1      -1.260   5.383  12.137  1.00  0.00    -0.013 C 
HETATM    5  C12 UNL     1      -1.748   5.396  10.644  1.00  0.00     0.021 C 
HETATM    6  C13 UNL     1      -2.538   5.213  12.968  1.00  0.00    -0.070 C 
HETATM    7  C14 UNL     1      -3.185   4.034  12.996  1.00  0.00    -0.022 C 
HETATM    8  C15 UNL     1      -4.609   3.880  13.435  1.00  0.00     0.034 C 
HETATM    9  C16 UNL     1      -5.370   5.221  13.330  1.00  0.00     0.013 C 
HETATM   10  C17 UNL     1      -6.920   5.077  13.543  1.00  0.00     0.018 C 
HETATM   11  C18 UNL     1      -7.530   4.380  12.299  1.00  0.00     0.023 C 
HETATM   12  C19 UNL     1      -7.344   4.252  14.768  1.00  0.00     0.023 C 
HETATM   13  C20 UNL     1      -7.574   6.463  13.664  1.00  0.00     0.135 C 
HETATM   14  O2  UNL     1      -8.678   6.714  13.178  1.00  0.00    -0.297 OA
HETATM   15  C21 UNL     1      -6.873   7.500  14.504  1.00  0.00     0.080 C 
HETATM   16  C22 UNL     1      -5.426   7.645  14.060  1.00  0.00     0.017 C 
HETATM   17  C23 UNL     1      -4.621   6.327  14.151  1.00  0.00    -0.031 C 
HETATM   18  C24 UNL     1      -4.470   5.952  15.654  1.00  0.00     0.016 C 
HETATM   19  C25 UNL     1      -3.132   6.493  13.593  1.00  0.00     0.024 C 
HETATM   20  C26 UNL     1      -2.842   7.717  12.694  1.00  0.00     0.010 C 
HETATM   21  C27 UNL     1      -1.340   7.912  12.345  1.00  0.00     0.011 C 
HETATM   22  C28 UNL     1      -0.464   6.663  12.580  1.00  0.00    -0.029 C 
HETATM   23  C29 UNL     1      -0.021   6.583  14.075  1.00  0.00     0.016 C 
ENDROOT
BRANCH   1  24
HETATM   24  C6  UNL     1       1.973   7.564  11.742  1.00  0.00    -0.008 C 
HETATM   25  C7  UNL     1       1.433   8.897  12.294  1.00  0.00     0.010 C 
BRANCH  24  26
HETATM   26  C5  UNL     1       2.801   7.779  10.449  1.00  0.00     0.078 C 
BRANCH  26  27
HETATM   27  C4  UNL     1       4.169   7.071  10.380  1.00  0.00     0.191 A 
HETATM   28  C3  UNL     1       4.657   6.673  11.720  1.00  0.00     0.054 A 
HETATM   29  C2  UNL     1       5.788   7.310  12.018  1.00  0.00     0.015 A 
HETATM   30  C1  UNL     1       6.634   7.258  13.227  1.00  0.00     0.054 C 
HETATM   31  C30 UNL     1       6.103   8.154  10.860  1.00  0.00     0.291 A 
HETATM   32  O3  UNL     1       5.166   7.961   9.894  1.00  0.00    -0.276 OA
HETATM   33  O4  UNL     1       7.062   8.898  10.775  1.00  0.00    -0.260 OA
BRANCH  27  34
HETATM   34  O1  UNL     1       4.085   5.914   9.571  1.00  0.00    -0.362 OA
HETATM   35  H5  UNL     1       4.910   5.419   9.697  1.00  0.00     0.213 HD
ENDBRANCH  27  34
ENDBRANCH  26  27
ENDBRANCH  24  26
ENDBRANCH   1  24
TORSDOF 4
ENDMDL
MODEL 8
REMARK minimizedAffinity -8.91983414
REMARK  4 active torsions:
REMARK  status: ('A' for Active; 'I' for Inactive)
REMARK    1  A    between atoms: C4_4  and  O1_5 
REMARK    2  A    between atoms: C4_4  and  C5_6 
REMARK    3  A    between atoms: C5_6  and  C6_7 
REMARK    4  A    between atoms: C6_7  and  C8_9 
ROOT
HETATM    1  C8  UNL     1      -0.727   6.586  12.108  1.00  0.00    -0.001 C 
HETATM    2  C9  UNL     1      -1.891   5.637  12.503  1.00  0.00     0.007 C 
HETATM    3  C10 UNL     1      -2.697   6.363  13.615  1.00  0.00     0.015 C 
HETATM    4  C11 UNL     1      -2.144   7.806  13.625  1.00  0.00    -0.013 C 
HETATM    5  C12 UNL     1      -2.896   8.573  12.478  1.00  0.00     0.021 C 
HETATM    6  C13 UNL     1      -2.326   8.683  14.870  1.00  0.00    -0.070 C 
HETATM    7  C14 UNL     1      -3.521   8.764  15.482  1.00  0.00    -0.022 C 
HETATM    8  C15 UNL     1      -3.894   9.863  16.429  1.00  0.00     0.034 C 
HETATM    9  C16 UNL     1      -3.010  11.111  16.207  1.00  0.00     0.013 C 
HETATM   10  C17 UNL     1      -3.505  12.376  16.997  1.00  0.00     0.018 C 
HETATM   11  C18 UNL     1      -4.801  12.903  16.328  1.00  0.00     0.023 C 
HETATM   12  C19 UNL     1      -3.834  12.141  18.480  1.00  0.00     0.023 C 
HETATM   13  C20 UNL     1      -2.457  13.497  16.923  1.00  0.00     0.135 C 
HETATM   14  O2  UNL     1      -2.770  14.684  16.816  1.00  0.00    -0.297 OA
HETATM   15  C21 UNL     1      -1.009  13.119  17.100  1.00  0.00     0.080 C 
HETATM   16  C22 UNL     1      -0.639  11.997  16.143  1.00  0.00     0.017 C 
HETATM   17  C23 UNL     1      -1.495  10.722  16.329  1.00  0.00    -0.031 C 
HETATM   18  C24 UNL     1      -1.151  10.103  17.715  1.00  0.00     0.016 C 
HETATM   19  C25 UNL     1      -1.142   9.597  15.252  1.00  0.00     0.024 C 
HETATM   20  C26 UNL     1      -0.375  10.042  13.984  1.00  0.00     0.010 C 
HETATM   21  C27 UNL     1       0.095   8.871  13.077  1.00  0.00     0.011 C 
HETATM   22  C28 UNL     1      -0.623   7.530  13.345  1.00  0.00    -0.029 C 
HETATM   23  C29 UNL     1       0.059   6.776  14.530  1.00  0.00     0.016 C 
ENDROOT
BRANCH   1  24
HETATM   24  C6  UNL     1       0.530   5.931  11.456  1.00  0.00    -0.008 C 
HETATM   25  C7  UNL     1       0.390   4.402  11.573  1.00  0.00     0.010 C 
BRANCH  24  26
HETATM   26  C5  UNL     1       1.910   6.416  11.967  1.00  0.00     0.078 C 
BRANCH  26  27
HETATM   27  C4  UNL     1       2.945   6.809  10.893  1.00  0.00     0.191 A 
HETATM   28  C3  UNL     1       2.329   7.562   9.778  1.00  0.00     0.054 A 
HETATM   29  C2  UNL     1       2.440   6.887   8.635  1.00  0.00     0.015 A 
HETATM   30  C1  UNL     1       1.976   7.214   7.273  1.00  0.00     0.054 C 
HETATM   31  C30 UNL     1       3.160   5.650   8.957  1.00  0.00     0.291 A 
HETATM   32  O3  UNL     1       3.488   5.649  10.276  1.00  0.00    -0.276 OA
HETATM   33  O4  UNL     1       3.434   4.771   8.160  1.00  0.00    -0.260 OA
BRANCH  27  34
HETATM   34  O1  UNL     1       3.967   7.605  11.462  1.00  0.00    -0.362 OA
HETATM   35  H5  UNL     1       4.489   7.964  10.727  1.00  0.00     0.213 HD
ENDBRANCH  27  34
ENDBRANCH  26  27
ENDBRANCH  24  26
ENDBRANCH   1  24
TORSDOF 4
ENDMDL
MODEL 9
REMARK minimizedAffinity -8.85126209
REMARK  4 active torsions:
REMARK  status: ('A' for Active; 'I' for Inactive)
REMARK    1  A    between atoms: C4_4  and  O1_5 
REMARK    2  A    between atoms: C4_4  and  C5_6 
REMARK    3  A    between atoms: C5_6  and  C6_7 
REMARK    4  A    between atoms: C6_7  and  C8_9 
ROOT
HETATM    1  C8  UNL     1       0.951   8.484  14.182  1.00  0.00    -0.001 C 
HETATM    2  C9  UNL     1       0.797   9.916  14.763  1.00  0.00     0.007 C 
HETATM    3  C10 UNL     1      -0.714  10.111  15.066  1.00  0.00     0.015 C 
HETATM    4  C11 UNL     1      -1.332   8.703  14.914  1.00  0.00    -0.013 C 
HETATM    5  C12 UNL     1      -1.081   7.963  16.277  1.00  0.00     0.021 C 
HETATM    6  C13 UNL     1      -2.837   8.555  14.657  1.00  0.00    -0.070 C 
HETATM    7  C14 UNL     1      -3.728   9.249  15.388  1.00  0.00    -0.022 C 
HETATM    8  C15 UNL     1      -5.178   8.888  15.487  1.00  0.00     0.034 C 
HETATM    9  C16 UNL     1      -5.407   7.403  15.125  1.00  0.00     0.013 C 
HETATM   10  C17 UNL     1      -6.862   6.901  15.440  1.00  0.00     0.018 C 
HETATM   11  C18 UNL     1      -7.022   6.778  16.979  1.00  0.00     0.023 C 
HETATM   12  C19 UNL     1      -7.997   7.811  14.946  1.00  0.00     0.023 C 
HETATM   13  C20 UNL     1      -7.087   5.504  14.839  1.00  0.00     0.135 C 
HETATM   14  O2  UNL     1      -7.742   4.636  15.420  1.00  0.00    -0.297 OA
HETATM   15  C21 UNL     1      -6.575   5.248  13.445  1.00  0.00     0.080 C 
HETATM   16  C22 UNL     1      -5.106   5.625  13.348  1.00  0.00     0.017 C 
HETATM   17  C23 UNL     1      -4.826   7.105  13.699  1.00  0.00    -0.031 C 
HETATM   18  C24 UNL     1      -5.470   7.996  12.597  1.00  0.00     0.016 C 
HETATM   19  C25 UNL     1      -3.265   7.445  13.674  1.00  0.00     0.024 C 
HETATM   20  C26 UNL     1      -2.278   6.256  13.740  1.00  0.00     0.010 C 
HETATM   21  C27 UNL     1      -0.790   6.648  13.524  1.00  0.00     0.011 C 
HETATM   22  C28 UNL     1      -0.495   8.153  13.703  1.00  0.00    -0.029 C 
HETATM   23  C29 UNL     1      -0.805   8.928  12.383  1.00  0.00     0.016 C 
ENDROOT
BRANCH   1  24
HETATM   24  C6  UNL     1       2.203   8.213  13.291  1.00  0.00    -0.008 C 
HETATM   25  C7  UNL     1       2.696   9.561  12.732  1.00  0.00     0.010 C 
BRANCH  24  26
HETATM   26  C5  UNL     1       2.041   7.158  12.168  1.00  0.00     0.078 C 
BRANCH  26  27
HETATM   27  C4  UNL     1       3.165   7.094  11.113  1.00  0.00     0.191 A 
HETATM   28  C3  UNL     1       2.812   7.835   9.881  1.00  0.00     0.054 A 
HETATM   29  C2  UNL     1       2.745   7.010   8.838  1.00  0.00     0.015 A 
HETATM   30  C1  UNL     1       2.419   7.270   7.422  1.00  0.00     0.054 C 
HETATM   31  C30 UNL     1       3.071   5.674   9.348  1.00  0.00     0.291 A 
HETATM   32  O3  UNL     1       3.360   5.756  10.674  1.00  0.00    -0.276 OA
HETATM   33  O4  UNL     1       3.094   4.655   8.683  1.00  0.00    -0.260 OA
BRANCH  27  34
HETATM   34  O1  UNL     1       4.362   7.636  11.636  1.00  0.00    -0.362 OA
HETATM   35  H5  UNL     1       4.979   7.730  10.893  1.00  0.00     0.213 HD
ENDBRANCH  27  34
ENDBRANCH  26  27
ENDBRANCH  24  26
ENDBRANCH   1  24
TORSDOF 4
ENDMDL
