MODEL 1
REMARK minimizedAffinity -7.43896389
REMARK CNNscore 0.621311367
REMARK CNNaffinity 7.20718765
REMARK  6 active torsions:
REMARK  status: ('A' for Active; 'I' for Inactive)
REMARK    1  A    between atoms: C3_3  and  C4_4 
REMARK    2  A    between atoms: C4_4  and  O1_5 
REMARK    3  A    between atoms: C7_9  and  O3_10 
REMARK    4  A    between atoms: C25_30  and  C26_31 
REMARK    5  A    between atoms: C39_45  and  O7_47 
REMARK    6  A    between atoms: C41_48  and  O8_49 
ROOT
HETATM    1  C1  UNL     1      -5.214  17.068   3.969  1.00  0.00     0.013 C 
HETATM    2  C2  UNL     1      -3.982  17.234   3.082  1.00  0.00     0.023 C 
HETATM    3  C3  UNL     1      -4.169  16.486   1.732  1.00  0.00     0.047 C 
HETATM    4  C5  UNL     1      -3.097  15.367   1.718  1.00  0.00     0.160 C 
HETATM    5  O2  UNL     1      -2.788  15.240   3.111  1.00  0.00    -0.373 OA
HETATM    6  C6  UNL     1      -2.725  16.577   3.644  1.00  0.00     0.167 C 
HETATM    7  C7  UNL     1      -2.437  16.516   5.154  1.00  0.00     0.226 C 
HETATM    8  C8  UNL     1      -1.137  15.827   5.296  1.00  0.00    -0.072 C 
HETATM    9  C9  UNL     1      -0.140  15.182   5.108  1.00  0.00    -0.103 C 
HETATM   10  C10 UNL     1       0.947  14.290   4.702  1.00  0.00     0.099 C 
HETATM   11  C11 UNL     1       2.022  14.882   3.779  1.00  0.00     0.009 C 
HETATM   12  C12 UNL     1       2.812  16.018   4.558  1.00  0.00     0.016 C 
HETATM   13  C13 UNL     1       4.137  16.368   3.858  1.00  0.00     0.027 C 
HETATM   14  C14 UNL     1       4.365  15.669   2.522  1.00  0.00    -0.036 C 
HETATM   15  C15 UNL     1       5.616  15.121   2.496  1.00  0.00     0.057 C 
HETATM   16  C16 UNL     1       6.652  16.028   3.125  1.00  0.00     0.154 C 
HETATM   17  O4  UNL     1       7.735  15.638   3.526  1.00  0.00    -0.293 OA
HETATM   18  C17 UNL     1       6.196  17.474   3.059  1.00  0.00     0.071 C 
HETATM   19  C18 UNL     1       7.164  18.626   2.921  1.00  0.00     0.045 C 
HETATM   20  C19 UNL     1       6.452  19.633   1.983  1.00  0.00     0.122 C 
HETATM   21  C20 UNL     1       5.139  20.081   2.690  1.00  0.00     0.033 C 
HETATM   22  C21 UNL     1       4.186  18.913   3.091  1.00  0.00     0.013 C 
HETATM   23  C22 UNL     1       4.884  17.754   3.855  1.00  0.00    -0.026 C 
HETATM   24  C23 UNL     1       5.166  18.178   5.307  1.00  0.00     0.016 C 
HETATM   25  O5  UNL     1       6.054  19.047   0.714  1.00  0.00    -0.384 OA
HETATM   26  C24 UNL     1       7.100  18.492  -0.099  1.00  0.00     0.190 C 
HETATM   27  C25 UNL     1       6.616  17.512  -1.219  1.00  0.00     0.121 C 
HETATM   28  C32 UNL     1       5.958  16.257  -0.729  1.00  0.00    -0.093 C 
HETATM   29  C33 UNL     1       5.344  15.247  -0.468  1.00  0.00    -0.080 C 
HETATM   30  C34 UNL     1       4.428  14.088  -0.213  1.00  0.00     0.263 C 
HETATM   31  O6  UNL     1       3.580  14.118   0.985  1.00  0.00    -0.363 OA
HETATM   32  C35 UNL     1       3.202  15.415   1.548  1.00  0.00     0.094 C 
HETATM   33  C36 UNL     1       2.729  16.271   0.345  1.00  0.00     0.044 C 
HETATM   34  C37 UNL     1       1.408  15.560  -0.074  1.00  0.00     0.012 C 
HETATM   35  C38 UNL     1       0.881  14.752   1.176  1.00  0.00     0.034 C 
HETATM   36  C39 UNL     1      -0.662  14.407   1.043  1.00  0.00     0.087 C 
HETATM   37  C40 UNL     1      -1.037  13.273   2.008  1.00  0.00     0.049 C 
HETATM   38  C41 UNL     1      -1.793  15.531   0.865  1.00  0.00     0.181 C 
HETATM   39  C42 UNL     1       1.717  15.426   2.334  1.00  0.00     0.002 C 
HETATM   40  C43 UNL     1       1.138  16.877   2.518  1.00  0.00     0.019 C 
ENDROOT
BRANCH  27  41
HETATM   41  C26 UNL     1       5.806  18.128  -2.356  1.00  0.00    -0.040 A 
HETATM   42  C27 UNL     1       5.778  19.505  -2.624  1.00  0.00     0.008 A 
HETATM   43  C28 UNL     1       5.006  20.013  -3.673  1.00  0.00     0.001 A 
HETATM   44  C29 UNL     1       4.242  19.156  -4.463  1.00  0.00     0.000 A 
HETATM   45  C30 UNL     1       4.241  17.789  -4.203  1.00  0.00     0.001 A 
HETATM   46  C31 UNL     1       5.015  17.282  -3.158  1.00  0.00     0.008 A 
ENDBRANCH  27  41
BRANCH  36  47
HETATM   47  O7  UNL     1      -0.686  13.714  -0.265  1.00  0.00    -0.387 OA
HETATM   48  H49 UNL     1      -1.546  13.270  -0.360  1.00  0.00     0.210 HD
ENDBRANCH  36  47
BRANCH  38  49
HETATM   49  O8  UNL     1      -1.300  16.859   0.984  1.00  0.00    -0.390 OA
HETATM   50  H51 UNL     1      -1.027  17.143   0.093  1.00  0.00     0.210 HD
ENDBRANCH  38  49
BRANCH   7  51
HETATM   51  O3  UNL     1      -2.340  17.816   5.721  1.00  0.00    -0.381 OA
HETATM   52  H12 UNL     1      -3.238  18.091   5.961  1.00  0.00     0.211 HD
ENDBRANCH   7  51
BRANCH   3  53
HETATM   53  C4  UNL     1      -4.236  17.399   0.516  1.00  0.00     0.172 C 
BRANCH  53  54
HETATM   54  O1  UNL     1      -4.436  16.629  -0.664  1.00  0.00    -0.400 OA
HETATM   55  H8  UNL     1      -5.371  16.357  -0.678  1.00  0.00     0.209 HD
ENDBRANCH  53  54
ENDBRANCH   3  53
TORSDOF 6
ENDMDL
MODEL 2
REMARK minimizedAffinity -7.15305471
REMARK CNNscore 0.402368307
REMARK CNNaffinity 6.84160662
REMARK  6 active torsions:
REMARK  status: ('A' for Active; 'I' for Inactive)
REMARK    1  A    between atoms: C3_3  and  C4_4 
REMARK    2  A    between atoms: C4_4  and  O1_5 
REMARK    3  A    between atoms: C7_9  and  O3_10 
REMARK    4  A    between atoms: C25_30  and  C26_31 
REMARK    5  A    between atoms: C39_45  and  O7_47 
REMARK    6  A    between atoms: C41_48  and  O8_49 
ROOT
HETATM    1  C1  UNL     1      -2.183  17.189   7.599  1.00  0.00     0.013 C 
HETATM    2  C2  UNL     1      -1.975  17.449   6.109  1.00  0.00     0.023 C 
HETATM    3  C3  UNL     1      -3.306  17.270   5.327  1.00  0.00     0.047 C 
HETATM    4  C5  UNL     1      -3.080  16.065   4.379  1.00  0.00     0.160 C 
HETATM    5  O2  UNL     1      -1.975  15.403   5.005  1.00  0.00    -0.373 OA
HETATM    6  C6  UNL     1      -1.062  16.435   5.428  1.00  0.00     0.167 C 
HETATM    7  C7  UNL     1       0.137  15.796   6.151  1.00  0.00     0.226 C 
HETATM    8  C8  UNL     1       0.774  14.893   5.169  1.00  0.00    -0.072 C 
HETATM    9  C9  UNL     1       1.013  14.198   4.218  1.00  0.00    -0.103 C 
HETATM   10  C10 UNL     1       1.065  13.338   3.034  1.00  0.00     0.099 C 
HETATM   11  C11 UNL     1       1.312  14.028   1.686  1.00  0.00     0.009 C 
HETATM   12  C12 UNL     1       2.766  14.665   1.683  1.00  0.00     0.016 C 
HETATM   13  C13 UNL     1       3.230  15.012   0.257  1.00  0.00     0.027 C 
HETATM   14  C14 UNL     1       2.182  14.804  -0.831  1.00  0.00    -0.036 C 
HETATM   15  C15 UNL     1       2.727  14.098  -1.867  1.00  0.00     0.057 C 
HETATM   16  C16 UNL     1       4.142  14.535  -2.176  1.00  0.00     0.154 C 
HETATM   17  O4  UNL     1       4.938  13.853  -2.797  1.00  0.00    -0.293 OA
HETATM   18  C17 UNL     1       4.363  15.967  -1.720  1.00  0.00     0.071 C 
HETATM   19  C18 UNL     1       5.299  16.912  -2.436  1.00  0.00     0.045 C 
HETATM   20  C19 UNL     1       4.593  18.291  -2.376  1.00  0.00     0.122 C 
HETATM   21  C20 UNL     1       4.444  18.674  -0.874  1.00  0.00     0.033 C 
HETATM   22  C21 UNL     1       3.693  17.617  -0.006  1.00  0.00     0.013 C 
HETATM   23  C22 UNL     1       4.212  16.163  -0.179  1.00  0.00    -0.026 C 
HETATM   24  C23 UNL     1       5.550  15.992   0.561  1.00  0.00     0.016 C 
HETATM   25  O5  UNL     1       3.249  18.268  -2.928  1.00  0.00    -0.384 OA
HETATM   26  C24 UNL     1       3.120  17.868  -4.302  1.00  0.00     0.190 C 
HETATM   27  C25 UNL     1       1.677  17.443  -4.734  1.00  0.00     0.121 C 
HETATM   28  C32 UNL     1       1.136  16.226  -4.046  1.00  0.00    -0.093 C 
HETATM   29  C33 UNL     1       0.558  15.308  -3.511  1.00  0.00    -0.080 C 
HETATM   30  C34 UNL     1      -0.268  14.306  -2.762  1.00  0.00     0.263 C 
HETATM   31  O6  UNL     1       0.049  14.052  -1.352  1.00  0.00    -0.363 OA
HETATM   32  C35 UNL     1       0.696  15.110  -0.574  1.00  0.00     0.094 C 
HETATM   33  C36 UNL     1      -0.103  16.402  -0.881  1.00  0.00     0.044 C 
HETATM   34  C37 UNL     1      -1.474  16.119  -0.200  1.00  0.00     0.012 C 
HETATM   35  C38 UNL     1      -1.239  15.022   0.912  1.00  0.00     0.034 C 
HETATM   36  C39 UNL     1      -2.412  15.011   1.981  1.00  0.00     0.087 C 
HETATM   37  C40 UNL     1      -2.403  13.689   2.763  1.00  0.00     0.049 C 
HETATM   38  C41 UNL     1      -2.806  16.298   2.854  1.00  0.00     0.181 C 
HETATM   39  C42 UNL     1       0.330  15.092   1.065  1.00  0.00     0.002 C 
HETATM   40  C43 UNL     1       0.650  16.459   1.775  1.00  0.00     0.019 C 
ENDROOT
BRANCH  27  41
HETATM   41  C26 UNL     1       0.626  18.549  -4.764  1.00  0.00    -0.040 A 
HETATM   42  C27 UNL     1      -0.631  18.433  -4.152  1.00  0.00     0.008 A 
HETATM   43  C28 UNL     1      -1.559  19.476  -4.223  1.00  0.00     0.001 A 
HETATM   44  C29 UNL     1      -1.252  20.645  -4.916  1.00  0.00     0.000 A 
HETATM   45  C30 UNL     1      -0.019  20.773  -5.547  1.00  0.00     0.001 A 
HETATM   46  C31 UNL     1       0.909  19.733  -5.471  1.00  0.00     0.008 A 
ENDBRANCH  27  41
BRANCH  36  47
HETATM   47  O7  UNL     1      -3.593  14.839   1.105  1.00  0.00    -0.387 OA
HETATM   48  H49 UNL     1      -4.356  14.609   1.663  1.00  0.00     0.210 HD
ENDBRANCH  36  47
BRANCH  38  49
HETATM   49  O8  UNL     1      -1.918  17.395   2.684  1.00  0.00    -0.390 OA
HETATM   50  H51 UNL     1      -2.258  17.925   1.941  1.00  0.00     0.210 HD
ENDBRANCH  38  49
BRANCH   7  51
HETATM   51  O3  UNL     1       1.080  16.775   6.565  1.00  0.00    -0.381 OA
HETATM   52  H12 UNL     1       0.798  17.094   7.436  1.00  0.00     0.211 HD
ENDBRANCH   7  51
BRANCH   3  53
HETATM   53  C4  UNL     1      -3.844  18.552   4.705  1.00  0.00     0.172 C 
BRANCH  53  54
HETATM   54  O1  UNL     1      -5.224  18.403   4.394  1.00  0.00    -0.400 OA
HETATM   55  H8  UNL     1      -5.719  18.471   5.231  1.00  0.00     0.209 HD
ENDBRANCH  53  54
ENDBRANCH   3  53
TORSDOF 6
ENDMDL
MODEL 3
REMARK minimizedAffinity -6.81344748
REMARK CNNscore 0.288626313
REMARK CNNaffinity 6.57630014
REMARK  6 active torsions:
REMARK  status: ('A' for Active; 'I' for Inactive)
REMARK    1  A    between atoms: C3_3  and  C4_4 
REMARK    2  A    between atoms: C4_4  and  O1_5 
REMARK    3  A    between atoms: C7_9  and  O3_10 
REMARK    4  A    between atoms: C25_30  and  C26_31 
REMARK    5  A    between atoms: C39_45  and  O7_47 
REMARK    6  A    between atoms: C41_48  and  O8_49 
ROOT
HETATM    1  C1  UNL     1     -12.366 -15.151  15.052  1.00  0.00     0.013 C 
HETATM    2  C2  UNL     1     -12.614 -13.825  14.335  1.00  0.00     0.023 C 
HETATM    3  C3  UNL     1     -11.347 -13.374  13.555  1.00  0.00     0.047 C 
HETATM    4  C5  UNL     1     -10.883 -12.058  14.228  1.00  0.00     0.160 C 
HETATM    5  O2  UNL     1     -11.518 -12.144  15.509  1.00  0.00    -0.373 OA
HETATM    6  C6  UNL     1     -12.848 -12.649  15.277  1.00  0.00     0.167 C 
HETATM    7  C7  UNL     1     -13.579 -12.809  16.622  1.00  0.00     0.226 C 
HETATM    8  C8  UNL     1     -13.621 -11.462  17.229  1.00  0.00    -0.072 C 
HETATM    9  C9  UNL     1     -13.430 -10.307  17.502  1.00  0.00    -0.103 C 
HETATM   10  C10 UNL     1     -12.983  -8.931  17.726  1.00  0.00     0.099 C 
HETATM   11  C11 UNL     1     -13.491  -7.867  16.743  1.00  0.00     0.009 C 
HETATM   12  C12 UNL     1     -15.065  -7.723  16.897  1.00  0.00     0.016 C 
HETATM   13  C13 UNL     1     -15.580  -6.423  16.253  1.00  0.00     0.027 C 
HETATM   14  C14 UNL     1     -14.529  -5.615  15.501  1.00  0.00    -0.036 C 
HETATM   15  C15 UNL     1     -14.590  -4.305  15.887  1.00  0.00     0.057 C 
HETATM   16  C16 UNL     1     -16.015  -3.825  16.057  1.00  0.00     0.154 C 
HETATM   17  O4  UNL     1     -16.321  -2.840  16.707  1.00  0.00    -0.293 OA
HETATM   18  C17 UNL     1     -16.957  -4.659  15.208  1.00  0.00     0.071 C 
HETATM   19  C18 UNL     1     -18.214  -4.090  14.592  1.00  0.00     0.045 C 
HETATM   20  C19 UNL     1     -18.319  -4.770  13.203  1.00  0.00     0.122 C 
HETATM   21  C20 UNL     1     -18.450  -6.303  13.442  1.00  0.00     0.033 C 
HETATM   22  C21 UNL     1     -17.301  -6.929  14.291  1.00  0.00     0.013 C 
HETATM   23  C22 UNL     1     -16.994  -6.166  15.610  1.00  0.00    -0.026 C 
HETATM   24  C23 UNL     1     -18.085  -6.462  16.653  1.00  0.00     0.016 C 
HETATM   25  O5  UNL     1     -17.131  -4.583  12.387  1.00  0.00    -0.384 OA
HETATM   26  C24 UNL     1     -16.757  -3.229  12.087  1.00  0.00     0.190 C 
HETATM   27  C25 UNL     1     -15.284  -3.043  11.593  1.00  0.00     0.121 C 
HETATM   28  C32 UNL     1     -14.225  -3.402  12.592  1.00  0.00    -0.093 C 
HETATM   29  C33 UNL     1     -13.281  -3.728  13.275  1.00  0.00    -0.080 C 
HETATM   30  C34 UNL     1     -12.091  -4.281  13.999  1.00  0.00     0.263 C 
HETATM   31  O6  UNL     1     -12.292  -5.408  14.917  1.00  0.00    -0.363 OA
HETATM   32  C35 UNL     1     -13.423  -6.309  14.688  1.00  0.00     0.094 C 
HETATM   33  C36 UNL     1     -13.387  -6.647  13.175  1.00  0.00     0.044 C 
HETATM   34  C37 UNL     1     -12.095  -7.508  13.055  1.00  0.00     0.012 C 
HETATM   35  C38 UNL     1     -11.780  -8.105  14.482  1.00  0.00     0.034 C 
HETATM   36  C39 UNL     1     -10.815  -9.361  14.393  1.00  0.00     0.087 C 
HETATM   37  C40 UNL     1     -10.177  -9.637  15.763  1.00  0.00     0.049 C 
HETATM   38  C41 UNL     1     -11.173 -10.676  13.548  1.00  0.00     0.181 C 
HETATM   39  C42 UNL     1     -13.169  -7.888  15.202  1.00  0.00     0.002 C 
HETATM   40  C43 UNL     1     -14.174  -8.908  14.552  1.00  0.00     0.019 C 
ENDROOT
BRANCH  27  41
HETATM   41  C26 UNL     1     -14.948  -3.634  10.227  1.00  0.00    -0.040 A 
HETATM   42  C27 UNL     1     -15.693  -4.659   9.626  1.00  0.00     0.008 A 
HETATM   43  C28 UNL     1     -15.329  -5.170   8.377  1.00  0.00     0.001 A 
HETATM   44  C29 UNL     1     -14.209  -4.673   7.713  1.00  0.00     0.000 A 
HETATM   45  C30 UNL     1     -13.444  -3.670   8.300  1.00  0.00     0.001 A 
HETATM   46  C31 UNL     1     -13.810  -3.157   9.545  1.00  0.00     0.008 A 
ENDBRANCH  27  41
BRANCH  36  47
HETATM   47  O7  UNL     1      -9.677  -8.790  13.637  1.00  0.00    -0.387 OA
HETATM   48  H49 UNL     1      -8.928  -9.408  13.700  1.00  0.00     0.210 HD
ENDBRANCH  36  47
BRANCH  38  49
HETATM   49  O8  UNL     1     -12.490 -10.668  13.013  1.00  0.00    -0.390 OA
HETATM   50  H51 UNL     1     -12.439 -10.246  12.135  1.00  0.00     0.210 HD
ENDBRANCH  38  49
BRANCH   7  51
HETATM   51  O3  UNL     1     -14.908 -13.281  16.442  1.00  0.00    -0.381 OA
HETATM   52  H12 UNL     1     -14.866 -14.249  16.414  1.00  0.00     0.211 HD
ENDBRANCH   7  51
BRANCH   3  53
HETATM   53  C4  UNL     1     -11.517 -13.359  12.042  1.00  0.00     0.172 C 
BRANCH  53  54
HETATM   54  O1  UNL     1     -10.427 -14.029  11.420  1.00  0.00    -0.400 OA
HETATM   55  H8  UNL     1     -10.570 -14.986  11.537  1.00  0.00     0.209 HD
ENDBRANCH  53  54
ENDBRANCH   3  53
TORSDOF 6
ENDMDL
MODEL 4
REMARK minimizedAffinity -6.95239401
REMARK CNNscore 0.283472389
REMARK CNNaffinity 6.55083656
REMARK  6 active torsions:
REMARK  status: ('A' for Active; 'I' for Inactive)
REMARK    1  A    between atoms: C3_3  and  C4_4 
REMARK    2  A    between atoms: C4_4  and  O1_5 
REMARK    3  A    between atoms: C7_9  and  O3_10 
REMARK    4  A    between atoms: C25_30  and  C26_31 
REMARK    5  A    between atoms: C39_45  and  O7_47 
REMARK    6  A    between atoms: C41_48  and  O8_49 
ROOT
HETATM    1  C1  UNL     1     -16.994  -0.670  30.633  1.00  0.00     0.013 C 
HETATM    2  C2  UNL     1     -17.113   0.059  29.297  1.00  0.00     0.023 C 
HETATM    3  C3  UNL     1     -16.507  -0.795  28.147  1.00  0.00     0.047 C 
HETATM    4  C5  UNL     1     -15.293   0.010  27.619  1.00  0.00     0.160 C 
HETATM    5  O2  UNL     1     -15.015   0.879  28.723  1.00  0.00    -0.373 OA
HETATM    6  C6  UNL     1     -16.288   1.339  29.217  1.00  0.00     0.167 C 
HETATM    7  C7  UNL     1     -16.067   2.250  30.437  1.00  0.00     0.226 C 
HETATM    8  C8  UNL     1     -15.242   3.381  29.962  1.00  0.00    -0.072 C 
HETATM    9  C9  UNL     1     -14.520   4.102  29.328  1.00  0.00    -0.103 C 
HETATM   10  C10 UNL     1     -13.563   4.778  28.451  1.00  0.00     0.099 C 
HETATM   11  C11 UNL     1     -14.122   5.405  27.166  1.00  0.00     0.009 C 
HETATM   12  C12 UNL     1     -15.102   6.595  27.549  1.00  0.00     0.016 C 
HETATM   13  C13 UNL     1     -15.378   7.511  26.344  1.00  0.00     0.027 C 
HETATM   14  C14 UNL     1     -14.779   7.039  25.023  1.00  0.00    -0.036 C 
HETATM   15  C15 UNL     1     -14.113   8.072  24.424  1.00  0.00     0.057 C 
HETATM   16  C16 UNL     1     -14.854   9.385  24.556  1.00  0.00     0.154 C 
HETATM   17  O4  UNL     1     -14.324  10.474  24.419  1.00  0.00    -0.293 OA
HETATM   18  C17 UNL     1     -16.339   9.135  24.749  1.00  0.00     0.071 C 
HETATM   19  C18 UNL     1     -17.396  10.082  24.232  1.00  0.00     0.045 C 
HETATM   20  C19 UNL     1     -18.547   9.166  23.744  1.00  0.00     0.122 C 
HETATM   21  C20 UNL     1     -19.060   8.366  24.977  1.00  0.00     0.033 C 
HETATM   22  C21 UNL     1     -17.963   7.544  25.722  1.00  0.00     0.013 C 
HETATM   23  C22 UNL     1     -16.677   8.352  26.056  1.00  0.00    -0.026 C 
HETATM   24  C23 UNL     1     -16.944   9.294  27.242  1.00  0.00     0.016 C 
HETATM   25  O5  UNL     1     -18.116   8.181  22.767  1.00  0.00    -0.384 OA
HETATM   26  C24 UNL     1     -17.532   8.685  21.555  1.00  0.00     0.190 C 
HETATM   27  C25 UNL     1     -16.705   7.638  20.736  1.00  0.00     0.121 C 
HETATM   28  C32 UNL     1     -15.484   7.107  21.425  1.00  0.00    -0.093 C 
HETATM   29  C33 UNL     1     -14.522   6.546  21.899  1.00  0.00    -0.080 C 
HETATM   30  C34 UNL     1     -13.443   5.695  22.496  1.00  0.00     0.263 C 
HETATM   31  O6  UNL     1     -13.453   5.469  23.946  1.00  0.00    -0.363 OA
HETATM   32  C35 UNL     1     -14.727   5.545  24.662  1.00  0.00     0.094 C 
HETATM   33  C36 UNL     1     -15.727   4.707  23.825  1.00  0.00     0.044 C 
HETATM   34  C37 UNL     1     -15.191   3.257  24.015  1.00  0.00     0.012 C 
HETATM   35  C38 UNL     1     -14.334   3.233  25.342  1.00  0.00     0.034 C 
HETATM   36  C39 UNL     1     -14.157   1.757  25.898  1.00  0.00     0.087 C 
HETATM   37  C40 UNL     1     -12.986   1.703  26.891  1.00  0.00     0.049 C 
HETATM   38  C41 UNL     1     -15.399   0.817  26.281  1.00  0.00     0.181 C 
HETATM   39  C42 UNL     1     -14.818   4.570  26.027  1.00  0.00     0.002 C 
HETATM   40  C43 UNL     1     -16.297   4.321  26.499  1.00  0.00     0.019 C 
ENDROOT
BRANCH  27  41
HETATM   41  C26 UNL     1     -17.495   6.498  20.100  1.00  0.00    -0.040 A 
HETATM   42  C27 UNL     1     -18.676   5.977  20.652  1.00  0.00     0.008 A 
HETATM   43  C28 UNL     1     -19.350   4.923  20.030  1.00  0.00     0.001 A 
HETATM   44  C29 UNL     1     -18.851   4.363  18.855  1.00  0.00     0.000 A 
HETATM   45  C30 UNL     1     -17.671   4.851  18.302  1.00  0.00     0.001 A 
HETATM   46  C31 UNL     1     -17.001   5.908  18.920  1.00  0.00     0.008 A 
ENDBRANCH  27  41
BRANCH  36  47
HETATM   47  O7  UNL     1     -13.585   1.075  24.715  1.00  0.00    -0.387 OA
HETATM   48  H49 UNL     1     -13.239   0.211  24.999  1.00  0.00     0.210 HD
ENDBRANCH  36  47
BRANCH  38  49
HETATM   49  O8  UNL     1     -16.656   1.477  26.212  1.00  0.00    -0.390 OA
HETATM   50  H51 UNL     1     -16.987   1.366  25.302  1.00  0.00     0.210 HD
ENDBRANCH  38  49
BRANCH   7  51
HETATM   51  O3  UNL     1     -17.297   2.751  30.945  1.00  0.00    -0.381 OA
HETATM   52  H12 UNL     1     -17.639   2.092  31.569  1.00  0.00     0.211 HD
ENDBRANCH   7  51
BRANCH   3  53
HETATM   53  C4  UNL     1     -17.525  -1.271  27.119  1.00  0.00     0.172 C 
BRANCH  53  54
HETATM   54  O1  UNL     1     -16.994  -2.361  26.375  1.00  0.00    -0.400 OA
HETATM   55  H8  UNL     1     -17.036  -3.150  26.945  1.00  0.00     0.209 HD
ENDBRANCH  53  54
ENDBRANCH   3  53
TORSDOF 6
ENDMDL
MODEL 5
REMARK minimizedAffinity -8.79016685
REMARK CNNscore 0.236362934
REMARK CNNaffinity 6.40806961
REMARK  6 active torsions:
REMARK  status: ('A' for Active; 'I' for Inactive)
REMARK    1  A    between atoms: C3_3  and  C4_4 
REMARK    2  A    between atoms: C4_4  and  O1_5 
REMARK    3  A    between atoms: C7_9  and  O3_10 
REMARK    4  A    between atoms: C25_30  and  C26_31 
REMARK    5  A    between atoms: C39_45  and  O7_47 
REMARK    6  A    between atoms: C41_48  and  O8_49 
ROOT
HETATM    1  C1  UNL     1       1.603   6.589   9.598  1.00  0.00     0.013 C 
HETATM    2  C2  UNL     1       1.895   7.487  10.799  1.00  0.00     0.023 C 
HETATM    3  C3  UNL     1       2.680   6.709  11.892  1.00  0.00     0.047 C 
HETATM    4  C5  UNL     1       1.740   6.646  13.122  1.00  0.00     0.160 C 
HETATM    5  O2  UNL     1       0.460   6.885  12.526  1.00  0.00    -0.373 OA
HETATM    6  C6  UNL     1       0.646   7.932  11.553  1.00  0.00     0.167 C 
HETATM    7  C7  UNL     1      -0.687   8.213  10.839  1.00  0.00     0.226 C 
HETATM    8  C8  UNL     1      -1.637   8.630  11.891  1.00  0.00    -0.072 C 
HETATM    9  C9  UNL     1      -2.187   8.841  12.940  1.00  0.00    -0.103 C 
HETATM   10  C10 UNL     1      -2.716   8.920  14.302  1.00  0.00     0.099 C 
HETATM   11  C11 UNL     1      -2.133  10.011  15.210  1.00  0.00     0.009 C 
HETATM   12  C12 UNL     1      -2.523  11.437  14.631  1.00  0.00     0.016 C 
HETATM   13  C13 UNL     1      -2.328  12.547  15.680  1.00  0.00     0.027 C 
HETATM   14  C14 UNL     1      -1.695  12.092  16.990  1.00  0.00    -0.036 C 
HETATM   15  C15 UNL     1      -2.427  12.563  18.044  1.00  0.00     0.057 C 
HETATM   16  C16 UNL     1      -2.904  13.982  17.822  1.00  0.00     0.154 C 
HETATM   17  O4  UNL     1      -3.831  14.485  18.433  1.00  0.00    -0.293 OA
HETATM   18  C17 UNL     1      -1.989  14.698  16.845  1.00  0.00     0.071 C 
HETATM   19  C18 UNL     1      -1.718  16.183  16.924  1.00  0.00     0.045 C 
HETATM   20  C19 UNL     1      -0.222  16.335  16.549  1.00  0.00     0.122 C 
HETATM   21  C20 UNL     1      -0.050  15.806  15.094  1.00  0.00     0.033 C 
HETATM   22  C21 UNL     1      -0.542  14.343  14.872  1.00  0.00     0.013 C 
HETATM   23  C22 UNL     1      -1.967  14.057  15.423  1.00  0.00    -0.026 C 
HETATM   24  C23 UNL     1      -3.022  14.678  14.491  1.00  0.00     0.016 C 
HETATM   25  O5  UNL     1       0.659  15.533  17.382  1.00  0.00    -0.384 OA
HETATM   26  C24 UNL     1       0.625  15.791  18.795  1.00  0.00     0.190 C 
HETATM   27  C25 UNL     1       1.236  14.660  19.687  1.00  0.00     0.121 C 
HETATM   28  C32 UNL     1       0.517  13.345  19.634  1.00  0.00    -0.093 C 
HETATM   29  C33 UNL     1       0.077  12.218  19.621  1.00  0.00    -0.080 C 
HETATM   30  C34 UNL     1      -0.310  10.775  19.506  1.00  0.00     0.263 C 
HETATM   31  O6  UNL     1      -0.905  10.309  18.248  1.00  0.00    -0.363 OA
HETATM   32  C35 UNL     1      -0.588  11.024  17.011  1.00  0.00     0.094 C 
HETATM   33  C36 UNL     1       0.951  11.211  17.020  1.00  0.00     0.044 C 
HETATM   34  C37 UNL     1       1.467   9.753  16.840  1.00  0.00     0.012 C 
HETATM   35  C38 UNL     1       0.308   8.912  16.173  1.00  0.00     0.034 C 
HETATM   36  C39 UNL     1       0.859   7.586  15.498  1.00  0.00     0.087 C 
HETATM   37  C40 UNL     1      -0.290   6.594  15.265  1.00  0.00     0.049 C 
HETATM   38  C41 UNL     1       1.976   7.595  14.347  1.00  0.00     0.181 C 
HETATM   39  C42 UNL     1      -0.617  10.070  15.628  1.00  0.00     0.002 C 
HETATM   40  C43 UNL     1       0.151  10.725  14.422  1.00  0.00     0.019 C 
ENDROOT
BRANCH  27  41
HETATM   41  C26 UNL     1       2.743  14.447  19.575  1.00  0.00    -0.040 A 
HETATM   42  C27 UNL     1       3.459  14.625  18.382  1.00  0.00     0.008 A 
HETATM   43  C28 UNL     1       4.838  14.403  18.336  1.00  0.00     0.001 A 
HETATM   44  C29 UNL     1       5.522  13.988  19.477  1.00  0.00     0.000 A 
HETATM   45  C30 UNL     1       4.828  13.786  20.666  1.00  0.00     0.001 A 
HETATM   46  C31 UNL     1       3.451  14.012  20.712  1.00  0.00     0.008 A 
ENDBRANCH  27  41
BRANCH  36  47
HETATM   47  O7  UNL     1       1.571   6.964  16.637  1.00  0.00    -0.387 OA
HETATM   48  H49 UNL     1       1.776   6.042  16.402  1.00  0.00     0.210 HD
ENDBRANCH  36  47
BRANCH  38  49
HETATM   49  O8  UNL     1       2.314   8.898  13.891  1.00  0.00    -0.390 OA
HETATM   50  H51 UNL     1       3.043   9.217  14.455  1.00  0.00     0.210 HD
ENDBRANCH  38  49
BRANCH   7  51
HETATM   51  O3  UNL     1      -0.558   9.260   9.886  1.00  0.00    -0.381 OA
HETATM   52  H12 UNL     1      -0.263   8.856   9.055  1.00  0.00     0.211 HD
ENDBRANCH   7  51
BRANCH   3  53
HETATM   53  C4  UNL     1       4.097   7.216  12.125  1.00  0.00     0.172 C 
BRANCH  53  54
HETATM   54  O1  UNL     1       5.040   6.214  11.763  1.00  0.00    -0.400 OA
HETATM   55  H8  UNL     1       5.087   6.198  10.790  1.00  0.00     0.209 HD
ENDBRANCH  53  54
ENDBRANCH   3  53
TORSDOF 6
ENDMDL
MODEL 6
REMARK minimizedAffinity -7.51974678
REMARK CNNscore 0.213579372
REMARK CNNaffinity 6.74690485
REMARK  6 active torsions:
REMARK  status: ('A' for Active; 'I' for Inactive)
REMARK    1  A    between atoms: C3_3  and  C4_4 
REMARK    2  A    between atoms: C4_4  and  O1_5 
REMARK    3  A    between atoms: C7_9  and  O3_10 
REMARK    4  A    between atoms: C25_30  and  C26_31 
REMARK    5  A    between atoms: C39_45  and  O7_47 
REMARK    6  A    between atoms: C41_48  and  O8_49 
ROOT
HETATM    1  C1  UNL     1       1.770  13.983   4.153  1.00  0.00     0.013 C 
HETATM    2  C2  UNL     1       0.254  14.087   3.999  1.00  0.00     0.023 C 
HETATM    3  C3  UNL     1      -0.205  13.491   2.639  1.00  0.00     0.047 C 
HETATM    4  C5  UNL     1      -0.798  14.676   1.837  1.00  0.00     0.160 C 
HETATM    5  O2  UNL     1      -0.211  15.801   2.500  1.00  0.00    -0.373 OA
HETATM    6  C6  UNL     1      -0.259  15.520   3.912  1.00  0.00     0.167 C 
HETATM    7  C7  UNL     1       0.397  16.675   4.689  1.00  0.00     0.226 C 
HETATM    8  C8  UNL     1      -0.384  17.887   4.362  1.00  0.00    -0.072 C 
HETATM    9  C9  UNL     1      -1.128  18.686   3.858  1.00  0.00    -0.103 C 
HETATM   10  C10 UNL     1      -2.011  19.523   3.045  1.00  0.00     0.099 C 
HETATM   11  C11 UNL     1      -3.521  19.301   3.208  1.00  0.00     0.009 C 
HETATM   12  C12 UNL     1      -3.954  19.713   4.680  1.00  0.00     0.016 C 
HETATM   13  C13 UNL     1      -5.477  19.900   4.791  1.00  0.00     0.027 C 
HETATM   14  C14 UNL     1      -6.265  19.539   3.536  1.00  0.00    -0.036 C 
HETATM   15  C15 UNL     1      -7.137  20.547   3.233  1.00  0.00     0.057 C 
HETATM   16  C16 UNL     1      -7.796  21.124   4.467  1.00  0.00     0.154 C 
HETATM   17  O4  UNL     1      -8.327  22.221   4.497  1.00  0.00    -0.293 OA
HETATM   18  C17 UNL     1      -7.807  20.100   5.587  1.00  0.00     0.071 C 
HETATM   19  C18 UNL     1      -8.910  20.033   6.617  1.00  0.00     0.045 C 
HETATM   20  C19 UNL     1      -9.121  18.520   6.877  1.00  0.00     0.122 C 
HETATM   21  C20 UNL     1      -7.786  17.954   7.443  1.00  0.00     0.033 C 
HETATM   22  C21 UNL     1      -6.539  18.202   6.539  1.00  0.00     0.013 C 
HETATM   23  C22 UNL     1      -6.382  19.672   6.058  1.00  0.00    -0.026 C 
HETATM   24  C23 UNL     1      -5.866  20.548   7.212  1.00  0.00     0.016 C 
HETATM   25  O5  UNL     1      -9.405  17.768   5.667  1.00  0.00    -0.384 OA
HETATM   26  C24 UNL     1     -10.566  18.159   4.918  1.00  0.00     0.190 C 
HETATM   27  C25 UNL     1     -10.607  17.642   3.442  1.00  0.00     0.121 C 
HETATM   28  C32 UNL     1      -9.521  18.167   2.551  1.00  0.00    -0.093 C 
HETATM   29  C33 UNL     1      -8.657  18.455   1.754  1.00  0.00    -0.080 C 
HETATM   30  C34 UNL     1      -7.526  18.630   0.786  1.00  0.00     0.263 C 
HETATM   31  O6  UNL     1      -6.178  18.857   1.320  1.00  0.00    -0.363 OA
HETATM   32  C35 UNL     1      -5.853  18.348   2.654  1.00  0.00     0.094 C 
HETATM   33  C36 UNL     1      -6.371  16.887   2.680  1.00  0.00     0.044 C 
HETATM   34  C37 UNL     1      -5.411  16.173   1.682  1.00  0.00     0.012 C 
HETATM   35  C38 UNL     1      -4.093  17.037   1.583  1.00  0.00     0.034 C 
HETATM   36  C39 UNL     1      -2.879  16.191   1.011  1.00  0.00     0.087 C 
HETATM   37  C40 UNL     1      -1.770  17.127   0.509  1.00  0.00     0.049 C 
HETATM   38  C41 UNL     1      -2.350  14.846   1.708  1.00  0.00     0.181 C 
HETATM   39  C42 UNL     1      -4.238  17.941   2.870  1.00  0.00     0.002 C 
HETATM   40  C43 UNL     1      -4.009  16.998   4.107  1.00  0.00     0.019 C 
ENDROOT
BRANCH  27  41
HETATM   41  C26 UNL     1     -10.766  16.136   3.255  1.00  0.00    -0.040 A 
HETATM   42  C27 UNL     1     -12.009  15.507   3.090  1.00  0.00     0.008 A 
HETATM   43  C28 UNL     1     -12.093  14.120   2.935  1.00  0.00     0.001 A 
HETATM   44  C29 UNL     1     -10.939  13.339   2.955  1.00  0.00     0.000 A 
HETATM   45  C30 UNL     1      -9.698  13.940   3.137  1.00  0.00     0.001 A 
HETATM   46  C31 UNL     1      -9.614  15.325   3.287  1.00  0.00     0.008 A 
ENDBRANCH  27  41
BRANCH  36  47
HETATM   47  O7  UNL     1      -3.454  15.693  -0.259  1.00  0.00    -0.387 OA
HETATM   48  H49 UNL     1      -2.731  15.331  -0.801  1.00  0.00     0.210 HD
ENDBRANCH  36  47
BRANCH  38  49
HETATM   49  O8  UNL     1      -2.973  14.569   2.956  1.00  0.00    -0.390 OA
HETATM   50  H51 UNL     1      -3.766  14.034   2.767  1.00  0.00     0.210 HD
ENDBRANCH  38  49
BRANCH   7  51
HETATM   51  O3  UNL     1       0.349  16.455   6.093  1.00  0.00    -0.381 OA
HETATM   52  H12 UNL     1       1.130  15.929   6.326  1.00  0.00     0.211 HD
ENDBRANCH   7  51
BRANCH   3  53
HETATM   53  C4  UNL     1      -1.061  12.237   2.762  1.00  0.00     0.172 C 
BRANCH  53  54
HETATM   54  O1  UNL     1      -0.306  11.091   2.387  1.00  0.00    -0.400 OA
HETATM   55  H8  UNL     1       0.296  10.886   3.125  1.00  0.00     0.209 HD
ENDBRANCH  53  54
ENDBRANCH   3  53
TORSDOF 6
ENDMDL
MODEL 7
REMARK minimizedAffinity -6.84653568
REMARK CNNscore 0.21292007
REMARK CNNaffinity 6.39551401
REMARK  6 active torsions:
REMARK  status: ('A' for Active; 'I' for Inactive)
REMARK    1  A    between atoms: C3_3  and  C4_4 
REMARK    2  A    between atoms: C4_4  and  O1_5 
REMARK    3  A    between atoms: C7_9  and  O3_10 
REMARK    4  A    between atoms: C25_30  and  C26_31 
REMARK    5  A    between atoms: C39_45  and  O7_47 
REMARK    6  A    between atoms: C41_48  and  O8_49 
ROOT
HETATM    1  C1  UNL     1       8.038  16.921   9.111  1.00  0.00     0.013 C 
HETATM    2  C2  UNL     1       7.418  16.609   7.751  1.00  0.00     0.023 C 
HETATM    3  C3  UNL     1       8.241  17.263   6.606  1.00  0.00     0.047 C 
HETATM    4  C5  UNL     1       7.300  18.307   5.953  1.00  0.00     0.160 C 
HETATM    5  O2  UNL     1       6.334  18.518   6.989  1.00  0.00    -0.373 OA
HETATM    6  C6  UNL     1       6.037  17.224   7.548  1.00  0.00     0.167 C 
HETATM    7  C7  UNL     1       5.031  17.380   8.701  1.00  0.00     0.226 C 
HETATM    8  C8  UNL     1       3.822  17.993   8.112  1.00  0.00    -0.072 C 
HETATM    9  C9  UNL     1       3.042  18.557   7.392  1.00  0.00    -0.103 C 
HETATM   10  C10 UNL     1       2.286  19.343   6.415  1.00  0.00     0.099 C 
HETATM   11  C11 UNL     1       1.829  18.616   5.144  1.00  0.00     0.009 C 
HETATM   12  C12 UNL     1       0.775  17.493   5.535  1.00  0.00     0.016 C 
HETATM   13  C13 UNL     1      -0.015  17.006   4.307  1.00  0.00     0.027 C 
HETATM   14  C14 UNL     1       0.443  17.586   2.973  1.00  0.00    -0.036 C 
HETATM   15  C15 UNL     1      -0.638  18.049   2.276  1.00  0.00     0.057 C 
HETATM   16  C16 UNL     1      -1.833  17.128   2.394  1.00  0.00     0.154 C 
HETATM   17  O4  UNL     1      -2.978  17.476   2.164  1.00  0.00    -0.293 OA
HETATM   18  C17 UNL     1      -1.378  15.713   2.704  1.00  0.00     0.071 C 
HETATM   19  C18 UNL     1      -2.126  14.494   2.216  1.00  0.00     0.045 C 
HETATM   20  C19 UNL     1      -1.022  13.467   1.859  1.00  0.00     0.122 C 
HETATM   21  C20 UNL     1      -0.231  13.159   3.164  1.00  0.00     0.033 C 
HETATM   22  C21 UNL     1       0.372  14.413   3.869  1.00  0.00     0.013 C 
HETATM   23  C22 UNL     1      -0.635  15.579   4.069  1.00  0.00    -0.026 C 
HETATM   24  C23 UNL     1      -1.598  15.248   5.223  1.00  0.00     0.016 C 
HETATM   25  O5  UNL     1      -0.054  13.980   0.904  1.00  0.00    -0.384 OA
HETATM   26  C24 UNL     1      -0.563  14.404  -0.370  1.00  0.00     0.190 C 
HETATM   27  C25 UNL     1       0.397  15.326  -1.192  1.00  0.00     0.121 C 
HETATM   28  C32 UNL     1       0.700  16.654  -0.565  1.00  0.00    -0.093 C 
HETATM   29  C33 UNL     1       1.082  17.718  -0.133  1.00  0.00    -0.080 C 
HETATM   30  C34 UNL     1       1.726  18.949   0.429  1.00  0.00     0.263 C 
HETATM   31  O6  UNL     1       1.863  19.064   1.885  1.00  0.00    -0.363 OA
HETATM   32  C35 UNL     1       1.932  17.841   2.685  1.00  0.00     0.094 C 
HETATM   33  C36 UNL     1       2.958  16.929   1.965  1.00  0.00     0.044 C 
HETATM   34  C37 UNL     1       4.299  17.689   2.190  1.00  0.00     0.012 C 
HETATM   35  C38 UNL     1       4.116  18.622   3.452  1.00  0.00     0.034 C 
HETATM   36  C39 UNL     1       5.512  19.054   4.069  1.00  0.00     0.087 C 
HETATM   37  C40 UNL     1       5.333  20.280   4.977  1.00  0.00     0.049 C 
HETATM   38  C41 UNL     1       6.601  17.996   4.586  1.00  0.00     0.181 C 
HETATM   39  C42 UNL     1       2.825  17.984   4.101  1.00  0.00     0.002 C 
HETATM   40  C43 UNL     1       3.261  16.592   4.689  1.00  0.00     0.019 C 
ENDROOT
BRANCH  27  41
HETATM   41  C26 UNL     1       1.679  14.679  -1.711  1.00  0.00    -0.040 A 
HETATM   42  C27 UNL     1       1.751  13.979  -2.924  1.00  0.00     0.008 A 
HETATM   43  C28 UNL     1       2.952  13.397  -3.342  1.00  0.00     0.001 A 
HETATM   44  C29 UNL     1       4.094  13.494  -2.550  1.00  0.00     0.000 A 
HETATM   45  C30 UNL     1       4.039  14.168  -1.334  1.00  0.00     0.001 A 
HETATM   46  C31 UNL     1       2.842  14.753  -0.919  1.00  0.00     0.008 A 
ENDBRANCH  27  41
BRANCH  36  47
HETATM   47  O7  UNL     1       6.173  19.648   2.884  1.00  0.00    -0.387 OA
HETATM   48  H49 UNL     1       6.958  20.138   3.186  1.00  0.00     0.210 HD
ENDBRANCH  36  47
BRANCH  38  49
HETATM   49  O8  UNL     1       6.138  16.652   4.574  1.00  0.00    -0.390 OA
HETATM   50  H51 UNL     1       6.352  16.284   3.696  1.00  0.00     0.210 HD
ENDBRANCH  38  49
BRANCH   7  51
HETATM   51  O3  UNL     1       4.687  16.123   9.269  1.00  0.00    -0.381 OA
HETATM   52  H12 UNL     1       5.350  15.925   9.949  1.00  0.00     0.211 HD
ENDBRANCH   7  51
BRANCH   3  53
HETATM   53  C4  UNL     1       8.925  16.268   5.679  1.00  0.00     0.172 C 
BRANCH  53  54
HETATM   54  O1  UNL     1       8.304  14.992   5.788  1.00  0.00    -0.400 OA
HETATM   55  H8  UNL     1       7.462  15.037   5.300  1.00  0.00     0.209 HD
ENDBRANCH  53  54
ENDBRANCH   3  53
TORSDOF 6
ENDMDL
MODEL 8
REMARK minimizedAffinity -6.73623991
REMARK CNNscore 0.193074182
REMARK CNNaffinity 6.19527817
REMARK  6 active torsions:
REMARK  status: ('A' for Active; 'I' for Inactive)
REMARK    1  A    between atoms: C3_3  and  C4_4 
REMARK    2  A    between atoms: C4_4  and  O1_5 
REMARK    3  A    between atoms: C7_9  and  O3_10 
REMARK    4  A    between atoms: C25_30  and  C26_31 
REMARK    5  A    between atoms: C39_45  and  O7_47 
REMARK    6  A    between atoms: C41_48  and  O8_49 
ROOT
HETATM    1  C1  UNL     1     -14.977  14.627  23.648  1.00  0.00     0.013 C 
HETATM    2  C2  UNL     1     -14.717  13.226  24.197  1.00  0.00     0.023 C 
HETATM    3  C3  UNL     1     -13.237  12.809  23.966  1.00  0.00     0.047 C 
HETATM    4  C5  UNL     1     -13.285  11.601  22.997  1.00  0.00     0.160 C 
HETATM    5  O2  UNL     1     -14.580  11.753  22.404  1.00  0.00    -0.373 OA
HETATM    6  C6  UNL     1     -15.479  12.126  23.465  1.00  0.00     0.167 C 
HETATM    7  C7  UNL     1     -16.889  12.349  22.891  1.00  0.00     0.226 C 
HETATM    8  C8  UNL     1     -17.292  11.064  22.281  1.00  0.00    -0.072 C 
HETATM    9  C9  UNL     1     -17.305   9.958  21.810  1.00  0.00    -0.103 C 
HETATM   10  C10 UNL     1     -17.086   8.649  21.192  1.00  0.00     0.099 C 
HETATM   11  C11 UNL     1     -16.866   7.462  22.141  1.00  0.00     0.009 C 
HETATM   12  C12 UNL     1     -18.193   7.206  22.974  1.00  0.00     0.016 C 
HETATM   13  C13 UNL     1     -18.187   5.816  23.635  1.00  0.00     0.027 C 
HETATM   14  C14 UNL     1     -16.891   5.029  23.472  1.00  0.00    -0.036 C 
HETATM   15  C15 UNL     1     -17.172   3.760  23.050  1.00  0.00     0.057 C 
HETATM   16  C16 UNL     1     -18.390   3.184  23.739  1.00  0.00     0.154 C 
HETATM   17  O4  UNL     1     -19.028   2.242  23.303  1.00  0.00    -0.293 OA
HETATM   18  C17 UNL     1     -18.604   3.858  25.083  1.00  0.00     0.071 C 
HETATM   19  C18 UNL     1     -19.201   3.136  26.268  1.00  0.00     0.045 C 
HETATM   20  C19 UNL     1     -18.422   3.675  27.495  1.00  0.00     0.122 C 
HETATM   21  C20 UNL     1     -18.683   5.208  27.577  1.00  0.00     0.033 C 
HETATM   22  C21 UNL     1     -18.316   6.000  26.284  1.00  0.00     0.013 C 
HETATM   23  C22 UNL     1     -18.892   5.388  24.976  1.00  0.00    -0.026 C 
HETATM   24  C23 UNL     1     -20.397   5.689  24.875  1.00  0.00     0.016 C 
HETATM   25  O5  UNL     1     -16.983   3.510  27.373  1.00  0.00    -0.384 OA
HETATM   26  C24 UNL     1     -16.496   2.169  27.211  1.00  0.00     0.190 C 
HETATM   27  C25 UNL     1     -15.035   2.058  26.663  1.00  0.00     0.121 C 
HETATM   28  C32 UNL     1     -14.829   2.591  25.276  1.00  0.00    -0.093 C 
HETATM   29  C33 UNL     1     -14.517   3.053  24.203  1.00  0.00    -0.080 C 
HETATM   30  C34 UNL     1     -14.040   3.764  22.973  1.00  0.00     0.263 C 
HETATM   31  O6  UNL     1     -14.776   4.951  22.521  1.00  0.00    -0.363 OA
HETATM   32  C35 UNL     1     -15.524   5.733  23.506  1.00  0.00     0.094 C 
HETATM   33  C36 UNL     1     -14.556   5.933  24.701  1.00  0.00     0.044 C 
HETATM   34  C37 UNL     1     -13.475   6.881  24.102  1.00  0.00     0.012 C 
HETATM   35  C38 UNL     1     -14.121   7.629  22.871  1.00  0.00     0.034 C 
HETATM   36  C39 UNL     1     -13.318   8.945  22.497  1.00  0.00     0.087 C 
HETATM   37  C40 UNL     1     -13.673   9.396  21.073  1.00  0.00     0.049 C 
HETATM   38  C41 UNL     1     -13.081  10.144  23.536  1.00  0.00     0.181 C 
HETATM   39  C42 UNL     1     -15.655   7.368  23.142  1.00  0.00     0.002 C 
HETATM   40  C43 UNL     1     -16.043   8.240  24.392  1.00  0.00     0.019 C 
ENDROOT
BRANCH  27  41
HETATM   41  C26 UNL     1     -13.924   2.547  27.589  1.00  0.00    -0.040 A 
HETATM   42  C27 UNL     1     -12.813   1.765  27.939  1.00  0.00     0.008 A 
HETATM   43  C28 UNL     1     -11.833   2.263  28.802  1.00  0.00     0.001 A 
HETATM   44  C29 UNL     1     -11.953   3.543  29.340  1.00  0.00     0.000 A 
HETATM   45  C30 UNL     1     -13.058   4.327  29.022  1.00  0.00     0.001 A 
HETATM   46  C31 UNL     1     -14.033   3.832  28.156  1.00  0.00     0.008 A 
ENDBRANCH  27  41
BRANCH  36  47
HETATM   47  O7  UNL     1     -11.953   8.401  22.313  1.00  0.00    -0.387 OA
HETATM   48  H49 UNL     1     -11.409   9.081  21.877  1.00  0.00     0.210 HD
ENDBRANCH  36  47
BRANCH  38  49
HETATM   49  O8  UNL     1     -13.778   9.981  24.764  1.00  0.00    -0.390 OA
HETATM   50  H51 UNL     1     -13.189   9.486  25.363  1.00  0.00     0.210 HD
ENDBRANCH  38  49
BRANCH   7  51
HETATM   51  O3  UNL     1     -17.820  12.694  23.908  1.00  0.00    -0.381 OA
HETATM   52  H12 UNL     1     -17.776  13.656  24.022  1.00  0.00     0.211 HD
ENDBRANCH   7  51
BRANCH   3  53
HETATM   53  C4  UNL     1     -12.428  12.641  25.246  1.00  0.00     0.172 C 
BRANCH  53  54
HETATM   54  O1  UNL     1     -13.288  12.302  26.327  1.00  0.00    -0.400 OA
HETATM   55  H8  UNL     1     -13.527  11.363  26.224  1.00  0.00     0.209 HD
ENDBRANCH  53  54
ENDBRANCH   3  53
TORSDOF 6
ENDMDL
MODEL 9
REMARK minimizedAffinity -7.66573906
REMARK CNNscore 0.17515716
REMARK CNNaffinity 6.29990578
REMARK  6 active torsions:
REMARK  status: ('A' for Active; 'I' for Inactive)
REMARK    1  A    between atoms: C3_3  and  C4_4 
REMARK    2  A    between atoms: C4_4  and  O1_5 
REMARK    3  A    between atoms: C7_9  and  O3_10 
REMARK    4  A    between atoms: C25_30  and  C26_31 
REMARK    5  A    between atoms: C39_45  and  O7_47 
REMARK    6  A    between atoms: C41_48  and  O8_49 
ROOT
HETATM    1  C1  UNL     1      -6.682  -8.373   7.867  1.00  0.00     0.013 C 
HETATM    2  C2  UNL     1      -7.105  -8.603   9.317  1.00  0.00     0.023 C 
HETATM    3  C3  UNL     1      -6.270  -9.746   9.960  1.00  0.00     0.047 C 
HETATM    4  C5  UNL     1      -7.280 -10.878  10.277  1.00  0.00     0.160 C 
HETATM    5  O2  UNL     1      -8.369 -10.551   9.407  1.00  0.00    -0.373 OA
HETATM    6  C6  UNL     1      -8.531  -9.121   9.467  1.00  0.00     0.167 C 
HETATM    7  C7  UNL     1      -9.665  -8.691   8.520  1.00  0.00     0.226 C 
HETATM    8  C8  UNL     1     -10.881  -9.383   8.994  1.00  0.00    -0.072 C 
HETATM    9  C9  UNL     1     -11.656 -10.124   9.538  1.00  0.00    -0.103 C 
HETATM   10  C10 UNL     1     -12.411 -11.175  10.222  1.00  0.00     0.099 C 
HETATM   11  C11 UNL     1     -12.623 -11.007  11.733  1.00  0.00     0.009 C 
HETATM   12  C12 UNL     1     -13.537  -9.735  11.994  1.00  0.00     0.016 C 
HETATM   13  C13 UNL     1     -14.115  -9.736  13.420  1.00  0.00     0.027 C 
HETATM   14  C14 UNL     1     -13.610 -10.858  14.321  1.00  0.00    -0.036 C 
HETATM   15  C15 UNL     1     -14.667 -11.471  14.931  1.00  0.00     0.057 C 
HETATM   16  C16 UNL     1     -15.721 -10.482  15.380  1.00  0.00     0.154 C 
HETATM   17  O4  UNL     1     -16.874 -10.791  15.626  1.00  0.00    -0.293 OA
HETATM   18  C17 UNL     1     -15.101  -9.113  15.598  1.00  0.00     0.071 C 
HETATM   19  C18 UNL     1     -15.609  -8.148  16.643  1.00  0.00     0.045 C 
HETATM   20  C19 UNL     1     -14.336  -7.466  17.206  1.00  0.00     0.122 C 
HETATM   21  C20 UNL     1     -13.650  -6.714  16.028  1.00  0.00     0.033 C 
HETATM   22  C21 UNL     1     -13.312  -7.607  14.795  1.00  0.00     0.013 C 
HETATM   23  C22 UNL     1     -14.493  -8.489  14.303  1.00  0.00    -0.026 C 
HETATM   24  C23 UNL     1     -15.513  -7.622  13.544  1.00  0.00     0.016 C 
HETATM   25  O5  UNL     1     -13.358  -8.415  17.712  1.00  0.00    -0.384 OA
HETATM   26  C24 UNL     1     -13.788  -9.284  18.771  1.00  0.00     0.190 C 
HETATM   27  C25 UNL     1     -12.891 -10.547  18.994  1.00  0.00     0.121 C 
HETATM   28  C32 UNL     1     -12.851 -11.514  17.848  1.00  0.00    -0.093 C 
HETATM   29  C33 UNL     1     -12.675 -12.330  16.972  1.00  0.00    -0.080 C 
HETATM   30  C34 UNL     1     -12.279 -13.267  15.871  1.00  0.00     0.263 C 
HETATM   31  O6  UNL     1     -12.314 -12.775  14.489  1.00  0.00    -0.363 OA
HETATM   32  C35 UNL     1     -12.151 -11.341  14.247  1.00  0.00     0.094 C 
HETATM   33  C36 UNL     1     -10.934 -10.908  15.104  1.00  0.00     0.044 C 
HETATM   34  C37 UNL     1      -9.749 -11.622  14.387  1.00  0.00     0.012 C 
HETATM   35  C38 UNL     1     -10.197 -11.922  12.903  1.00  0.00     0.034 C 
HETATM   36  C39 UNL     1      -8.950 -12.181  11.955  1.00  0.00     0.087 C 
HETATM   37  C40 UNL     1      -9.400 -12.894  10.672  1.00  0.00     0.049 C 
HETATM   38  C41 UNL     1      -7.780 -11.105  11.744  1.00  0.00     0.181 C 
HETATM   39  C42 UNL     1     -11.442 -10.960  12.772  1.00  0.00     0.002 C 
HETATM   40  C43 UNL     1     -10.873  -9.494  12.733  1.00  0.00     0.019 C 
ENDROOT
BRANCH  27  41
HETATM   41  C26 UNL     1     -11.482 -10.293  19.523  1.00  0.00    -0.040 A 
HETATM   42  C27 UNL     1     -10.477  -9.668  18.769  1.00  0.00     0.008 A 
HETATM   43  C28 UNL     1      -9.200  -9.473  19.304  1.00  0.00     0.001 A 
HETATM   44  C29 UNL     1      -8.903  -9.910  20.593  1.00  0.00     0.000 A 
HETATM   45  C30 UNL     1      -9.879 -10.550  21.351  1.00  0.00     0.001 A 
HETATM   46  C31 UNL     1     -11.155 -10.740  20.818  1.00  0.00     0.008 A 
ENDBRANCH  27  41
BRANCH  36  47
HETATM   47  O7  UNL     1      -8.262 -13.271  12.684  1.00  0.00    -0.387 OA
HETATM   48  H49 UNL     1      -7.593 -13.658  12.093  1.00  0.00     0.210 HD
ENDBRANCH  36  47
BRANCH  38  49
HETATM   49  O8  UNL     1      -8.038  -9.853  12.366  1.00  0.00    -0.390 OA
HETATM   50  H51 UNL     1      -7.682  -9.906  13.273  1.00  0.00     0.210 HD
ENDBRANCH  38  49
BRANCH   7  51
HETATM   51  O3  UNL     1      -9.880  -7.286   8.565  1.00  0.00    -0.381 OA
HETATM   52  H12 UNL     1      -9.270  -6.883   7.928  1.00  0.00     0.211 HD
ENDBRANCH   7  51
BRANCH   3  53
HETATM   53  C4  UNL     1      -5.356  -9.293  11.090  1.00  0.00     0.172 C 
BRANCH  53  54
HETATM   54  O1  UNL     1      -4.811 -10.423  11.761  1.00  0.00    -0.400 OA
HETATM   55  H8  UNL     1      -4.109 -10.788  11.191  1.00  0.00     0.209 HD
ENDBRANCH  53  54
ENDBRANCH   3  53
TORSDOF 6
ENDMDL
