MODEL 1
REMARK minimizedAffinity -9.56940365
REMARK  4 active torsions:
REMARK  status: ('A' for Active; 'I' for Inactive)
REMARK    1  A    between atoms: C4_4  and  C5_5 
REMARK    2  A    between atoms: C5_5  and  C6_6 
REMARK    3  A    between atoms: C6_6  and  C7_7 
REMARK    4  A    between atoms: C7_7  and  C9_9 
ROOT
HETATM    1  C9  UNL     1      -2.567   7.676  14.752  1.00  0.00    -0.001 C 
HETATM    2  C10 UNL     1      -1.635   8.465  15.717  1.00  0.00     0.007 C 
HETATM    3  C11 UNL     1      -0.235   8.520  15.082  1.00  0.00     0.024 C 
HETATM    4  C12 UNL     1      -0.414   7.892  13.719  1.00  0.00     0.092 C 
HETATM    5  C13 UNL     1      -0.808   8.945  12.651  1.00  0.00     0.272 C 
HETATM    6  O1  UNL     1      -1.376  10.009  12.822  1.00  0.00    -0.264 OA
HETATM    7  O2  UNL     1      -0.393   8.484  11.414  1.00  0.00    -0.305 OA
HETATM    8  C14 UNL     1       0.252   7.198  11.584  1.00  0.00     0.113 C 
HETATM    9  C15 UNL     1      -0.878   6.124  11.521  1.00  0.00     0.043 C 
HETATM   10  C16 UNL     1      -2.054   6.402  12.497  1.00  0.00     0.014 C 
HETATM   11  C17 UNL     1      -1.558   6.841  13.899  1.00  0.00    -0.020 C 
HETATM   12  C18 UNL     1      -1.098   5.582  14.677  1.00  0.00     0.017 C 
HETATM   13  C19 UNL     1       0.736   7.314  12.992  1.00  0.00     0.137 A 
HETATM   14  O3  UNL     1       1.591   6.348  13.568  1.00  0.00    -0.364 OA
HETATM   15  C20 UNL     1       2.167   7.650  13.315  1.00  0.00     0.162 A 
HETATM   16  C21 UNL     1       3.197   7.678  12.236  1.00  0.00     0.041 C 
HETATM   17  C22 UNL     1       2.588   8.002  10.854  1.00  0.00     0.010 C 
HETATM   18  C23 UNL     1       3.684   8.043   9.753  1.00  0.00     0.056 C 
HETATM   19  C24 UNL     1       4.770   9.087  10.032  1.00  0.00     0.018 C 
HETATM   20  C25 UNL     1       3.045   8.310   8.392  1.00  0.00     0.131 C 
HETATM   21  O4  UNL     1       3.479   9.148   7.602  1.00  0.00    -0.298 OA
HETATM   22  C26 UNL     1       1.897   7.413   8.005  1.00  0.00     0.079 C 
HETATM   23  C27 UNL     1       0.845   7.419   9.103  1.00  0.00     0.020 C 
HETATM   24  C28 UNL     1       1.394   7.027  10.510  1.00  0.00    -0.004 C 
HETATM   25  C29 UNL     1       1.871   5.552  10.455  1.00  0.00     0.019 C 
ENDROOT
BRANCH   1  26
HETATM   26  C7  UNL     1      -3.717   6.950  15.504  1.00  0.00    -0.014 C 
HETATM   27  C8  UNL     1      -3.539   5.429  15.542  1.00  0.00     0.010 C 
BRANCH  26  28
HETATM   28  C6  UNL     1      -5.140   7.314  14.992  1.00  0.00     0.008 C 
BRANCH  28  29
HETATM   29  C5  UNL     1      -5.543   6.847  13.583  1.00  0.00     0.028 C 
BRANCH  29  30
HETATM   30  C4  UNL     1      -6.464   5.661  13.565  1.00  0.00    -0.025 C 
HETATM   31  C2  UNL     1      -6.232   4.430  13.070  1.00  0.00    -0.091 C 
HETATM   32  C1  UNL     1      -4.958   3.972  12.416  1.00  0.00     0.042 C 
HETATM   33  C3  UNL     1      -7.303   3.370  13.132  1.00  0.00     0.042 C 
ENDBRANCH  29  30
ENDBRANCH  28  29
ENDBRANCH  26  28
ENDBRANCH   1  26
TORSDOF 4
ENDMDL
MODEL 2
REMARK minimizedAffinity -9.02416039
REMARK  4 active torsions:
REMARK  status: ('A' for Active; 'I' for Inactive)
REMARK    1  A    between atoms: C4_4  and  C5_5 
REMARK    2  A    between atoms: C5_5  and  C6_6 
REMARK    3  A    between atoms: C6_6  and  C7_7 
REMARK    4  A    between atoms: C7_7  and  C9_9 
ROOT
HETATM    1  C9  UNL     1      -4.396   7.757  14.411  1.00  0.00    -0.001 C 
HETATM    2  C10 UNL     1      -3.735   8.510  15.602  1.00  0.00     0.007 C 
HETATM    3  C11 UNL     1      -2.211   8.342  15.481  1.00  0.00     0.024 C 
HETATM    4  C12 UNL     1      -2.014   7.622  14.166  1.00  0.00     0.092 C 
HETATM    5  C13 UNL     1      -1.877   8.617  12.985  1.00  0.00     0.272 C 
HETATM    6  O1  UNL     1      -2.312   9.751  12.907  1.00  0.00    -0.264 OA
HETATM    7  O2  UNL     1      -1.145   8.002  11.984  1.00  0.00    -0.305 OA
HETATM    8  C14 UNL     1      -0.782   6.669  12.418  1.00  0.00     0.113 C 
HETATM    9  C15 UNL     1      -1.968   5.736  12.018  1.00  0.00     0.043 C 
HETATM   10  C16 UNL     1      -3.349   6.237  12.523  1.00  0.00     0.014 C 
HETATM   11  C17 UNL     1      -3.290   6.736  13.990  1.00  0.00    -0.020 C 
HETATM   12  C18 UNL     1      -3.299   5.503  14.930  1.00  0.00     0.017 C 
HETATM   13  C19 UNL     1      -0.783   6.849  13.901  1.00  0.00     0.137 A 
HETATM   14  O3  UNL     1      -0.314   5.842  14.774  1.00  0.00    -0.364 OA
HETATM   15  C20 UNL     1       0.492   7.038  14.678  1.00  0.00     0.162 A 
HETATM   16  C21 UNL     1       1.815   6.849  14.014  1.00  0.00     0.041 C 
HETATM   17  C22 UNL     1       1.753   7.120  12.495  1.00  0.00     0.010 C 
HETATM   18  C23 UNL     1       3.146   6.933  11.833  1.00  0.00     0.056 C 
HETATM   19  C24 UNL     1       4.214   7.860  12.421  1.00  0.00     0.018 C 
HETATM   20  C25 UNL     1       3.040   7.154  10.325  1.00  0.00     0.131 C 
HETATM   21  O4  UNL     1       3.826   7.861   9.697  1.00  0.00    -0.298 OA
HETATM   22  C26 UNL     1       1.971   6.370   9.609  1.00  0.00     0.079 C 
HETATM   23  C27 UNL     1       0.626   6.598  10.281  1.00  0.00     0.020 C 
HETATM   24  C28 UNL     1       0.614   6.269  11.806  1.00  0.00    -0.004 C 
HETATM   25  C29 UNL     1       0.868   4.747  11.979  1.00  0.00     0.019 C 
ENDROOT
BRANCH   1  26
HETATM   26  C7  UNL     1      -5.821   7.242  14.757  1.00  0.00    -0.014 C 
HETATM   27  C8  UNL     1      -5.837   6.287  15.954  1.00  0.00     0.010 C 
BRANCH  26  28
HETATM   28  C6  UNL     1      -6.577   6.611  13.553  1.00  0.00     0.008 C 
BRANCH  28  29
HETATM   29  C5  UNL     1      -6.935   5.116  13.627  1.00  0.00     0.028 C 
BRANCH  29  30
HETATM   30  C4  UNL     1      -6.121   4.241  12.719  1.00  0.00    -0.025 C 
HETATM   31  C2  UNL     1      -6.381   2.980  12.321  1.00  0.00    -0.091 C 
HETATM   32  C1  UNL     1      -7.582   2.164  12.712  1.00  0.00     0.042 C 
HETATM   33  C3  UNL     1      -5.420   2.256  11.412  1.00  0.00     0.042 C 
ENDBRANCH  29  30
ENDBRANCH  28  29
ENDBRANCH  26  28
ENDBRANCH   1  26
TORSDOF 4
ENDMDL
MODEL 3
REMARK minimizedAffinity -9.0121069
REMARK  4 active torsions:
REMARK  status: ('A' for Active; 'I' for Inactive)
REMARK    1  A    between atoms: C4_4  and  C5_5 
REMARK    2  A    between atoms: C5_5  and  C6_6 
REMARK    3  A    between atoms: C6_6  and  C7_7 
REMARK    4  A    between atoms: C7_7  and  C9_9 
ROOT
HETATM    1  C9  UNL     1       1.067   7.926  12.343  1.00  0.00    -0.001 C 
HETATM    2  C10 UNL     1       0.767   7.186  11.006  1.00  0.00     0.007 C 
HETATM    3  C11 UNL     1      -0.622   6.537  11.126  1.00  0.00     0.024 C 
HETATM    4  C12 UNL     1      -1.151   7.022  12.457  1.00  0.00     0.092 C 
HETATM    5  C13 UNL     1      -1.921   8.360  12.314  1.00  0.00     0.272 C 
HETATM    6  O1  UNL     1      -1.786   9.213  11.456  1.00  0.00    -0.264 OA
HETATM    7  O2  UNL     1      -2.837   8.445  13.348  1.00  0.00    -0.305 OA
HETATM    8  C14 UNL     1      -2.732   7.256  14.169  1.00  0.00     0.113 C 
HETATM    9  C15 UNL     1      -1.623   7.546  15.228  1.00  0.00     0.043 C 
HETATM   10  C16 UNL     1      -0.285   8.035  14.608  1.00  0.00     0.014 C 
HETATM   11  C17 UNL     1       0.114   7.212  13.356  1.00  0.00    -0.020 C 
HETATM   12  C18 UNL     1       0.725   5.867  13.824  1.00  0.00     0.017 C 
HETATM   13  C19 UNL     1      -2.209   6.275  13.171  1.00  0.00     0.137 A 
HETATM   14  O3  UNL     1      -2.100   4.898  13.466  1.00  0.00    -0.364 OA
HETATM   15  C20 UNL     1      -3.106   5.272  12.498  1.00  0.00     0.162 A 
HETATM   16  C21 UNL     1      -4.514   5.091  12.957  1.00  0.00     0.041 C 
HETATM   17  C22 UNL     1      -5.085   6.369  13.610  1.00  0.00     0.010 C 
HETATM   18  C23 UNL     1      -6.557   6.158  14.063  1.00  0.00     0.056 C 
HETATM   19  C24 UNL     1      -7.487   5.778  12.907  1.00  0.00     0.018 C 
HETATM   20  C25 UNL     1      -7.075   7.419  14.753  1.00  0.00     0.131 C 
HETATM   21  O4  UNL     1      -8.165   7.925  14.490  1.00  0.00    -0.298 OA
HETATM   22  C26 UNL     1      -6.221   7.970  15.866  1.00  0.00     0.079 C 
HETATM   23  C27 UNL     1      -4.798   8.175  15.371  1.00  0.00     0.020 C 
HETATM   24  C28 UNL     1      -4.145   6.893  14.766  1.00  0.00    -0.004 C 
HETATM   25  C29 UNL     1      -4.002   5.839  15.896  1.00  0.00     0.019 C 
ENDROOT
BRANCH   1  26
HETATM   26  C7  UNL     1       2.589   8.001  12.647  1.00  0.00    -0.014 C 
HETATM   27  C8  UNL     1       3.130   9.433  12.636  1.00  0.00     0.010 C 
BRANCH  26  28
HETATM   28  C6  UNL     1       3.463   7.087  11.741  1.00  0.00     0.008 C 
BRANCH  28  29
HETATM   29  C5  UNL     1       4.312   7.754  10.645  1.00  0.00     0.028 C 
BRANCH  29  30
HETATM   30  C4  UNL     1       3.559   8.066   9.384  1.00  0.00    -0.025 C 
HETATM   31  C2  UNL     1       3.023   7.206   8.497  1.00  0.00    -0.091 C 
HETATM   32  C1  UNL     1       3.065   5.706   8.591  1.00  0.00     0.042 C 
HETATM   33  C3  UNL     1       2.314   7.722   7.270  1.00  0.00     0.042 C 
ENDBRANCH  29  30
ENDBRANCH  28  29
ENDBRANCH  26  28
ENDBRANCH   1  26
TORSDOF 4
ENDMDL
MODEL 4
REMARK minimizedAffinity -8.90445042
REMARK  4 active torsions:
REMARK  status: ('A' for Active; 'I' for Inactive)
REMARK    1  A    between atoms: C4_4  and  C5_5 
REMARK    2  A    between atoms: C5_5  and  C6_6 
REMARK    3  A    between atoms: C6_6  and  C7_7 
REMARK    4  A    between atoms: C7_7  and  C9_9 
ROOT
HETATM    1  C9  UNL     1      -2.320   6.540  13.060  1.00  0.00    -0.001 C 
HETATM    2  C10 UNL     1      -2.163   5.611  11.821  1.00  0.00     0.007 C 
HETATM    3  C11 UNL     1      -0.728   5.769  11.291  1.00  0.00     0.024 C 
HETATM    4  C12 UNL     1      -0.050   6.667  12.300  1.00  0.00     0.092 C 
HETATM    5  C13 UNL     1       0.594   5.851  13.451  1.00  0.00     0.272 C 
HETATM    6  O1  UNL     1       0.275   4.747  13.855  1.00  0.00    -0.264 OA
HETATM    7  O2  UNL     1       1.640   6.590  13.974  1.00  0.00    -0.305 OA
HETATM    8  C14 UNL     1       1.740   7.841  13.251  1.00  0.00     0.113 C 
HETATM    9  C15 UNL     1       0.777   8.842  13.961  1.00  0.00     0.043 C 
HETATM   10  C16 UNL     1      -0.668   8.297  14.133  1.00  0.00     0.014 C 
HETATM   11  C17 UNL     1      -1.183   7.592  12.852  1.00  0.00    -0.020 C 
HETATM   12  C18 UNL     1      -1.621   8.676  11.834  1.00  0.00     0.017 C 
HETATM   13  C19 UNL     1       1.151   7.448  11.935  1.00  0.00     0.137 A 
HETATM   14  O3  UNL     1       1.186   8.311  10.816  1.00  0.00    -0.364 OA
HETATM   15  C20 UNL     1       2.012   7.127  10.744  1.00  0.00     0.162 A 
HETATM   16  C21 UNL     1       3.480   7.387  10.782  1.00  0.00     0.041 C 
HETATM   17  C22 UNL     1       4.046   7.338  12.218  1.00  0.00     0.010 C 
HETATM   18  C23 UNL     1       5.579   7.595  12.227  1.00  0.00     0.056 C 
HETATM   19  C24 UNL     1       6.359   6.574  11.392  1.00  0.00     0.018 C 
HETATM   20  C25 UNL     1       6.099   7.595  13.664  1.00  0.00     0.131 C 
HETATM   21  O4  UNL     1       7.100   6.972  14.013  1.00  0.00    -0.298 OA
HETATM   22  C26 UNL     1       5.376   8.493  14.635  1.00  0.00     0.079 C 
HETATM   23  C27 UNL     1       3.885   8.194  14.603  1.00  0.00     0.020 C 
HETATM   24  C28 UNL     1       3.247   8.300  13.183  1.00  0.00    -0.004 C 
HETATM   25  C29 UNL     1       3.344   9.776  12.713  1.00  0.00     0.019 C 
ENDROOT
BRANCH   1  26
HETATM   26  C7  UNL     1      -3.784   7.024  13.252  1.00  0.00    -0.014 C 
HETATM   27  C8  UNL     1      -3.879   8.509  13.615  1.00  0.00     0.010 C 
BRANCH  26  28
HETATM   28  C6  UNL     1      -4.609   6.170  14.257  1.00  0.00     0.008 C 
BRANCH  28  29
HETATM   29  C5  UNL     1      -5.807   5.371  13.714  1.00  0.00     0.028 C 
BRANCH  29  30
HETATM   30  C4  UNL     1      -5.438   4.292  12.738  1.00  0.00    -0.025 C 
HETATM   31  C2  UNL     1      -6.158   3.211  12.376  1.00  0.00    -0.091 C 
HETATM   32  C1  UNL     1      -7.526   2.855  12.888  1.00  0.00     0.042 C 
HETATM   33  C3  UNL     1      -5.599   2.223  11.384  1.00  0.00     0.042 C 
ENDBRANCH  29  30
ENDBRANCH  28  29
ENDBRANCH  26  28
ENDBRANCH   1  26
TORSDOF 4
ENDMDL
MODEL 5
REMARK minimizedAffinity -8.8443737
REMARK  4 active torsions:
REMARK  status: ('A' for Active; 'I' for Inactive)
REMARK    1  A    between atoms: C4_4  and  C5_5 
REMARK    2  A    between atoms: C5_5  and  C6_6 
REMARK    3  A    between atoms: C6_6  and  C7_7 
REMARK    4  A    between atoms: C7_7  and  C9_9 
ROOT
HETATM    1  C9  UNL     1      -2.319   7.096  12.738  1.00  0.00    -0.001 C 
HETATM    2  C10 UNL     1      -2.752   8.537  13.136  1.00  0.00     0.007 C 
HETATM    3  C11 UNL     1      -1.479   9.373  13.347  1.00  0.00     0.024 C 
HETATM    4  C12 UNL     1      -0.352   8.452  12.939  1.00  0.00     0.092 C 
HETATM    5  C13 UNL     1      -0.034   8.571  11.426  1.00  0.00     0.272 C 
HETATM    6  O1  UNL     1      -0.780   8.923  10.530  1.00  0.00    -0.264 OA
HETATM    7  O2  UNL     1       1.287   8.210  11.231  1.00  0.00    -0.305 OA
HETATM    8  C14 UNL     1       1.873   7.861  12.509  1.00  0.00     0.113 C 
HETATM    9  C15 UNL     1       1.572   6.347  12.735  1.00  0.00     0.043 C 
HETATM   10  C16 UNL     1       0.070   5.983  12.581  1.00  0.00     0.014 C 
HETATM   11  C17 UNL     1      -0.856   7.012  13.281  1.00  0.00    -0.020 C 
HETATM   12  C18 UNL     1      -0.854   6.721  14.803  1.00  0.00     0.017 C 
HETATM   13  C19 UNL     1       1.024   8.670  13.434  1.00  0.00     0.137 A 
HETATM   14  O3  UNL     1       1.327   8.793  14.809  1.00  0.00    -0.364 OA
HETATM   15  C20 UNL     1       1.496   9.981  14.003  1.00  0.00     0.162 A 
HETATM   16  C21 UNL     1       2.911  10.417  13.821  1.00  0.00     0.041 C 
HETATM   17  C22 UNL     1       3.549   9.817  12.548  1.00  0.00     0.010 C 
HETATM   18  C23 UNL     1       5.016  10.301  12.374  1.00  0.00     0.056 C 
HETATM   19  C24 UNL     1       5.132  11.825  12.271  1.00  0.00     0.018 C 
HETATM   20  C25 UNL     1       5.636   9.649  11.139  1.00  0.00     0.131 C 
HETATM   21  O4  UNL     1       6.267  10.282  10.294  1.00  0.00    -0.298 OA
HETATM   22  C26 UNL     1       5.528   8.148  11.051  1.00  0.00     0.079 C 
HETATM   23  C27 UNL     1       4.076   7.725  11.210  1.00  0.00     0.020 C 
HETATM   24  C28 UNL     1       3.402   8.245  12.518  1.00  0.00    -0.004 C 
HETATM   25  C29 UNL     1       4.119   7.590  13.729  1.00  0.00     0.019 C 
ENDROOT
BRANCH   1  26
HETATM   26  C7  UNL     1      -3.359   6.026  13.173  1.00  0.00    -0.014 C 
HETATM   27  C8  UNL     1      -3.603   6.010  14.685  1.00  0.00     0.010 C 
BRANCH  26  28
HETATM   28  C6  UNL     1      -3.045   4.591  12.662  1.00  0.00     0.008 C 
BRANCH  28  29
HETATM   29  C5  UNL     1      -4.034   3.940  11.680  1.00  0.00     0.028 C 
BRANCH  29  30
HETATM   30  C4  UNL     1      -5.392   3.671  12.258  1.00  0.00    -0.025 C 
HETATM   31  C2  UNL     1      -6.171   2.584  12.091  1.00  0.00    -0.091 C 
HETATM   32  C1  UNL     1      -5.828   1.375  11.266  1.00  0.00     0.042 C 
HETATM   33  C3  UNL     1      -7.527   2.511  12.748  1.00  0.00     0.042 C 
ENDBRANCH  29  30
ENDBRANCH  28  29
ENDBRANCH  26  28
ENDBRANCH   1  26
TORSDOF 4
ENDMDL
MODEL 6
REMARK minimizedAffinity -8.62524891
REMARK  4 active torsions:
REMARK  status: ('A' for Active; 'I' for Inactive)
REMARK    1  A    between atoms: C4_4  and  C5_5 
REMARK    2  A    between atoms: C5_5  and  C6_6 
REMARK    3  A    between atoms: C6_6  and  C7_7 
REMARK    4  A    between atoms: C7_7  and  C9_9 
ROOT
HETATM    1  C9  UNL     1      -4.799   6.158  14.306  1.00  0.00    -0.001 C 
HETATM    2  C10 UNL     1      -4.259   5.404  13.056  1.00  0.00     0.007 C 
HETATM    3  C11 UNL     1      -2.909   6.032  12.671  1.00  0.00     0.024 C 
HETATM    4  C12 UNL     1      -2.631   7.031  13.771  1.00  0.00     0.092 C 
HETATM    5  C13 UNL     1      -1.857   6.384  14.949  1.00  0.00     0.272 C 
HETATM    6  O1  UNL     1      -1.843   5.213  15.282  1.00  0.00    -0.264 OA
HETATM    7  O2  UNL     1      -1.143   7.377  15.595  1.00  0.00    -0.305 OA
HETATM    8  C14 UNL     1      -1.384   8.641  14.928  1.00  0.00     0.113 C 
HETATM    9  C15 UNL     1      -2.667   9.246  15.578  1.00  0.00     0.043 C 
HETATM   10  C16 UNL     1      -3.876   8.270  15.592  1.00  0.00     0.014 C 
HETATM   11  C17 UNL     1      -4.039   7.521  14.244  1.00  0.00    -0.020 C 
HETATM   12  C18 UNL     1      -4.714   8.478  13.228  1.00  0.00     0.017 C 
HETATM   13  C19 UNL     1      -1.713   8.168  13.549  1.00  0.00     0.137 A 
HETATM   14  O3  UNL     1      -1.863   9.068  12.470  1.00  0.00    -0.364 OA
HETATM   15  C20 UNL     1      -0.703   8.206  12.435  1.00  0.00     0.162 A 
HETATM   16  C21 UNL     1       0.601   8.906  12.622  1.00  0.00     0.041 C 
HETATM   17  C22 UNL     1       1.037   8.945  14.103  1.00  0.00     0.010 C 
HETATM   18  C23 UNL     1       2.405   9.664  14.267  1.00  0.00     0.056 C 
HETATM   19  C24 UNL     1       3.531   8.991  13.475  1.00  0.00     0.018 C 
HETATM   20  C25 UNL     1       2.782   9.735  15.746  1.00  0.00     0.131 C 
HETATM   21  O4  UNL     1       3.898   9.434  16.167  1.00  0.00    -0.298 OA
HETATM   22  C26 UNL     1       1.739  10.301  16.675  1.00  0.00     0.079 C 
HETATM   23  C27 UNL     1       0.426   9.556  16.491  1.00  0.00     0.020 C 
HETATM   24  C28 UNL     1      -0.099   9.548  15.021  1.00  0.00    -0.004 C 
HETATM   25  C29 UNL     1      -0.434  11.008  14.614  1.00  0.00     0.019 C 
ENDROOT
BRANCH   1  26
HETATM   26  C7  UNL     1      -6.352   6.150  14.375  1.00  0.00    -0.014 C 
HETATM   27  C8  UNL     1      -6.897   6.818  15.641  1.00  0.00     0.010 C 
BRANCH  26  28
HETATM   28  C6  UNL     1      -6.988   4.743  14.191  1.00  0.00     0.008 C 
BRANCH  28  29
HETATM   29  C5  UNL     1      -7.349   4.293  12.765  1.00  0.00     0.028 C 
BRANCH  29  30
HETATM   30  C4  UNL     1      -6.950   2.883  12.442  1.00  0.00    -0.025 C 
HETATM   31  C2  UNL     1      -6.121   2.449  11.473  1.00  0.00    -0.091 C 
HETATM   32  C1  UNL     1      -5.395   3.319  10.484  1.00  0.00     0.042 C 
HETATM   33  C3  UNL     1      -5.860   0.974  11.298  1.00  0.00     0.042 C 
ENDBRANCH  29  30
ENDBRANCH  28  29
ENDBRANCH  26  28
ENDBRANCH   1  26
TORSDOF 4
ENDMDL
MODEL 7
REMARK minimizedAffinity -8.54036331
REMARK  4 active torsions:
REMARK  status: ('A' for Active; 'I' for Inactive)
REMARK    1  A    between atoms: C4_4  and  C5_5 
REMARK    2  A    between atoms: C5_5  and  C6_6 
REMARK    3  A    between atoms: C6_6  and  C7_7 
REMARK    4  A    between atoms: C7_7  and  C9_9 
ROOT
HETATM    1  C9  UNL     1      -1.431   6.388  13.065  1.00  0.00    -0.001 C 
HETATM    2  C10 UNL     1      -1.046   4.888  13.220  1.00  0.00     0.007 C 
HETATM    3  C11 UNL     1       0.358   4.696  12.622  1.00  0.00     0.024 C 
HETATM    4  C12 UNL     1       0.809   6.093  12.263  1.00  0.00     0.092 C 
HETATM    5  C13 UNL     1       1.539   6.780  13.446  1.00  0.00     0.272 C 
HETATM    6  O1  UNL     1       1.413   6.555  14.636  1.00  0.00    -0.264 OA
HETATM    7  O2  UNL     1       2.403   7.729  12.929  1.00  0.00    -0.305 OA
HETATM    8  C14 UNL     1       2.303   7.720  11.484  1.00  0.00     0.113 C 
HETATM    9  C15 UNL     1       1.137   8.691  11.115  1.00  0.00     0.043 C 
HETATM   10  C16 UNL     1      -0.187   8.385  11.867  1.00  0.00     0.014 C 
HETATM   11  C17 UNL     1      -0.501   6.867  11.904  1.00  0.00    -0.020 C 
HETATM   12  C18 UNL     1      -1.086   6.451  10.530  1.00  0.00     0.017 C 
HETATM   13  C19 UNL     1       1.858   6.314  11.246  1.00  0.00     0.137 A 
HETATM   14  O3  UNL     1       1.784   5.766   9.945  1.00  0.00    -0.364 OA
HETATM   15  C20 UNL     1       2.819   5.242  10.807  1.00  0.00     0.162 A 
HETATM   16  C21 UNL     1       4.210   5.595  10.400  1.00  0.00     0.041 C 
HETATM   17  C22 UNL     1       4.708   6.890  11.079  1.00  0.00     0.010 C 
HETATM   18  C23 UNL     1       6.163   7.225  10.652  1.00  0.00     0.056 C 
HETATM   19  C24 UNL     1       7.158   6.113  11.001  1.00  0.00     0.018 C 
HETATM   20  C25 UNL     1       6.606   8.538  11.295  1.00  0.00     0.131 C 
HETATM   21  O4  UNL     1       7.689   8.672  11.863  1.00  0.00    -0.298 OA
HETATM   22  C26 UNL     1       5.685   9.716  11.112  1.00  0.00     0.079 C 
HETATM   23  C27 UNL     1       4.279   9.346  11.559  1.00  0.00     0.020 C 
HETATM   24  C28 UNL     1       3.699   8.084  10.848  1.00  0.00    -0.004 C 
HETATM   25  C29 UNL     1       3.541   8.402   9.338  1.00  0.00     0.019 C 
ENDROOT
BRANCH   1  26
HETATM   26  C7  UNL     1      -2.967   6.594  12.950  1.00  0.00    -0.014 C 
HETATM   27  C8  UNL     1      -3.448   7.885  13.618  1.00  0.00     0.010 C 
BRANCH  26  28
HETATM   28  C6  UNL     1      -3.809   5.384  13.447  1.00  0.00     0.008 C 
BRANCH  28  29
HETATM   29  C5  UNL     1      -4.427   4.451  12.391  1.00  0.00     0.028 C 
BRANCH  29  30
HETATM   30  C4  UNL     1      -5.770   3.897  12.767  1.00  0.00    -0.025 C 
HETATM   31  C2  UNL     1      -6.385   2.798  12.289  1.00  0.00    -0.091 C 
HETATM   32  C1  UNL     1      -5.832   1.865  11.248  1.00  0.00     0.042 C 
HETATM   33  C3  UNL     1      -7.757   2.415  12.786  1.00  0.00     0.042 C 
ENDBRANCH  29  30
ENDBRANCH  28  29
ENDBRANCH  26  28
ENDBRANCH   1  26
TORSDOF 4
ENDMDL
MODEL 8
REMARK minimizedAffinity -8.51688576
REMARK  4 active torsions:
REMARK  status: ('A' for Active; 'I' for Inactive)
REMARK    1  A    between atoms: C4_4  and  C5_5 
REMARK    2  A    between atoms: C5_5  and  C6_6 
REMARK    3  A    between atoms: C6_6  and  C7_7 
REMARK    4  A    between atoms: C7_7  and  C9_9 
ROOT
HETATM    1  C9  UNL     1       0.429   9.366  13.970  1.00  0.00    -0.001 C 
HETATM    2  C10 UNL     1       1.066   8.364  12.964  1.00  0.00     0.007 C 
HETATM    3  C11 UNL     1       0.074   7.206  12.759  1.00  0.00     0.024 C 
HETATM    4  C12 UNL     1      -1.157   7.623  13.531  1.00  0.00     0.092 C 
HETATM    5  C13 UNL     1      -2.129   8.452  12.653  1.00  0.00     0.272 C 
HETATM    6  O1  UNL     1      -1.864   9.128  11.676  1.00  0.00    -0.264 OA
HETATM    7  O2  UNL     1      -3.407   8.299  13.160  1.00  0.00    -0.305 OA
HETATM    8  C14 UNL     1      -3.355   7.424  14.313  1.00  0.00     0.113 C 
HETATM    9  C15 UNL     1      -3.056   8.333  15.546  1.00  0.00     0.043 C 
HETATM   10  C16 UNL     1      -1.813   9.246  15.358  1.00  0.00     0.014 C 
HETATM   11  C17 UNL     1      -0.621   8.486  14.720  1.00  0.00    -0.020 C 
HETATM   12  C18 UNL     1       0.065   7.634  15.819  1.00  0.00     0.017 C 
HETATM   13  C19 UNL     1      -2.137   6.619  13.995  1.00  0.00     0.137 A 
HETATM   14  O3  UNL     1      -1.767   5.493  14.764  1.00  0.00    -0.364 OA
HETATM   15  C20 UNL     1      -2.230   5.231  13.420  1.00  0.00     0.162 A 
HETATM   16  C21 UNL     1      -3.548   4.536  13.338  1.00  0.00     0.041 C 
HETATM   17  C22 UNL     1      -4.728   5.527  13.240  1.00  0.00     0.010 C 
HETATM   18  C23 UNL     1      -6.085   4.776  13.138  1.00  0.00     0.056 C 
HETATM   19  C24 UNL     1      -6.162   3.848  11.921  1.00  0.00     0.018 C 
HETATM   20  C25 UNL     1      -7.235   5.782  13.097  1.00  0.00     0.131 C 
HETATM   21  O4  UNL     1      -8.153   5.715  12.281  1.00  0.00    -0.298 OA
HETATM   22  C26 UNL     1      -7.252   6.821  14.189  1.00  0.00     0.079 C 
HETATM   23  C27 UNL     1      -5.912   7.539  14.238  1.00  0.00     0.020 C 
HETATM   24  C28 UNL     1      -4.687   6.587  14.410  1.00  0.00    -0.004 C 
HETATM   25  C29 UNL     1      -4.796   5.897  15.796  1.00  0.00     0.019 C 
ENDROOT
BRANCH   1  26
HETATM   26  C7  UNL     1       1.500  10.142  14.787  1.00  0.00    -0.014 C 
HETATM   27  C8  UNL     1       2.931   9.692  14.476  1.00  0.00     0.010 C 
BRANCH  26  28
HETATM   28  C6  UNL     1       1.255  10.135  16.323  1.00  0.00     0.008 C 
BRANCH  28  29
HETATM   29  C5  UNL     1       1.897  11.252  17.164  1.00  0.00     0.028 C 
BRANCH  29  30
HETATM   30  C4  UNL     1       2.195  10.864  18.582  1.00  0.00    -0.025 C 
HETATM   31  C2  UNL     1       1.351  10.819  19.632  1.00  0.00    -0.091 C 
HETATM   32  C1  UNL     1      -0.113  11.155  19.596  1.00  0.00     0.042 C 
HETATM   33  C3  UNL     1       1.853  10.417  20.996  1.00  0.00     0.042 C 
ENDBRANCH  29  30
ENDBRANCH  28  29
ENDBRANCH  26  28
ENDBRANCH   1  26
TORSDOF 4
ENDMDL
MODEL 9
REMARK minimizedAffinity -8.26607704
REMARK  4 active torsions:
REMARK  status: ('A' for Active; 'I' for Inactive)
REMARK    1  A    between atoms: C4_4  and  C5_5 
REMARK    2  A    between atoms: C5_5  and  C6_6 
REMARK    3  A    between atoms: C6_6  and  C7_7 
REMARK    4  A    between atoms: C7_7  and  C9_9 
ROOT
HETATM    1  C9  UNL     1      -1.969   6.151  12.471  1.00  0.00    -0.001 C 
HETATM    2  C10 UNL     1      -2.807   7.230  13.216  1.00  0.00     0.007 C 
HETATM    3  C11 UNL     1      -1.835   8.289  13.764  1.00  0.00     0.024 C 
HETATM    4  C12 UNL     1      -0.486   7.882  13.215  1.00  0.00     0.092 C 
HETATM    5  C13 UNL     1      -0.215   8.524  11.830  1.00  0.00     0.272 C 
HETATM    6  O1  UNL     1      -1.030   8.900  11.007  1.00  0.00    -0.264 OA
HETATM    7  O2  UNL     1       1.154   8.622  11.659  1.00  0.00    -0.305 OA
HETATM    8  C14 UNL     1       1.815   8.092  12.834  1.00  0.00     0.113 C 
HETATM    9  C15 UNL     1       1.971   6.557  12.600  1.00  0.00     0.043 C 
HETATM   10  C16 UNL     1       0.642   5.849  12.219  1.00  0.00     0.014 C 
HETATM   11  C17 UNL     1      -0.546   6.325  13.094  1.00  0.00    -0.020 C 
HETATM   12  C18 UNL     1      -0.462   5.612  14.468  1.00  0.00     0.017 C 
HETATM   13  C19 UNL     1       0.763   8.322  13.870  1.00  0.00     0.137 A 
HETATM   14  O3  UNL     1       1.015   8.115  15.245  1.00  0.00    -0.364 OA
HETATM   15  C20 UNL     1       0.829   9.485  14.823  1.00  0.00     0.162 A 
HETATM   16  C21 UNL     1       2.054  10.333  14.895  1.00  0.00     0.041 C 
HETATM   17  C22 UNL     1       2.842  10.338  13.567  1.00  0.00     0.010 C 
HETATM   18  C23 UNL     1       4.102  11.242  13.665  1.00  0.00     0.056 C 
HETATM   19  C24 UNL     1       3.767  12.698  14.004  1.00  0.00     0.018 C 
HETATM   20  C25 UNL     1       4.889  11.182  12.356  1.00  0.00     0.131 C 
HETATM   21  O4  UNL     1       5.307  12.186  11.782  1.00  0.00    -0.298 OA
HETATM   22  C26 UNL     1       5.226   9.806  11.842  1.00  0.00     0.079 C 
HETATM   23  C27 UNL     1       3.962   8.966  11.748  1.00  0.00     0.020 C 
HETATM   24  C28 UNL     1       3.164   8.868  13.085  1.00  0.00    -0.004 C 
HETATM   25  C29 UNL     1       4.038   8.116  14.122  1.00  0.00     0.019 C 
ENDROOT
BRANCH   1  26
HETATM   26  C7  UNL     1      -2.649   4.754  12.495  1.00  0.00    -0.014 C 
HETATM   27  C8  UNL     1      -2.580   4.032  11.147  1.00  0.00     0.010 C 
BRANCH  26  28
HETATM   28  C6  UNL     1      -4.112   4.770  13.024  1.00  0.00     0.008 C 
BRANCH  28  29
HETATM   29  C5  UNL     1      -5.162   3.933  12.272  1.00  0.00     0.028 C 
BRANCH  29  30
HETATM   30  C4  UNL     1      -6.582   4.248  12.642  1.00  0.00    -0.025 C 
HETATM   31  C2  UNL     1      -7.083   5.399  13.131  1.00  0.00    -0.091 C 
HETATM   32  C1  UNL     1      -6.298   6.650  13.411  1.00  0.00     0.042 C 
HETATM   33  C3  UNL     1      -8.551   5.511  13.461  1.00  0.00     0.042 C 
ENDBRANCH  29  30
ENDBRANCH  28  29
ENDBRANCH  26  28
ENDBRANCH   1  26
TORSDOF 4
ENDMDL
