MODEL 1
REMARK minimizedAffinity -9.46041775
REMARK  7 active torsions:
REMARK  status: ('A' for Active; 'I' for Inactive)
REMARK    1  A    between atoms: O1_2  and  C2_3 
REMARK    2  A    between atoms: C2_3  and  C3_5 
REMARK    3  A    between atoms: C5_7  and  C6_8 
REMARK    4  A    between atoms: C6_8  and  C7_9 
REMARK    5  A    between atoms: C7_9  and  C8_10 
REMARK    6  A    between atoms: C8_10  and  C10_12 
REMARK    7  A    between atoms: C17_19  and  O3_20 
ROOT
HETATM    1  C10 UNL     1      -3.658  51.042 -23.860  1.00  0.00    -0.002 C 
HETATM    2  C11 UNL     1      -2.977  51.366 -25.198  1.00  0.00     0.007 C 
HETATM    3  C12 UNL     1      -3.776  50.590 -26.226  1.00  0.00     0.015 C 
HETATM    4  C13 UNL     1      -3.967  49.197 -25.584  1.00  0.00    -0.005 C 
HETATM    5  C14 UNL     1      -2.636  48.395 -25.696  1.00  0.00     0.021 C 
HETATM    6  C15 UNL     1      -5.095  48.419 -26.305  1.00  0.00     0.002 C 
HETATM    7  C16 UNL     1      -6.260  48.015 -25.737  1.00  0.00    -0.032 C 
HETATM    8  C17 UNL     1      -6.579  48.455 -24.316  1.00  0.00     0.149 C 
HETATM    9  C18 UNL     1      -5.801  49.692 -23.865  1.00  0.00     0.047 C 
HETATM   10  C19 UNL     1      -4.265  49.577 -24.061  1.00  0.00    -0.026 C 
HETATM   11  C20 UNL     1      -3.713  48.516 -23.081  1.00  0.00     0.016 C 
HETATM   12  C21 UNL     1      -7.355  47.153 -26.463  1.00  0.00    -0.012 C 
HETATM   13  C22 UNL     1      -7.801  46.025 -25.499  1.00  0.00     0.021 C 
HETATM   14  C23 UNL     1      -8.566  48.069 -26.786  1.00  0.00     0.021 C 
HETATM   15  C24 UNL     1      -9.657  47.388 -27.598  1.00  0.00     0.080 C 
HETATM   16  C25 UNL     1      -9.106  46.801 -28.875  1.00  0.00     0.135 C 
HETATM   17  O4  UNL     1      -9.662  47.035 -29.948  1.00  0.00    -0.297 OA
HETATM   18  C26 UNL     1      -7.903  45.855 -28.756  1.00  0.00     0.018 C 
HETATM   19  C27 UNL     1      -8.403  44.485 -28.247  1.00  0.00     0.023 C 
HETATM   20  C28 UNL     1      -7.340  45.590 -30.176  1.00  0.00     0.023 C 
HETATM   21  C29 UNL     1      -6.815  46.515 -27.804  1.00  0.00     0.020 C 
HETATM   22  C30 UNL     1      -6.012  47.571 -28.572  1.00  0.00     0.090 C 
HETATM   23  C31 UNL     1      -4.889  48.155 -27.767  1.00  0.00     0.157 C 
HETATM   24  O5  UNL     1      -3.855  48.485 -28.346  1.00  0.00    -0.293 OA
ENDROOT
BRANCH   1  25
HETATM   25  C8  UNL     1      -2.745  51.351 -22.636  1.00  0.00    -0.014 C 
HETATM   26  C9  UNL     1      -3.468  51.085 -21.300  1.00  0.00     0.010 C 
BRANCH  25  27
HETATM   27  C7  UNL     1      -1.395  50.591 -22.631  1.00  0.00     0.008 C 
BRANCH  27  28
HETATM   28  C6  UNL     1      -0.142  51.469 -22.525  1.00  0.00     0.028 C 
BRANCH  28  29
HETATM   29  C5  UNL     1      -0.245  52.656 -23.444  1.00  0.00    -0.014 C 
HETATM   30  C3  UNL     1       0.327  52.804 -24.658  1.00  0.00     0.009 C 
HETATM   31  C4  UNL     1       1.222  51.800 -25.329  1.00  0.00     0.054 C 
BRANCH  30  32
HETATM   32  C2  UNL     1       0.106  54.042 -25.475  1.00  0.00     0.288 C 
HETATM   33  O2  UNL     1       0.700  55.092 -25.266  1.00  0.00    -0.260 OA
BRANCH  32  34
HETATM   34  O1  UNL     1      -0.828  53.848 -26.442  1.00  0.00    -0.323 OA
HETATM   35  C1  UNL     1      -0.310  53.924 -27.770  1.00  0.00     0.213 C 
ENDBRANCH  32  34
ENDBRANCH  30  32
ENDBRANCH  28  29
ENDBRANCH  27  28
ENDBRANCH  25  27
ENDBRANCH   1  25
BRANCH   8  36
HETATM   36  O3  UNL     1      -6.346  47.370 -23.430  1.00  0.00    -0.391 OA
HETATM   37  H25 UNL     1      -6.573  47.668 -22.534  1.00  0.00     0.210 HD
ENDBRANCH   8  36
TORSDOF 7
ENDMDL
MODEL 2
REMARK minimizedAffinity -9.41829395
REMARK  7 active torsions:
REMARK  status: ('A' for Active; 'I' for Inactive)
REMARK    1  A    between atoms: O1_2  and  C2_3 
REMARK    2  A    between atoms: C2_3  and  C3_5 
REMARK    3  A    between atoms: C5_7  and  C6_8 
REMARK    4  A    between atoms: C6_8  and  C7_9 
REMARK    5  A    between atoms: C7_9  and  C8_10 
REMARK    6  A    between atoms: C8_10  and  C10_12 
REMARK    7  A    between atoms: C17_19  and  O3_20 
ROOT
HETATM    1  C10 UNL     1      -1.309  49.394 -19.614  1.00  0.00    -0.002 C 
HETATM    2  C11 UNL     1      -2.429  48.659 -20.364  1.00  0.00     0.007 C 
HETATM    3  C12 UNL     1      -2.301  49.136 -21.797  1.00  0.00     0.015 C 
HETATM    4  C13 UNL     1      -2.101  50.663 -21.672  1.00  0.00    -0.005 C 
HETATM    5  C14 UNL     1      -3.470  51.333 -21.344  1.00  0.00     0.021 C 
HETATM    6  C15 UNL     1      -1.550  51.248 -22.995  1.00  0.00     0.002 C 
HETATM    7  C16 UNL     1      -0.346  51.856 -23.145  1.00  0.00    -0.032 C 
HETATM    8  C17 UNL     1       0.625  51.868 -21.974  1.00  0.00     0.149 C 
HETATM    9  C18 UNL     1       0.349  50.783 -20.933  1.00  0.00     0.047 C 
HETATM   10  C19 UNL     1      -1.116  50.762 -20.417  1.00  0.00    -0.026 C 
HETATM   11  C20 UNL     1      -1.371  52.037 -19.580  1.00  0.00     0.016 C 
HETATM   12  C21 UNL     1       0.160  52.518 -24.478  1.00  0.00    -0.012 C 
HETATM   13  C22 UNL     1       0.770  53.898 -24.132  1.00  0.00     0.021 C 
HETATM   14  C23 UNL     1       1.254  51.605 -25.094  1.00  0.00     0.021 C 
HETATM   15  C24 UNL     1       1.753  52.069 -26.455  1.00  0.00     0.080 C 
HETATM   16  C25 UNL     1       0.612  52.228 -27.431  1.00  0.00     0.135 C 
HETATM   17  O4  UNL     1       0.684  51.715 -28.548  1.00  0.00    -0.297 OA
HETATM   18  C26 UNL     1      -0.570  53.109 -27.000  1.00  0.00     0.018 C 
HETATM   19  C27 UNL     1      -0.150  54.590 -27.126  1.00  0.00     0.023 C 
HETATM   20  C28 UNL     1      -1.725  52.917 -28.015  1.00  0.00     0.023 C 
HETATM   21  C29 UNL     1      -1.007  52.707 -25.526  1.00  0.00     0.020 C 
HETATM   22  C30 UNL     1      -1.862  51.435 -25.557  1.00  0.00     0.090 C 
HETATM   23  C31 UNL     1      -2.408  51.060 -24.211  1.00  0.00     0.157 C 
HETATM   24  O5  UNL     1      -3.514  50.526 -24.148  1.00  0.00    -0.293 OA
ENDROOT
BRANCH   1  25
HETATM   25  C8  UNL     1      -1.537  49.415 -18.073  1.00  0.00    -0.014 C 
HETATM   26  C9  UNL     1      -2.366  48.203 -17.600  1.00  0.00     0.010 C 
BRANCH  25  27
HETATM   27  C7  UNL     1      -0.239  49.489 -17.232  1.00  0.00     0.008 C 
BRANCH  27  28
HETATM   28  C6  UNL     1       0.263  50.903 -16.912  1.00  0.00     0.028 C 
BRANCH  28  29
HETATM   29  C5  UNL     1       1.167  50.886 -15.708  1.00  0.00    -0.014 C 
HETATM   30  C3  UNL     1       2.290  51.611 -15.517  1.00  0.00     0.009 C 
HETATM   31  C4  UNL     1       2.884  52.575 -16.505  1.00  0.00     0.054 C 
BRANCH  30  32
HETATM   32  C2  UNL     1       3.073  51.508 -14.244  1.00  0.00     0.288 C 
HETATM   33  O2  UNL     1       2.700  52.006 -13.190  1.00  0.00    -0.260 OA
BRANCH  32  34
HETATM   34  O1  UNL     1       4.230  50.818 -14.417  1.00  0.00    -0.323 OA
HETATM   35  C1  UNL     1       4.359  49.678 -13.568  1.00  0.00     0.213 C 
ENDBRANCH  32  34
ENDBRANCH  30  32
ENDBRANCH  28  29
ENDBRANCH  27  28
ENDBRANCH  25  27
ENDBRANCH   1  25
BRANCH   8  36
HETATM   36  O3  UNL     1       0.609  53.154 -21.371  1.00  0.00    -0.391 OA
HETATM   37  H25 UNL     1       1.248  53.143 -20.639  1.00  0.00     0.210 HD
ENDBRANCH   8  36
TORSDOF 7
ENDMDL
MODEL 3
REMARK minimizedAffinity -9.23630047
REMARK  7 active torsions:
REMARK  status: ('A' for Active; 'I' for Inactive)
REMARK    1  A    between atoms: O1_2  and  C2_3 
REMARK    2  A    between atoms: C2_3  and  C3_5 
REMARK    3  A    between atoms: C5_7  and  C6_8 
REMARK    4  A    between atoms: C6_8  and  C7_9 
REMARK    5  A    between atoms: C7_9  and  C8_10 
REMARK    6  A    between atoms: C8_10  and  C10_12 
REMARK    7  A    between atoms: C17_19  and  O3_20 
ROOT
HETATM    1  C10 UNL     1      -1.671  50.336 -22.235  1.00  0.00    -0.002 C 
HETATM    2  C11 UNL     1      -1.275  49.003 -21.583  1.00  0.00     0.007 C 
HETATM    3  C12 UNL     1      -2.427  48.070 -21.902  1.00  0.00     0.015 C 
HETATM    4  C13 UNL     1      -3.689  48.916 -21.618  1.00  0.00    -0.005 C 
HETATM    5  C14 UNL     1      -3.907  49.008 -20.077  1.00  0.00     0.021 C 
HETATM    6  C15 UNL     1      -4.933  48.268 -22.272  1.00  0.00     0.002 C 
HETATM    7  C16 UNL     1      -5.690  48.829 -23.251  1.00  0.00    -0.032 C 
HETATM    8  C17 UNL     1      -5.236  50.141 -23.873  1.00  0.00     0.149 C 
HETATM    9  C18 UNL     1      -3.746  50.429 -23.684  1.00  0.00     0.047 C 
HETATM   10  C19 UNL     1      -3.269  50.340 -22.209  1.00  0.00    -0.026 C 
HETATM   11  C20 UNL     1      -3.892  51.506 -21.409  1.00  0.00     0.016 C 
HETATM   12  C21 UNL     1      -6.998  48.191 -23.843  1.00  0.00    -0.012 C 
HETATM   13  C22 UNL     1      -8.079  49.297 -23.930  1.00  0.00     0.021 C 
HETATM   14  C23 UNL     1      -6.684  47.659 -25.267  1.00  0.00     0.021 C 
HETATM   15  C24 UNL     1      -7.837  46.909 -25.916  1.00  0.00     0.080 C 
HETATM   16  C25 UNL     1      -8.315  45.774 -25.041  1.00  0.00     0.135 C 
HETATM   17  O4  UNL     1      -8.457  44.648 -25.518  1.00  0.00    -0.297 OA
HETATM   18  C26 UNL     1      -8.685  46.110 -23.589  1.00  0.00     0.018 C 
HETATM   19  C27 UNL     1     -10.066  46.803 -23.582  1.00  0.00     0.023 C 
HETATM   20  C28 UNL     1      -8.883  44.784 -22.810  1.00  0.00     0.023 C 
HETATM   21  C29 UNL     1      -7.535  47.002 -22.952  1.00  0.00     0.020 C 
HETATM   22  C30 UNL     1      -6.354  46.120 -22.532  1.00  0.00     0.090 C 
HETATM   23  C31 UNL     1      -5.277  46.881 -21.817  1.00  0.00     0.157 C 
HETATM   24  O5  UNL     1      -4.641  46.314 -20.929  1.00  0.00    -0.293 OA
ENDROOT
BRANCH   1  25
HETATM   25  C8  UNL     1      -0.874  51.542 -21.655  1.00  0.00    -0.014 C 
HETATM   26  C9  UNL     1      -0.133  51.167 -20.355  1.00  0.00     0.010 C 
BRANCH  25  27
HETATM   27  C7  UNL     1       0.138  52.179 -22.639  1.00  0.00     0.008 C 
BRANCH  27  28
HETATM   28  C6  UNL     1      -0.472  52.836 -23.884  1.00  0.00     0.028 C 
BRANCH  28  29
HETATM   29  C5  UNL     1       0.495  52.793 -25.036  1.00  0.00    -0.014 C 
HETATM   30  C3  UNL     1       0.565  51.863 -26.013  1.00  0.00     0.009 C 
HETATM   31  C4  UNL     1      -0.312  50.648 -26.124  1.00  0.00     0.054 C 
BRANCH  30  32
HETATM   32  C2  UNL     1       1.571  51.973 -27.118  1.00  0.00     0.288 C 
HETATM   33  O2  UNL     1       2.779  51.964 -26.923  1.00  0.00    -0.260 OA
BRANCH  32  34
HETATM   34  O1  UNL     1       0.975  52.095 -28.333  1.00  0.00    -0.323 OA
HETATM   35  C1  UNL     1       0.131  53.241 -28.452  1.00  0.00     0.213 C 
ENDBRANCH  32  34
ENDBRANCH  30  32
ENDBRANCH  28  29
ENDBRANCH  27  28
ENDBRANCH  25  27
ENDBRANCH   1  25
BRANCH   8  36
HETATM   36  O3  UNL     1      -6.020  51.200 -23.345  1.00  0.00    -0.391 OA
HETATM   37  H25 UNL     1      -5.725  52.024 -23.769  1.00  0.00     0.210 HD
ENDBRANCH   8  36
TORSDOF 7
ENDMDL
MODEL 4
REMARK minimizedAffinity -9.06915188
REMARK  7 active torsions:
REMARK  status: ('A' for Active; 'I' for Inactive)
REMARK    1  A    between atoms: O1_2  and  C2_3 
REMARK    2  A    between atoms: C2_3  and  C3_5 
REMARK    3  A    between atoms: C5_7  and  C6_8 
REMARK    4  A    between atoms: C6_8  and  C7_9 
REMARK    5  A    between atoms: C7_9  and  C8_10 
REMARK    6  A    between atoms: C8_10  and  C10_12 
REMARK    7  A    between atoms: C17_19  and  O3_20 
ROOT
HETATM    1  C10 UNL     1      -0.487  49.971 -19.239  1.00  0.00    -0.002 C 
HETATM    2  C11 UNL     1      -1.542  49.014 -19.812  1.00  0.00     0.007 C 
HETATM    3  C12 UNL     1      -1.558  49.313 -21.298  1.00  0.00     0.015 C 
HETATM    4  C13 UNL     1      -1.550  50.857 -21.374  1.00  0.00    -0.005 C 
HETATM    5  C14 UNL     1      -2.974  51.392 -21.032  1.00  0.00     0.021 C 
HETATM    6  C15 UNL     1      -1.155  51.327 -22.794  1.00  0.00     0.002 C 
HETATM    7  C16 UNL     1      -0.049  52.053 -23.104  1.00  0.00    -0.032 C 
HETATM    8  C17 UNL     1       0.976  52.334 -22.015  1.00  0.00     0.149 C 
HETATM    9  C18 UNL     1       0.901  51.368 -20.833  1.00  0.00     0.047 C 
HETATM   10  C19 UNL     1      -0.517  51.236 -20.215  1.00  0.00    -0.026 C 
HETATM   11  C20 UNL     1      -0.888  52.568 -19.523  1.00  0.00     0.016 C 
HETATM   12  C21 UNL     1       0.291  52.592 -24.540  1.00  0.00    -0.012 C 
HETATM   13  C22 UNL     1       0.736  54.070 -24.409  1.00  0.00     0.021 C 
HETATM   14  C23 UNL     1       1.458  51.747 -25.117  1.00  0.00     0.021 C 
HETATM   15  C24 UNL     1       1.815  52.087 -26.556  1.00  0.00     0.080 C 
HETATM   16  C25 UNL     1       0.611  51.979 -27.460  1.00  0.00     0.135 C 
HETATM   17  O4  UNL     1       0.686  51.338 -28.509  1.00  0.00    -0.297 OA
HETATM   18  C26 UNL     1      -0.649  52.759 -27.055  1.00  0.00     0.018 C 
HETATM   19  C27 UNL     1      -0.432  54.251 -27.390  1.00  0.00     0.023 C 
HETATM   20  C28 UNL     1      -1.825  52.298 -27.955  1.00  0.00     0.023 C 
HETATM   21  C29 UNL     1      -0.947  52.501 -25.517  1.00  0.00     0.020 C 
HETATM   22  C30 UNL     1      -1.631  51.142 -25.331  1.00  0.00     0.090 C 
HETATM   23  C31 UNL     1      -2.047  50.881 -23.914  1.00  0.00     0.157 C 
HETATM   24  O5  UNL     1      -3.069  50.229 -23.707  1.00  0.00    -0.293 OA
ENDROOT
BRANCH   1  25
HETATM   25  C8  UNL     1      -0.629  50.164 -17.700  1.00  0.00    -0.014 C 
HETATM   26  C9  UNL     1       0.561  50.948 -17.109  1.00  0.00     0.010 C 
BRANCH  25  27
HETATM   27  C7  UNL     1      -1.945  50.847 -17.255  1.00  0.00     0.008 C 
BRANCH  27  28
HETATM   28  C6  UNL     1      -2.709  50.142 -16.127  1.00  0.00     0.028 C 
BRANCH  28  29
HETATM   29  C5  UNL     1      -2.860  51.052 -14.938  1.00  0.00    -0.014 C 
HETATM   30  C3  UNL     1      -2.024  51.166 -13.883  1.00  0.00     0.009 C 
HETATM   31  C4  UNL     1      -0.770  50.366 -13.674  1.00  0.00     0.054 C 
BRANCH  30  32
HETATM   32  C2  UNL     1      -2.294  52.146 -12.782  1.00  0.00     0.288 C 
HETATM   33  O2  UNL     1      -1.406  52.648 -12.105  1.00  0.00    -0.260 OA
BRANCH  32  34
HETATM   34  O1  UNL     1      -3.623  52.384 -12.631  1.00  0.00    -0.323 OA
HETATM   35  C1  UNL     1      -3.964  53.008 -11.394  1.00  0.00     0.213 C 
ENDBRANCH  32  34
ENDBRANCH  30  32
ENDBRANCH  28  29
ENDBRANCH  27  28
ENDBRANCH  25  27
ENDBRANCH   1  25
BRANCH   8  36
HETATM   36  O3  UNL     1       0.827  53.676 -21.573  1.00  0.00    -0.391 OA
HETATM   37  H25 UNL     1       1.502  53.837 -20.893  1.00  0.00     0.210 HD
ENDBRANCH   8  36
TORSDOF 7
ENDMDL
MODEL 5
REMARK minimizedAffinity -8.91576004
REMARK  7 active torsions:
REMARK  status: ('A' for Active; 'I' for Inactive)
REMARK    1  A    between atoms: O1_2  and  C2_3 
REMARK    2  A    between atoms: C2_3  and  C3_5 
REMARK    3  A    between atoms: C5_7  and  C6_8 
REMARK    4  A    between atoms: C6_8  and  C7_9 
REMARK    5  A    between atoms: C7_9  and  C8_10 
REMARK    6  A    between atoms: C8_10  and  C10_12 
REMARK    7  A    between atoms: C17_19  and  O3_20 
ROOT
HETATM    1  C10 UNL     1      -2.477  49.041 -20.108  1.00  0.00    -0.002 C 
HETATM    2  C11 UNL     1      -3.530  48.449 -21.057  1.00  0.00     0.007 C 
HETATM    3  C12 UNL     1      -3.177  49.019 -22.416  1.00  0.00     0.015 C 
HETATM    4  C13 UNL     1      -2.897  50.514 -22.140  1.00  0.00    -0.005 C 
HETATM    5  C14 UNL     1      -4.251  51.259 -21.940  1.00  0.00     0.021 C 
HETATM    6  C15 UNL     1      -2.133  51.150 -23.326  1.00  0.00     0.002 C 
HETATM    7  C16 UNL     1      -0.882  51.675 -23.266  1.00  0.00    -0.032 C 
HETATM    8  C17 UNL     1      -0.082  51.528 -21.980  1.00  0.00     0.149 C 
HETATM    9  C18 UNL     1      -0.568  50.393 -21.078  1.00  0.00     0.047 C 
HETATM   10  C19 UNL     1      -2.087  50.445 -20.763  1.00  0.00    -0.026 C 
HETATM   11  C20 UNL     1      -2.371  51.671 -19.864  1.00  0.00     0.016 C 
HETATM   12  C21 UNL     1      -0.157  52.393 -24.461  1.00  0.00    -0.012 C 
HETATM   13  C22 UNL     1       0.488  53.694 -23.925  1.00  0.00     0.021 C 
HETATM   14  C23 UNL     1       0.950  51.448 -25.002  1.00  0.00     0.021 C 
HETATM   15  C24 UNL     1       1.658  51.971 -26.242  1.00  0.00     0.080 C 
HETATM   16  C25 UNL     1       0.674  52.287 -27.343  1.00  0.00     0.135 C 
HETATM   17  O4  UNL     1       0.865  51.854 -28.480  1.00  0.00    -0.297 OA
HETATM   18  C26 UNL     1      -0.495  53.221 -26.999  1.00  0.00     0.018 C 
HETATM   19  C27 UNL     1       0.034  54.671 -26.946  1.00  0.00     0.023 C 
HETATM   20  C28 UNL     1      -1.511  53.192 -28.170  1.00  0.00     0.023 C 
HETATM   21  C29 UNL     1      -1.155  52.746 -25.635  1.00  0.00     0.020 C 
HETATM   22  C30 UNL     1      -2.079  51.548 -25.883  1.00  0.00     0.090 C 
HETATM   23  C31 UNL     1      -2.826  51.118 -24.655  1.00  0.00     0.157 C 
HETATM   24  O5  UNL     1      -3.963  50.665 -24.783  1.00  0.00    -0.293 OA
ENDROOT
BRANCH   1  25
HETATM   25  C8  UNL     1      -2.912  48.966 -18.614  1.00  0.00    -0.014 C 
HETATM   26  C9  UNL     1      -3.046  47.507 -18.129  1.00  0.00     0.010 C 
BRANCH  25  27
HETATM   27  C7  UNL     1      -1.988  49.732 -17.636  1.00  0.00     0.008 C 
BRANCH  27  28
HETATM   28  C6  UNL     1      -0.533  49.249 -17.582  1.00  0.00     0.028 C 
BRANCH  28  29
HETATM   29  C5  UNL     1       0.251  50.036 -16.567  1.00  0.00    -0.014 C 
HETATM   30  C3  UNL     1       0.751  51.283 -16.706  1.00  0.00     0.009 C 
HETATM   31  C4  UNL     1       0.643  52.133 -17.941  1.00  0.00     0.054 C 
BRANCH  30  32
HETATM   32  C2  UNL     1       1.490  51.952 -15.587  1.00  0.00     0.288 C 
HETATM   33  O2  UNL     1       0.949  52.704 -14.788  1.00  0.00    -0.260 OA
BRANCH  32  34
HETATM   34  O1  UNL     1       2.810  51.630 -15.590  1.00  0.00    -0.323 OA
HETATM   35  C1  UNL     1       3.660  52.673 -16.066  1.00  0.00     0.213 C 
ENDBRANCH  32  34
ENDBRANCH  30  32
ENDBRANCH  28  29
ENDBRANCH  27  28
ENDBRANCH  25  27
ENDBRANCH   1  25
BRANCH   8  36
HETATM   36  O3  UNL     1      -0.097  52.763 -21.280  1.00  0.00    -0.391 OA
HETATM   37  H25 UNL     1       0.434  52.650 -20.474  1.00  0.00     0.210 HD
ENDBRANCH   8  36
TORSDOF 7
ENDMDL
MODEL 6
REMARK minimizedAffinity -8.90860462
REMARK  7 active torsions:
REMARK  status: ('A' for Active; 'I' for Inactive)
REMARK    1  A    between atoms: O1_2  and  C2_3 
REMARK    2  A    between atoms: C2_3  and  C3_5 
REMARK    3  A    between atoms: C5_7  and  C6_8 
REMARK    4  A    between atoms: C6_8  and  C7_9 
REMARK    5  A    between atoms: C7_9  and  C8_10 
REMARK    6  A    between atoms: C8_10  and  C10_12 
REMARK    7  A    between atoms: C17_19  and  O3_20 
ROOT
HETATM    1  C10 UNL     1      -2.079  49.942 -21.573  1.00  0.00    -0.002 C 
HETATM    2  C11 UNL     1      -1.798  48.538 -21.019  1.00  0.00     0.007 C 
HETATM    3  C12 UNL     1      -2.914  47.680 -21.581  1.00  0.00     0.015 C 
HETATM    4  C13 UNL     1      -4.187  48.532 -21.378  1.00  0.00    -0.005 C 
HETATM    5  C14 UNL     1      -4.607  48.474 -19.878  1.00  0.00     0.021 C 
HETATM    6  C15 UNL     1      -5.345  47.995 -22.253  1.00  0.00     0.002 C 
HETATM    7  C16 UNL     1      -5.954  48.676 -23.258  1.00  0.00    -0.032 C 
HETATM    8  C17 UNL     1      -5.396  50.029 -23.674  1.00  0.00     0.149 C 
HETATM    9  C18 UNL     1      -3.940  50.249 -23.263  1.00  0.00     0.047 C 
HETATM   10  C19 UNL     1      -3.665  49.995 -21.756  1.00  0.00    -0.026 C 
HETATM   11  C20 UNL     1      -4.369  51.093 -20.926  1.00  0.00     0.016 C 
HETATM   12  C21 UNL     1      -7.183  48.144 -24.079  1.00  0.00    -0.012 C 
HETATM   13  C22 UNL     1      -8.222  49.288 -24.190  1.00  0.00     0.021 C 
HETATM   14  C23 UNL     1      -6.691  47.750 -25.498  1.00  0.00     0.021 C 
HETATM   15  C24 UNL     1      -7.761  47.107 -26.367  1.00  0.00     0.080 C 
HETATM   16  C25 UNL     1      -8.372  45.905 -25.686  1.00  0.00     0.135 C 
HETATM   17  O4  UNL     1      -8.469  44.839 -26.294  1.00  0.00    -0.297 OA
HETATM   18  C26 UNL     1      -8.926  46.103 -24.268  1.00  0.00     0.018 C 
HETATM   19  C27 UNL     1     -10.282  46.836 -24.368  1.00  0.00     0.023 C 
HETATM   20  C28 UNL     1      -9.250  44.712 -23.666  1.00  0.00     0.023 C 
HETATM   21  C29 UNL     1      -7.855  46.888 -23.396  1.00  0.00     0.020 C 
HETATM   22  C30 UNL     1      -6.757  45.931 -22.920  1.00  0.00     0.090 C 
HETATM   23  C31 UNL     1      -5.771  46.580 -21.995  1.00  0.00     0.157 C 
HETATM   24  O5  UNL     1      -5.269  45.906 -21.096  1.00  0.00    -0.293 OA
ENDROOT
BRANCH   1  25
HETATM   25  C8  UNL     1      -1.344  51.057 -20.770  1.00  0.00    -0.014 C 
HETATM   26  C9  UNL     1      -0.114  50.507 -20.019  1.00  0.00     0.010 C 
BRANCH  25  27
HETATM   27  C7  UNL     1      -0.906  52.277 -21.617  1.00  0.00     0.008 C 
BRANCH  27  28
HETATM   28  C6  UNL     1       0.514  52.208 -22.193  1.00  0.00     0.028 C 
BRANCH  28  29
HETATM   29  C5  UNL     1       0.618  53.028 -23.451  1.00  0.00    -0.014 C 
HETATM   30  C3  UNL     1       0.190  52.689 -24.686  1.00  0.00     0.009 C 
HETATM   31  C4  UNL     1      -0.461  51.386 -25.057  1.00  0.00     0.054 C 
BRANCH  30  32
HETATM   32  C2  UNL     1       0.338  53.630 -25.844  1.00  0.00     0.288 C 
HETATM   33  O2  UNL     1       0.092  54.827 -25.764  1.00  0.00    -0.260 OA
BRANCH  32  34
HETATM   34  O1  UNL     1       0.755  52.988 -26.965  1.00  0.00    -0.323 OA
HETATM   35  C1  UNL     1      -0.032  53.270 -28.122  1.00  0.00     0.213 C 
ENDBRANCH  32  34
ENDBRANCH  30  32
ENDBRANCH  28  29
ENDBRANCH  27  28
ENDBRANCH  25  27
ENDBRANCH   1  25
BRANCH   8  36
HETATM   36  O3  UNL     1      -6.225  51.054 -23.145  1.00  0.00    -0.391 OA
HETATM   37  H25 UNL     1      -5.860  51.906 -23.438  1.00  0.00     0.210 HD
ENDBRANCH   8  36
TORSDOF 7
ENDMDL
MODEL 7
REMARK minimizedAffinity -8.88769054
REMARK  7 active torsions:
REMARK  status: ('A' for Active; 'I' for Inactive)
REMARK    1  A    between atoms: O1_2  and  C2_3 
REMARK    2  A    between atoms: C2_3  and  C3_5 
REMARK    3  A    between atoms: C5_7  and  C6_8 
REMARK    4  A    between atoms: C6_8  and  C7_9 
REMARK    5  A    between atoms: C7_9  and  C8_10 
REMARK    6  A    between atoms: C8_10  and  C10_12 
REMARK    7  A    between atoms: C17_19  and  O3_20 
ROOT
HETATM    1  C10 UNL     1      -4.046  50.884 -23.377  1.00  0.00    -0.002 C 
HETATM    2  C11 UNL     1      -3.263  51.326 -24.622  1.00  0.00     0.007 C 
HETATM    3  C12 UNL     1      -3.949  50.616 -25.772  1.00  0.00     0.015 C 
HETATM    4  C13 UNL     1      -4.157  49.174 -25.257  1.00  0.00    -0.005 C 
HETATM    5  C14 UNL     1      -2.799  48.411 -25.312  1.00  0.00     0.021 C 
HETATM    6  C15 UNL     1      -5.196  48.431 -26.131  1.00  0.00     0.002 C 
HETATM    7  C16 UNL     1      -6.394  47.960 -25.699  1.00  0.00    -0.032 C 
HETATM    8  C17 UNL     1      -6.846  48.281 -24.282  1.00  0.00     0.149 C 
HETATM    9  C18 UNL     1      -6.144  49.495 -23.672  1.00  0.00     0.047 C 
HETATM   10  C19 UNL     1      -4.594  49.428 -23.741  1.00  0.00    -0.026 C 
HETATM   11  C20 UNL     1      -4.099  48.305 -22.800  1.00  0.00     0.016 C 
HETATM   12  C21 UNL     1      -7.399  47.134 -26.582  1.00  0.00    -0.012 C 
HETATM   13  C22 UNL     1      -7.894  45.926 -25.749  1.00  0.00     0.021 C 
HETATM   14  C23 UNL     1      -8.602  48.048 -26.939  1.00  0.00     0.021 C 
HETATM   15  C24 UNL     1      -9.602  47.410 -27.892  1.00  0.00     0.080 C 
HETATM   16  C25 UNL     1      -8.927  46.936 -29.157  1.00  0.00     0.135 C 
HETATM   17  O4  UNL     1      -9.396  47.242 -30.254  1.00  0.00    -0.297 OA
HETATM   18  C26 UNL     1      -7.713  46.009 -29.005  1.00  0.00     0.018 C 
HETATM   19  C27 UNL     1      -8.217  44.593 -28.648  1.00  0.00     0.023 C 
HETATM   20  C28 UNL     1      -7.023  45.868 -30.387  1.00  0.00     0.023 C 
HETATM   21  C29 UNL     1      -6.729  46.615 -27.915  1.00  0.00     0.020 C 
HETATM   22  C30 UNL     1      -5.893  47.744 -28.527  1.00  0.00     0.090 C 
HETATM   23  C31 UNL     1      -4.859  48.287 -27.585  1.00  0.00     0.157 C 
HETATM   24  O5  UNL     1      -3.789  48.683 -28.044  1.00  0.00    -0.293 OA
ENDROOT
BRANCH   1  25
HETATM   25  C8  UNL     1      -3.250  51.116 -22.058  1.00  0.00    -0.014 C 
HETATM   26  C9  UNL     1      -4.189  51.358 -20.857  1.00  0.00     0.010 C 
BRANCH  25  27
HETATM   27  C7  UNL     1      -2.261  49.981 -21.695  1.00  0.00     0.008 C 
BRANCH  27  28
HETATM   28  C6  UNL     1      -0.820  50.178 -22.181  1.00  0.00     0.028 C 
BRANCH  28  29
HETATM   29  C5  UNL     1      -0.127  51.241 -21.371  1.00  0.00    -0.014 C 
HETATM   30  C3  UNL     1       0.199  52.489 -21.768  1.00  0.00     0.009 C 
HETATM   31  C4  UNL     1      -0.045  53.062 -23.136  1.00  0.00     0.054 C 
BRANCH  30  32
HETATM   32  C2  UNL     1       0.865  53.452 -20.832  1.00  0.00     0.288 C 
HETATM   33  O2  UNL     1       1.991  53.894 -21.021  1.00  0.00    -0.260 OA
BRANCH  32  34
HETATM   34  O1  UNL     1       0.076  53.748 -19.767  1.00  0.00    -0.323 OA
HETATM   35  C1  UNL     1      -0.444  52.602 -19.094  1.00  0.00     0.213 C 
ENDBRANCH  32  34
ENDBRANCH  30  32
ENDBRANCH  28  29
ENDBRANCH  27  28
ENDBRANCH  25  27
ENDBRANCH   1  25
BRANCH   8  36
HETATM   36  O3  UNL     1      -6.660  47.134 -23.465  1.00  0.00    -0.391 OA
HETATM   37  H25 UNL     1      -6.971  47.357 -22.571  1.00  0.00     0.210 HD
ENDBRANCH   8  36
TORSDOF 7
ENDMDL
MODEL 8
REMARK minimizedAffinity -8.69395542
REMARK  7 active torsions:
REMARK  status: ('A' for Active; 'I' for Inactive)
REMARK    1  A    between atoms: O1_2  and  C2_3 
REMARK    2  A    between atoms: C2_3  and  C3_5 
REMARK    3  A    between atoms: C5_7  and  C6_8 
REMARK    4  A    between atoms: C6_8  and  C7_9 
REMARK    5  A    between atoms: C7_9  and  C8_10 
REMARK    6  A    between atoms: C8_10  and  C10_12 
REMARK    7  A    between atoms: C17_19  and  O3_20 
ROOT
HETATM    1  C10 UNL     1      -6.546  49.408 -21.290  1.00  0.00    -0.002 C 
HETATM    2  C11 UNL     1      -5.866  50.330 -20.267  1.00  0.00     0.007 C 
HETATM    3  C12 UNL     1      -4.734  50.979 -21.038  1.00  0.00     0.015 C 
HETATM    4  C13 UNL     1      -4.092  49.813 -21.824  1.00  0.00    -0.005 C 
HETATM    5  C14 UNL     1      -3.226  48.957 -20.851  1.00  0.00     0.021 C 
HETATM    6  C15 UNL     1      -3.196  50.356 -22.963  1.00  0.00     0.002 C 
HETATM    7  C16 UNL     1      -3.399  50.151 -24.290  1.00  0.00    -0.032 C 
HETATM    8  C17 UNL     1      -4.670  49.447 -24.741  1.00  0.00     0.149 C 
HETATM    9  C18 UNL     1      -5.797  49.488 -23.708  1.00  0.00     0.047 C 
HETATM   10  C19 UNL     1      -5.378  48.991 -22.298  1.00  0.00    -0.026 C 
HETATM   11  C20 UNL     1      -5.102  47.471 -22.363  1.00  0.00     0.016 C 
HETATM   12  C21 UNL     1      -2.430  50.640 -25.427  1.00  0.00    -0.012 C 
HETATM   13  C22 UNL     1      -2.228  49.473 -26.425  1.00  0.00     0.021 C 
HETATM   14  C23 UNL     1      -3.095  51.838 -26.156  1.00  0.00     0.021 C 
HETATM   15  C24 UNL     1      -2.212  52.489 -27.210  1.00  0.00     0.080 C 
HETATM   16  C25 UNL     1      -0.887  52.917 -26.627  1.00  0.00     0.135 C 
HETATM   17  O4  UNL     1      -0.470  54.059 -26.824  1.00  0.00    -0.297 OA
HETATM   18  C26 UNL     1      -0.073  51.858 -25.870  1.00  0.00     0.018 C 
HETATM   19  C27 UNL     1       0.594  50.921 -26.902  1.00  0.00     0.023 C 
HETATM   20  C28 UNL     1       1.096  52.565 -25.136  1.00  0.00     0.023 C 
HETATM   21  C29 UNL     1      -1.028  51.094 -24.857  1.00  0.00     0.020 C 
HETATM   22  C30 UNL     1      -1.249  51.939 -23.598  1.00  0.00     0.090 C 
HETATM   23  C31 UNL     1      -2.050  51.230 -22.547  1.00  0.00     0.157 C 
HETATM   24  O5  UNL     1      -1.801  51.452 -21.363  1.00  0.00    -0.293 OA
ENDROOT
BRANCH   1  25
HETATM   25  C8  UNL     1      -7.426  48.314 -20.615  1.00  0.00    -0.014 C 
HETATM   26  C9  UNL     1      -7.763  48.673 -19.152  1.00  0.00     0.010 C 
BRANCH  25  27
HETATM   27  C7  UNL     1      -8.743  47.994 -21.364  1.00  0.00     0.008 C 
BRANCH  27  28
HETATM   28  C6  UNL     1      -9.607  46.889 -20.743  1.00  0.00     0.028 C 
BRANCH  28  29
HETATM   29  C5  UNL     1     -11.029  47.353 -20.581  1.00  0.00    -0.014 C 
HETATM   30  C3  UNL     1     -11.657  47.682 -19.432  1.00  0.00     0.009 C 
HETATM   31  C4  UNL     1     -11.052  47.618 -18.058  1.00  0.00     0.054 C 
BRANCH  30  32
HETATM   32  C2  UNL     1     -13.078  48.160 -19.433  1.00  0.00     0.288 C 
HETATM   33  O2  UNL     1     -13.490  49.020 -20.201  1.00  0.00    -0.260 OA
BRANCH  32  34
HETATM   34  O1  UNL     1     -13.821  47.537 -18.482  1.00  0.00    -0.323 OA
HETATM   35  C1  UNL     1     -15.173  47.990 -18.413  1.00  0.00     0.213 C 
ENDBRANCH  32  34
ENDBRANCH  30  32
ENDBRANCH  28  29
ENDBRANCH  27  28
ENDBRANCH  25  27
ENDBRANCH   1  25
BRANCH   8  36
HETATM   36  O3  UNL     1      -4.359  48.105 -25.087  1.00  0.00    -0.391 OA
HETATM   37  H25 UNL     1      -5.180  47.682 -25.388  1.00  0.00     0.210 HD
ENDBRANCH   8  36
TORSDOF 7
ENDMDL
MODEL 9
REMARK minimizedAffinity -8.63602448
REMARK  7 active torsions:
REMARK  status: ('A' for Active; 'I' for Inactive)
REMARK    1  A    between atoms: O1_2  and  C2_3 
REMARK    2  A    between atoms: C2_3  and  C3_5 
REMARK    3  A    between atoms: C5_7  and  C6_8 
REMARK    4  A    between atoms: C6_8  and  C7_9 
REMARK    5  A    between atoms: C7_9  and  C8_10 
REMARK    6  A    between atoms: C8_10  and  C10_12 
REMARK    7  A    between atoms: C17_19  and  O3_20 
ROOT
HETATM    1  C10 UNL     1      -1.296  50.979 -21.713  1.00  0.00    -0.002 C 
HETATM    2  C11 UNL     1       0.012  51.769 -21.863  1.00  0.00     0.007 C 
HETATM    3  C12 UNL     1       0.691  51.635 -20.514  1.00  0.00     0.015 C 
HETATM    4  C13 UNL     1      -0.442  51.880 -19.492  1.00  0.00    -0.005 C 
HETATM    5  C14 UNL     1      -0.750  53.407 -19.427  1.00  0.00     0.021 C 
HETATM    6  C15 UNL     1      -0.022  51.382 -18.088  1.00  0.00     0.002 C 
HETATM    7  C16 UNL     1      -0.627  50.385 -17.393  1.00  0.00    -0.032 C 
HETATM    8  C17 UNL     1      -1.727  49.579 -18.068  1.00  0.00     0.149 C 
HETATM    9  C18 UNL     1      -1.693  49.647 -19.595  1.00  0.00     0.047 C 
HETATM   10  C19 UNL     1      -1.661  51.092 -20.161  1.00  0.00    -0.026 C 
HETATM   11  C20 UNL     1      -3.019  51.774 -19.872  1.00  0.00     0.016 C 
HETATM   12  C21 UNL     1      -0.238  49.951 -15.934  1.00  0.00    -0.012 C 
HETATM   13  C22 UNL     1      -1.542  49.786 -15.115  1.00  0.00     0.021 C 
HETATM   14  C23 UNL     1       0.504  48.590 -16.008  1.00  0.00     0.021 C 
HETATM   15  C24 UNL     1       1.043  48.106 -14.671  1.00  0.00     0.080 C 
HETATM   16  C25 UNL     1       1.938  49.141 -14.033  1.00  0.00     0.135 C 
HETATM   17  O4  UNL     1       3.049  48.817 -13.612  1.00  0.00    -0.297 OA
HETATM   18  C26 UNL     1       1.370  50.558 -13.864  1.00  0.00     0.018 C 
HETATM   19  C27 UNL     1       0.388  50.555 -12.671  1.00  0.00     0.023 C 
HETATM   20  C28 UNL     1       2.524  51.507 -13.449  1.00  0.00     0.023 C 
HETATM   21  C29 UNL     1       0.695  51.013 -15.228  1.00  0.00     0.020 C 
HETATM   22  C30 UNL     1       1.768  51.474 -16.221  1.00  0.00     0.090 C 
HETATM   23  C31 UNL     1       1.194  52.027 -17.492  1.00  0.00     0.157 C 
HETATM   24  O5  UNL     1       1.787  52.942 -18.061  1.00  0.00    -0.293 OA
ENDROOT
BRANCH   1  25
HETATM   25  C8  UNL     1      -2.350  51.357 -22.796  1.00  0.00    -0.014 C 
HETATM   26  C9  UNL     1      -1.682  51.779 -24.122  1.00  0.00     0.010 C 
BRANCH  25  27
HETATM   27  C7  UNL     1      -3.393  50.252 -23.094  1.00  0.00     0.008 C 
BRANCH  27  28
HETATM   28  C6  UNL     1      -2.819  48.910 -23.565  1.00  0.00     0.028 C 
BRANCH  28  29
HETATM   29  C5  UNL     1      -3.061  48.715 -25.037  1.00  0.00    -0.014 C 
HETATM   30  C3  UNL     1      -4.236  48.447 -25.645  1.00  0.00     0.009 C 
HETATM   31  C4  UNL     1      -5.555  48.256 -24.950  1.00  0.00     0.054 C 
BRANCH  30  32
HETATM   32  C2  UNL     1      -4.325  48.309 -27.136  1.00  0.00     0.288 C 
HETATM   33  O2  UNL     1      -3.375  48.509 -27.881  1.00  0.00    -0.260 OA
BRANCH  32  34
HETATM   34  O1  UNL     1      -5.574  47.957 -27.536  1.00  0.00    -0.323 OA
HETATM   35  C1  UNL     1      -5.731  47.886 -28.953  1.00  0.00     0.213 C 
ENDBRANCH  32  34
ENDBRANCH  30  32
ENDBRANCH  28  29
ENDBRANCH  27  28
ENDBRANCH  25  27
ENDBRANCH   1  25
BRANCH   8  36
HETATM   36  O3  UNL     1      -2.987  50.012 -17.577  1.00  0.00    -0.391 OA
HETATM   37  H25 UNL     1      -3.671  49.472 -18.008  1.00  0.00     0.210 HD
ENDBRANCH   8  36
TORSDOF 7
ENDMDL
