MODEL 1
REMARK minimizedAffinity -8.74141026
REMARK  8 active torsions:
REMARK  status: ('A' for Active; 'I' for Inactive)
REMARK    1  A    between atoms: C2_2  and  C4_4 
REMARK    2  A    between atoms: C2_2  and  N1_12 
REMARK    3  A    between atoms: C4_4  and  C5_5 
REMARK    4  A    between atoms: C5_5  and  C6_6 
REMARK    5  A    between atoms: N1_12  and  C12_13 
REMARK    6  A    between atoms: C12_13  and  C13_14 
REMARK    7  A    between atoms: C13_14  and  O1_15 
REMARK    8  A    between atoms: C13_14  and  C14_16 
ROOT
HETATM    1  C13 UNL     1      -7.736   4.072  13.389  1.00  0.00     0.179 C 
ENDROOT
BRANCH   1   2
HETATM    2  C12 UNL     1      -8.150   5.521  13.013  1.00  0.00     0.306 C 
BRANCH   2   3
HETATM    3  N1  UNL     1      -7.353   6.510  13.755  1.00  0.00     0.095 N 
HETATM    4  H16 UNL     1      -6.418   6.128  13.919  1.00  0.00     0.317 HD
BRANCH   3   5
HETATM    5  C2  UNL     1      -7.932   7.009  15.014  1.00  0.00     0.151 C 
HETATM    6  C1  UNL     1      -7.389   6.262  16.245  1.00  0.00     0.048 C 
HETATM    7  C3  UNL     1      -7.639   8.518  15.174  1.00  0.00     0.048 C 
BRANCH   5   8
HETATM    8  C4  UNL     1      -9.476   6.846  14.925  1.00  0.00     0.045 C 
BRANCH   8   9
HETATM    9  C5  UNL     1     -10.244   8.104  14.488  1.00  0.00     0.041 C 
BRANCH   9  10
HETATM   10  C6  UNL     1     -11.648   7.756  14.049  1.00  0.00    -0.058 A 
HETATM   11  C7  UNL     1     -12.372   8.627  13.223  1.00  0.00     0.007 A 
HETATM   12  C8  UNL     1     -13.658   8.293  12.798  1.00  0.00     0.001 A 
HETATM   13  C9  UNL     1     -14.228   7.082  13.186  1.00  0.00     0.000 A 
HETATM   14  C10 UNL     1     -13.514   6.207  14.002  1.00  0.00     0.001 A 
HETATM   15  C11 UNL     1     -12.230   6.542  14.434  1.00  0.00     0.007 A 
ENDBRANCH   9  10
ENDBRANCH   8   9
ENDBRANCH   5   8
ENDBRANCH   3   5
ENDBRANCH   2   3
ENDBRANCH   1   2
BRANCH   1  16
HETATM   16  O1  UNL     1      -8.797   3.175  13.022  1.00  0.00    -0.389 OA
HETATM   17  H20 UNL     1      -9.050   3.393  12.110  1.00  0.00     0.210 HD
ENDBRANCH   1  16
BRANCH   1  18
HETATM   18  C14 UNL     1      -6.453   3.547  12.770  1.00  0.00    -0.027 A 
HETATM   19  C15 UNL     1      -6.508   2.339  12.046  1.00  0.00     0.012 A 
HETATM   20  C16 UNL     1      -5.362   1.789  11.467  1.00  0.00     0.031 A 
HETATM   21  C17 UNL     1      -4.144   2.452  11.590  1.00  0.00     0.041 A 
HETATM   22  C18 UNL     1      -4.056   3.645  12.311  1.00  0.00    -0.030 A 
HETATM   23  N2  UNL     1      -2.996   1.909  11.004  1.00  0.00    -0.327 N 
HETATM   24  C19 UNL     1      -5.208   4.181  12.905  1.00  0.00     0.019 A 
HETATM   25  C20 UNL     1      -2.707   4.269  12.528  1.00  0.00     0.050 C 
HETATM   26  C21 UNL     1      -1.785   4.012  11.347  1.00  0.00     0.108 C 
HETATM   27  C22 UNL     1      -1.799   2.564  10.913  1.00  0.00     0.222 C 
HETATM   28  O2  UNL     1      -0.818   2.022  10.412  1.00  0.00    -0.273 OA
HETATM   29  H28 UNL     1      -3.026   0.987  10.590  1.00  0.00     0.169 HD
ENDBRANCH   1  18
TORSDOF 8
ENDMDL
MODEL 2
REMARK minimizedAffinity -8.53985882
REMARK  8 active torsions:
REMARK  status: ('A' for Active; 'I' for Inactive)
REMARK    1  A    between atoms: C2_2  and  C4_4 
REMARK    2  A    between atoms: C2_2  and  N1_12 
REMARK    3  A    between atoms: C4_4  and  C5_5 
REMARK    4  A    between atoms: C5_5  and  C6_6 
REMARK    5  A    between atoms: N1_12  and  C12_13 
REMARK    6  A    between atoms: C12_13  and  C13_14 
REMARK    7  A    between atoms: C13_14  and  O1_15 
REMARK    8  A    between atoms: C13_14  and  C14_16 
ROOT
HETATM    1  C13 UNL     1      -7.759   3.957  13.362  1.00  0.00     0.179 C 
ENDROOT
BRANCH   1   2
HETATM    2  C12 UNL     1      -8.193   5.418  13.068  1.00  0.00     0.306 C 
BRANCH   2   3
HETATM    3  N1  UNL     1      -8.661   6.089  14.290  1.00  0.00     0.095 N 
HETATM    4  H16 UNL     1      -9.530   6.588  14.084  1.00  0.00     0.317 HD
BRANCH   3   5
HETATM    5  C2  UNL     1      -7.701   6.985  14.957  1.00  0.00     0.151 C 
HETATM    6  C1  UNL     1      -8.310   8.360  15.281  1.00  0.00     0.048 C 
HETATM    7  C3  UNL     1      -7.192   6.340  16.267  1.00  0.00     0.048 C 
BRANCH   5   8
HETATM    8  C4  UNL     1      -6.472   7.149  14.018  1.00  0.00     0.045 C 
BRANCH   8   9
HETATM    9  C5  UNL     1      -5.613   8.397  14.275  1.00  0.00     0.041 C 
BRANCH   9  10
HETATM   10  C6  UNL     1      -4.143   8.087  14.105  1.00  0.00    -0.058 A 
HETATM   11  C7  UNL     1      -3.487   8.386  12.904  1.00  0.00     0.007 A 
HETATM   12  C8  UNL     1      -2.124   8.123  12.757  1.00  0.00     0.001 A 
HETATM   13  C9  UNL     1      -1.404   7.568  13.814  1.00  0.00     0.000 A 
HETATM   14  C10 UNL     1      -2.047   7.273  15.015  1.00  0.00     0.001 A 
HETATM   15  C11 UNL     1      -3.411   7.529  15.160  1.00  0.00     0.007 A 
ENDBRANCH   9  10
ENDBRANCH   8   9
ENDBRANCH   5   8
ENDBRANCH   3   5
ENDBRANCH   2   3
ENDBRANCH   1   2
BRANCH   1  16
HETATM   16  O1  UNL     1      -8.775   3.062  12.878  1.00  0.00    -0.389 OA
HETATM   17  H20 UNL     1      -8.986   3.339  11.971  1.00  0.00     0.210 HD
ENDBRANCH   1  16
BRANCH   1  18
HETATM   18  C14 UNL     1      -6.432   3.508  12.776  1.00  0.00    -0.027 A 
HETATM   19  C15 UNL     1      -6.412   2.339  11.989  1.00  0.00     0.012 A 
HETATM   20  C16 UNL     1      -5.223   1.859  11.435  1.00  0.00     0.031 A 
HETATM   21  C17 UNL     1      -4.036   2.555  11.648  1.00  0.00     0.041 A 
HETATM   22  C18 UNL     1      -4.022   3.710  12.433  1.00  0.00    -0.030 A 
HETATM   23  N2  UNL     1      -2.844   2.083  11.088  1.00  0.00    -0.327 N 
HETATM   24  C19 UNL     1      -5.217   4.175  13.001  1.00  0.00     0.019 A 
HETATM   25  C20 UNL     1      -2.707   4.366  12.744  1.00  0.00     0.050 C 
HETATM   26  C21 UNL     1      -1.726   4.203  11.595  1.00  0.00     0.108 C 
HETATM   27  C22 UNL     1      -1.669   2.781  11.086  1.00  0.00     0.222 C 
HETATM   28  O2  UNL     1      -0.648   2.299  10.604  1.00  0.00    -0.273 OA
HETATM   29  H28 UNL     1      -2.823   1.184  10.626  1.00  0.00     0.169 HD
ENDBRANCH   1  18
TORSDOF 8
ENDMDL
MODEL 3
REMARK minimizedAffinity -8.40709114
REMARK  8 active torsions:
REMARK  status: ('A' for Active; 'I' for Inactive)
REMARK    1  A    between atoms: C2_2  and  C4_4 
REMARK    2  A    between atoms: C2_2  and  N1_12 
REMARK    3  A    between atoms: C4_4  and  C5_5 
REMARK    4  A    between atoms: C5_5  and  C6_6 
REMARK    5  A    between atoms: N1_12  and  C12_13 
REMARK    6  A    between atoms: C12_13  and  C13_14 
REMARK    7  A    between atoms: C13_14  and  O1_15 
REMARK    8  A    between atoms: C13_14  and  C14_16 
ROOT
HETATM    1  C13 UNL     1      -3.987   3.141  11.088  1.00  0.00     0.179 C 
ENDROOT
BRANCH   1   2
HETATM    2  C12 UNL     1      -2.681   3.973  10.975  1.00  0.00     0.306 C 
BRANCH   2   3
HETATM    3  N1  UNL     1      -1.990   4.053  12.271  1.00  0.00     0.095 N 
HETATM    4  H16 UNL     1      -2.687   4.069  13.019  1.00  0.00     0.317 HD
BRANCH   3   5
HETATM    5  C2  UNL     1      -1.033   5.160  12.438  1.00  0.00     0.151 C 
HETATM    6  C1  UNL     1      -1.722   6.536  12.435  1.00  0.00     0.048 C 
HETATM    7  C3  UNL     1      -0.251   4.994  13.761  1.00  0.00     0.048 C 
BRANCH   5   8
HETATM    8  C4  UNL     1      -0.000   5.075  11.278  1.00  0.00     0.045 C 
BRANCH   8   9
HETATM    9  C5  UNL     1       1.090   6.158  11.290  1.00  0.00     0.041 C 
BRANCH   9  10
HETATM   10  C6  UNL     1       1.380   6.651   9.891  1.00  0.00    -0.058 A 
HETATM   11  C7  UNL     1       2.328   6.001   9.089  1.00  0.00     0.007 A 
HETATM   12  C8  UNL     1       2.576   6.441   7.788  1.00  0.00     0.001 A 
HETATM   13  C9  UNL     1       1.871   7.527   7.274  1.00  0.00     0.000 A 
HETATM   14  C10 UNL     1       0.921   8.176   8.061  1.00  0.00     0.001 A 
HETATM   15  C11 UNL     1       0.677   7.742   9.364  1.00  0.00     0.007 A 
ENDBRANCH   9  10
ENDBRANCH   8   9
ENDBRANCH   5   8
ENDBRANCH   3   5
ENDBRANCH   2   3
ENDBRANCH   1   2
BRANCH   1  16
HETATM   16  O1  UNL     1      -3.651   1.795  11.465  1.00  0.00    -0.389 OA
HETATM   17  H20 UNL     1      -3.041   1.857  12.218  1.00  0.00     0.210 HD
ENDBRANCH   1  16
BRANCH   1  18
HETATM   18  C14 UNL     1      -5.035   3.645  12.065  1.00  0.00    -0.027 A 
HETATM   19  C15 UNL     1      -6.213   2.890  12.228  1.00  0.00     0.012 A 
HETATM   20  C16 UNL     1      -7.226   3.306  13.095  1.00  0.00     0.031 A 
HETATM   21  C17 UNL     1      -7.065   4.480  13.827  1.00  0.00     0.041 A 
HETATM   22  C18 UNL     1      -5.914   5.255  13.677  1.00  0.00    -0.030 A 
HETATM   23  N2  UNL     1      -8.073   4.896  14.702  1.00  0.00    -0.327 N 
HETATM   24  C19 UNL     1      -4.909   4.841  12.791  1.00  0.00     0.019 A 
HETATM   25  C20 UNL     1      -5.827   6.577  14.387  1.00  0.00     0.050 C 
HETATM   26  C21 UNL     1      -6.562   6.537  15.716  1.00  0.00     0.108 C 
HETATM   27  C22 UNL     1      -7.939   5.925  15.592  1.00  0.00     0.222 C 
HETATM   28  O2  UNL     1      -8.872   6.261  16.315  1.00  0.00    -0.273 OA
HETATM   29  H28 UNL     1      -8.959   4.409  14.723  1.00  0.00     0.169 HD
ENDBRANCH   1  18
TORSDOF 8
ENDMDL
MODEL 4
REMARK minimizedAffinity -8.3616581
REMARK  8 active torsions:
REMARK  status: ('A' for Active; 'I' for Inactive)
REMARK    1  A    between atoms: C2_2  and  C4_4 
REMARK    2  A    between atoms: C2_2  and  N1_12 
REMARK    3  A    between atoms: C4_4  and  C5_5 
REMARK    4  A    between atoms: C5_5  and  C6_6 
REMARK    5  A    between atoms: N1_12  and  C12_13 
REMARK    6  A    between atoms: C12_13  and  C13_14 
REMARK    7  A    between atoms: C13_14  and  O1_15 
REMARK    8  A    between atoms: C13_14  and  C14_16 
ROOT
HETATM    1  C13 UNL     1      -0.753   4.718  11.464  1.00  0.00     0.179 C 
ENDROOT
BRANCH   1   2
HETATM    2  C12 UNL     1      -0.195   6.041  12.055  1.00  0.00     0.306 C 
BRANCH   2   3
HETATM    3  N1  UNL     1       1.273   6.006  12.141  1.00  0.00     0.095 N 
HETATM    4  H16 UNL     1       1.553   5.232  12.748  1.00  0.00     0.317 HD
BRANCH   3   5
HETATM    5  C2  UNL     1       1.937   7.252  12.559  1.00  0.00     0.151 C 
HETATM    6  C1  UNL     1       1.136   8.505  12.162  1.00  0.00     0.048 C 
HETATM    7  C3  UNL     1       2.148   7.256  14.091  1.00  0.00     0.048 C 
BRANCH   5   8
HETATM    8  C4  UNL     1       3.346   7.285  11.901  1.00  0.00     0.045 C 
BRANCH   8   9
HETATM    9  C5  UNL     1       3.586   6.224  10.814  1.00  0.00     0.041 C 
BRANCH   9  10
HETATM   10  C6  UNL     1       3.138   6.725   9.460  1.00  0.00    -0.058 A 
HETATM   11  C7  UNL     1       3.207   8.090   9.148  1.00  0.00     0.007 A 
HETATM   12  C8  UNL     1       2.818   8.549   7.889  1.00  0.00     0.001 A 
HETATM   13  C9  UNL     1       2.367   7.646   6.927  1.00  0.00     0.000 A 
HETATM   14  C10 UNL     1       2.302   6.287   7.226  1.00  0.00     0.001 A 
HETATM   15  C11 UNL     1       2.683   5.827   8.487  1.00  0.00     0.007 A 
ENDBRANCH   9  10
ENDBRANCH   8   9
ENDBRANCH   5   8
ENDBRANCH   3   5
ENDBRANCH   2   3
ENDBRANCH   1   2
BRANCH   1  16
HETATM   16  O1  UNL     1       0.079   3.628  11.895  1.00  0.00    -0.389 OA
HETATM   17  H20 UNL     1       0.199   3.726  12.854  1.00  0.00     0.210 HD
ENDBRANCH   1  16
BRANCH   1  18
HETATM   18  C14 UNL     1      -2.189   4.368  11.812  1.00  0.00    -0.027 A 
HETATM   19  C15 UNL     1      -2.941   5.298  12.557  1.00  0.00     0.012 A 
HETATM   20  C16 UNL     1      -4.260   5.032  12.928  1.00  0.00     0.031 A 
HETATM   21  C17 UNL     1      -4.854   3.834  12.543  1.00  0.00     0.041 A 
HETATM   22  C18 UNL     1      -4.131   2.887  11.814  1.00  0.00    -0.030 A 
HETATM   23  N2  UNL     1      -6.178   3.567  12.905  1.00  0.00    -0.327 N 
HETATM   24  C19 UNL     1      -2.800   3.154  11.461  1.00  0.00     0.019 A 
HETATM   25  C20 UNL     1      -4.761   1.555  11.521  1.00  0.00     0.050 C 
HETATM   26  C21 UNL     1      -6.263   1.685  11.337  1.00  0.00     0.108 C 
HETATM   27  C22 UNL     1      -6.905   2.511  12.429  1.00  0.00     0.222 C 
HETATM   28  O2  UNL     1      -8.056   2.314  12.808  1.00  0.00    -0.273 OA
HETATM   29  H28 UNL     1      -6.666   4.188  13.536  1.00  0.00     0.169 HD
ENDBRANCH   1  18
TORSDOF 8
ENDMDL
MODEL 5
REMARK minimizedAffinity -8.27823162
REMARK  8 active torsions:
REMARK  status: ('A' for Active; 'I' for Inactive)
REMARK    1  A    between atoms: C2_2  and  C4_4 
REMARK    2  A    between atoms: C2_2  and  N1_12 
REMARK    3  A    between atoms: C4_4  and  C5_5 
REMARK    4  A    between atoms: C5_5  and  C6_6 
REMARK    5  A    between atoms: N1_12  and  C12_13 
REMARK    6  A    between atoms: C12_13  and  C13_14 
REMARK    7  A    between atoms: C13_14  and  O1_15 
REMARK    8  A    between atoms: C13_14  and  C14_16 
ROOT
HETATM    1  C13 UNL     1      -1.597   7.975  12.273  1.00  0.00     0.179 C 
ENDROOT
BRANCH   1   2
HETATM    2  C12 UNL     1      -1.679   8.125  13.816  1.00  0.00     0.306 C 
BRANCH   2   3
HETATM    3  N1  UNL     1      -1.997   6.840  14.458  1.00  0.00     0.095 N 
HETATM    4  H16 UNL     1      -1.349   6.127  14.114  1.00  0.00     0.317 HD
BRANCH   3   5
HETATM    5  C2  UNL     1      -3.388   6.372  14.337  1.00  0.00     0.151 C 
HETATM    6  C1  UNL     1      -4.112   6.332  15.695  1.00  0.00     0.048 C 
HETATM    7  C3  UNL     1      -4.178   7.289  13.375  1.00  0.00     0.048 C 
BRANCH   5   8
HETATM    8  C4  UNL     1      -3.359   4.953  13.703  1.00  0.00     0.045 C 
BRANCH   8   9
HETATM    9  C5  UNL     1      -4.094   4.821  12.359  1.00  0.00     0.041 C 
BRANCH   9  10
HETATM   10  C6  UNL     1      -5.257   3.863  12.470  1.00  0.00    -0.058 A 
HETATM   11  C7  UNL     1      -6.296   4.107  13.378  1.00  0.00     0.007 A 
HETATM   12  C8  UNL     1      -7.383   3.236  13.462  1.00  0.00     0.001 A 
HETATM   13  C9  UNL     1      -7.446   2.118  12.632  1.00  0.00     0.000 A 
HETATM   14  C10 UNL     1      -6.420   1.870  11.721  1.00  0.00     0.001 A 
HETATM   15  C11 UNL     1      -5.330   2.736  11.641  1.00  0.00     0.007 A 
ENDBRANCH   9  10
ENDBRANCH   8   9
ENDBRANCH   5   8
ENDBRANCH   3   5
ENDBRANCH   2   3
ENDBRANCH   1   2
BRANCH   1  16
HETATM   16  O1  UNL     1      -1.550   9.284  11.680  1.00  0.00    -0.389 OA
HETATM   17  H20 UNL     1      -0.874   9.789  12.161  1.00  0.00     0.210 HD
ENDBRANCH   1  16
BRANCH   1  18
HETATM   18  C14 UNL     1      -0.425   7.179  11.726  1.00  0.00    -0.027 A 
HETATM   19  C15 UNL     1      -0.036   6.010  12.409  1.00  0.00     0.012 A 
HETATM   20  C16 UNL     1       1.045   5.241  11.973  1.00  0.00     0.031 A 
HETATM   21  C17 UNL     1       1.745   5.624  10.832  1.00  0.00     0.041 A 
HETATM   22  C18 UNL     1       1.390   6.785  10.141  1.00  0.00    -0.030 A 
HETATM   23  N2  UNL     1       2.823   4.853  10.387  1.00  0.00    -0.327 N 
HETATM   24  C19 UNL     1       0.315   7.562  10.596  1.00  0.00     0.019 A 
HETATM   25  C20 UNL     1       2.242   7.236   8.987  1.00  0.00     0.050 C 
HETATM   26  C21 UNL     1       2.840   6.051   8.249  1.00  0.00     0.108 C 
HETATM   27  C22 UNL     1       3.455   5.039   9.189  1.00  0.00     0.222 C 
HETATM   28  O2  UNL     1       4.416   4.346   8.867  1.00  0.00    -0.273 OA
HETATM   29  H28 UNL     1       3.162   4.084  10.949  1.00  0.00     0.169 HD
ENDBRANCH   1  18
TORSDOF 8
ENDMDL
MODEL 6
REMARK minimizedAffinity -8.18683147
REMARK  8 active torsions:
REMARK  status: ('A' for Active; 'I' for Inactive)
REMARK    1  A    between atoms: C2_2  and  C4_4 
REMARK    2  A    between atoms: C2_2  and  N1_12 
REMARK    3  A    between atoms: C4_4  and  C5_5 
REMARK    4  A    between atoms: C5_5  and  C6_6 
REMARK    5  A    between atoms: N1_12  and  C12_13 
REMARK    6  A    between atoms: C12_13  and  C13_14 
REMARK    7  A    between atoms: C13_14  and  O1_15 
REMARK    8  A    between atoms: C13_14  and  C14_16 
ROOT
HETATM    1  C13 UNL     1      -1.147   8.550  12.851  1.00  0.00     0.179 C 
ENDROOT
BRANCH   1   2
HETATM    2  C12 UNL     1      -0.199   8.077  11.716  1.00  0.00     0.306 C 
BRANCH   2   3
HETATM    3  N1  UNL     1       1.203   8.397  12.028  1.00  0.00     0.095 N 
HETATM    4  H16 UNL     1       1.644   8.802  11.199  1.00  0.00     0.317 HD
BRANCH   3   5
HETATM    5  C2  UNL     1       2.025   7.298  12.562  1.00  0.00     0.151 C 
HETATM    6  C1  UNL     1       2.195   7.383  14.089  1.00  0.00     0.048 C 
HETATM    7  C3  UNL     1       1.391   5.935  12.204  1.00  0.00     0.048 C 
BRANCH   5   8
HETATM    8  C4  UNL     1       3.413   7.359  11.863  1.00  0.00     0.045 C 
BRANCH   8   9
HETATM    9  C5  UNL     1       3.659   6.277  10.799  1.00  0.00     0.041 C 
BRANCH   9  10
HETATM   10  C6  UNL     1       3.177   6.733   9.441  1.00  0.00    -0.058 A 
HETATM   11  C7  UNL     1       3.156   8.096   9.114  1.00  0.00     0.007 A 
HETATM   12  C8  UNL     1       2.735   8.515   7.851  1.00  0.00     0.001 A 
HETATM   13  C9  UNL     1       2.342   7.574   6.901  1.00  0.00     0.000 A 
HETATM   14  C10 UNL     1       2.365   6.217   7.214  1.00  0.00     0.001 A 
HETATM   15  C11 UNL     1       2.779   5.797   8.479  1.00  0.00     0.007 A 
ENDBRANCH   9  10
ENDBRANCH   8   9
ENDBRANCH   5   8
ENDBRANCH   3   5
ENDBRANCH   2   3
ENDBRANCH   1   2
BRANCH   1  16
HETATM   16  O1  UNL     1      -1.438   9.945  12.664  1.00  0.00    -0.389 OA
HETATM   17  H20 UNL     1      -1.690  10.059  11.733  1.00  0.00     0.210 HD
ENDBRANCH   1  16
BRANCH   1  18
HETATM   18  C14 UNL     1      -2.470   7.817  12.984  1.00  0.00    -0.027 A 
HETATM   19  C15 UNL     1      -3.633   8.576  13.225  1.00  0.00     0.012 A 
HETATM   20  C16 UNL     1      -4.879   7.965  13.377  1.00  0.00     0.031 A 
HETATM   21  C17 UNL     1      -4.983   6.581  13.273  1.00  0.00     0.041 A 
HETATM   22  C18 UNL     1      -3.847   5.800  13.047  1.00  0.00    -0.030 A 
HETATM   23  N2  UNL     1      -6.230   5.965  13.416  1.00  0.00    -0.327 N 
HETATM   24  C19 UNL     1      -2.596   6.420  12.913  1.00  0.00     0.019 A 
HETATM   25  C20 UNL     1      -3.975   4.303  13.063  1.00  0.00     0.050 C 
HETATM   26  C21 UNL     1      -5.331   3.861  12.539  1.00  0.00     0.108 C 
HETATM   27  C22 UNL     1      -6.467   4.644  13.155  1.00  0.00     0.222 C 
HETATM   28  O2  UNL     1      -7.580   4.156  13.328  1.00  0.00    -0.273 OA
HETATM   29  H28 UNL     1      -7.033   6.508  13.703  1.00  0.00     0.169 HD
ENDBRANCH   1  18
TORSDOF 8
ENDMDL
MODEL 7
REMARK minimizedAffinity -8.11232185
REMARK  8 active torsions:
REMARK  status: ('A' for Active; 'I' for Inactive)
REMARK    1  A    between atoms: C2_2  and  C4_4 
REMARK    2  A    between atoms: C2_2  and  N1_12 
REMARK    3  A    between atoms: C4_4  and  C5_5 
REMARK    4  A    between atoms: C5_5  and  C6_6 
REMARK    5  A    between atoms: N1_12  and  C12_13 
REMARK    6  A    between atoms: C12_13  and  C13_14 
REMARK    7  A    between atoms: C13_14  and  O1_15 
REMARK    8  A    between atoms: C13_14  and  C14_16 
ROOT
HETATM    1  C13 UNL     1      -1.182   5.204  12.227  1.00  0.00     0.179 C 
ENDROOT
BRANCH   1   2
HETATM    2  C12 UNL     1      -0.548   5.514  13.611  1.00  0.00     0.306 C 
BRANCH   2   3
HETATM    3  N1  UNL     1       0.886   5.817  13.481  1.00  0.00     0.095 N 
HETATM    4  H16 UNL     1       1.408   5.251  14.155  1.00  0.00     0.317 HD
BRANCH   3   5
HETATM    5  C2  UNL     1       1.272   7.234  13.592  1.00  0.00     0.151 C 
HETATM    6  C1  UNL     1       0.081   8.138  13.958  1.00  0.00     0.048 C 
HETATM    7  C3  UNL     1       2.377   7.403  14.660  1.00  0.00     0.048 C 
BRANCH   5   8
HETATM    8  C4  UNL     1       1.878   7.670  12.228  1.00  0.00     0.045 C 
BRANCH   8   9
HETATM    9  C5  UNL     1       2.402   6.524  11.348  1.00  0.00     0.041 C 
BRANCH   9  10
HETATM   10  C6  UNL     1       2.149   6.806   9.885  1.00  0.00    -0.058 A 
HETATM   11  C7  UNL     1       1.340   7.884   9.497  1.00  0.00     0.007 A 
HETATM   12  C8  UNL     1       1.127   8.159   8.146  1.00  0.00     0.001 A 
HETATM   13  C9  UNL     1       1.729   7.367   7.170  1.00  0.00     0.000 A 
HETATM   14  C10 UNL     1       2.540   6.297   7.545  1.00  0.00     0.001 A 
HETATM   15  C11 UNL     1       2.748   6.016   8.896  1.00  0.00     0.007 A 
ENDBRANCH   9  10
ENDBRANCH   8   9
ENDBRANCH   5   8
ENDBRANCH   3   5
ENDBRANCH   2   3
ENDBRANCH   1   2
BRANCH   1  16
HETATM   16  O1  UNL     1      -0.322   4.301  11.513  1.00  0.00    -0.389 OA
HETATM   17  H20 UNL     1      -0.099   3.580  12.125  1.00  0.00     0.210 HD
ENDBRANCH   1  16
BRANCH   1  18
HETATM   18  C14 UNL     1      -2.577   4.605  12.236  1.00  0.00    -0.027 A 
HETATM   19  C15 UNL     1      -2.791   3.404  11.529  1.00  0.00     0.012 A 
HETATM   20  C16 UNL     1      -4.053   2.808  11.479  1.00  0.00     0.031 A 
HETATM   21  C17 UNL     1      -5.119   3.398  12.152  1.00  0.00     0.041 A 
HETATM   22  C18 UNL     1      -4.940   4.594  12.851  1.00  0.00    -0.030 A 
HETATM   23  N2  UNL     1      -6.383   2.800  12.112  1.00  0.00    -0.327 N 
HETATM   24  C19 UNL     1      -3.674   5.197  12.881  1.00  0.00     0.019 A 
HETATM   25  C20 UNL     1      -6.136   5.268  13.462  1.00  0.00     0.050 C 
HETATM   26  C21 UNL     1      -7.164   4.250  13.926  1.00  0.00     0.108 C 
HETATM   27  C22 UNL     1      -7.443   3.197  12.878  1.00  0.00     0.222 C 
HETATM   28  O2  UNL     1      -8.537   2.649  12.775  1.00  0.00    -0.273 OA
HETATM   29  H28 UNL     1      -6.548   2.006  11.508  1.00  0.00     0.169 HD
ENDBRANCH   1  18
TORSDOF 8
ENDMDL
MODEL 8
REMARK minimizedAffinity -8.07022381
REMARK  8 active torsions:
REMARK  status: ('A' for Active; 'I' for Inactive)
REMARK    1  A    between atoms: C2_2  and  C4_4 
REMARK    2  A    between atoms: C2_2  and  N1_12 
REMARK    3  A    between atoms: C4_4  and  C5_5 
REMARK    4  A    between atoms: C5_5  and  C6_6 
REMARK    5  A    between atoms: N1_12  and  C12_13 
REMARK    6  A    between atoms: C12_13  and  C13_14 
REMARK    7  A    between atoms: C13_14  and  O1_15 
REMARK    8  A    between atoms: C13_14  and  C14_16 
ROOT
HETATM    1  C13 UNL     1      -2.735   7.810  13.829  1.00  0.00     0.179 C 
ENDROOT
BRANCH   1   2
HETATM    2  C12 UNL     1      -1.247   7.427  14.052  1.00  0.00     0.306 C 
BRANCH   2   3
HETATM    3  N1  UNL     1      -0.481   7.523  12.800  1.00  0.00     0.095 N 
HETATM    4  H16 UNL     1      -1.067   7.200  12.026  1.00  0.00     0.317 HD
BRANCH   3   5
HETATM    5  C2  UNL     1       0.825   6.843  12.775  1.00  0.00     0.151 C 
HETATM    6  C1  UNL     1       1.526   6.868  14.145  1.00  0.00     0.048 C 
HETATM    7  C3  UNL     1       0.653   5.374  12.327  1.00  0.00     0.048 C 
BRANCH   5   8
HETATM    8  C4  UNL     1       1.708   7.550  11.707  1.00  0.00     0.045 C 
BRANCH   8   9
HETATM    9  C5  UNL     1       0.952   8.086  10.481  1.00  0.00     0.041 C 
BRANCH   9  10
HETATM   10  C6  UNL     1       1.485   7.474   9.206  1.00  0.00    -0.058 A 
HETATM   11  C7  UNL     1       2.362   6.382   9.253  1.00  0.00     0.007 A 
HETATM   12  C8  UNL     1       2.834   5.802   8.075  1.00  0.00     0.001 A 
HETATM   13  C9  UNL     1       2.424   6.301   6.840  1.00  0.00     0.000 A 
HETATM   14  C10 UNL     1       1.547   7.382   6.783  1.00  0.00     0.001 A 
HETATM   15  C11 UNL     1       1.080   7.968   7.960  1.00  0.00     0.007 A 
ENDBRANCH   9  10
ENDBRANCH   8   9
ENDBRANCH   5   8
ENDBRANCH   3   5
ENDBRANCH   2   3
ENDBRANCH   1   2
BRANCH   1  16
HETATM   16  O1  UNL     1      -2.821   8.712  12.713  1.00  0.00    -0.389 OA
HETATM   17  H20 UNL     1      -2.301   8.321  11.992  1.00  0.00     0.210 HD
ENDBRANCH   1  16
BRANCH   1  18
HETATM   18  C14 UNL     1      -3.703   6.668  13.574  1.00  0.00    -0.027 A 
HETATM   19  C15 UNL     1      -3.172   5.384  13.341  1.00  0.00     0.012 A 
HETATM   20  C16 UNL     1      -4.004   4.292  13.080  1.00  0.00     0.031 A 
HETATM   21  C17 UNL     1      -5.385   4.469  13.067  1.00  0.00     0.041 A 
HETATM   22  C18 UNL     1      -5.940   5.732  13.283  1.00  0.00    -0.030 A 
HETATM   23  N2  UNL     1      -6.222   3.377  12.815  1.00  0.00    -0.327 N 
HETATM   24  C19 UNL     1      -5.097   6.827  13.526  1.00  0.00     0.019 A 
HETATM   25  C20 UNL     1      -7.425   5.911  13.140  1.00  0.00     0.050 C 
HETATM   26  C21 UNL     1      -8.174   4.658  13.561  1.00  0.00     0.108 C 
HETATM   27  C22 UNL     1      -7.582   3.405  12.957  1.00  0.00     0.222 C 
HETATM   28  O2  UNL     1      -8.265   2.420  12.692  1.00  0.00    -0.273 OA
HETATM   29  H28 UNL     1      -5.826   2.490  12.535  1.00  0.00     0.169 HD
ENDBRANCH   1  18
TORSDOF 8
ENDMDL
MODEL 9
REMARK minimizedAffinity -7.9757638
REMARK  8 active torsions:
REMARK  status: ('A' for Active; 'I' for Inactive)
REMARK    1  A    between atoms: C2_2  and  C4_4 
REMARK    2  A    between atoms: C2_2  and  N1_12 
REMARK    3  A    between atoms: C4_4  and  C5_5 
REMARK    4  A    between atoms: C5_5  and  C6_6 
REMARK    5  A    between atoms: N1_12  and  C12_13 
REMARK    6  A    between atoms: C12_13  and  C13_14 
REMARK    7  A    between atoms: C13_14  and  O1_15 
REMARK    8  A    between atoms: C13_14  and  C14_16 
ROOT
HETATM    1  C13 UNL     1      -7.733   4.009  13.339  1.00  0.00     0.179 C 
ENDROOT
BRANCH   1   2
HETATM    2  C12 UNL     1      -8.144   5.460  12.969  1.00  0.00     0.306 C 
BRANCH   2   3
HETATM    3  N1  UNL     1      -8.977   6.060  14.023  1.00  0.00     0.095 N 
HETATM    4  H16 UNL     1      -9.730   6.596  13.587  1.00  0.00     0.317 HD
BRANCH   3   5
HETATM    5  C2  UNL     1      -8.277   6.880  15.027  1.00  0.00     0.151 C 
HETATM    6  C1  UNL     1      -7.772   6.044  16.217  1.00  0.00     0.048 C 
HETATM    7  C3  UNL     1      -7.076   7.606  14.379  1.00  0.00     0.048 C 
BRANCH   5   8
HETATM    8  C4  UNL     1      -9.266   7.974  15.520  1.00  0.00     0.045 C 
BRANCH   8   9
HETATM    9  C5  UNL     1      -8.791   9.423  15.325  1.00  0.00     0.041 C 
BRANCH   9  10
HETATM   10  C6  UNL     1      -9.904  10.402  15.620  1.00  0.00    -0.058 A 
HETATM   11  C7  UNL     1     -10.575  10.367  16.850  1.00  0.00     0.007 A 
HETATM   12  C8  UNL     1     -11.585  11.287  17.132  1.00  0.00     0.001 A 
HETATM   13  C9  UNL     1     -11.927  12.257  16.191  1.00  0.00     0.000 A 
HETATM   14  C10 UNL     1     -11.261  12.304  14.967  1.00  0.00     0.001 A 
HETATM   15  C11 UNL     1     -10.256  11.379  14.682  1.00  0.00     0.007 A 
ENDBRANCH   9  10
ENDBRANCH   8   9
ENDBRANCH   5   8
ENDBRANCH   3   5
ENDBRANCH   2   3
ENDBRANCH   1   2
BRANCH   1  16
HETATM   16  O1  UNL     1      -8.783   3.112  12.943  1.00  0.00    -0.389 OA
HETATM   17  H20 UNL     1      -9.018   3.339  12.028  1.00  0.00     0.210 HD
ENDBRANCH   1  16
BRANCH   1  18
HETATM   18  C14 UNL     1      -6.436   3.494  12.739  1.00  0.00    -0.027 A 
HETATM   19  C15 UNL     1      -6.474   2.297  11.996  1.00  0.00     0.012 A 
HETATM   20  C16 UNL     1      -5.315   1.757  11.434  1.00  0.00     0.031 A 
HETATM   21  C17 UNL     1      -4.101   2.419  11.593  1.00  0.00     0.041 A 
HETATM   22  C18 UNL     1      -4.030   3.600  12.333  1.00  0.00    -0.030 A 
HETATM   23  N2  UNL     1      -2.940   1.886  11.024  1.00  0.00    -0.327 N 
HETATM   24  C19 UNL     1      -5.194   4.127  12.911  1.00  0.00     0.019 A 
HETATM   25  C20 UNL     1      -2.686   4.222  12.589  1.00  0.00     0.050 C 
HETATM   26  C21 UNL     1      -1.739   3.984  11.425  1.00  0.00     0.108 C 
HETATM   27  C22 UNL     1      -1.742   2.543  10.968  1.00  0.00     0.222 C 
HETATM   28  O2  UNL     1      -0.750   2.009  10.481  1.00  0.00    -0.273 OA
HETATM   29  H28 UNL     1      -2.960   0.970  10.595  1.00  0.00     0.169 HD
ENDBRANCH   1  18
TORSDOF 8
ENDMDL
