MODEL 1
REMARK minimizedAffinity -9.29852962
REMARK  5 active torsions:
REMARK  status: ('A' for Active; 'I' for Inactive)
REMARK    1  A    between atoms: C2_2  and  C3_3 
REMARK    2  A    between atoms: C4_5  and  C5_6 
REMARK    3  A    between atoms: C5_6  and  C6_7 
REMARK    4  A    between atoms: C6_7  and  C7_8 
REMARK    5  A    between atoms: C7_8  and  C9_10 
ROOT
HETATM    1  C9  UNL     1      -0.687  49.791 -18.386  1.00  0.00    -0.002 C 
HETATM    2  C10 UNL     1      -1.566  48.576 -18.005  1.00  0.00     0.007 C 
HETATM    3  C11 UNL     1      -2.570  48.377 -19.166  1.00  0.00     0.015 C 
HETATM    4  C12 UNL     1      -2.019  49.231 -20.330  1.00  0.00    -0.005 C 
HETATM    5  C13 UNL     1      -0.925  48.380 -21.047  1.00  0.00     0.021 C 
HETATM    6  C14 UNL     1      -2.924  49.705 -21.458  1.00  0.00    -0.000 C 
HETATM    7  C15 UNL     1      -2.682  50.865 -22.123  1.00  0.00    -0.060 C 
HETATM    8  C16 UNL     1      -1.532  51.794 -21.684  1.00  0.00     0.036 C 
HETATM    9  C17 UNL     1      -0.690  51.365 -20.464  1.00  0.00     0.015 C 
HETATM   10  C18 UNL     1      -1.501  50.481 -19.515  1.00  0.00    -0.028 C 
HETATM   11  C19 UNL     1      -2.670  51.330 -18.931  1.00  0.00     0.016 C 
HETATM   12  C20 UNL     1      -3.540  51.361 -23.314  1.00  0.00    -0.014 C 
HETATM   13  C21 UNL     1      -4.430  52.523 -22.789  1.00  0.00     0.020 C 
HETATM   14  C22 UNL     1      -2.632  51.922 -24.449  1.00  0.00     0.021 C 
HETATM   15  C23 UNL     1      -3.279  51.845 -25.820  1.00  0.00     0.080 C 
HETATM   16  C24 UNL     1      -3.464  50.394 -26.199  1.00  0.00     0.135 C 
HETATM   17  O2  UNL     1      -3.282  50.032 -27.362  1.00  0.00    -0.297 OA
HETATM   18  C25 UNL     1      -3.895  49.416 -25.089  1.00  0.00     0.018 C 
HETATM   19  C26 UNL     1      -4.973  48.493 -25.702  1.00  0.00     0.023 C 
HETATM   20  C27 UNL     1      -2.679  48.550 -24.731  1.00  0.00     0.023 C 
HETATM   21  C28 UNL     1      -4.495  50.249 -23.897  1.00  0.00     0.020 C 
HETATM   22  C29 UNL     1      -5.114  49.423 -22.766  1.00  0.00     0.090 C 
HETATM   23  C30 UNL     1      -4.077  48.841 -21.849  1.00  0.00     0.157 C 
HETATM   24  O3  UNL     1      -4.205  47.702 -21.407  1.00  0.00    -0.293 OA
ENDROOT
BRANCH   1  25
HETATM   25  C7  UNL     1      -0.023  50.600 -17.239  1.00  0.00    -0.014 C 
HETATM   26  C8  UNL     1      -1.057  50.856 -16.125  1.00  0.00     0.010 C 
BRANCH  25  27
HETATM   27  C6  UNL     1       0.765  51.898 -17.517  1.00  0.00     0.008 C 
BRANCH  27  28
HETATM   28  C5  UNL     1       1.299  52.681 -16.315  1.00  0.00     0.028 C 
BRANCH  28  29
HETATM   29  C4  UNL     1       1.965  51.757 -15.332  1.00  0.00    -0.017 C 
HETATM   30  C2  UNL     1       3.285  51.541 -15.180  1.00  0.00    -0.028 C 
HETATM   31  C1  UNL     1       4.399  52.202 -15.928  1.00  0.00     0.051 C 
BRANCH  30  32
HETATM   32  C3  UNL     1       3.716  50.554 -14.142  1.00  0.00     0.265 C 
HETATM   33  O1  UNL     1       4.827  50.041 -14.103  1.00  0.00    -0.302 OA
ENDBRANCH  30  32
ENDBRANCH  28  29
ENDBRANCH  27  28
ENDBRANCH  25  27
ENDBRANCH   1  25
TORSDOF 5
ENDMDL
MODEL 2
REMARK minimizedAffinity -9.20007896
REMARK  5 active torsions:
REMARK  status: ('A' for Active; 'I' for Inactive)
REMARK    1  A    between atoms: C2_2  and  C3_3 
REMARK    2  A    between atoms: C4_5  and  C5_6 
REMARK    3  A    between atoms: C5_6  and  C6_7 
REMARK    4  A    between atoms: C6_7  and  C7_8 
REMARK    5  A    between atoms: C7_8  and  C9_10 
ROOT
HETATM    1  C9  UNL     1      -0.044  51.127 -21.443  1.00  0.00    -0.002 C 
HETATM    2  C10 UNL     1      -0.126  51.166 -19.899  1.00  0.00     0.007 C 
HETATM    3  C11 UNL     1      -1.480  50.525 -19.513  1.00  0.00     0.015 C 
HETATM    4  C12 UNL     1      -1.972  49.814 -20.793  1.00  0.00    -0.005 C 
HETATM    5  C13 UNL     1      -1.262  48.426 -20.851  1.00  0.00     0.021 C 
HETATM    6  C14 UNL     1      -3.445  49.489 -20.998  1.00  0.00    -0.000 C 
HETATM    7  C15 UNL     1      -3.995  49.436 -22.240  1.00  0.00    -0.060 C 
HETATM    8  C16 UNL     1      -3.159  49.806 -23.482  1.00  0.00     0.036 C 
HETATM    9  C17 UNL     1      -1.698  50.249 -23.258  1.00  0.00     0.015 C 
HETATM   10  C18 UNL     1      -1.515  50.873 -21.873  1.00  0.00    -0.028 C 
HETATM   11  C19 UNL     1      -2.357  52.182 -21.809  1.00  0.00     0.016 C 
HETATM   12  C20 UNL     1      -5.472  49.055 -22.504  1.00  0.00    -0.014 C 
HETATM   13  C21 UNL     1      -6.231  50.365 -22.856  1.00  0.00     0.020 C 
HETATM   14  C22 UNL     1      -5.582  48.091 -23.724  1.00  0.00     0.021 C 
HETATM   15  C23 UNL     1      -6.818  47.211 -23.676  1.00  0.00     0.080 C 
HETATM   16  C24 UNL     1      -6.713  46.276 -22.494  1.00  0.00     0.135 C 
HETATM   17  O2  UNL     1      -7.106  45.112 -22.591  1.00  0.00    -0.297 OA
HETATM   18  C25 UNL     1      -6.119  46.839 -21.188  1.00  0.00     0.018 C 
HETATM   19  C26 UNL     1      -6.999  46.308 -20.033  1.00  0.00     0.023 C 
HETATM   20  C27 UNL     1      -4.711  46.249 -21.021  1.00  0.00     0.023 C 
HETATM   21  C28 UNL     1      -6.181  48.410 -21.252  1.00  0.00     0.020 C 
HETATM   22  C29 UNL     1      -5.768  49.134 -19.967  1.00  0.00     0.090 C 
HETATM   23  C30 UNL     1      -4.277  49.190 -19.795  1.00  0.00     0.157 C 
HETATM   24  O3  UNL     1      -3.770  49.035 -18.687  1.00  0.00    -0.293 OA
ENDROOT
BRANCH   1  25
HETATM   25  C7  UNL     1       0.849  52.179 -22.155  1.00  0.00    -0.014 C 
HETATM   26  C8  UNL     1       1.360  53.203 -21.121  1.00  0.00     0.010 C 
BRANCH  25  27
HETATM   27  C6  UNL     1       0.372  52.922 -23.422  1.00  0.00     0.008 C 
BRANCH  27  28
HETATM   28  C5  UNL     1       0.697  52.297 -24.781  1.00  0.00     0.028 C 
BRANCH  28  29
HETATM   29  C4  UNL     1       0.090  53.105 -25.896  1.00  0.00    -0.017 C 
HETATM   30  C2  UNL     1       0.254  52.921 -27.219  1.00  0.00    -0.028 C 
HETATM   31  C1  UNL     1       1.046  51.844 -27.889  1.00  0.00     0.051 C 
BRANCH  30  32
HETATM   32  C3  UNL     1      -0.439  53.869 -28.146  1.00  0.00     0.265 C 
HETATM   33  O1  UNL     1      -1.642  54.094 -28.124  1.00  0.00    -0.302 OA
ENDBRANCH  30  32
ENDBRANCH  28  29
ENDBRANCH  27  28
ENDBRANCH  25  27
ENDBRANCH   1  25
TORSDOF 5
ENDMDL
MODEL 3
REMARK minimizedAffinity -8.96933079
REMARK  5 active torsions:
REMARK  status: ('A' for Active; 'I' for Inactive)
REMARK    1  A    between atoms: C2_2  and  C3_3 
REMARK    2  A    between atoms: C4_5  and  C5_6 
REMARK    3  A    between atoms: C5_6  and  C6_7 
REMARK    4  A    between atoms: C6_7  and  C7_8 
REMARK    5  A    between atoms: C7_8  and  C9_10 
ROOT
HETATM    1  C9  UNL     1      -1.278  50.788 -24.613  1.00  0.00    -0.002 C 
HETATM    2  C10 UNL     1      -1.019  51.889 -23.557  1.00  0.00     0.007 C 
HETATM    3  C11 UNL     1      -2.093  51.705 -22.457  1.00  0.00     0.015 C 
HETATM    4  C12 UNL     1      -2.701  50.308 -22.713  1.00  0.00    -0.005 C 
HETATM    5  C13 UNL     1      -1.752  49.264 -22.047  1.00  0.00     0.021 C 
HETATM    6  C14 UNL     1      -4.083  49.942 -22.192  1.00  0.00    -0.000 C 
HETATM    7  C15 UNL     1      -4.873  49.046 -22.841  1.00  0.00    -0.060 C 
HETATM    8  C16 UNL     1      -4.429  48.444 -24.189  1.00  0.00     0.036 C 
HETATM    9  C17 UNL     1      -3.078  48.908 -24.772  1.00  0.00     0.015 C 
HETATM   10  C18 UNL     1      -2.723  50.317 -24.293  1.00  0.00    -0.028 C 
HETATM   11  C19 UNL     1      -3.780  51.310 -24.862  1.00  0.00     0.016 C 
HETATM   12  C20 UNL     1      -6.262  48.599 -22.321  1.00  0.00    -0.014 C 
HETATM   13  C21 UNL     1      -7.332  49.304 -23.201  1.00  0.00     0.020 C 
HETATM   14  C22 UNL     1      -6.440  47.060 -22.484  1.00  0.00     0.021 C 
HETATM   15  C23 UNL     1      -7.427  46.468 -21.493  1.00  0.00     0.080 C 
HETATM   16  C24 UNL     1      -6.872  46.615 -20.096  1.00  0.00     0.135 C 
HETATM   17  O2  UNL     1      -7.029  45.712 -19.271  1.00  0.00    -0.297 OA
HETATM   18  C25 UNL     1      -6.130  47.922 -19.755  1.00  0.00     0.018 C 
HETATM   19  C26 UNL     1      -6.602  48.348 -18.346  1.00  0.00     0.023 C 
HETATM   20  C27 UNL     1      -4.631  47.603 -19.676  1.00  0.00     0.023 C 
HETATM   21  C28 UNL     1      -6.525  49.009 -20.822  1.00  0.00     0.020 C 
HETATM   22  C29 UNL     1      -5.995  50.419 -20.547  1.00  0.00     0.090 C 
HETATM   23  C30 UNL     1      -4.547  50.568 -20.918  1.00  0.00     0.157 C 
HETATM   24  O3  UNL     1      -3.785  51.221 -20.210  1.00  0.00    -0.293 OA
ENDROOT
BRANCH   1  25
HETATM   25  C7  UNL     1      -0.801  51.045 -26.068  1.00  0.00    -0.014 C 
HETATM   26  C8  UNL     1      -1.826  50.453 -27.056  1.00  0.00     0.010 C 
BRANCH  25  27
HETATM   27  C6  UNL     1       0.627  50.680 -26.528  1.00  0.00     0.008 C 
BRANCH  27  28
HETATM   28  C5  UNL     1       1.420  51.737 -27.301  1.00  0.00     0.028 C 
BRANCH  28  29
HETATM   29  C4  UNL     1       0.497  52.773 -27.884  1.00  0.00    -0.017 C 
HETATM   30  C2  UNL     1      -0.003  53.859 -27.267  1.00  0.00    -0.028 C 
HETATM   31  C1  UNL     1       0.275  54.311 -25.869  1.00  0.00     0.051 C 
BRANCH  30  32
HETATM   32  C3  UNL     1      -0.923  54.743 -28.048  1.00  0.00     0.265 C 
HETATM   33  O1  UNL     1      -2.054  54.424 -28.391  1.00  0.00    -0.302 OA
ENDBRANCH  30  32
ENDBRANCH  28  29
ENDBRANCH  27  28
ENDBRANCH  25  27
ENDBRANCH   1  25
TORSDOF 5
ENDMDL
MODEL 4
REMARK minimizedAffinity -8.72522163
REMARK  5 active torsions:
REMARK  status: ('A' for Active; 'I' for Inactive)
REMARK    1  A    between atoms: C2_2  and  C3_3 
REMARK    2  A    between atoms: C4_5  and  C5_6 
REMARK    3  A    between atoms: C5_6  and  C6_7 
REMARK    4  A    between atoms: C6_7  and  C7_8 
REMARK    5  A    between atoms: C7_8  and  C9_10 
ROOT
HETATM    1  C9  UNL     1      -1.932  50.275 -23.617  1.00  0.00    -0.002 C 
HETATM    2  C10 UNL     1      -1.557  51.743 -23.303  1.00  0.00     0.007 C 
HETATM    3  C11 UNL     1      -1.640  51.899 -21.765  1.00  0.00     0.015 C 
HETATM    4  C12 UNL     1      -1.701  50.458 -21.213  1.00  0.00    -0.005 C 
HETATM    5  C13 UNL     1      -0.234  49.930 -21.141  1.00  0.00     0.021 C 
HETATM    6  C14 UNL     1      -2.271  50.166 -19.832  1.00  0.00    -0.000 C 
HETATM    7  C15 UNL     1      -2.878  48.982 -19.550  1.00  0.00    -0.060 C 
HETATM    8  C16 UNL     1      -3.098  47.932 -20.657  1.00  0.00     0.036 C 
HETATM    9  C17 UNL     1      -2.623  48.283 -22.083  1.00  0.00     0.015 C 
HETATM   10  C18 UNL     1      -2.623  49.795 -22.311  1.00  0.00    -0.028 C 
HETATM   11  C19 UNL     1      -4.094  50.303 -22.231  1.00  0.00     0.016 C 
HETATM   12  C20 UNL     1      -3.423  48.616 -18.148  1.00  0.00    -0.014 C 
HETATM   13  C21 UNL     1      -4.972  48.733 -18.209  1.00  0.00     0.020 C 
HETATM   14  C22 UNL     1      -3.063  47.144 -17.786  1.00  0.00     0.021 C 
HETATM   15  C23 UNL     1      -2.992  46.900 -16.289  1.00  0.00     0.080 C 
HETATM   16  C24 UNL     1      -1.844  47.697 -15.713  1.00  0.00     0.135 C 
HETATM   17  O2  UNL     1      -1.146  47.216 -14.819  1.00  0.00    -0.297 OA
HETATM   18  C25 UNL     1      -1.604  49.112 -16.275  1.00  0.00     0.018 C 
HETATM   19  C26 UNL     1      -1.303  50.026 -15.065  1.00  0.00     0.023 C 
HETATM   20  C27 UNL     1      -0.346  49.060 -17.154  1.00  0.00     0.023 C 
HETATM   21  C28 UNL     1      -2.913  49.583 -17.011  1.00  0.00     0.020 C 
HETATM   22  C29 UNL     1      -2.903  51.034 -17.501  1.00  0.00     0.090 C 
HETATM   23  C30 UNL     1      -2.117  51.203 -18.770  1.00  0.00     0.157 C 
HETATM   24  O3  UNL     1      -1.405  52.190 -18.935  1.00  0.00    -0.293 OA
ENDROOT
BRANCH   1  25
HETATM   25  C7  UNL     1      -2.514  49.954 -25.020  1.00  0.00    -0.014 C 
HETATM   26  C8  UNL     1      -3.146  48.547 -25.004  1.00  0.00     0.010 C 
BRANCH  25  27
HETATM   27  C6  UNL     1      -1.674  50.127 -26.304  1.00  0.00     0.008 C 
BRANCH  27  28
HETATM   28  C5  UNL     1      -2.249  50.999 -27.421  1.00  0.00     0.028 C 
BRANCH  28  29
HETATM   29  C4  UNL     1      -1.711  52.402 -27.332  1.00  0.00    -0.017 C 
HETATM   30  C2  UNL     1      -0.472  52.821 -27.647  1.00  0.00    -0.028 C 
HETATM   31  C1  UNL     1       0.648  51.997 -28.198  1.00  0.00     0.051 C 
BRANCH  30  32
HETATM   32  C3  UNL     1      -0.157  54.271 -27.456  1.00  0.00     0.265 C 
HETATM   33  O1  UNL     1       0.155  54.770 -26.383  1.00  0.00    -0.302 OA
ENDBRANCH  30  32
ENDBRANCH  28  29
ENDBRANCH  27  28
ENDBRANCH  25  27
ENDBRANCH   1  25
TORSDOF 5
ENDMDL
MODEL 5
REMARK minimizedAffinity -8.65281487
REMARK  5 active torsions:
REMARK  status: ('A' for Active; 'I' for Inactive)
REMARK    1  A    between atoms: C2_2  and  C3_3 
REMARK    2  A    between atoms: C4_5  and  C5_6 
REMARK    3  A    between atoms: C5_6  and  C6_7 
REMARK    4  A    between atoms: C6_7  and  C7_8 
REMARK    5  A    between atoms: C7_8  and  C9_10 
ROOT
HETATM    1  C9  UNL     1      -0.547  50.588 -21.675  1.00  0.00    -0.002 C 
HETATM    2  C10 UNL     1      -0.252  50.515 -20.158  1.00  0.00     0.007 C 
HETATM    3  C11 UNL     1      -1.404  49.698 -19.524  1.00  0.00     0.015 C 
HETATM    4  C12 UNL     1      -2.124  49.022 -20.712  1.00  0.00    -0.005 C 
HETATM    5  C13 UNL     1      -1.321  47.732 -21.064  1.00  0.00     0.021 C 
HETATM    6  C14 UNL     1      -3.565  48.546 -20.593  1.00  0.00    -0.000 C 
HETATM    7  C15 UNL     1      -4.394  48.513 -21.669  1.00  0.00    -0.060 C 
HETATM    8  C16 UNL     1      -3.926  49.058 -23.034  1.00  0.00     0.036 C 
HETATM    9  C17 UNL     1      -2.504  49.649 -23.121  1.00  0.00     0.015 C 
HETATM   10  C18 UNL     1      -2.048  50.196 -21.767  1.00  0.00    -0.028 C 
HETATM   11  C19 UNL     1      -2.969  51.394 -21.385  1.00  0.00     0.016 C 
HETATM   12  C20 UNL     1      -5.848  47.984 -21.611  1.00  0.00    -0.014 C 
HETATM   13  C21 UNL     1      -6.791  49.219 -21.650  1.00  0.00     0.020 C 
HETATM   14  C22 UNL     1      -6.161  47.097 -22.854  1.00  0.00     0.021 C 
HETATM   15  C23 UNL     1      -7.258  46.080 -22.597  1.00  0.00     0.080 C 
HETATM   16  C24 UNL     1      -6.780  45.087 -21.564  1.00  0.00     0.135 C 
HETATM   17  O2  UNL     1      -7.072  43.895 -21.673  1.00  0.00    -0.297 OA
HETATM   18  C25 UNL     1      -5.940  45.626 -20.390  1.00  0.00     0.018 C 
HETATM   19  C26 UNL     1      -6.456  44.921 -19.114  1.00  0.00     0.023 C 
HETATM   20  C27 UNL     1      -4.485  45.190 -20.615  1.00  0.00     0.023 C 
HETATM   21  C28 UNL     1      -6.164  47.180 -20.291  1.00  0.00     0.020 C 
HETATM   22  C29 UNL     1      -5.521  47.859 -19.079  1.00  0.00     0.090 C 
HETATM   23  C30 UNL     1      -4.045  48.074 -19.260  1.00  0.00     0.157 C 
HETATM   24  O3  UNL     1      -3.270  47.904 -18.323  1.00  0.00    -0.293 OA
ENDROOT
BRANCH   1  25
HETATM   25  C7  UNL     1       0.041  51.781 -22.477  1.00  0.00    -0.014 C 
HETATM   26  C8  UNL     1       0.376  52.934 -21.510  1.00  0.00     0.010 C 
BRANCH  25  27
HETATM   27  C6  UNL     1      -0.671  52.346 -23.725  1.00  0.00     0.008 C 
BRANCH  27  28
HETATM   28  C5  UNL     1      -0.844  51.418 -24.930  1.00  0.00     0.028 C 
BRANCH  28  29
HETATM   29  C4  UNL     1       0.425  51.349 -25.735  1.00  0.00    -0.017 C 
HETATM   30  C2  UNL     1       0.732  52.058 -26.837  1.00  0.00    -0.028 C 
HETATM   31  C1  UNL     1      -0.103  53.110 -27.495  1.00  0.00     0.051 C 
BRANCH  30  32
HETATM   32  C3  UNL     1       2.057  51.804 -27.483  1.00  0.00     0.265 C 
HETATM   33  O1  UNL     1       3.013  51.297 -26.912  1.00  0.00    -0.302 OA
ENDBRANCH  30  32
ENDBRANCH  28  29
ENDBRANCH  27  28
ENDBRANCH  25  27
ENDBRANCH   1  25
TORSDOF 5
ENDMDL
MODEL 6
REMARK minimizedAffinity -8.62700462
REMARK  5 active torsions:
REMARK  status: ('A' for Active; 'I' for Inactive)
REMARK    1  A    between atoms: C2_2  and  C3_3 
REMARK    2  A    between atoms: C4_5  and  C5_6 
REMARK    3  A    between atoms: C5_6  and  C6_7 
REMARK    4  A    between atoms: C6_7  and  C7_8 
REMARK    5  A    between atoms: C7_8  and  C9_10 
ROOT
HETATM    1  C9  UNL     1      -0.501  52.801 -21.356  1.00  0.00    -0.002 C 
HETATM    2  C10 UNL     1       0.017  52.746 -22.812  1.00  0.00     0.007 C 
HETATM    3  C11 UNL     1      -0.846  51.693 -23.548  1.00  0.00     0.015 C 
HETATM    4  C12 UNL     1      -2.054  51.438 -22.619  1.00  0.00    -0.005 C 
HETATM    5  C13 UNL     1      -3.092  52.570 -22.893  1.00  0.00     0.021 C 
HETATM    6  C14 UNL     1      -2.866  50.154 -22.715  1.00  0.00    -0.000 C 
HETATM    7  C15 UNL     1      -3.492  49.626 -21.630  1.00  0.00    -0.060 C 
HETATM    8  C16 UNL     1      -3.313  50.262 -20.237  1.00  0.00     0.036 C 
HETATM    9  C17 UNL     1      -2.393  51.495 -20.125  1.00  0.00     0.015 C 
HETATM   10  C18 UNL     1      -1.324  51.491 -21.219  1.00  0.00    -0.028 C 
HETATM   11  C19 UNL     1      -0.394  50.261 -20.992  1.00  0.00     0.016 C 
HETATM   12  C20 UNL     1      -4.375  48.355 -21.689  1.00  0.00    -0.014 C 
HETATM   13  C21 UNL     1      -3.556  47.194 -21.059  1.00  0.00     0.020 C 
HETATM   14  C22 UNL     1      -5.670  48.547 -20.844  1.00  0.00     0.021 C 
HETATM   15  C23 UNL     1      -6.822  47.678 -21.317  1.00  0.00     0.080 C 
HETATM   16  C24 UNL     1      -7.235  48.115 -22.703  1.00  0.00     0.135 C 
HETATM   17  O2  UNL     1      -8.427  48.131 -23.015  1.00  0.00    -0.297 OA
HETATM   18  C25 UNL     1      -6.119  48.516 -23.687  1.00  0.00     0.018 C 
HETATM   19  C26 UNL     1      -6.484  47.890 -25.053  1.00  0.00     0.023 C 
HETATM   20  C27 UNL     1      -6.157  50.043 -23.841  1.00  0.00     0.023 C 
HETATM   21  C28 UNL     1      -4.757  47.931 -23.159  1.00  0.00     0.020 C 
HETATM   22  C29 UNL     1      -3.560  48.107 -24.099  1.00  0.00     0.090 C 
HETATM   23  C30 UNL     1      -2.994  49.497 -24.050  1.00  0.00     0.157 C 
HETATM   24  O3  UNL     1      -2.612  50.051 -25.077  1.00  0.00    -0.293 OA
ENDROOT
BRANCH   1  25
HETATM   25  C7  UNL     1       0.479  53.275 -20.249  1.00  0.00    -0.014 C 
HETATM   26  C8  UNL     1       1.845  53.610 -20.882  1.00  0.00     0.010 C 
BRANCH  25  27
HETATM   27  C6  UNL     1       0.697  52.458 -18.957  1.00  0.00     0.008 C 
BRANCH  27  28
HETATM   28  C5  UNL     1       1.784  52.929 -17.989  1.00  0.00     0.028 C 
BRANCH  28  29
HETATM   29  C4  UNL     1       1.639  52.250 -16.654  1.00  0.00    -0.017 C 
HETATM   30  C2  UNL     1       2.614  51.977 -15.767  1.00  0.00    -0.028 C 
HETATM   31  C1  UNL     1       4.064  52.324 -15.885  1.00  0.00     0.051 C 
BRANCH  30  32
HETATM   32  C3  UNL     1       2.231  51.271 -14.505  1.00  0.00     0.265 C 
HETATM   33  O1  UNL     1       1.737  51.825 -13.532  1.00  0.00    -0.302 OA
ENDBRANCH  30  32
ENDBRANCH  28  29
ENDBRANCH  27  28
ENDBRANCH  25  27
ENDBRANCH   1  25
TORSDOF 5
ENDMDL
MODEL 7
REMARK minimizedAffinity -8.46374416
REMARK  5 active torsions:
REMARK  status: ('A' for Active; 'I' for Inactive)
REMARK    1  A    between atoms: C2_2  and  C3_3 
REMARK    2  A    between atoms: C4_5  and  C5_6 
REMARK    3  A    between atoms: C5_6  and  C6_7 
REMARK    4  A    between atoms: C6_7  and  C7_8 
REMARK    5  A    between atoms: C7_8  and  C9_10 
ROOT
HETATM    1  C9  UNL     1      -1.254  51.365 -22.733  1.00  0.00    -0.002 C 
HETATM    2  C10 UNL     1      -1.414  50.735 -24.137  1.00  0.00     0.007 C 
HETATM    3  C11 UNL     1      -2.595  49.740 -24.041  1.00  0.00     0.015 C 
HETATM    4  C12 UNL     1      -3.309  50.083 -22.714  1.00  0.00    -0.005 C 
HETATM    5  C13 UNL     1      -4.263  51.283 -23.001  1.00  0.00     0.021 C 
HETATM    6  C14 UNL     1      -4.191  49.064 -22.006  1.00  0.00    -0.000 C 
HETATM    7  C15 UNL     1      -4.336  49.067 -20.655  1.00  0.00    -0.060 C 
HETATM    8  C16 UNL     1      -3.526  50.047 -19.782  1.00  0.00     0.036 C 
HETATM    9  C17 UNL     1      -2.543  50.999 -20.497  1.00  0.00     0.015 C 
HETATM   10  C18 UNL     1      -2.049  50.398 -21.813  1.00  0.00    -0.028 C 
HETATM   11  C19 UNL     1      -1.220  49.119 -21.489  1.00  0.00     0.016 C 
HETATM   12  C20 UNL     1      -5.266  48.089 -19.894  1.00  0.00    -0.014 C 
HETATM   13  C21 UNL     1      -4.358  47.025 -19.214  1.00  0.00     0.020 C 
HETATM   14  C22 UNL     1      -6.054  48.837 -18.778  1.00  0.00     0.021 C 
HETATM   15  C23 UNL     1      -7.367  48.161 -18.424  1.00  0.00     0.080 C 
HETATM   16  C24 UNL     1      -8.293  48.226 -19.616  1.00  0.00     0.135 C 
HETATM   17  O2  UNL     1      -9.498  48.425 -19.452  1.00  0.00    -0.297 OA
HETATM   18  C25 UNL     1      -7.674  48.022 -21.013  1.00  0.00     0.018 C 
HETATM   19  C26 UNL     1      -8.640  47.105 -21.798  1.00  0.00     0.023 C 
HETATM   20  C27 UNL     1      -7.643  49.387 -21.715  1.00  0.00     0.023 C 
HETATM   21  C28 UNL     1      -6.273  47.328 -20.839  1.00  0.00     0.020 C 
HETATM   22  C29 UNL     1      -5.582  46.912 -22.141  1.00  0.00     0.090 C 
HETATM   23  C30 UNL     1      -4.932  48.071 -22.839  1.00  0.00     0.157 C 
HETATM   24  O3  UNL     1      -4.978  48.168 -24.063  1.00  0.00    -0.293 OA
ENDROOT
BRANCH   1  25
HETATM   25  C7  UNL     1       0.142  51.917 -22.334  1.00  0.00    -0.014 C 
HETATM   26  C8  UNL     1       0.263  51.943 -20.797  1.00  0.00     0.010 C 
BRANCH  25  27
HETATM   27  C6  UNL     1       0.686  53.239 -22.917  1.00  0.00     0.008 C 
BRANCH  27  28
HETATM   28  C5  UNL     1       0.356  53.567 -24.374  1.00  0.00     0.028 C 
BRANCH  28  29
HETATM   29  C4  UNL     1       1.140  52.685 -25.309  1.00  0.00    -0.017 C 
HETATM   30  C2  UNL     1       0.849  52.391 -26.589  1.00  0.00    -0.028 C 
HETATM   31  C1  UNL     1      -0.301  52.906 -27.395  1.00  0.00     0.051 C 
BRANCH  30  32
HETATM   32  C3  UNL     1       1.772  51.469 -27.320  1.00  0.00     0.265 C 
HETATM   33  O1  UNL     1       2.977  51.400 -27.116  1.00  0.00    -0.302 OA
ENDBRANCH  30  32
ENDBRANCH  28  29
ENDBRANCH  27  28
ENDBRANCH  25  27
ENDBRANCH   1  25
TORSDOF 5
ENDMDL
MODEL 8
REMARK minimizedAffinity -8.42501736
REMARK  5 active torsions:
REMARK  status: ('A' for Active; 'I' for Inactive)
REMARK    1  A    between atoms: C2_2  and  C3_3 
REMARK    2  A    between atoms: C4_5  and  C5_6 
REMARK    3  A    between atoms: C5_6  and  C6_7 
REMARK    4  A    between atoms: C6_7  and  C7_8 
REMARK    5  A    between atoms: C7_8  and  C9_10 
ROOT
HETATM    1  C9  UNL     1      -1.634  51.780 -23.631  1.00  0.00    -0.002 C 
HETATM    2  C10 UNL     1      -1.710  50.952 -24.935  1.00  0.00     0.007 C 
HETATM    3  C11 UNL     1      -2.779  49.858 -24.701  1.00  0.00     0.015 C 
HETATM    4  C12 UNL     1      -3.539  50.298 -23.429  1.00  0.00    -0.005 C 
HETATM    5  C13 UNL     1      -4.613  51.339 -23.873  1.00  0.00     0.021 C 
HETATM    6  C14 UNL     1      -4.315  49.296 -22.587  1.00  0.00    -0.000 C 
HETATM    7  C15 UNL     1      -4.474  49.466 -21.248  1.00  0.00    -0.060 C 
HETATM    8  C16 UNL     1      -3.783  50.636 -20.520  1.00  0.00     0.036 C 
HETATM    9  C17 UNL     1      -2.900  51.582 -21.360  1.00  0.00     0.015 C 
HETATM   10  C18 UNL     1      -2.330  50.866 -22.585  1.00  0.00    -0.028 C 
HETATM   11  C19 UNL     1      -1.373  49.739 -22.094  1.00  0.00     0.016 C 
HETATM   12  C20 UNL     1      -5.302  48.505 -20.358  1.00  0.00    -0.014 C 
HETATM   13  C21 UNL     1      -4.293  47.647 -19.544  1.00  0.00     0.020 C 
HETATM   14  C22 UNL     1      -6.178  49.308 -19.350  1.00  0.00     0.021 C 
HETATM   15  C23 UNL     1      -7.415  48.549 -18.903  1.00  0.00     0.080 C 
HETATM   16  C24 UNL     1      -8.329  48.352 -20.090  1.00  0.00     0.135 C 
HETATM   17  O2  UNL     1      -9.550  48.441 -19.949  1.00  0.00    -0.297 OA
HETATM   18  C25 UNL     1      -7.677  48.029 -21.449  1.00  0.00     0.018 C 
HETATM   19  C26 UNL     1      -8.531  46.915 -22.098  1.00  0.00     0.023 C 
HETATM   20  C27 UNL     1      -7.784  49.282 -22.329  1.00  0.00     0.023 C 
HETATM   21  C28 UNL     1      -6.212  47.520 -21.187  1.00  0.00     0.020 C 
HETATM   22  C29 UNL     1      -5.466  47.008 -22.423  1.00  0.00     0.090 C 
HETATM   23  C30 UNL     1      -4.936  48.125 -23.275  1.00  0.00     0.157 C 
HETATM   24  O3  UNL     1      -4.980  48.051 -24.500  1.00  0.00    -0.293 OA
ENDROOT
BRANCH   1  25
HETATM   25  C7  UNL     1      -0.309  52.527 -23.316  1.00  0.00    -0.014 C 
HETATM   26  C8  UNL     1       0.706  52.271 -24.447  1.00  0.00     0.010 C 
BRANCH  25  27
HETATM   27  C6  UNL     1       0.396  52.383 -21.950  1.00  0.00     0.008 C 
BRANCH  27  28
HETATM   28  C5  UNL     1       1.121  53.608 -21.388  1.00  0.00     0.028 C 
BRANCH  28  29
HETATM   29  C4  UNL     1       1.434  53.418 -19.928  1.00  0.00    -0.017 C 
HETATM   30  C2  UNL     1       0.787  52.627 -19.052  1.00  0.00    -0.028 C 
HETATM   31  C1  UNL     1      -0.368  51.721 -19.335  1.00  0.00     0.051 C 
BRANCH  30  32
HETATM   32  C3  UNL     1       1.270  52.614 -17.636  1.00  0.00     0.265 C 
HETATM   33  O1  UNL     1       1.005  51.733 -16.829  1.00  0.00    -0.302 OA
ENDBRANCH  30  32
ENDBRANCH  28  29
ENDBRANCH  27  28
ENDBRANCH  25  27
ENDBRANCH   1  25
TORSDOF 5
ENDMDL
MODEL 9
REMARK minimizedAffinity -8.41796303
REMARK  5 active torsions:
REMARK  status: ('A' for Active; 'I' for Inactive)
REMARK    1  A    between atoms: C2_2  and  C3_3 
REMARK    2  A    between atoms: C4_5  and  C5_6 
REMARK    3  A    between atoms: C5_6  and  C6_7 
REMARK    4  A    between atoms: C6_7  and  C7_8 
REMARK    5  A    between atoms: C7_8  and  C9_10 
ROOT
HETATM    1  C9  UNL     1      -1.317  50.050 -21.836  1.00  0.00    -0.002 C 
HETATM    2  C10 UNL     1      -1.472  50.049 -20.297  1.00  0.00     0.007 C 
HETATM    3  C11 UNL     1      -2.854  49.422 -19.994  1.00  0.00     0.015 C 
HETATM    4  C12 UNL     1      -3.296  48.754 -21.315  1.00  0.00    -0.005 C 
HETATM    5  C13 UNL     1      -2.607  47.356 -21.378  1.00  0.00     0.021 C 
HETATM    6  C14 UNL     1      -4.762  48.462 -21.599  1.00  0.00    -0.000 C 
HETATM    7  C15 UNL     1      -5.253  48.452 -22.867  1.00  0.00    -0.060 C 
HETATM    8  C16 UNL     1      -4.352  48.841 -24.057  1.00  0.00     0.036 C 
HETATM    9  C17 UNL     1      -2.897  49.251 -23.751  1.00  0.00     0.015 C 
HETATM   10  C18 UNL     1      -2.770  49.834 -22.342  1.00  0.00    -0.028 C 
HETATM   11  C19 UNL     1      -3.592  51.156 -22.282  1.00  0.00     0.016 C 
HETATM   12  C20 UNL     1      -6.722  48.105 -23.211  1.00  0.00    -0.014 C 
HETATM   13  C21 UNL     1      -7.441  49.438 -23.562  1.00  0.00     0.020 C 
HETATM   14  C22 UNL     1      -6.789  47.177 -24.461  1.00  0.00     0.021 C 
HETATM   15  C23 UNL     1      -8.040  46.318 -24.497  1.00  0.00     0.080 C 
HETATM   16  C24 UNL     1      -8.009  45.350 -23.338  1.00  0.00     0.135 C 
HETATM   17  O2  UNL     1      -8.416  44.196 -23.486  1.00  0.00    -0.297 OA
HETATM   18  C25 UNL     1      -7.468  45.867 -21.990  1.00  0.00     0.018 C 
HETATM   19  C26 UNL     1      -8.411  45.320 -20.893  1.00  0.00     0.023 C 
HETATM   20  C27 UNL     1      -6.080  45.247 -21.773  1.00  0.00     0.023 C 
HETATM   21  C28 UNL     1      -7.500  47.439 -22.012  1.00  0.00     0.020 C 
HETATM   22  C29 UNL     1      -7.138  48.121 -20.690  1.00  0.00     0.090 C 
HETATM   23  C30 UNL     1      -5.657  48.145 -20.446  1.00  0.00     0.157 C 
HETATM   24  O3  UNL     1      -5.206  47.951 -19.320  1.00  0.00    -0.293 OA
ENDROOT
BRANCH   1  25
HETATM   25  C7  UNL     1      -0.373  51.105 -22.475  1.00  0.00    -0.014 C 
HETATM   26  C8  UNL     1      -0.261  52.326 -21.540  1.00  0.00     0.010 C 
BRANCH  25  27
HETATM   27  C6  UNL     1      -0.565  51.586 -23.929  1.00  0.00     0.008 C 
BRANCH  27  28
HETATM   28  C5  UNL     1       0.426  52.616 -24.477  1.00  0.00     0.028 C 
BRANCH  28  29
HETATM   29  C4  UNL     1      -0.131  53.292 -25.700  1.00  0.00    -0.017 C 
HETATM   30  C2  UNL     1       0.092  52.964 -26.986  1.00  0.00    -0.028 C 
HETATM   31  C1  UNL     1       0.915  51.825 -27.498  1.00  0.00     0.051 C 
BRANCH  30  32
HETATM   32  C3  UNL     1      -0.559  53.800 -28.042  1.00  0.00     0.265 C 
HETATM   33  O1  UNL     1      -1.730  54.155 -28.010  1.00  0.00    -0.302 OA
ENDBRANCH  30  32
ENDBRANCH  28  29
ENDBRANCH  27  28
ENDBRANCH  25  27
ENDBRANCH   1  25
TORSDOF 5
ENDMDL
