MODEL 1
REMARK minimizedAffinity -8.27972317
REMARK  10 active torsions:
REMARK  status: ('A' for Active; 'I' for Inactive)
REMARK    1  A    between atoms: C5_5  and  C6_6 
REMARK    2  A    between atoms: C6_6  and  C8_8 
REMARK    3  A    between atoms: C8_8  and  O1_9 
REMARK    4  A    between atoms: C15_17  and  O3_18 
REMARK    5  A    between atoms: C18_21  and  O4_23 
REMARK    6  A    between atoms: O4_23  and  C20_24 
REMARK    7  A    between atoms: C20_24  and  C21_26 
REMARK    8  A    between atoms: C21_26  and  C22_27 
REMARK    9  A    between atoms: C21_26  and  O6_29 
REMARK   10  A    between atoms: O6_29  and  C24_30 
ROOT
HETATM    1  C1  UNL     1      -5.973   0.901  11.308  1.00  0.00     0.015 C 
HETATM    2  C2  UNL     1      -5.574   2.182  11.248  1.00  0.00    -0.082 C 
HETATM    3  C3  UNL     1      -5.247   2.830   9.930  1.00  0.00     0.034 C 
HETATM    4  C4  UNL     1      -4.319   4.037  10.055  1.00  0.00     0.010 C 
HETATM    5  C5  UNL     1      -3.310   3.976  11.218  1.00  0.00    -0.001 C 
HETATM    6  C9  UNL     1      -3.995   3.734  12.596  1.00  0.00     0.033 C 
HETATM    7  C10 UNL     1      -4.465   4.976  13.365  1.00  0.00     0.162 C 
HETATM    8  O2  UNL     1      -5.618   5.357  12.603  1.00  0.00    -0.376 OA
HETATM    9  C11 UNL     1      -6.436   4.182  12.576  1.00  0.00     0.134 C 
HETATM   10  C12 UNL     1      -7.305   4.204  13.860  1.00  0.00     0.068 C 
HETATM   11  C13 UNL     1      -7.821   5.605  14.184  1.00  0.00    -0.059 C 
HETATM   12  C14 UNL     1      -8.800   6.143  13.430  1.00  0.00     0.017 C 
HETATM   13  C15 UNL     1      -7.256   6.367  15.374  1.00  0.00     0.146 C 
HETATM   14  C16 UNL     1      -5.733   6.523  15.600  1.00  0.00     0.039 C 
HETATM   15  C17 UNL     1      -4.902   7.182  14.471  1.00  0.00     0.044 C 
HETATM   16  C18 UNL     1      -3.769   6.266  13.840  1.00  0.00     0.093 C 
HETATM   17  C19 UNL     1      -3.082   7.100  12.755  1.00  0.00     0.049 C 
HETATM   18  C26 UNL     1      -5.400   3.022  12.490  1.00  0.00     0.050 C 
ENDROOT
BRANCH  16  19
HETATM   19  O4  UNL     1      -2.872   6.022  14.959  1.00  0.00    -0.306 OA
BRANCH  19  20
HETATM   20  C20 UNL     1      -2.210   7.037  15.567  1.00  0.00     0.289 C 
HETATM   21  O5  UNL     1      -2.719   7.855  16.320  1.00  0.00    -0.262 OA
BRANCH  20  22
HETATM   22  C21 UNL     1      -0.740   7.083  15.125  1.00  0.00     0.231 C 
BRANCH  22  23
HETATM   23  C22 UNL     1      -0.346   5.725  14.528  1.00  0.00     0.038 C 
HETATM   24  C23 UNL     1       0.823   5.801  13.551  1.00  0.00     0.008 C 
ENDBRANCH  22  23
BRANCH  22  25
HETATM   25  O6  UNL     1       0.201   7.405  16.157  1.00  0.00    -0.306 OA
BRANCH  25  26
HETATM   26  C24 UNL     1       0.636   8.694  16.149  1.00  0.00     0.255 C 
HETATM   27  C25 UNL     1       0.581   9.248  14.759  1.00  0.00     0.126 C 
HETATM   28  O7  UNL     1       1.036   9.310  17.127  1.00  0.00    -0.266 OA
ENDBRANCH  25  26
ENDBRANCH  22  25
ENDBRANCH  20  22
ENDBRANCH  19  20
ENDBRANCH  16  19
BRANCH   5  29
HETATM   29  C6  UNL     1      -2.081   3.028  10.980  1.00  0.00     0.010 C 
HETATM   30  C7  UNL     1      -0.752   3.493  11.583  1.00  0.00     0.012 C 
BRANCH  29  31
HETATM   31  C8  UNL     1      -2.393   1.579  11.405  1.00  0.00     0.168 C 
BRANCH  31  32
HETATM   32  O1  UNL     1      -1.640   0.639  10.646  1.00  0.00    -0.400 OA
HETATM   33  H14 UNL     1      -0.707   0.736  10.894  1.00  0.00     0.209 HD
ENDBRANCH  31  32
ENDBRANCH  29  31
ENDBRANCH   5  29
BRANCH  13  34
HETATM   34  O3  UNL     1      -7.773   5.720  16.544  1.00  0.00    -0.391 OA
HETATM   35  H23 UNL     1      -8.729   5.615  16.402  1.00  0.00     0.210 HD
ENDBRANCH  13  34
TORSDOF 10
ENDMDL
MODEL 2
REMARK minimizedAffinity -8.20971775
REMARK  10 active torsions:
REMARK  status: ('A' for Active; 'I' for Inactive)
REMARK    1  A    between atoms: C5_5  and  C6_6 
REMARK    2  A    between atoms: C6_6  and  C8_8 
REMARK    3  A    between atoms: C8_8  and  O1_9 
REMARK    4  A    between atoms: C15_17  and  O3_18 
REMARK    5  A    between atoms: C18_21  and  O4_23 
REMARK    6  A    between atoms: O4_23  and  C20_24 
REMARK    7  A    between atoms: C20_24  and  C21_26 
REMARK    8  A    between atoms: C21_26  and  C22_27 
REMARK    9  A    between atoms: C21_26  and  O6_29 
REMARK   10  A    between atoms: O6_29  and  C24_30 
ROOT
HETATM    1  C1  UNL     1      -8.686   5.214  12.711  1.00  0.00     0.015 C 
HETATM    2  C2  UNL     1      -7.520   5.171  13.377  1.00  0.00    -0.082 C 
HETATM    3  C3  UNL     1      -7.489   5.030  14.875  1.00  0.00     0.034 C 
HETATM    4  C4  UNL     1      -6.197   5.537  15.511  1.00  0.00     0.010 C 
HETATM    5  C5  UNL     1      -5.517   6.710  14.778  1.00  0.00    -0.001 C 
HETATM    6  C9  UNL     1      -5.240   6.402  13.277  1.00  0.00     0.033 C 
HETATM    7  C10 UNL     1      -3.910   5.715  12.942  1.00  0.00     0.162 C 
HETATM    8  O2  UNL     1      -4.160   4.381  13.405  1.00  0.00    -0.376 OA
HETATM    9  C11 UNL     1      -5.358   3.984  12.729  1.00  0.00     0.134 C 
HETATM   10  C12 UNL     1      -4.932   3.403  11.355  1.00  0.00     0.068 C 
HETATM   11  C13 UNL     1      -3.675   2.541  11.457  1.00  0.00    -0.059 C 
HETATM   12  C14 UNL     1      -3.749   1.322  12.026  1.00  0.00     0.017 C 
HETATM   13  C15 UNL     1      -2.360   3.047  10.882  1.00  0.00     0.146 C 
HETATM   14  C16 UNL     1      -1.812   4.459  11.206  1.00  0.00     0.039 C 
HETATM   15  C17 UNL     1      -1.583   4.817  12.695  1.00  0.00     0.044 C 
HETATM   16  C18 UNL     1      -2.434   6.045  13.234  1.00  0.00     0.093 C 
HETATM   17  C19 UNL     1      -2.062   6.222  14.709  1.00  0.00     0.049 C 
HETATM   18  C26 UNL     1      -6.192   5.298  12.671  1.00  0.00     0.050 C 
ENDROOT
BRANCH  16  19
HETATM   19  O4  UNL     1      -1.956   7.163  12.436  1.00  0.00    -0.306 OA
BRANCH  19  20
HETATM   20  C20 UNL     1      -0.952   7.963  12.873  1.00  0.00     0.289 C 
HETATM   21  O5  UNL     1      -1.068   8.833  13.724  1.00  0.00    -0.262 OA
BRANCH  20  22
HETATM   22  C21 UNL     1       0.347   7.693  12.099  1.00  0.00     0.231 C 
BRANCH  22  23
HETATM   23  C22 UNL     1       1.534   7.725  13.073  1.00  0.00     0.038 C 
HETATM   24  C23 UNL     1       1.488   6.627  14.130  1.00  0.00     0.008 C 
ENDBRANCH  22  23
BRANCH  22  25
HETATM   25  O6  UNL     1       0.626   8.607  11.030  1.00  0.00    -0.306 OA
BRANCH  25  26
HETATM   26  C24 UNL     1       0.559   8.063   9.785  1.00  0.00     0.255 C 
HETATM   27  C25 UNL     1      -0.525   8.722   8.991  1.00  0.00     0.126 C 
HETATM   28  O7  UNL     1       1.265   7.152   9.375  1.00  0.00    -0.266 OA
ENDBRANCH  25  26
ENDBRANCH  22  25
ENDBRANCH  20  22
ENDBRANCH  19  20
ENDBRANCH  16  19
BRANCH   5  29
HETATM   29  C6  UNL     1      -6.198   8.109  14.992  1.00  0.00     0.010 C 
HETATM   30  C7  UNL     1      -7.438   8.117  15.890  1.00  0.00     0.012 C 
BRANCH  29  31
HETATM   31  C8  UNL     1      -5.180   9.169  15.458  1.00  0.00     0.168 C 
BRANCH  31  32
HETATM   32  O1  UNL     1      -4.139   8.587  16.235  1.00  0.00    -0.400 OA
HETATM   33  H14 UNL     1      -3.606   8.028  15.648  1.00  0.00     0.209 HD
ENDBRANCH  31  32
ENDBRANCH  29  31
ENDBRANCH   5  29
BRANCH  13  34
HETATM   34  O3  UNL     1      -2.496   2.984   9.457  1.00  0.00    -0.391 OA
HETATM   35  H23 UNL     1      -2.846   2.101   9.252  1.00  0.00     0.210 HD
ENDBRANCH  13  34
TORSDOF 10
ENDMDL
MODEL 3
REMARK minimizedAffinity -8.11575413
REMARK  10 active torsions:
REMARK  status: ('A' for Active; 'I' for Inactive)
REMARK    1  A    between atoms: C5_5  and  C6_6 
REMARK    2  A    between atoms: C6_6  and  C8_8 
REMARK    3  A    between atoms: C8_8  and  O1_9 
REMARK    4  A    between atoms: C15_17  and  O3_18 
REMARK    5  A    between atoms: C18_21  and  O4_23 
REMARK    6  A    between atoms: O4_23  and  C20_24 
REMARK    7  A    between atoms: C20_24  and  C21_26 
REMARK    8  A    between atoms: C21_26  and  C22_27 
REMARK    9  A    between atoms: C21_26  and  O6_29 
REMARK   10  A    between atoms: O6_29  and  C24_30 
ROOT
HETATM    1  C1  UNL     1      -3.478   1.190  11.777  1.00  0.00     0.015 C 
HETATM    2  C2  UNL     1      -3.550   2.528  11.683  1.00  0.00    -0.082 C 
HETATM    3  C3  UNL     1      -3.137   3.239  10.422  1.00  0.00     0.034 C 
HETATM    4  C4  UNL     1      -2.755   4.700  10.642  1.00  0.00     0.010 C 
HETATM    5  C5  UNL     1      -2.128   5.021  12.012  1.00  0.00    -0.001 C 
HETATM    6  C9  UNL     1      -3.020   4.560  13.203  1.00  0.00     0.033 C 
HETATM    7  C10 UNL     1      -4.076   5.553  13.705  1.00  0.00     0.162 C 
HETATM    8  O2  UNL     1      -5.048   5.482  12.653  1.00  0.00    -0.376 OA
HETATM    9  C11 UNL     1      -5.368   4.091  12.552  1.00  0.00     0.134 C 
HETATM   10  C12 UNL     1      -6.494   3.807  13.581  1.00  0.00     0.068 C 
HETATM   11  C13 UNL     1      -7.531   4.928  13.625  1.00  0.00    -0.059 C 
HETATM   12  C14 UNL     1      -8.403   5.068  12.607  1.00  0.00     0.017 C 
HETATM   13  C15 UNL     1      -7.598   5.854  14.831  1.00  0.00     0.146 C 
HETATM   14  C16 UNL     1      -6.340   6.554  15.399  1.00  0.00     0.039 C 
HETATM   15  C17 UNL     1      -5.527   7.460  14.440  1.00  0.00     0.044 C 
HETATM   16  C18 UNL     1      -4.023   7.011  14.198  1.00  0.00     0.093 C 
HETATM   17  C19 UNL     1      -3.412   8.028  13.229  1.00  0.00     0.049 C 
HETATM   18  C26 UNL     1      -4.009   3.385  12.837  1.00  0.00     0.050 C 
ENDROOT
BRANCH  16  19
HETATM   19  O4  UNL     1      -3.422   7.120  15.518  1.00  0.00    -0.306 OA
BRANCH  19  20
HETATM   20  C20 UNL     1      -2.100   7.374  15.672  1.00  0.00     0.289 C 
HETATM   21  O5  UNL     1      -1.195   6.661  15.262  1.00  0.00    -0.262 OA
BRANCH  20  22
HETATM   22  C21 UNL     1      -1.873   8.643  16.508  1.00  0.00     0.231 C 
BRANCH  22  23
HETATM   23  C22 UNL     1      -3.195   9.415  16.628  1.00  0.00     0.038 C 
HETATM   24  C23 UNL     1      -3.245  10.361  17.823  1.00  0.00     0.008 C 
ENDBRANCH  22  23
BRANCH  22  25
HETATM   25  O6  UNL     1      -0.878   9.543  16.001  1.00  0.00    -0.306 OA
BRANCH  25  26
HETATM   26  C24 UNL     1       0.293   9.544  16.693  1.00  0.00     0.255 C 
HETATM   27  C25 UNL     1       0.444  10.827  17.448  1.00  0.00     0.126 C 
HETATM   28  O7  UNL     1       1.117   8.640  16.686  1.00  0.00    -0.266 OA
ENDBRANCH  25  26
ENDBRANCH  22  25
ENDBRANCH  20  22
ENDBRANCH  19  20
ENDBRANCH  16  19
BRANCH   5  29
HETATM   29  C6  UNL     1      -0.630   4.581  12.175  1.00  0.00     0.010 C 
HETATM   30  C7  UNL     1      -0.302   3.151  11.734  1.00  0.00     0.012 C 
BRANCH  29  31
HETATM   31  C8  UNL     1       0.332   5.588  11.514  1.00  0.00     0.168 C 
BRANCH  31  32
HETATM   32  O1  UNL     1       1.218   4.944  10.605  1.00  0.00    -0.400 OA
HETATM   33  H14 UNL     1       0.693   4.628   9.852  1.00  0.00     0.209 HD
ENDBRANCH  31  32
ENDBRANCH  29  31
ENDBRANCH   5  29
BRANCH  13  34
HETATM   34  O3  UNL     1      -8.143   5.074  15.904  1.00  0.00    -0.391 OA
HETATM   35  H23 UNL     1      -8.930   4.628  15.547  1.00  0.00     0.210 HD
ENDBRANCH  13  34
TORSDOF 10
ENDMDL
MODEL 4
REMARK minimizedAffinity -8.07174301
REMARK  10 active torsions:
REMARK  status: ('A' for Active; 'I' for Inactive)
REMARK    1  A    between atoms: C5_5  and  C6_6 
REMARK    2  A    between atoms: C6_6  and  C8_8 
REMARK    3  A    between atoms: C8_8  and  O1_9 
REMARK    4  A    between atoms: C15_17  and  O3_18 
REMARK    5  A    between atoms: C18_21  and  O4_23 
REMARK    6  A    between atoms: O4_23  and  C20_24 
REMARK    7  A    between atoms: C20_24  and  C21_26 
REMARK    8  A    between atoms: C21_26  and  C22_27 
REMARK    9  A    between atoms: C21_26  and  O6_29 
REMARK   10  A    between atoms: O6_29  and  C24_30 
ROOT
HETATM    1  C1  UNL     1      -7.262   6.583  13.674  1.00  0.00     0.015 C 
HETATM    2  C2  UNL     1      -6.051   6.211  14.119  1.00  0.00    -0.082 C 
HETATM    3  C3  UNL     1      -5.800   5.984  15.585  1.00  0.00     0.034 C 
HETATM    4  C4  UNL     1      -4.331   6.113  15.981  1.00  0.00     0.010 C 
HETATM    5  C5  UNL     1      -3.508   7.115  15.149  1.00  0.00    -0.001 C 
HETATM    6  C9  UNL     1      -3.583   6.830  13.620  1.00  0.00     0.033 C 
HETATM    7  C10 UNL     1      -2.553   5.849  13.045  1.00  0.00     0.162 C 
HETATM    8  O2  UNL     1      -3.055   4.598  13.533  1.00  0.00    -0.376 OA
HETATM    9  C11 UNL     1      -4.413   4.554  13.081  1.00  0.00     0.134 C 
HETATM   10  C12 UNL     1      -4.395   3.961  11.647  1.00  0.00     0.068 C 
HETATM   11  C13 UNL     1      -3.405   2.806  11.513  1.00  0.00    -0.059 C 
HETATM   12  C14 UNL     1      -3.692   1.615  12.074  1.00  0.00     0.017 C 
HETATM   13  C15 UNL     1      -2.122   2.993  10.715  1.00  0.00     0.146 C 
HETATM   14  C16 UNL     1      -1.182   4.201  10.947  1.00  0.00     0.039 C 
HETATM   15  C17 UNL     1      -0.615   4.408  12.374  1.00  0.00     0.044 C 
HETATM   16  C18 UNL     1      -1.014   5.779  13.069  1.00  0.00     0.093 C 
HETATM   17  C19 UNL     1      -0.362   5.776  14.454  1.00  0.00     0.049 C 
HETATM   18  C26 UNL     1      -4.877   6.037  13.185  1.00  0.00     0.050 C 
ENDROOT
BRANCH  16  19
HETATM   19  O4  UNL     1      -0.408   6.782  12.207  1.00  0.00    -0.306 OA
BRANCH  19  20
HETATM   20  C20 UNL     1       0.937   6.935  12.141  1.00  0.00     0.289 C 
HETATM   21  O5  UNL     1       1.721   6.656  13.037  1.00  0.00    -0.262 OA
BRANCH  20  22
HETATM   22  C21 UNL     1       1.355   7.586  10.814  1.00  0.00     0.231 C 
BRANCH  22  23
HETATM   23  C22 UNL     1       0.260   7.350   9.765  1.00  0.00     0.038 C 
HETATM   24  C23 UNL     1       0.132   8.479   8.748  1.00  0.00     0.008 C 
ENDBRANCH  22  23
BRANCH  22  25
HETATM   25  O6  UNL     1       2.599   7.125  10.269  1.00  0.00    -0.306 OA
BRANCH  25  26
HETATM   26  C24 UNL     1       2.549   5.887   9.707  1.00  0.00     0.255 C 
HETATM   27  C25 UNL     1       2.813   5.978   8.236  1.00  0.00     0.126 C 
HETATM   28  O7  UNL     1       2.303   4.849  10.305  1.00  0.00    -0.266 OA
ENDBRANCH  25  26
ENDBRANCH  22  25
ENDBRANCH  20  22
ENDBRANCH  19  20
ENDBRANCH  16  19
BRANCH   5  29
HETATM   29  C6  UNL     1      -3.758   8.626  15.494  1.00  0.00     0.010 C 
HETATM   30  C7  UNL     1      -2.888   9.208  16.613  1.00  0.00     0.012 C 
BRANCH  29  31
HETATM   31  C8  UNL     1      -3.690   9.513  14.235  1.00  0.00     0.168 C 
BRANCH  31  32
HETATM   32  O1  UNL     1      -2.489  10.278  14.201  1.00  0.00    -0.400 OA
HETATM   33  H14 UNL     1      -1.749   9.664  14.066  1.00  0.00     0.209 HD
ENDBRANCH  31  32
ENDBRANCH  29  31
ENDBRANCH   5  29
BRANCH  13  34
HETATM   34  O3  UNL     1      -2.512   3.046   9.337  1.00  0.00    -0.391 OA
HETATM   35  H23 UNL     1      -3.109   2.292   9.190  1.00  0.00     0.210 HD
ENDBRANCH  13  34
TORSDOF 10
ENDMDL
MODEL 5
REMARK minimizedAffinity -7.85684538
REMARK  10 active torsions:
REMARK  status: ('A' for Active; 'I' for Inactive)
REMARK    1  A    between atoms: C5_5  and  C6_6 
REMARK    2  A    between atoms: C6_6  and  C8_8 
REMARK    3  A    between atoms: C8_8  and  O1_9 
REMARK    4  A    between atoms: C15_17  and  O3_18 
REMARK    5  A    between atoms: C18_21  and  O4_23 
REMARK    6  A    between atoms: O4_23  and  C20_24 
REMARK    7  A    between atoms: C20_24  and  C21_26 
REMARK    8  A    between atoms: C21_26  and  C22_27 
REMARK    9  A    between atoms: C21_26  and  O6_29 
REMARK   10  A    between atoms: O6_29  and  C24_30 
ROOT
HETATM    1  C1  UNL     1      -8.577   5.281  12.426  1.00  0.00     0.015 C 
HETATM    2  C2  UNL     1      -7.461   5.173  13.166  1.00  0.00    -0.082 C 
HETATM    3  C3  UNL     1      -7.535   4.992  14.658  1.00  0.00     0.034 C 
HETATM    4  C4  UNL     1      -6.270   5.430  15.391  1.00  0.00     0.010 C 
HETATM    5  C5  UNL     1      -5.497   6.592  14.739  1.00  0.00    -0.001 C 
HETATM    6  C9  UNL     1      -5.133   6.311  13.251  1.00  0.00     0.033 C 
HETATM    7  C10 UNL     1      -3.811   5.579  12.986  1.00  0.00     0.162 C 
HETATM    8  O2  UNL     1      -4.144   4.245  13.393  1.00  0.00    -0.376 OA
HETATM    9  C11 UNL     1      -5.308   3.915  12.629  1.00  0.00     0.134 C 
HETATM   10  C12 UNL     1      -4.815   3.352  11.270  1.00  0.00     0.068 C 
HETATM   11  C13 UNL     1      -3.603   2.437  11.430  1.00  0.00    -0.059 C 
HETATM   12  C14 UNL     1      -3.762   1.208  11.958  1.00  0.00     0.017 C 
HETATM   13  C15 UNL     1      -2.233   2.903  10.958  1.00  0.00     0.146 C 
HETATM   14  C16 UNL     1      -1.653   4.282  11.356  1.00  0.00     0.039 C 
HETATM   15  C17 UNL     1      -1.510   4.592  12.867  1.00  0.00     0.044 C 
HETATM   16  C18 UNL     1      -2.346   5.840  13.383  1.00  0.00     0.093 C 
HETATM   17  C19 UNL     1      -2.067   5.965  14.884  1.00  0.00     0.049 C 
HETATM   18  C26 UNL     1      -6.085   5.263  12.552  1.00  0.00     0.050 C 
ENDROOT
BRANCH  16  19
HETATM   19  O4  UNL     1      -1.772   6.957  12.650  1.00  0.00    -0.306 OA
BRANCH  19  20
HETATM   20  C20 UNL     1      -0.637   7.568  13.071  1.00  0.00     0.289 C 
HETATM   21  O5  UNL     1       0.494   7.274  12.711  1.00  0.00    -0.262 OA
BRANCH  20  22
HETATM   22  C21 UNL     1      -0.944   8.636  14.131  1.00  0.00     0.231 C 
BRANCH  22  23
HETATM   23  C22 UNL     1      -1.773   9.761  13.495  1.00  0.00     0.038 C 
HETATM   24  C23 UNL     1      -1.760  11.059  14.295  1.00  0.00     0.008 C 
ENDBRANCH  22  23
BRANCH  22  25
HETATM   25  O6  UNL     1       0.203   9.229  14.756  1.00  0.00    -0.306 OA
BRANCH  25  26
HETATM   26  C24 UNL     1       0.468   8.770  16.009  1.00  0.00     0.255 C 
HETATM   27  C25 UNL     1       0.399   9.895  16.995  1.00  0.00     0.126 C 
HETATM   28  O7  UNL     1       0.744   7.613  16.293  1.00  0.00    -0.266 OA
ENDBRANCH  25  26
ENDBRANCH  22  25
ENDBRANCH  20  22
ENDBRANCH  19  20
ENDBRANCH  16  19
BRANCH   5  29
HETATM   29  C6  UNL     1      -6.135   8.012  14.946  1.00  0.00     0.010 C 
HETATM   30  C7  UNL     1      -7.364   8.064  15.859  1.00  0.00     0.012 C 
BRANCH  29  31
HETATM   31  C8  UNL     1      -5.082   9.047  15.391  1.00  0.00     0.168 C 
BRANCH  31  32
HETATM   32  O1  UNL     1      -4.057   8.444  16.174  1.00  0.00    -0.400 OA
HETATM   33  H14 UNL     1      -3.545   7.859  15.593  1.00  0.00     0.209 HD
ENDBRANCH  31  32
ENDBRANCH  29  31
ENDBRANCH   5  29
BRANCH  13  34
HETATM   34  O3  UNL     1      -2.275   2.882   9.525  1.00  0.00    -0.391 OA
HETATM   35  H23 UNL     1      -2.645   2.019   9.273  1.00  0.00     0.210 HD
ENDBRANCH  13  34
TORSDOF 10
ENDMDL
MODEL 6
REMARK minimizedAffinity -7.72097111
REMARK  10 active torsions:
REMARK  status: ('A' for Active; 'I' for Inactive)
REMARK    1  A    between atoms: C5_5  and  C6_6 
REMARK    2  A    between atoms: C6_6  and  C8_8 
REMARK    3  A    between atoms: C8_8  and  O1_9 
REMARK    4  A    between atoms: C15_17  and  O3_18 
REMARK    5  A    between atoms: C18_21  and  O4_23 
REMARK    6  A    between atoms: O4_23  and  C20_24 
REMARK    7  A    between atoms: C20_24  and  C21_26 
REMARK    8  A    between atoms: C21_26  and  C22_27 
REMARK    9  A    between atoms: C21_26  and  O6_29 
REMARK   10  A    between atoms: O6_29  and  C24_30 
ROOT
HETATM    1  C1  UNL     1       1.448   6.478   9.357  1.00  0.00     0.015 C 
HETATM    2  C2  UNL     1       0.959   6.099  10.550  1.00  0.00    -0.082 C 
HETATM    3  C3  UNL     1       1.500   4.887  11.259  1.00  0.00     0.034 C 
HETATM    4  C4  UNL     1       0.526   4.284  12.268  1.00  0.00     0.010 C 
HETATM    5  C5  UNL     1      -0.967   4.437  11.918  1.00  0.00    -0.001 C 
HETATM    6  C9  UNL     1      -1.375   5.919  11.663  1.00  0.00     0.033 C 
HETATM    7  C10 UNL     1      -1.808   6.740  12.885  1.00  0.00     0.162 C 
HETATM    8  O2  UNL     1      -0.548   6.960  13.534  1.00  0.00    -0.376 OA
HETATM    9  C11 UNL     1       0.275   7.558  12.527  1.00  0.00     0.134 C 
HETATM   10  C12 UNL     1       0.010   9.086  12.572  1.00  0.00     0.068 C 
HETATM   11  C13 UNL     1      -0.117   9.608  14.002  1.00  0.00    -0.059 C 
HETATM   12  C14 UNL     1       0.983   9.707  14.773  1.00  0.00     0.017 C 
HETATM   13  C15 UNL     1      -1.474  10.048  14.532  1.00  0.00     0.146 C 
HETATM   14  C16 UNL     1      -2.734   9.158  14.398  1.00  0.00     0.039 C 
HETATM   15  C17 UNL     1      -2.679   7.737  15.013  1.00  0.00     0.044 C 
HETATM   16  C18 UNL     1      -2.873   6.546  13.981  1.00  0.00     0.093 C 
HETATM   17  C19 UNL     1      -2.781   5.247  14.787  1.00  0.00     0.049 C 
HETATM   18  C26 UNL     1      -0.173   6.840  11.219  1.00  0.00     0.050 C 
ENDROOT
BRANCH  16  19
HETATM   19  O4  UNL     1      -4.221   6.753  13.475  1.00  0.00    -0.306 OA
BRANCH  19  20
HETATM   20  C20 UNL     1      -5.069   5.713  13.283  1.00  0.00     0.289 C 
HETATM   21  O5  UNL     1      -4.829   4.728  12.600  1.00  0.00    -0.262 OA
BRANCH  20  22
HETATM   22  C21 UNL     1      -6.419   5.966  13.971  1.00  0.00     0.231 C 
BRANCH  22  23
HETATM   23  C22 UNL     1      -6.183   6.691  15.303  1.00  0.00     0.038 C 
HETATM   24  C23 UNL     1      -7.252   6.409  16.353  1.00  0.00     0.008 C 
ENDBRANCH  22  23
BRANCH  22  25
HETATM   25  O6  UNL     1      -7.202   4.794  14.236  1.00  0.00    -0.306 OA
BRANCH  25  26
HETATM   26  C24 UNL     1      -8.082   4.464  13.253  1.00  0.00     0.255 C 
HETATM   27  C25 UNL     1      -8.649   5.703  12.631  1.00  0.00     0.126 C 
HETATM   28  O7  UNL     1      -8.388   3.324  12.933  1.00  0.00    -0.266 OA
ENDBRANCH  25  26
ENDBRANCH  22  25
ENDBRANCH  20  22
ENDBRANCH  19  20
ENDBRANCH  16  19
BRANCH   5  29
HETATM   29  C6  UNL     1      -1.489   3.467  10.800  1.00  0.00     0.010 C 
HETATM   30  C7  UNL     1      -1.268   1.972  11.056  1.00  0.00     0.012 C 
BRANCH  29  31
HETATM   31  C8  UNL     1      -2.964   3.746  10.450  1.00  0.00     0.168 C 
BRANCH  31  32
HETATM   32  O1  UNL     1      -3.798   2.642  10.787  1.00  0.00    -0.400 OA
HETATM   33  H14 UNL     1      -3.821   2.571  11.755  1.00  0.00     0.209 HD
ENDBRANCH  31  32
ENDBRANCH  29  31
ENDBRANCH   5  29
BRANCH  13  34
HETATM   34  O3  UNL     1      -1.781  11.282  13.871  1.00  0.00    -0.391 OA
HETATM   35  H23 UNL     1      -0.988  11.840  13.948  1.00  0.00     0.210 HD
ENDBRANCH  13  34
TORSDOF 10
ENDMDL
MODEL 7
REMARK minimizedAffinity -7.35988569
REMARK  10 active torsions:
REMARK  status: ('A' for Active; 'I' for Inactive)
REMARK    1  A    between atoms: C5_5  and  C6_6 
REMARK    2  A    between atoms: C6_6  and  C8_8 
REMARK    3  A    between atoms: C8_8  and  O1_9 
REMARK    4  A    between atoms: C15_17  and  O3_18 
REMARK    5  A    between atoms: C18_21  and  O4_23 
REMARK    6  A    between atoms: O4_23  and  C20_24 
REMARK    7  A    between atoms: C20_24  and  C21_26 
REMARK    8  A    between atoms: C21_26  and  C22_27 
REMARK    9  A    between atoms: C21_26  and  O6_29 
REMARK   10  A    between atoms: O6_29  and  C24_30 
ROOT
HETATM    1  C1  UNL     1       6.565   8.733  13.495  1.00  0.00     0.015 C 
HETATM    2  C2  UNL     1       5.289   9.077  13.255  1.00  0.00    -0.082 C 
HETATM    3  C3  UNL     1       4.765  10.433  13.643  1.00  0.00     0.034 C 
HETATM    4  C4  UNL     1       3.250  10.477  13.817  1.00  0.00     0.010 C 
HETATM    5  C5  UNL     1       2.604   9.170  14.317  1.00  0.00    -0.001 C 
HETATM    6  C9  UNL     1       2.963   7.944  13.426  1.00  0.00     0.033 C 
HETATM    7  C10 UNL     1       2.052   7.670  12.222  1.00  0.00     0.162 C 
HETATM    8  O2  UNL     1       2.446   8.721  11.329  1.00  0.00    -0.376 OA
HETATM    9  C11 UNL     1       3.864   8.572  11.200  1.00  0.00     0.134 C 
HETATM   10  C12 UNL     1       4.111   7.546  10.064  1.00  0.00     0.068 C 
HETATM   11  C13 UNL     1       3.156   7.744   8.889  1.00  0.00    -0.059 C 
HETATM   12  C14 UNL     1       3.325   8.798   8.066  1.00  0.00     0.017 C 
HETATM   13  C15 UNL     1       2.048   6.734   8.632  1.00  0.00     0.146 C 
HETATM   14  C16 UNL     1       1.088   6.266   9.753  1.00  0.00     0.039 C 
HETATM   15  C17 UNL     1       0.266   7.349  10.494  1.00  0.00     0.044 C 
HETATM   16  C18 UNL     1       0.536   7.455  12.055  1.00  0.00     0.093 C 
HETATM   17  C19 UNL     1      -0.365   8.575  12.582  1.00  0.00     0.049 C 
HETATM   18  C26 UNL     1       4.311   8.117  12.621  1.00  0.00     0.050 C 
ENDROOT
BRANCH  16  19
HETATM   19  O4  UNL     1       0.110   6.160  12.560  1.00  0.00    -0.306 OA
BRANCH  19  20
HETATM   20  C20 UNL     1      -0.997   6.033  13.332  1.00  0.00     0.289 C 
HETATM   21  O5  UNL     1      -1.035   6.213  14.541  1.00  0.00    -0.262 OA
BRANCH  20  22
HETATM   22  C21 UNL     1      -2.198   5.551  12.504  1.00  0.00     0.231 C 
BRANCH  22  23
HETATM   23  C22 UNL     1      -3.469   6.261  12.991  1.00  0.00     0.038 C 
HETATM   24  C23 UNL     1      -4.513   5.316  13.576  1.00  0.00     0.008 C 
ENDBRANCH  22  23
BRANCH  22  25
HETATM   25  O6  UNL     1      -2.438   4.138  12.537  1.00  0.00    -0.306 OA
BRANCH  25  26
HETATM   26  C24 UNL     1      -2.122   3.480  11.389  1.00  0.00     0.255 C 
HETATM   27  C25 UNL     1      -0.790   2.811  11.527  1.00  0.00     0.126 C 
HETATM   28  O7  UNL     1      -2.811   3.453  10.379  1.00  0.00    -0.266 OA
ENDBRANCH  25  26
ENDBRANCH  22  25
ENDBRANCH  20  22
ENDBRANCH  19  20
ENDBRANCH  16  19
BRANCH   5  29
HETATM   29  C6  UNL     1       2.794   8.880  15.848  1.00  0.00     0.010 C 
HETATM   30  C7  UNL     1       2.188   9.912  16.804  1.00  0.00     0.012 C 
BRANCH  29  31
HETATM   31  C8  UNL     1       2.329   7.457  16.217  1.00  0.00     0.168 C 
BRANCH  31  32
HETATM   32  O1  UNL     1       3.406   6.528  16.171  1.00  0.00    -0.400 OA
HETATM   33  H14 UNL     1       4.017   6.744  16.894  1.00  0.00     0.209 HD
ENDBRANCH  31  32
ENDBRANCH  29  31
ENDBRANCH   5  29
BRANCH  13  34
HETATM   34  O3  UNL     1       2.690   5.554   8.133  1.00  0.00    -0.391 OA
HETATM   35  H23 UNL     1       3.298   5.846   7.433  1.00  0.00     0.210 HD
ENDBRANCH  13  34
TORSDOF 10
ENDMDL
MODEL 8
REMARK minimizedAffinity -7.2306056
REMARK  10 active torsions:
REMARK  status: ('A' for Active; 'I' for Inactive)
REMARK    1  A    between atoms: C5_5  and  C6_6 
REMARK    2  A    between atoms: C6_6  and  C8_8 
REMARK    3  A    between atoms: C8_8  and  O1_9 
REMARK    4  A    between atoms: C15_17  and  O3_18 
REMARK    5  A    between atoms: C18_21  and  O4_23 
REMARK    6  A    between atoms: O4_23  and  C20_24 
REMARK    7  A    between atoms: C20_24  and  C21_26 
REMARK    8  A    between atoms: C21_26  and  C22_27 
REMARK    9  A    between atoms: C21_26  and  O6_29 
REMARK   10  A    between atoms: O6_29  and  C24_30 
ROOT
HETATM    1  C1  UNL     1      -4.791  12.144  16.324  1.00  0.00     0.015 C 
HETATM    2  C2  UNL     1      -4.141  10.974  16.441  1.00  0.00    -0.082 C 
HETATM    3  C3  UNL     1      -3.280  10.683  17.641  1.00  0.00     0.034 C 
HETATM    4  C4  UNL     1      -2.218   9.618  17.387  1.00  0.00     0.010 C 
HETATM    5  C5  UNL     1      -1.673   9.558  15.947  1.00  0.00    -0.001 C 
HETATM    6  C9  UNL     1      -2.800   9.394  14.884  1.00  0.00     0.033 C 
HETATM    7  C10 UNL     1      -3.229   7.961  14.542  1.00  0.00     0.162 C 
HETATM    8  O2  UNL     1      -3.970   7.604  15.716  1.00  0.00    -0.376 OA
HETATM    9  C11 UNL     1      -4.957   8.632  15.846  1.00  0.00     0.134 C 
HETATM   10  C12 UNL     1      -6.171   8.209  14.977  1.00  0.00     0.068 C 
HETATM   11  C13 UNL     1      -6.466   6.714  15.087  1.00  0.00    -0.059 C 
HETATM   12  C14 UNL     1      -7.017   6.227  16.216  1.00  0.00     0.017 C 
HETATM   13  C15 UNL     1      -6.173   5.794  13.912  1.00  0.00     0.146 C 
HETATM   14  C16 UNL     1      -4.806   5.802  13.184  1.00  0.00     0.039 C 
HETATM   15  C17 UNL     1      -3.539   5.527  14.033  1.00  0.00     0.044 C 
HETATM   16  C18 UNL     1      -2.476   6.706  14.062  1.00  0.00     0.093 C 
HETATM   17  C19 UNL     1      -1.320   6.233  14.949  1.00  0.00     0.049 C 
HETATM   18  C26 UNL     1      -4.210   9.913  15.370  1.00  0.00     0.050 C 
ENDROOT
BRANCH  16  19
HETATM   19  O4  UNL     1      -2.058   6.817  12.674  1.00  0.00    -0.306 OA
BRANCH  19  20
HETATM   20  C20 UNL     1      -0.750   6.930  12.338  1.00  0.00     0.289 C 
HETATM   21  O5  UNL     1      -0.073   7.939  12.477  1.00  0.00    -0.262 OA
BRANCH  20  22
HETATM   22  C21 UNL     1      -0.235   5.643  11.677  1.00  0.00     0.231 C 
BRANCH  22  23
HETATM   23  C22 UNL     1       0.764   6.005  10.568  1.00  0.00     0.038 C 
HETATM   24  C23 UNL     1       2.203   5.617  10.889  1.00  0.00     0.008 C 
ENDBRANCH  22  23
BRANCH  22  25
HETATM   25  O6  UNL     1      -1.244   4.799  11.107  1.00  0.00    -0.306 OA
BRANCH  25  26
HETATM   26  C24 UNL     1      -1.136   3.483  11.434  1.00  0.00     0.255 C 
HETATM   27  C25 UNL     1      -2.494   2.895  11.663  1.00  0.00     0.126 C 
HETATM   28  O7  UNL     1      -0.085   2.868  11.548  1.00  0.00    -0.266 OA
ENDBRANCH  25  26
ENDBRANCH  22  25
ENDBRANCH  20  22
ENDBRANCH  19  20
ENDBRANCH  16  19
BRANCH   5  29
HETATM   29  C6  UNL     1      -0.654  10.694  15.576  1.00  0.00     0.010 C 
HETATM   30  C7  UNL     1       0.452  10.303  14.590  1.00  0.00     0.012 C 
BRANCH  29  31
HETATM   31  C8  UNL     1      -1.377  11.971  15.103  1.00  0.00     0.168 C 
BRANCH  31  32
HETATM   32  O1  UNL     1      -1.247  12.155  13.698  1.00  0.00    -0.400 OA
HETATM   33  H14 UNL     1      -1.751  11.452  13.258  1.00  0.00     0.209 HD
ENDBRANCH  31  32
ENDBRANCH  29  31
ENDBRANCH   5  29
BRANCH  13  34
HETATM   34  O3  UNL     1      -7.160   6.090  12.916  1.00  0.00    -0.391 OA
HETATM   35  H23 UNL     1      -8.020   6.093  13.372  1.00  0.00     0.210 HD
ENDBRANCH  13  34
TORSDOF 10
ENDMDL
MODEL 9
REMARK minimizedAffinity -7.21226597
REMARK  10 active torsions:
REMARK  status: ('A' for Active; 'I' for Inactive)
REMARK    1  A    between atoms: C5_5  and  C6_6 
REMARK    2  A    between atoms: C6_6  and  C8_8 
REMARK    3  A    between atoms: C8_8  and  O1_9 
REMARK    4  A    between atoms: C15_17  and  O3_18 
REMARK    5  A    between atoms: C18_21  and  O4_23 
REMARK    6  A    between atoms: O4_23  and  C20_24 
REMARK    7  A    between atoms: C20_24  and  C21_26 
REMARK    8  A    between atoms: C21_26  and  C22_27 
REMARK    9  A    between atoms: C21_26  and  O6_29 
REMARK   10  A    between atoms: O6_29  and  C24_30 
ROOT
HETATM    1  C1  UNL     1      -4.535  11.943  15.871  1.00  0.00     0.015 C 
HETATM    2  C2  UNL     1      -3.927  10.757  16.042  1.00  0.00    -0.082 C 
HETATM    3  C3  UNL     1      -3.032  10.510  17.227  1.00  0.00     0.034 C 
HETATM    4  C4  UNL     1      -2.022   9.387  17.006  1.00  0.00     0.010 C 
HETATM    5  C5  UNL     1      -1.536   9.211  15.555  1.00  0.00    -0.001 C 
HETATM    6  C9  UNL     1      -2.709   9.024  14.547  1.00  0.00     0.033 C 
HETATM    7  C10 UNL     1      -3.206   7.591  14.318  1.00  0.00     0.162 C 
HETATM    8  O2  UNL     1      -3.915   7.342  15.539  1.00  0.00    -0.376 OA
HETATM    9  C11 UNL     1      -4.856   8.417  15.635  1.00  0.00     0.134 C 
HETATM   10  C12 UNL     1      -6.118   7.988  14.842  1.00  0.00     0.068 C 
HETATM   11  C13 UNL     1      -6.466   6.517  15.063  1.00  0.00    -0.059 C 
HETATM   12  C14 UNL     1      -6.991   6.128  16.241  1.00  0.00     0.017 C 
HETATM   13  C15 UNL     1      -6.255   5.510  13.941  1.00  0.00     0.146 C 
HETATM   14  C16 UNL     1      -4.918   5.414  13.166  1.00  0.00     0.039 C 
HETATM   15  C17 UNL     1      -3.631   5.143  13.984  1.00  0.00     0.044 C 
HETATM   16  C18 UNL     1      -2.522   6.277  13.896  1.00  0.00     0.093 C 
HETATM   17  C19 UNL     1      -1.352   5.816  14.770  1.00  0.00     0.049 C 
HETATM   18  C26 UNL     1      -4.078   9.632  15.048  1.00  0.00     0.050 C 
ENDROOT
BRANCH  16  19
HETATM   19  O4  UNL     1      -2.154   6.280  12.489  1.00  0.00    -0.306 OA
BRANCH  19  20
HETATM   20  C20 UNL     1      -0.887   6.551  12.091  1.00  0.00     0.289 C 
HETATM   21  O5  UNL     1      -0.315   7.620  12.249  1.00  0.00    -0.262 OA
BRANCH  20  22
HETATM   22  C21 UNL     1      -0.277   5.360  11.336  1.00  0.00     0.231 C 
BRANCH  22  23
HETATM   23  C22 UNL     1      -1.080   4.091  11.656  1.00  0.00     0.038 C 
HETATM   24  C23 UNL     1      -2.082   3.711  10.571  1.00  0.00     0.008 C 
ENDBRANCH  22  23
BRANCH  22  25
HETATM   25  O6  UNL     1       1.103   5.095  11.620  1.00  0.00    -0.306 OA
BRANCH  25  26
HETATM   26  C24 UNL     1       1.980   5.632  10.728  1.00  0.00     0.255 C 
HETATM   27  C25 UNL     1       2.982   6.486  11.441  1.00  0.00     0.126 C 
HETATM   28  O7  UNL     1       1.946   5.463   9.517  1.00  0.00    -0.266 OA
ENDBRANCH  25  26
ENDBRANCH  22  25
ENDBRANCH  20  22
ENDBRANCH  19  20
ENDBRANCH  16  19
BRANCH   5  29
HETATM   29  C6  UNL     1      -0.490  10.277  15.072  1.00  0.00     0.010 C 
HETATM   30  C7  UNL     1      -0.262  11.464  16.014  1.00  0.00     0.012 C 
BRANCH  29  31
HETATM   31  C8  UNL     1       0.852   9.622  14.688  1.00  0.00     0.168 C 
BRANCH  31  32
HETATM   32  O1  UNL     1       1.115   9.749  13.295  1.00  0.00    -0.400 OA
HETATM   33  H14 UNL     1       1.277  10.687  13.107  1.00  0.00     0.209 HD
ENDBRANCH  31  32
ENDBRANCH  29  31
ENDBRANCH   5  29
BRANCH  13  34
HETATM   34  O3  UNL     1      -7.268   5.781  12.965  1.00  0.00    -0.391 OA
HETATM   35  H23 UNL     1      -8.108   5.848  13.450  1.00  0.00     0.210 HD
ENDBRANCH  13  34
TORSDOF 10
ENDMDL
