MODEL 1
REMARK minimizedAffinity -8.05103207
REMARK CNNscore 0.612507224
REMARK CNNaffinity 7.15483904
REMARK  10 active torsions:
REMARK  status: ('A' for Active; 'I' for Inactive)
REMARK    1  A    between atoms: O1_2  and  C2_3 
REMARK    2  A    between atoms: C4_5  and  O2_6 
REMARK    3  A    between atoms: O2_6  and  C5_7 
REMARK    4  A    between atoms: C6_8  and  O3_9 
REMARK    5  A    between atoms: C8_11  and  O4_12 
REMARK    6  A    between atoms: O4_12  and  C9_13 
REMARK    7  A    between atoms: C20_24  and  C21_25 
REMARK    8  A    between atoms: C21_25  and  O5_27 
REMARK    9  A    between atoms: C25_30  and  O6_31 
REMARK   10  A    between atoms: C34_42  and  O9_43 
ROOT
HETATM    1  C9  UNL     1      -1.125  49.220 -19.279  1.00  0.00     0.046 C 
HETATM    2  C10 UNL     1      -1.529  50.485 -19.447  1.00  0.00     0.011 C 
HETATM    3  C11 UNL     1      -1.739  51.073 -20.813  1.00  0.00     0.019 C 
HETATM    4  C12 UNL     1      -0.431  51.761 -21.254  1.00  0.00     0.010 C 
HETATM    5  C13 UNL     1      -0.575  52.533 -22.571  1.00  0.00     0.009 C 
HETATM    6  C14 UNL     1      -1.687  51.979 -23.481  1.00  0.00     0.025 C 
HETATM    7  C15 UNL     1      -1.725  50.439 -23.311  1.00  0.00     0.001 C 
HETATM    8  C16 UNL     1      -2.441  49.789 -24.495  1.00  0.00     0.007 C 
HETATM    9  C17 UNL     1      -1.619  49.990 -25.767  1.00  0.00     0.013 C 
HETATM   10  C18 UNL     1      -1.220  51.462 -26.047  1.00  0.00    -0.007 C 
HETATM   11  C19 UNL     1      -1.769  51.816 -27.456  1.00  0.00     0.019 C 
HETATM   12  C20 UNL     1       0.324  51.687 -25.953  1.00  0.00     0.025 C 
HETATM   13  C23 UNL     1       0.475  53.211 -25.766  1.00  0.00     0.011 C 
HETATM   14  C24 UNL     1      -0.873  53.724 -25.255  1.00  0.00     0.039 C 
HETATM   15  C25 UNL     1      -1.726  52.478 -24.969  1.00  0.00     0.070 C 
HETATM   16  C26 UNL     1      -2.273  50.044 -21.885  1.00  0.00    -0.033 C 
HETATM   17  C27 UNL     1      -3.826  50.113 -21.861  1.00  0.00     0.016 C 
HETATM   18  C28 UNL     1      -1.896  48.554 -21.558  1.00  0.00     0.016 C 
HETATM   19  C29 UNL     1      -0.850  48.349 -20.461  1.00  0.00     0.065 C 
ENDROOT
BRANCH   1  20
HETATM   20  O4  UNL     1      -0.795  48.711 -18.043  1.00  0.00    -0.325 OA
BRANCH  20  21
HETATM   21  C8  UNL     1      -1.929  48.557 -17.168  1.00  0.00     0.269 C 
HETATM   22  C7  UNL     1      -2.810  47.486 -17.810  1.00  0.00     0.095 C 
HETATM   23  C6  UNL     1      -3.990  47.110 -16.926  1.00  0.00     0.154 C 
HETATM   24  C5  UNL     1      -3.552  46.821 -15.475  1.00  0.00     0.182 C 
HETATM   25  C30 UNL     1      -2.649  47.968 -14.984  1.00  0.00     0.152 C 
HETATM   26  O7  UNL     1      -1.532  48.119 -15.863  1.00  0.00    -0.353 OA
HETATM   27  C31 UNL     1      -2.094  47.690 -13.589  1.00  0.00     0.042 C 
BRANCH  23  28
HETATM   28  O3  UNL     1      -4.953  48.168 -16.945  1.00  0.00    -0.393 OA
HETATM   29  H10 UNL     1      -5.686  47.847 -16.378  1.00  0.00     0.210 HD
ENDBRANCH  23  28
BRANCH  24  30
HETATM   30  O2  UNL     1      -4.665  46.685 -14.575  1.00  0.00    -0.351 OA
BRANCH  30  31
HETATM   31  C4  UNL     1      -4.944  45.341 -14.192  1.00  0.00     0.263 C 
HETATM   32  C3  UNL     1      -6.185  44.890 -14.960  1.00  0.00     0.095 C 
HETATM   33  C2  UNL     1      -6.505  43.433 -14.637  1.00  0.00     0.156 C 
HETATM   34  C34 UNL     1      -5.261  42.558 -14.880  1.00  0.00     0.175 C 
HETATM   35  C32 UNL     1      -4.037  43.153 -14.160  1.00  0.00     0.151 C 
HETATM   36  O8  UNL     1      -3.837  44.518 -14.557  1.00  0.00    -0.354 OA
HETATM   37  C33 UNL     1      -2.762  42.385 -14.491  1.00  0.00     0.042 C 
BRANCH  33  38
HETATM   38  O1  UNL     1      -6.870  43.275 -13.250  1.00  0.00    -0.388 OA
HETATM   39  C1  UNL     1      -8.259  43.011 -13.061  1.00  0.00     0.202 C 
ENDBRANCH  33  38
BRANCH  34  40
HETATM   40  O9  UNL     1      -5.522  41.231 -14.419  1.00  0.00    -0.390 OA
HETATM   41  H56 UNL     1      -5.978  41.336 -13.560  1.00  0.00     0.210 HD
ENDBRANCH  34  40
ENDBRANCH  30  31
ENDBRANCH  24  30
ENDBRANCH  20  21
ENDBRANCH   1  20
BRANCH  15  42
HETATM   42  O6  UNL     1      -3.099  52.801 -25.241  1.00  0.00    -0.389 OA
HETATM   43  H39 UNL     1      -3.323  53.598 -24.731  1.00  0.00     0.210 HD
ENDBRANCH  15  42
BRANCH  12  44
HETATM   44  C21 UNL     1       1.199  51.109 -27.084  1.00  0.00     0.119 C 
HETATM   45  C22 UNL     1       2.677  51.433 -26.876  1.00  0.00     0.040 C 
BRANCH  44  46
HETATM   46  O5  UNL     1       0.814  51.632 -28.350  1.00  0.00    -0.396 OA
HETATM   47  H34 UNL     1       1.362  51.201 -29.029  1.00  0.00     0.210 HD
ENDBRANCH  44  46
ENDBRANCH  12  44
TORSDOF 10
ENDMDL
MODEL 2
REMARK minimizedAffinity -9.80840302
REMARK CNNscore 0.59433502
REMARK CNNaffinity 7.6503067
REMARK  10 active torsions:
REMARK  status: ('A' for Active; 'I' for Inactive)
REMARK    1  A    between atoms: O1_2  and  C2_3 
REMARK    2  A    between atoms: C4_5  and  O2_6 
REMARK    3  A    between atoms: O2_6  and  C5_7 
REMARK    4  A    between atoms: C6_8  and  O3_9 
REMARK    5  A    between atoms: C8_11  and  O4_12 
REMARK    6  A    between atoms: O4_12  and  C9_13 
REMARK    7  A    between atoms: C20_24  and  C21_25 
REMARK    8  A    between atoms: C21_25  and  O5_27 
REMARK    9  A    between atoms: C25_30  and  O6_31 
REMARK   10  A    between atoms: C34_42  and  O9_43 
ROOT
HETATM    1  C9  UNL     1      -1.203  49.267 -19.454  1.00  0.00     0.046 C 
HETATM    2  C10 UNL     1      -1.670  50.505 -19.654  1.00  0.00     0.011 C 
HETATM    3  C11 UNL     1      -1.871  51.062 -21.035  1.00  0.00     0.019 C 
HETATM    4  C12 UNL     1      -0.590  51.812 -21.450  1.00  0.00     0.010 C 
HETATM    5  C13 UNL     1      -0.736  52.557 -22.783  1.00  0.00     0.009 C 
HETATM    6  C14 UNL     1      -1.791  51.930 -23.714  1.00  0.00     0.025 C 
HETATM    7  C15 UNL     1      -1.751  50.393 -23.521  1.00  0.00     0.001 C 
HETATM    8  C16 UNL     1      -2.396  49.687 -24.714  1.00  0.00     0.007 C 
HETATM    9  C17 UNL     1      -1.550  49.914 -25.965  1.00  0.00     0.013 C 
HETATM   10  C18 UNL     1      -1.222  51.401 -26.258  1.00  0.00    -0.007 C 
HETATM   11  C19 UNL     1      -1.749  51.704 -27.687  1.00  0.00     0.019 C 
HETATM   12  C20 UNL     1       0.304  51.711 -26.124  1.00  0.00     0.025 C 
HETATM   13  C23 UNL     1       0.368  53.244 -25.958  1.00  0.00     0.011 C 
HETATM   14  C24 UNL     1      -1.020  53.691 -25.493  1.00  0.00     0.039 C 
HETATM   15  C25 UNL     1      -1.813  52.404 -25.211  1.00  0.00     0.070 C 
HETATM   16  C26 UNL     1      -2.317  49.990 -22.105  1.00  0.00    -0.033 C 
HETATM   17  C27 UNL     1      -3.872  49.975 -22.125  1.00  0.00     0.016 C 
HETATM   18  C28 UNL     1      -1.870  48.527 -21.744  1.00  0.00     0.016 C 
HETATM   19  C29 UNL     1      -0.847  48.395 -20.614  1.00  0.00     0.065 C 
ENDROOT
BRANCH   1  20
HETATM   20  O4  UNL     1      -0.882  48.795 -18.202  1.00  0.00    -0.325 OA
BRANCH  20  21
HETATM   21  C8  UNL     1      -0.870  49.821 -17.191  1.00  0.00     0.269 C 
HETATM   22  C7  UNL     1      -1.352  49.148 -15.906  1.00  0.00     0.095 C 
HETATM   23  C6  UNL     1      -1.264  50.079 -14.706  1.00  0.00     0.154 C 
HETATM   24  C5  UNL     1       0.112  50.769 -14.611  1.00  0.00     0.182 C 
HETATM   25  C30 UNL     1       0.469  51.366 -15.985  1.00  0.00     0.152 C 
HETATM   26  O7  UNL     1       0.448  50.342 -16.983  1.00  0.00    -0.353 OA
HETATM   27  C31 UNL     1       1.871  51.971 -15.989  1.00  0.00     0.042 C 
BRANCH  23  28
HETATM   28  O3  UNL     1      -2.300  51.062 -14.791  1.00  0.00    -0.393 OA
HETATM   29  H10 UNL     1      -2.195  51.604 -13.980  1.00  0.00     0.210 HD
ENDBRANCH  23  28
BRANCH  24  30
HETATM   30  O2  UNL     1       0.145  51.813 -13.625  1.00  0.00    -0.351 OA
BRANCH  30  31
HETATM   31  C4  UNL     1      -0.605  51.527 -12.447  1.00  0.00     0.263 C 
HETATM   32  C3  UNL     1       0.334  51.682 -11.253  1.00  0.00     0.095 C 
HETATM   33  C2  UNL     1      -0.424  51.444  -9.950  1.00  0.00     0.156 C 
HETATM   34  C34 UNL     1      -1.667  52.352  -9.896  1.00  0.00     0.175 C 
HETATM   35  C32 UNL     1      -2.491  52.212 -11.190  1.00  0.00     0.151 C 
HETATM   36  O8  UNL     1      -1.670  52.470 -12.337  1.00  0.00    -0.354 OA
HETATM   37  C33 UNL     1      -3.655  53.195 -11.224  1.00  0.00     0.042 C 
BRANCH  33  38
HETATM   38  O1  UNL     1      -0.890  50.082  -9.859  1.00  0.00    -0.388 OA
HETATM   39  C1  UNL     1       0.151  49.150  -9.572  1.00  0.00     0.202 C 
ENDBRANCH  33  38
BRANCH  34  40
HETATM   40  O9  UNL     1      -2.455  52.003  -8.756  1.00  0.00    -0.390 OA
HETATM   41  H56 UNL     1      -2.469  51.026  -8.735  1.00  0.00     0.210 HD
ENDBRANCH  34  40
ENDBRANCH  30  31
ENDBRANCH  24  30
ENDBRANCH  20  21
ENDBRANCH   1  20
BRANCH  15  42
HETATM   42  O6  UNL     1      -3.193  52.648 -25.527  1.00  0.00    -0.389 OA
HETATM   43  H39 UNL     1      -3.474  53.439 -25.036  1.00  0.00     0.210 HD
ENDBRANCH  15  42
BRANCH  12  44
HETATM   44  C21 UNL     1       1.241  51.165 -27.220  1.00  0.00     0.119 C 
HETATM   45  C22 UNL     1       2.711  51.359 -26.855  1.00  0.00     0.040 C 
BRANCH  44  46
HETATM   46  O5  UNL     1       1.014  51.819 -28.464  1.00  0.00    -0.396 OA
HETATM   47  H34 UNL     1       1.592  51.405 -29.128  1.00  0.00     0.210 HD
ENDBRANCH  44  46
ENDBRANCH  12  44
TORSDOF 10
ENDMDL
MODEL 3
REMARK minimizedAffinity -9.33779049
REMARK CNNscore 0.589545131
REMARK CNNaffinity 7.50741959
REMARK  10 active torsions:
REMARK  status: ('A' for Active; 'I' for Inactive)
REMARK    1  A    between atoms: O1_2  and  C2_3 
REMARK    2  A    between atoms: C4_5  and  O2_6 
REMARK    3  A    between atoms: O2_6  and  C5_7 
REMARK    4  A    between atoms: C6_8  and  O3_9 
REMARK    5  A    between atoms: C8_11  and  O4_12 
REMARK    6  A    between atoms: O4_12  and  C9_13 
REMARK    7  A    between atoms: C20_24  and  C21_25 
REMARK    8  A    between atoms: C21_25  and  O5_27 
REMARK    9  A    between atoms: C25_30  and  O6_31 
REMARK   10  A    between atoms: C34_42  and  O9_43 
ROOT
HETATM    1  C9  UNL     1      -1.585  48.749 -19.379  1.00  0.00     0.046 C 
HETATM    2  C10 UNL     1      -2.466  49.728 -19.614  1.00  0.00     0.011 C 
HETATM    3  C11 UNL     1      -2.870  50.110 -21.010  1.00  0.00     0.019 C 
HETATM    4  C12 UNL     1      -1.948  51.248 -21.491  1.00  0.00     0.010 C 
HETATM    5  C13 UNL     1      -2.367  51.828 -22.847  1.00  0.00     0.009 C 
HETATM    6  C14 UNL     1      -3.138  50.823 -23.723  1.00  0.00     0.025 C 
HETATM    7  C15 UNL     1      -2.547  49.412 -23.470  1.00  0.00     0.001 C 
HETATM    8  C16 UNL     1      -2.911  48.468 -24.616  1.00  0.00     0.007 C 
HETATM    9  C17 UNL     1      -2.217  48.923 -25.898  1.00  0.00     0.013 C 
HETATM   10  C18 UNL     1      -2.447  50.413 -26.259  1.00  0.00    -0.007 C 
HETATM   11  C19 UNL     1      -3.064  50.440 -27.684  1.00  0.00     0.019 C 
HETATM   12  C20 UNL     1      -1.132  51.254 -26.180  1.00  0.00     0.025 C 
HETATM   13  C23 UNL     1      -1.620  52.714 -26.076  1.00  0.00     0.011 C 
HETATM   14  C24 UNL     1      -3.070  52.657 -25.591  1.00  0.00     0.039 C 
HETATM   15  C25 UNL     1      -3.346  51.186 -25.237  1.00  0.00     0.070 C 
HETATM   16  C26 UNL     1      -2.915  48.900 -22.024  1.00  0.00    -0.033 C 
HETATM   17  C27 UNL     1      -4.362  48.330 -22.000  1.00  0.00     0.016 C 
HETATM   18  C28 UNL     1      -1.970  47.713 -21.618  1.00  0.00     0.016 C 
HETATM   19  C29 UNL     1      -0.954  48.008 -20.513  1.00  0.00     0.065 C 
ENDROOT
BRANCH   1  20
HETATM   20  O4  UNL     1      -1.101  48.482 -18.118  1.00  0.00    -0.325 OA
BRANCH  20  21
HETATM   21  C8  UNL     1      -1.046  49.646 -17.270  1.00  0.00     0.269 C 
HETATM   22  C7  UNL     1      -1.212  49.130 -15.841  1.00  0.00     0.095 C 
HETATM   23  C6  UNL     1      -1.038  50.236 -14.811  1.00  0.00     0.154 C 
HETATM   24  C5  UNL     1       0.236  51.066 -15.067  1.00  0.00     0.182 C 
HETATM   25  C30 UNL     1       0.275  51.481 -16.549  1.00  0.00     0.152 C 
HETATM   26  O7  UNL     1       0.213  50.321 -17.383  1.00  0.00    -0.353 OA
HETATM   27  C31 UNL     1       1.568  52.217 -16.894  1.00  0.00     0.042 C 
BRANCH  23  28
HETATM   28  O3  UNL     1      -2.189  51.086 -14.828  1.00  0.00    -0.393 OA
HETATM   29  H10 UNL     1      -2.015  51.752 -14.129  1.00  0.00     0.210 HD
ENDBRANCH  23  28
BRANCH  24  30
HETATM   30  O2  UNL     1       0.305  52.246 -14.250  1.00  0.00    -0.351 OA
BRANCH  30  31
HETATM   31  C4  UNL     1       1.342  52.218 -13.271  1.00  0.00     0.263 C 
HETATM   32  C3  UNL     1       0.686  51.994 -11.911  1.00  0.00     0.095 C 
HETATM   33  C2  UNL     1       1.751  51.896 -10.821  1.00  0.00     0.156 C 
HETATM   34  C34 UNL     1       2.792  50.827 -11.203  1.00  0.00     0.175 C 
HETATM   35  C32 UNL     1       3.312  51.070 -12.632  1.00  0.00     0.151 C 
HETATM   36  O8  UNL     1       2.219  51.130 -13.559  1.00  0.00    -0.354 OA
HETATM   37  C33 UNL     1       4.244  49.954 -13.089  1.00  0.00     0.042 C 
BRANCH  33  38
HETATM   38  O1  UNL     1       2.460  53.144 -10.671  1.00  0.00    -0.388 OA
HETATM   39  C1  UNL     1       1.620  54.220 -10.258  1.00  0.00     0.202 C 
ENDBRANCH  33  38
BRANCH  34  40
HETATM   40  O9  UNL     1       3.867  50.861 -10.262  1.00  0.00    -0.390 OA
HETATM   41  H56 UNL     1       4.060  51.809 -10.117  1.00  0.00     0.210 HD
ENDBRANCH  34  40
ENDBRANCH  30  31
ENDBRANCH  24  30
ENDBRANCH  20  21
ENDBRANCH   1  20
BRANCH  15  42
HETATM   42  O6  UNL     1      -4.725  50.907 -25.523  1.00  0.00    -0.389 OA
HETATM   43  H39 UNL     1      -5.265  51.567 -25.056  1.00  0.00     0.210 HD
ENDBRANCH  15  42
BRANCH  12  44
HETATM   44  C21 UNL     1      -0.074  51.028 -27.279  1.00  0.00     0.119 C 
HETATM   45  C22 UNL     1       1.345  51.127 -26.726  1.00  0.00     0.040 C 
BRANCH  44  46
HETATM   46  O5  UNL     1      -0.202  51.990 -28.320  1.00  0.00    -0.396 OA
HETATM   47  H34 UNL     1       0.452  51.774 -29.007  1.00  0.00     0.210 HD
ENDBRANCH  44  46
ENDBRANCH  12  44
TORSDOF 10
ENDMDL
MODEL 4
REMARK minimizedAffinity -9.62721252
REMARK CNNscore 0.498003185
REMARK CNNaffinity 7.48009348
REMARK  10 active torsions:
REMARK  status: ('A' for Active; 'I' for Inactive)
REMARK    1  A    between atoms: O1_2  and  C2_3 
REMARK    2  A    between atoms: C4_5  and  O2_6 
REMARK    3  A    between atoms: O2_6  and  C5_7 
REMARK    4  A    between atoms: C6_8  and  O3_9 
REMARK    5  A    between atoms: C8_11  and  O4_12 
REMARK    6  A    between atoms: O4_12  and  C9_13 
REMARK    7  A    between atoms: C20_24  and  C21_25 
REMARK    8  A    between atoms: C21_25  and  O5_27 
REMARK    9  A    between atoms: C25_30  and  O6_31 
REMARK   10  A    between atoms: C34_42  and  O9_43 
ROOT
HETATM    1  C9  UNL     1      -1.090  49.293 -19.255  1.00  0.00     0.046 C 
HETATM    2  C10 UNL     1      -1.517  50.547 -19.447  1.00  0.00     0.011 C 
HETATM    3  C11 UNL     1      -1.737  51.106 -20.824  1.00  0.00     0.019 C 
HETATM    4  C12 UNL     1      -0.442  51.808 -21.278  1.00  0.00     0.010 C 
HETATM    5  C13 UNL     1      -0.599  52.554 -22.609  1.00  0.00     0.009 C 
HETATM    6  C14 UNL     1      -1.702  51.963 -23.508  1.00  0.00     0.025 C 
HETATM    7  C15 UNL     1      -1.712  50.426 -23.310  1.00  0.00     0.001 C 
HETATM    8  C16 UNL     1      -2.416  49.741 -24.481  1.00  0.00     0.007 C 
HETATM    9  C17 UNL     1      -1.598  49.933 -25.757  1.00  0.00     0.013 C 
HETATM   10  C18 UNL     1      -1.225  51.406 -26.065  1.00  0.00    -0.007 C 
HETATM   11  C19 UNL     1      -1.781  51.724 -27.479  1.00  0.00     0.019 C 
HETATM   12  C20 UNL     1       0.314  51.661 -25.975  1.00  0.00     0.025 C 
HETATM   13  C23 UNL     1       0.438  53.191 -25.817  1.00  0.00     0.011 C 
HETATM   14  C24 UNL     1      -0.918  53.689 -25.314  1.00  0.00     0.039 C 
HETATM   15  C25 UNL     1      -1.750  52.433 -25.006  1.00  0.00     0.070 C 
HETATM   16  C26 UNL     1      -2.253  50.048 -21.876  1.00  0.00    -0.033 C 
HETATM   17  C27 UNL     1      -3.807  50.089 -21.853  1.00  0.00     0.016 C 
HETATM   18  C28 UNL     1      -1.849  48.571 -21.522  1.00  0.00     0.016 C 
HETATM   19  C29 UNL     1      -0.800  48.405 -20.421  1.00  0.00     0.065 C 
ENDROOT
BRANCH   1  20
HETATM   20  O4  UNL     1      -0.751  48.813 -18.011  1.00  0.00    -0.325 OA
BRANCH  20  21
HETATM   21  C8  UNL     1      -0.581  49.851 -17.026  1.00  0.00     0.269 C 
HETATM   22  C7  UNL     1      -0.705  49.163 -15.667  1.00  0.00     0.095 C 
HETATM   23  C6  UNL     1      -0.411  50.113 -14.516  1.00  0.00     0.154 C 
HETATM   24  C5  UNL     1       0.897  50.900 -14.739  1.00  0.00     0.182 C 
HETATM   25  C30 UNL     1       0.885  51.503 -16.156  1.00  0.00     0.152 C 
HETATM   26  O7  UNL     1       0.709  50.467 -17.126  1.00  0.00    -0.353 OA
HETATM   27  C31 UNL     1       2.200  52.206 -16.481  1.00  0.00     0.042 C 
BRANCH  23  28
HETATM   28  O3  UNL     1      -1.507  51.019 -14.357  1.00  0.00    -0.393 OA
HETATM   29  H10 UNL     1      -1.257  51.578 -13.590  1.00  0.00     0.210 HD
ENDBRANCH  23  28
BRANCH  24  30
HETATM   30  O2  UNL     1       1.080  51.957 -13.784  1.00  0.00    -0.351 OA
BRANCH  30  31
HETATM   31  C4  UNL     1       1.456  51.510 -12.483  1.00  0.00     0.263 C 
HETATM   32  C3  UNL     1       2.809  52.136 -12.153  1.00  0.00     0.095 C 
HETATM   33  C2  UNL     1       3.243  51.741 -10.744  1.00  0.00     0.156 C 
HETATM   34  C34 UNL     1       2.128  52.083  -9.738  1.00  0.00     0.175 C 
HETATM   35  C32 UNL     1       0.781  51.507 -10.213  1.00  0.00     0.151 C 
HETATM   36  O8  UNL     1       0.483  51.961 -11.542  1.00  0.00    -0.354 OA
HETATM   37  C33 UNL     1      -0.367  51.943  -9.309  1.00  0.00     0.042 C 
BRANCH  33  38
HETATM   38  O1  UNL     1       3.477  50.320 -10.649  1.00  0.00    -0.388 OA
HETATM   39  C1  UNL     1       4.862  49.980 -10.623  1.00  0.00     0.202 C 
ENDBRANCH  33  38
BRANCH  34  40
HETATM   40  O9  UNL     1       2.476  51.560  -8.454  1.00  0.00    -0.390 OA
HETATM   41  H56 UNL     1       2.827  50.663  -8.622  1.00  0.00     0.210 HD
ENDBRANCH  34  40
ENDBRANCH  30  31
ENDBRANCH  24  30
ENDBRANCH  20  21
ENDBRANCH   1  20
BRANCH  15  42
HETATM   42  O6  UNL     1      -3.128  52.726 -25.283  1.00  0.00    -0.389 OA
HETATM   43  H39 UNL     1      -3.366  53.528 -24.787  1.00  0.00     0.210 HD
ENDBRANCH  15  42
BRANCH  12  44
HETATM   44  C21 UNL     1       1.200  51.078 -27.095  1.00  0.00     0.119 C 
HETATM   45  C22 UNL     1       2.670  51.440 -26.899  1.00  0.00     0.040 C 
BRANCH  44  46
HETATM   46  O5  UNL     1       0.800  51.563 -28.372  1.00  0.00    -0.396 OA
HETATM   47  H34 UNL     1       1.355  51.129 -29.042  1.00  0.00     0.210 HD
ENDBRANCH  44  46
ENDBRANCH  12  44
TORSDOF 10
ENDMDL
MODEL 5
REMARK minimizedAffinity -8.70416546
REMARK CNNscore 0.473317355
REMARK CNNaffinity 6.47956419
REMARK  10 active torsions:
REMARK  status: ('A' for Active; 'I' for Inactive)
REMARK    1  A    between atoms: O1_2  and  C2_3 
REMARK    2  A    between atoms: C4_5  and  O2_6 
REMARK    3  A    between atoms: O2_6  and  C5_7 
REMARK    4  A    between atoms: C6_8  and  O3_9 
REMARK    5  A    between atoms: C8_11  and  O4_12 
REMARK    6  A    between atoms: O4_12  and  C9_13 
REMARK    7  A    between atoms: C20_24  and  C21_25 
REMARK    8  A    between atoms: C21_25  and  O5_27 
REMARK    9  A    between atoms: C25_30  and  O6_31 
REMARK   10  A    between atoms: C34_42  and  O9_43 
ROOT
HETATM    1  C9  UNL     1     -13.701  44.802 -27.510  1.00  0.00     0.046 C 
HETATM    2  C10 UNL     1     -12.633  44.962 -26.720  1.00  0.00     0.011 C 
HETATM    3  C11 UNL     1     -11.385  45.644 -27.205  1.00  0.00     0.019 C 
HETATM    4  C12 UNL     1     -10.426  44.571 -27.760  1.00  0.00     0.010 C 
HETATM    5  C13 UNL     1      -9.052  45.135 -28.141  1.00  0.00     0.009 C 
HETATM    6  C14 UNL     1      -9.092  46.629 -28.513  1.00  0.00     0.025 C 
HETATM    7  C15 UNL     1     -10.432  46.909 -29.238  1.00  0.00     0.001 C 
HETATM    8  C16 UNL     1     -10.344  48.206 -30.043  1.00  0.00     0.007 C 
HETATM    9  C17 UNL     1      -9.346  48.036 -31.186  1.00  0.00     0.013 C 
HETATM   10  C18 UNL     1      -7.954  47.509 -30.750  1.00  0.00    -0.007 C 
HETATM   11  C19 UNL     1      -6.909  48.554 -31.227  1.00  0.00     0.019 C 
HETATM   12  C20 UNL     1      -7.653  46.085 -31.320  1.00  0.00     0.025 C 
HETATM   13  C23 UNL     1      -6.520  45.547 -30.419  1.00  0.00     0.011 C 
HETATM   14  C24 UNL     1      -6.560  46.369 -29.130  1.00  0.00     0.039 C 
HETATM   15  C25 UNL     1      -7.826  47.239 -29.214  1.00  0.00     0.070 C 
HETATM   16  C26 UNL     1     -11.646  46.812 -28.234  1.00  0.00    -0.033 C 
HETATM   17  C27 UNL     1     -11.781  48.129 -27.417  1.00  0.00     0.016 C 
HETATM   18  C28 UNL     1     -12.991  46.651 -29.030  1.00  0.00     0.016 C 
HETATM   19  C29 UNL     1     -13.678  45.289 -28.923  1.00  0.00     0.065 C 
ENDROOT
BRANCH   1  20
HETATM   20  O4  UNL     1     -14.794  44.058 -27.128  1.00  0.00    -0.325 OA
BRANCH  20  21
HETATM   21  C8  UNL     1     -15.863  44.855 -26.580  1.00  0.00     0.269 C 
HETATM   22  C7  UNL     1     -17.042  43.900 -26.393  1.00  0.00     0.095 C 
HETATM   23  C6  UNL     1     -18.212  44.570 -25.688  1.00  0.00     0.154 C 
HETATM   24  C5  UNL     1     -17.766  45.322 -24.418  1.00  0.00     0.182 C 
HETATM   25  C30 UNL     1     -16.556  46.212 -24.761  1.00  0.00     0.152 C 
HETATM   26  O7  UNL     1     -15.505  45.414 -25.311  1.00  0.00    -0.353 OA
HETATM   27  C31 UNL     1     -15.997  46.904 -23.520  1.00  0.00     0.042 C 
BRANCH  23  28
HETATM   28  O3  UNL     1     -18.856  45.473 -26.592  1.00  0.00    -0.393 OA
HETATM   29  H10 UNL     1     -19.606  45.844 -26.080  1.00  0.00     0.210 HD
ENDBRANCH  23  28
BRANCH  24  30
HETATM   30  O2  UNL     1     -18.807  46.143 -23.863  1.00  0.00    -0.351 OA
BRANCH  30  31
HETATM   31  C4  UNL     1     -19.218  45.757 -22.554  1.00  0.00     0.263 C 
HETATM   32  C3  UNL     1     -18.719  44.334 -22.314  1.00  0.00     0.095 C 
HETATM   33  C2  UNL     1     -19.078  43.879 -20.902  1.00  0.00     0.156 C 
HETATM   34  C34 UNL     1     -18.567  44.908 -19.876  1.00  0.00     0.175 C 
HETATM   35  C32 UNL     1     -19.026  46.326 -20.263  1.00  0.00     0.151 C 
HETATM   36  O8  UNL     1     -18.618  46.635 -21.603  1.00  0.00    -0.354 OA
HETATM   37  C33 UNL     1     -18.425  47.382 -19.342  1.00  0.00     0.042 C 
BRANCH  33  38
HETATM   38  O1  UNL     1     -20.508  43.786 -20.732  1.00  0.00    -0.388 OA
HETATM   39  C1  UNL     1     -21.001  42.451 -20.841  1.00  0.00     0.202 C 
ENDBRANCH  33  38
BRANCH  34  40
HETATM   40  O9  UNL     1     -19.052  44.557 -18.578  1.00  0.00    -0.390 OA
HETATM   41  H56 UNL     1     -19.988  44.306 -18.705  1.00  0.00     0.210 HD
ENDBRANCH  34  40
ENDBRANCH  30  31
ENDBRANCH  24  30
ENDBRANCH  20  21
ENDBRANCH   1  20
BRANCH  15  42
HETATM   42  O6  UNL     1      -7.563  48.481 -28.542  1.00  0.00    -0.389 OA
HETATM   43  H39 UNL     1      -7.247  48.273 -27.646  1.00  0.00     0.210 HD
ENDBRANCH  15  42
BRANCH  12  44
HETATM   44  C21 UNL     1      -7.357  45.968 -32.829  1.00  0.00     0.119 C 
HETATM   45  C22 UNL     1      -8.408  45.126 -33.547  1.00  0.00     0.040 C 
BRANCH  44  46
HETATM   46  O5  UNL     1      -6.088  45.366 -33.058  1.00  0.00    -0.396 OA
HETATM   47  H34 UNL     1      -5.930  45.361 -34.017  1.00  0.00     0.210 HD
ENDBRANCH  44  46
ENDBRANCH  12  44
TORSDOF 10
ENDMDL
MODEL 6
REMARK minimizedAffinity -8.29545307
REMARK CNNscore 0.436094463
REMARK CNNaffinity 6.19761229
REMARK  10 active torsions:
REMARK  status: ('A' for Active; 'I' for Inactive)
REMARK    1  A    between atoms: O1_2  and  C2_3 
REMARK    2  A    between atoms: C4_5  and  O2_6 
REMARK    3  A    between atoms: O2_6  and  C5_7 
REMARK    4  A    between atoms: C6_8  and  O3_9 
REMARK    5  A    between atoms: C8_11  and  O4_12 
REMARK    6  A    between atoms: O4_12  and  C9_13 
REMARK    7  A    between atoms: C20_24  and  C21_25 
REMARK    8  A    between atoms: C21_25  and  O5_27 
REMARK    9  A    between atoms: C25_30  and  O6_31 
REMARK   10  A    between atoms: C34_42  and  O9_43 
ROOT
HETATM    1  C9  UNL     1     -11.425  47.292 -27.806  1.00  0.00     0.046 C 
HETATM    2  C10 UNL     1     -11.279  46.284 -26.938  1.00  0.00     0.011 C 
HETATM    3  C11 UNL     1     -12.458  45.509 -26.421  1.00  0.00     0.019 C 
HETATM    4  C12 UNL     1     -12.934  46.160 -25.108  1.00  0.00     0.010 C 
HETATM    5  C13 UNL     1     -14.037  45.360 -24.406  1.00  0.00     0.009 C 
HETATM    6  C14 UNL     1     -14.873  44.502 -25.375  1.00  0.00     0.025 C 
HETATM    7  C15 UNL     1     -15.009  45.278 -26.709  1.00  0.00     0.001 C 
HETATM    8  C16 UNL     1     -16.186  44.739 -27.523  1.00  0.00     0.007 C 
HETATM    9  C17 UNL     1     -17.495  45.041 -26.797  1.00  0.00     0.013 C 
HETATM   10  C18 UNL     1     -17.531  44.577 -25.318  1.00  0.00    -0.007 C 
HETATM   11  C19 UNL     1     -18.749  43.625 -25.175  1.00  0.00     0.019 C 
HETATM   12  C20 UNL     1     -17.612  45.777 -24.320  1.00  0.00     0.025 C 
HETATM   13  C23 UNL     1     -17.149  45.184 -22.973  1.00  0.00     0.011 C 
HETATM   14  C24 UNL     1     -16.362  43.914 -23.302  1.00  0.00     0.039 C 
HETATM   15  C25 UNL     1     -16.212  43.887 -24.833  1.00  0.00     0.070 C 
HETATM   16  C26 UNL     1     -13.627  45.336 -27.469  1.00  0.00    -0.033 C 
HETATM   17  C27 UNL     1     -13.371  44.007 -28.235  1.00  0.00     0.016 C 
HETATM   18  C28 UNL     1     -13.659  46.470 -28.557  1.00  0.00     0.016 C 
HETATM   19  C29 UNL     1     -12.783  47.693 -28.282  1.00  0.00     0.065 C 
ENDROOT
BRANCH   1  20
HETATM   20  O4  UNL     1     -10.374  48.099 -28.178  1.00  0.00    -0.325 OA
BRANCH  20  21
HETATM   21  C8  UNL     1      -9.095  47.621 -27.716  1.00  0.00     0.269 C 
HETATM   22  C7  UNL     1      -8.064  48.168 -28.702  1.00  0.00     0.095 C 
HETATM   23  C6  UNL     1      -6.638  47.860 -28.268  1.00  0.00     0.154 C 
HETATM   24  C5  UNL     1      -6.396  48.226 -26.789  1.00  0.00     0.182 C 
HETATM   25  C30 UNL     1      -7.530  47.634 -25.932  1.00  0.00     0.152 C 
HETATM   26  O7  UNL     1      -8.795  48.107 -26.403  1.00  0.00    -0.353 OA
HETATM   27  C31 UNL     1      -7.407  48.051 -24.469  1.00  0.00     0.042 C 
BRANCH  23  28
HETATM   28  O3  UNL     1      -6.368  46.471 -28.480  1.00  0.00    -0.393 OA
HETATM   29  H10 UNL     1      -5.435  46.355 -28.202  1.00  0.00     0.210 HD
ENDBRANCH  23  28
BRANCH  24  30
HETATM   30  O2  UNL     1      -5.136  47.741 -26.295  1.00  0.00    -0.351 OA
BRANCH  30  31
HETATM   31  C4  UNL     1      -4.213  48.768 -25.943  1.00  0.00     0.263 C 
HETATM   32  C3  UNL     1      -3.678  49.372 -27.239  1.00  0.00     0.095 C 
HETATM   33  C2  UNL     1      -2.723  50.523 -26.931  1.00  0.00     0.156 C 
HETATM   34  C34 UNL     1      -3.412  51.538 -26.000  1.00  0.00     0.175 C 
HETATM   35  C32 UNL     1      -4.019  50.822 -24.779  1.00  0.00     0.151 C 
HETATM   36  O8  UNL     1      -4.903  49.774 -25.202  1.00  0.00    -0.354 OA
HETATM   37  C33 UNL     1      -4.822  51.780 -23.907  1.00  0.00     0.042 C 
BRANCH  33  38
HETATM   38  O1  UNL     1      -1.543  50.052 -26.246  1.00  0.00    -0.388 OA
HETATM   39  C1  UNL     1      -0.340  50.649 -26.725  1.00  0.00     0.202 C 
ENDBRANCH  33  38
BRANCH  34  40
HETATM   40  O9  UNL     1      -2.458  52.519 -25.587  1.00  0.00    -0.390 OA
HETATM   41  H56 UNL     1      -1.644  52.021 -25.374  1.00  0.00     0.210 HD
ENDBRANCH  34  40
ENDBRANCH  30  31
ENDBRANCH  24  30
ENDBRANCH  20  21
ENDBRANCH   1  20
BRANCH  15  42
HETATM   42  O6  UNL     1     -16.218  42.516 -25.260  1.00  0.00    -0.389 OA
HETATM   43  H39 UNL     1     -15.533  42.045 -24.756  1.00  0.00     0.210 HD
ENDBRANCH  15  42
BRANCH  12  44
HETATM   44  C21 UNL     1     -18.947  46.545 -24.236  1.00  0.00     0.119 C 
HETATM   45  C22 UNL     1     -20.087  45.773 -24.895  1.00  0.00     0.040 C 
BRANCH  44  46
HETATM   46  O5  UNL     1     -18.852  47.812 -24.878  1.00  0.00    -0.396 OA
HETATM   47  H34 UNL     1     -19.700  48.273 -24.753  1.00  0.00     0.210 HD
ENDBRANCH  44  46
ENDBRANCH  12  44
TORSDOF 10
ENDMDL
MODEL 7
REMARK minimizedAffinity -10.1449003
REMARK CNNscore 0.424410641
REMARK CNNaffinity 7.30748749
REMARK  10 active torsions:
REMARK  status: ('A' for Active; 'I' for Inactive)
REMARK    1  A    between atoms: O1_2  and  C2_3 
REMARK    2  A    between atoms: C4_5  and  O2_6 
REMARK    3  A    between atoms: O2_6  and  C5_7 
REMARK    4  A    between atoms: C6_8  and  O3_9 
REMARK    5  A    between atoms: C8_11  and  O4_12 
REMARK    6  A    between atoms: O4_12  and  C9_13 
REMARK    7  A    between atoms: C20_24  and  C21_25 
REMARK    8  A    between atoms: C21_25  and  O5_27 
REMARK    9  A    between atoms: C25_30  and  O6_31 
REMARK   10  A    between atoms: C34_42  and  O9_43 
ROOT
HETATM    1  C9  UNL     1      -1.317  49.345 -19.334  1.00  0.00     0.046 C 
HETATM    2  C10 UNL     1      -1.747  50.593 -19.553  1.00  0.00     0.011 C 
HETATM    3  C11 UNL     1      -1.912  51.142 -20.942  1.00  0.00     0.019 C 
HETATM    4  C12 UNL     1      -0.605  51.854 -21.343  1.00  0.00     0.010 C 
HETATM    5  C13 UNL     1      -0.710  52.590 -22.684  1.00  0.00     0.009 C 
HETATM    6  C14 UNL     1      -1.766  51.982 -23.627  1.00  0.00     0.025 C 
HETATM    7  C15 UNL     1      -1.770  50.446 -23.419  1.00  0.00     0.001 C 
HETATM    8  C16 UNL     1      -2.413  49.747 -24.616  1.00  0.00     0.007 C 
HETATM    9  C17 UNL     1      -1.542  49.939 -25.856  1.00  0.00     0.013 C 
HETATM   10  C18 UNL     1      -1.170  51.414 -26.157  1.00  0.00    -0.007 C 
HETATM   11  C19 UNL     1      -1.665  51.717 -27.597  1.00  0.00     0.019 C 
HETATM   12  C20 UNL     1       0.361  51.685 -26.001  1.00  0.00     0.025 C 
HETATM   13  C23 UNL     1       0.463  53.217 -25.847  1.00  0.00     0.011 C 
HETATM   14  C24 UNL     1      -0.920  53.705 -25.409  1.00  0.00     0.039 C 
HETATM   15  C25 UNL     1      -1.752  52.442 -25.129  1.00  0.00     0.070 C 
HETATM   16  C26 UNL     1      -2.369  50.072 -22.009  1.00  0.00    -0.033 C 
HETATM   17  C27 UNL     1      -3.923  50.098 -22.055  1.00  0.00     0.016 C 
HETATM   18  C28 UNL     1      -1.967  48.601 -21.627  1.00  0.00     0.016 C 
HETATM   19  C29 UNL     1      -0.966  48.453 -20.480  1.00  0.00     0.065 C 
ENDROOT
BRANCH   1  20
HETATM   20  O4  UNL     1      -1.028  48.877 -18.072  1.00  0.00    -0.325 OA
BRANCH  20  21
HETATM   21  C8  UNL     1      -1.317  49.829 -17.030  1.00  0.00     0.269 C 
HETATM   22  C7  UNL     1      -2.453  49.219 -16.210  1.00  0.00     0.095 C 
HETATM   23  C6  UNL     1      -2.781  50.053 -14.980  1.00  0.00     0.154 C 
HETATM   24  C5  UNL     1      -1.515  50.421 -14.180  1.00  0.00     0.182 C 
HETATM   25  C30 UNL     1      -0.458  50.988 -15.146  1.00  0.00     0.152 C 
HETATM   26  O7  UNL     1      -0.184  50.040 -16.180  1.00  0.00    -0.353 OA
HETATM   27  C31 UNL     1       0.861  51.273 -14.432  1.00  0.00     0.042 C 
BRANCH  23  28
HETATM   28  O3  UNL     1      -3.470  51.241 -15.382  1.00  0.00    -0.393 OA
HETATM   29  H10 UNL     1      -3.666  51.709 -14.543  1.00  0.00     0.210 HD
ENDBRANCH  23  28
BRANCH  24  30
HETATM   30  O2  UNL     1      -1.770  51.388 -13.148  1.00  0.00    -0.351 OA
BRANCH  30  31
HETATM   31  C4  UNL     1      -2.431  50.856 -12.002  1.00  0.00     0.263 C 
HETATM   32  C3  UNL     1      -3.099  52.020 -11.273  1.00  0.00     0.095 C 
HETATM   33  C2  UNL     1      -3.875  51.509 -10.062  1.00  0.00     0.156 C 
HETATM   34  C34 UNL     1      -4.847  50.396 -10.496  1.00  0.00     0.175 C 
HETATM   35  C32 UNL     1      -4.105  49.327 -11.320  1.00  0.00     0.151 C 
HETATM   36  O8  UNL     1      -3.429  49.932 -12.431  1.00  0.00    -0.354 OA
HETATM   37  C33 UNL     1      -5.064  48.281 -11.877  1.00  0.00     0.042 C 
BRANCH  33  38
HETATM   38  O1  UNL     1      -2.988  50.938  -9.078  1.00  0.00    -0.388 OA
HETATM   39  C1  UNL     1      -2.072  51.884  -8.530  1.00  0.00     0.202 C 
ENDBRANCH  33  38
BRANCH  34  40
HETATM   40  O9  UNL     1      -5.443  49.814  -9.335  1.00  0.00    -0.390 OA
HETATM   41  H56 UNL     1      -4.716  49.707  -8.691  1.00  0.00     0.210 HD
ENDBRANCH  34  40
ENDBRANCH  30  31
ENDBRANCH  24  30
ENDBRANCH  20  21
ENDBRANCH   1  20
BRANCH  15  42
HETATM   42  O6  UNL     1      -3.119  52.720 -25.469  1.00  0.00    -0.389 OA
HETATM   43  H39 UNL     1      -3.387  53.522 -24.990  1.00  0.00     0.210 HD
ENDBRANCH  15  42
BRANCH  12  44
HETATM   44  C21 UNL     1       1.301  51.104 -27.076  1.00  0.00     0.119 C 
HETATM   45  C22 UNL     1       2.762  51.444 -26.793  1.00  0.00     0.040 C 
BRANCH  44  46
HETATM   46  O5  UNL     1       0.981  51.611 -28.367  1.00  0.00    -0.396 OA
HETATM   47  H34 UNL     1       1.567  51.178 -29.011  1.00  0.00     0.210 HD
ENDBRANCH  44  46
ENDBRANCH  12  44
TORSDOF 10
ENDMDL
MODEL 8
REMARK minimizedAffinity -8.33234596
REMARK CNNscore 0.398379683
REMARK CNNaffinity 6.2292428
REMARK  10 active torsions:
REMARK  status: ('A' for Active; 'I' for Inactive)
REMARK    1  A    between atoms: O1_2  and  C2_3 
REMARK    2  A    between atoms: C4_5  and  O2_6 
REMARK    3  A    between atoms: O2_6  and  C5_7 
REMARK    4  A    between atoms: C6_8  and  O3_9 
REMARK    5  A    between atoms: C8_11  and  O4_12 
REMARK    6  A    between atoms: O4_12  and  C9_13 
REMARK    7  A    between atoms: C20_24  and  C21_25 
REMARK    8  A    between atoms: C21_25  and  O5_27 
REMARK    9  A    between atoms: C25_30  and  O6_31 
REMARK   10  A    between atoms: C34_42  and  O9_43 
ROOT
HETATM    1  C9  UNL     1       8.110  63.303 -35.383  1.00  0.00     0.046 C 
HETATM    2  C10 UNL     1       8.342  64.620 -35.440  1.00  0.00     0.011 C 
HETATM    3  C11 UNL     1       7.232  65.611 -35.653  1.00  0.00     0.019 C 
HETATM    4  C12 UNL     1       7.105  65.883 -37.165  1.00  0.00     0.010 C 
HETATM    5  C13 UNL     1       6.105  66.999 -37.491  1.00  0.00     0.009 C 
HETATM    6  C14 UNL     1       5.010  67.163 -36.420  1.00  0.00     0.025 C 
HETATM    7  C15 UNL     1       4.668  65.759 -35.862  1.00  0.00     0.001 C 
HETATM    8  C16 UNL     1       3.302  65.774 -35.176  1.00  0.00     0.007 C 
HETATM    9  C17 UNL     1       2.208  66.025 -36.211  1.00  0.00     0.013 C 
HETATM   10  C18 UNL     1       2.441  67.273 -37.102  1.00  0.00    -0.007 C 
HETATM   11  C19 UNL     1       1.198  68.187 -36.929  1.00  0.00     0.019 C 
HETATM   12  C20 UNL     1       2.681  66.897 -38.600  1.00  0.00     0.025 C 
HETATM   13  C23 UNL     1       3.361  68.145 -39.201  1.00  0.00     0.011 C 
HETATM   14  C24 UNL     1       3.942  68.934 -38.027  1.00  0.00     0.039 C 
HETATM   15  C25 UNL     1       3.764  68.047 -36.783  1.00  0.00     0.070 C 
HETATM   16  C26 UNL     1       5.859  65.193 -34.996  1.00  0.00    -0.033 C 
HETATM   17  C27 UNL     1       5.826  65.800 -33.564  1.00  0.00     0.016 C 
HETATM   18  C28 UNL     1       5.702  63.640 -34.816  1.00  0.00     0.016 C 
HETATM   19  C29 UNL     1       6.725  62.770 -35.549  1.00  0.00     0.065 C 
ENDROOT
BRANCH   1  20
HETATM   20  O4  UNL     1       9.129  62.379 -35.330  1.00  0.00    -0.325 OA
BRANCH  20  21
HETATM   21  C8  UNL     1      10.319  62.800 -36.024  1.00  0.00     0.269 C 
HETATM   22  C7  UNL     1      11.419  62.867 -34.966  1.00  0.00     0.095 C 
HETATM   23  C6  UNL     1      12.780  63.168 -35.575  1.00  0.00     0.154 C 
HETATM   24  C5  UNL     1      13.084  62.260 -36.784  1.00  0.00     0.182 C 
HETATM   25  C30 UNL     1      11.874  62.273 -37.737  1.00  0.00     0.152 C 
HETATM   26  O7  UNL     1      10.697  61.861 -37.038  1.00  0.00    -0.353 OA
HETATM   27  C31 UNL     1      12.068  61.307 -38.904  1.00  0.00     0.042 C 
BRANCH  23  28
HETATM   28  O3  UNL     1      12.829  64.543 -35.970  1.00  0.00    -0.393 OA
HETATM   29  H10 UNL     1      13.735  64.666 -36.327  1.00  0.00     0.210 HD
ENDBRANCH  23  28
BRANCH  24  30
HETATM   30  O2  UNL     1      14.254  62.672 -37.509  1.00  0.00    -0.351 OA
BRANCH  30  31
HETATM   31  C4  UNL     1      14.252  62.292 -38.883  1.00  0.00     0.263 C 
HETATM   32  C3  UNL     1      14.677  63.510 -39.700  1.00  0.00     0.095 C 
HETATM   33  C2  UNL     1      14.751  63.153 -41.182  1.00  0.00     0.156 C 
HETATM   34  C34 UNL     1      15.652  61.919 -41.377  1.00  0.00     0.175 C 
HETATM   35  C32 UNL     1      15.219  60.783 -40.432  1.00  0.00     0.151 C 
HETATM   36  O8  UNL     1      15.200  61.242 -39.072  1.00  0.00    -0.354 OA
HETATM   37  C33 UNL     1      16.173  59.596 -40.505  1.00  0.00     0.042 C 
BRANCH  33  38
HETATM   38  O1  UNL     1      13.449  62.813 -41.703  1.00  0.00    -0.388 OA
HETATM   39  C1  UNL     1      12.996  63.712 -42.713  1.00  0.00     0.202 C 
ENDBRANCH  33  38
BRANCH  34  40
HETATM   40  O9  UNL     1      15.581  61.495 -42.740  1.00  0.00    -0.390 OA
HETATM   41  H56 UNL     1      14.635  61.546 -42.983  1.00  0.00     0.210 HD
ENDBRANCH  34  40
ENDBRANCH  30  31
ENDBRANCH  24  30
ENDBRANCH  20  21
ENDBRANCH   1  20
BRANCH  15  42
HETATM   42  O6  UNL     1       3.543  68.902 -35.650  1.00  0.00    -0.389 OA
HETATM   43  H39 UNL     1       4.273  69.543 -35.615  1.00  0.00     0.210 HD
ENDBRANCH  15  42
BRANCH  12  44
HETATM   44  C21 UNL     1       1.470  66.396 -39.412  1.00  0.00     0.119 C 
HETATM   45  C22 UNL     1       1.358  67.109 -40.757  1.00  0.00     0.040 C 
BRANCH  44  46
HETATM   46  O5  UNL     1       0.253  66.609 -38.706  1.00  0.00    -0.396 OA
HETATM   47  H34 UNL     1      -0.470  66.233 -39.237  1.00  0.00     0.210 HD
ENDBRANCH  44  46
ENDBRANCH  12  44
TORSDOF 10
ENDMDL
MODEL 9
REMARK minimizedAffinity -9.04143333
REMARK CNNscore 0.379996061
REMARK CNNaffinity 6.45276403
REMARK  10 active torsions:
REMARK  status: ('A' for Active; 'I' for Inactive)
REMARK    1  A    between atoms: O1_2  and  C2_3 
REMARK    2  A    between atoms: C4_5  and  O2_6 
REMARK    3  A    between atoms: O2_6  and  C5_7 
REMARK    4  A    between atoms: C6_8  and  O3_9 
REMARK    5  A    between atoms: C8_11  and  O4_12 
REMARK    6  A    between atoms: O4_12  and  C9_13 
REMARK    7  A    between atoms: C20_24  and  C21_25 
REMARK    8  A    between atoms: C21_25  and  O5_27 
REMARK    9  A    between atoms: C25_30  and  O6_31 
REMARK   10  A    between atoms: C34_42  and  O9_43 
ROOT
HETATM    1  C9  UNL     1      -0.829  50.595 -18.595  1.00  0.00     0.046 C 
HETATM    2  C10 UNL     1      -2.027  51.154 -18.383  1.00  0.00     0.011 C 
HETATM    3  C11 UNL     1      -3.278  50.607 -19.009  1.00  0.00     0.019 C 
HETATM    4  C12 UNL     1      -3.518  51.342 -20.343  1.00  0.00     0.010 C 
HETATM    5  C13 UNL     1      -4.855  50.975 -20.997  1.00  0.00     0.009 C 
HETATM    6  C14 UNL     1      -5.358  49.573 -20.604  1.00  0.00     0.025 C 
HETATM    7  C15 UNL     1      -4.126  48.646 -20.450  1.00  0.00     0.001 C 
HETATM    8  C16 UNL     1      -4.547  47.178 -20.537  1.00  0.00     0.007 C 
HETATM    9  C17 UNL     1      -5.054  46.871 -21.945  1.00  0.00     0.013 C 
HETATM   10  C18 UNL     1      -6.153  47.838 -22.457  1.00  0.00    -0.007 C 
HETATM   11  C19 UNL     1      -7.383  46.966 -22.826  1.00  0.00     0.019 C 
HETATM   12  C20 UNL     1      -5.669  48.700 -23.667  1.00  0.00     0.025 C 
HETATM   13  C23 UNL     1      -6.655  49.887 -23.708  1.00  0.00     0.011 C 
HETATM   14  C24 UNL     1      -7.295  49.971 -22.321  1.00  0.00     0.039 C 
HETATM   15  C25 UNL     1      -6.540  48.962 -21.438  1.00  0.00     0.070 C 
HETATM   16  C26 UNL     1      -3.284  49.037 -19.174  1.00  0.00    -0.033 C 
HETATM   17  C27 UNL     1      -3.930  48.438 -17.892  1.00  0.00     0.016 C 
HETATM   18  C28 UNL     1      -1.844  48.415 -19.269  1.00  0.00     0.016 C 
HETATM   19  C29 UNL     1      -0.697  49.404 -19.487  1.00  0.00     0.065 C 
ENDROOT
BRANCH   1  20
HETATM   20  O4  UNL     1       0.340  51.165 -18.145  1.00  0.00    -0.325 OA
BRANCH  20  21
HETATM   21  C8  UNL     1       0.545  51.002 -16.728  1.00  0.00     0.269 C 
HETATM   22  C7  UNL     1       1.453  52.155 -16.301  1.00  0.00     0.095 C 
HETATM   23  C6  UNL     1       1.651  52.198 -14.794  1.00  0.00     0.154 C 
HETATM   24  C5  UNL     1       0.313  52.097 -14.033  1.00  0.00     0.182 C 
HETATM   25  C30 UNL     1      -0.496  50.914 -14.597  1.00  0.00     0.152 C 
HETATM   26  O7  UNL     1      -0.689  51.082 -16.004  1.00  0.00    -0.353 OA
HETATM   27  C31 UNL     1      -1.881  50.825 -13.959  1.00  0.00     0.042 C 
BRANCH  23  28
HETATM   28  O3  UNL     1       2.521  51.133 -14.399  1.00  0.00    -0.393 OA
HETATM   29  H10 UNL     1       2.619  51.239 -13.429  1.00  0.00     0.210 HD
ENDBRANCH  23  28
BRANCH  24  30
HETATM   30  O2  UNL     1       0.489  51.910 -12.619  1.00  0.00    -0.351 OA
BRANCH  30  31
HETATM   31  C4  UNL     1       0.030  53.002 -11.825  1.00  0.00     0.263 C 
HETATM   32  C3  UNL     1      -0.847  52.428 -10.715  1.00  0.00     0.095 C 
HETATM   33  C2  UNL     1      -1.327  53.544  -9.790  1.00  0.00     0.156 C 
HETATM   34  C34 UNL     1      -0.120  54.357  -9.284  1.00  0.00     0.175 C 
HETATM   35  C32 UNL     1       0.766  54.795 -10.465  1.00  0.00     0.151 C 
HETATM   36  O8  UNL     1       1.157  53.657 -11.247  1.00  0.00    -0.354 OA
HETATM   37  C33 UNL     1       2.038  55.487  -9.987  1.00  0.00     0.042 C 
BRANCH  33  38
HETATM   38  O1  UNL     1      -2.194  54.462 -10.488  1.00  0.00    -0.388 OA
HETATM   39  C1  UNL     1      -3.540  54.001 -10.583  1.00  0.00     0.202 C 
ENDBRANCH  33  38
BRANCH  34  40
HETATM   40  O9  UNL     1      -0.591  55.494  -8.558  1.00  0.00    -0.390 OA
HETATM   41  H56 UNL     1      -1.333  55.854  -9.084  1.00  0.00     0.210 HD
ENDBRANCH  34  40
ENDBRANCH  30  31
ENDBRANCH  24  30
ENDBRANCH  20  21
ENDBRANCH   1  20
BRANCH  15  42
HETATM   42  O6  UNL     1      -7.464  48.425 -20.479  1.00  0.00    -0.389 OA
HETATM   43  H39 UNL     1      -7.878  49.172 -20.015  1.00  0.00     0.210 HD
ENDBRANCH  15  42
BRANCH  12  44
HETATM   44  C21 UNL     1      -5.495  47.989 -25.025  1.00  0.00     0.119 C 
HETATM   45  C22 UNL     1      -4.186  48.383 -25.705  1.00  0.00     0.040 C 
BRANCH  44  46
HETATM   46  O5  UNL     1      -6.560  48.310 -25.913  1.00  0.00    -0.396 OA
HETATM   47  H34 UNL     1      -6.428  47.801 -26.731  1.00  0.00     0.210 HD
ENDBRANCH  44  46
ENDBRANCH  12  44
TORSDOF 10
ENDMDL
