MODEL 1
REMARK minimizedAffinity -10.6249256
REMARK  5 active torsions:
REMARK  status: ('A' for Active; 'I' for Inactive)
REMARK    1  A    between atoms: C2_2  and  C3_3 
REMARK    2  A    between atoms: C20_20  and  O1_21 
REMARK    3  A    between atoms: O1_21  and  C21_22 
REMARK    4  A    between atoms: C21_22  and  C22_24 
REMARK    5  A    between atoms: C22_24  and  C23_25 
ROOT
HETATM    1  C3  UNL     1      -7.934   5.482  14.212  1.00  0.00     0.012 C 
HETATM    2  C4  UNL     1      -9.222   6.174  14.734  1.00  0.00     0.009 C 
HETATM    3  C5  UNL     1      -8.825   7.604  15.136  1.00  0.00     0.010 C 
HETATM    4  C6  UNL     1      -7.304   7.539  15.324  1.00  0.00    -0.039 C 
HETATM    5  C7  UNL     1      -7.008   6.933  16.721  1.00  0.00     0.015 C 
HETATM    6  C8  UNL     1      -6.590   8.889  15.188  1.00  0.00     0.010 C 
HETATM    7  C9  UNL     1      -5.060   8.715  15.110  1.00  0.00     0.011 C 
HETATM    8  C10 UNL     1      -4.566   7.700  14.015  1.00  0.00    -0.032 C 
HETATM    9  C11 UNL     1      -4.847   8.410  12.646  1.00  0.00     0.016 C 
HETATM   10  C12 UNL     1      -5.398   6.354  14.111  1.00  0.00    -0.000 C 
HETATM   11  C13 UNL     1      -4.966   5.353  13.033  1.00  0.00     0.006 C 
HETATM   12  C14 UNL     1      -3.465   5.057  13.059  1.00  0.00     0.006 C 
HETATM   13  C15 UNL     1      -2.579   6.324  13.025  1.00  0.00     0.003 C 
HETATM   14  C16 UNL     1      -1.019   6.041  12.843  1.00  0.00    -0.035 C 
HETATM   15  C17 UNL     1      -0.450   5.168  13.988  1.00  0.00     0.016 C 
HETATM   16  C18 UNL     1      -0.802   5.262  11.509  1.00  0.00     0.012 C 
HETATM   17  C19 UNL     1       0.653   5.183  11.054  1.00  0.00     0.034 C 
HETATM   18  C20 UNL     1       1.311   6.556  10.943  1.00  0.00     0.140 C 
HETATM   19  C26 UNL     1       1.205   7.402  12.250  1.00  0.00    -0.017 C 
HETATM   20  C27 UNL     1       1.683   8.840  11.906  1.00  0.00     0.018 C 
HETATM   21  C28 UNL     1       2.169   6.886  13.338  1.00  0.00     0.018 C 
HETATM   22  C29 UNL     1      -0.304   7.438  12.698  1.00  0.00     0.004 C 
HETATM   23  C30 UNL     1      -0.599   8.344  13.910  1.00  0.00     0.007 C 
HETATM   24  C31 UNL     1      -2.101   8.613  14.052  1.00  0.00     0.011 C 
HETATM   25  C32 UNL     1      -2.984   7.340  14.169  1.00  0.00    -0.032 C 
HETATM   26  C33 UNL     1      -2.713   6.740  15.582  1.00  0.00     0.016 C 
HETATM   27  C34 UNL     1      -6.917   6.640  14.124  1.00  0.00     0.006 C 
ENDROOT
BRANCH  18  28
HETATM   28  O1  UNL     1       2.696   6.319  10.602  1.00  0.00    -0.315 OA
BRANCH  28  29
HETATM   29  C21 UNL     1       3.026   6.282   9.284  1.00  0.00     0.259 C 
HETATM   30  O2  UNL     1       3.205   5.273   8.617  1.00  0.00    -0.265 OA
BRANCH  29  31
HETATM   31  C22 UNL     1       3.179   7.683   8.742  1.00  0.00     0.115 C 
BRANCH  31  32
HETATM   32  C23 UNL     1       2.123   8.043   7.690  1.00  0.00    -0.013 C 
HETATM   33  C24 UNL     1       2.006   6.920   6.659  1.00  0.00     0.010 C 
HETATM   34  C25 UNL     1       0.757   8.298   8.333  1.00  0.00     0.010 C 
ENDBRANCH  31  32
ENDBRANCH  29  31
ENDBRANCH  28  29
ENDBRANCH  18  28
BRANCH   1  35
HETATM   35  C2  UNL     1      -8.201   4.787  12.903  1.00  0.00    -0.032 C 
HETATM   36  C1  UNL     1      -8.118   3.461  12.725  1.00  0.00     0.007 C 
ENDBRANCH   1  35
TORSDOF 5
ENDMDL
MODEL 2
REMARK minimizedAffinity -9.66422749
REMARK  5 active torsions:
REMARK  status: ('A' for Active; 'I' for Inactive)
REMARK    1  A    between atoms: C2_2  and  C3_3 
REMARK    2  A    between atoms: C20_20  and  O1_21 
REMARK    3  A    between atoms: O1_21  and  C21_22 
REMARK    4  A    between atoms: C21_22  and  C22_24 
REMARK    5  A    between atoms: C22_24  and  C23_25 
ROOT
HETATM    1  C3  UNL     1      -7.829   5.440  14.087  1.00  0.00     0.012 C 
HETATM    2  C4  UNL     1      -9.167   6.111  14.495  1.00  0.00     0.009 C 
HETATM    3  C5  UNL     1      -8.836   7.561  14.885  1.00  0.00     0.010 C 
HETATM    4  C6  UNL     1      -7.331   7.541  15.183  1.00  0.00    -0.039 C 
HETATM    5  C7  UNL     1      -7.122   6.980  16.614  1.00  0.00     0.015 C 
HETATM    6  C8  UNL     1      -6.643   8.905  15.061  1.00  0.00     0.010 C 
HETATM    7  C9  UNL     1      -5.107   8.769  15.097  1.00  0.00     0.011 C 
HETATM    8  C10 UNL     1      -4.511   7.740  14.070  1.00  0.00    -0.032 C 
HETATM    9  C11 UNL     1      -4.709   8.406  12.664  1.00  0.00     0.016 C 
HETATM   10  C12 UNL     1      -5.314   6.375  14.143  1.00  0.00    -0.000 C 
HETATM   11  C13 UNL     1      -4.782   5.358  13.127  1.00  0.00     0.006 C 
HETATM   12  C14 UNL     1      -3.279   5.102  13.269  1.00  0.00     0.006 C 
HETATM   13  C15 UNL     1      -2.425   6.391  13.263  1.00  0.00     0.003 C 
HETATM   14  C16 UNL     1      -0.848   6.145  13.201  1.00  0.00    -0.035 C 
HETATM   15  C17 UNL     1      -0.343   5.317  14.408  1.00  0.00     0.016 C 
HETATM   16  C18 UNL     1      -0.517   5.337  11.909  1.00  0.00     0.012 C 
HETATM   17  C19 UNL     1       0.968   5.284  11.561  1.00  0.00     0.034 C 
HETATM   18  C20 UNL     1       1.599   6.671  11.458  1.00  0.00     0.140 C 
HETATM   19  C26 UNL     1       1.379   7.547  12.731  1.00  0.00    -0.017 C 
HETATM   20  C27 UNL     1       1.845   8.988  12.381  1.00  0.00     0.018 C 
HETATM   21  C28 UNL     1       2.274   7.086  13.899  1.00  0.00     0.018 C 
HETATM   22  C29 UNL     1      -0.159   7.556  13.068  1.00  0.00     0.004 C 
HETATM   23  C30 UNL     1      -0.564   8.485  14.230  1.00  0.00     0.007 C 
HETATM   24  C31 UNL     1      -2.077   8.718  14.257  1.00  0.00     0.011 C 
HETATM   25  C32 UNL     1      -2.936   7.425  14.346  1.00  0.00    -0.032 C 
HETATM   26  C33 UNL     1      -2.753   6.870  15.791  1.00  0.00     0.016 C 
HETATM   27  C34 UNL     1      -6.836   6.621  14.040  1.00  0.00     0.006 C 
ENDROOT
BRANCH  18  28
HETATM   28  O1  UNL     1       3.010   6.461  11.225  1.00  0.00    -0.315 OA
BRANCH  28  29
HETATM   29  C21 UNL     1       3.471   6.615   9.955  1.00  0.00     0.259 C 
HETATM   30  O2  UNL     1       3.410   5.779   9.063  1.00  0.00    -0.265 OA
BRANCH  29  31
HETATM   31  C22 UNL     1       4.113   7.971   9.790  1.00  0.00     0.115 C 
BRANCH  31  32
HETATM   32  C23 UNL     1       5.185   8.264  10.847  1.00  0.00    -0.013 C 
HETATM   33  C24 UNL     1       6.268   7.186  10.809  1.00  0.00     0.010 C 
HETATM   34  C25 UNL     1       5.818   9.642  10.635  1.00  0.00     0.010 C 
ENDBRANCH  31  32
ENDBRANCH  29  31
ENDBRANCH  28  29
ENDBRANCH  18  28
BRANCH   1  35
HETATM   35  C2  UNL     1      -7.984   4.704  12.782  1.00  0.00    -0.032 C 
HETATM   36  C1  UNL     1      -7.923   3.370  12.659  1.00  0.00     0.007 C 
ENDBRANCH   1  35
TORSDOF 5
ENDMDL
MODEL 3
REMARK minimizedAffinity -8.6318121
REMARK  5 active torsions:
REMARK  status: ('A' for Active; 'I' for Inactive)
REMARK    1  A    between atoms: C2_2  and  C3_3 
REMARK    2  A    between atoms: C20_20  and  O1_21 
REMARK    3  A    between atoms: O1_21  and  C21_22 
REMARK    4  A    between atoms: C21_22  and  C22_24 
REMARK    5  A    between atoms: C22_24  and  C23_25 
ROOT
HETATM    1  C3  UNL     1      -4.372   4.786  13.012  1.00  0.00     0.012 C 
HETATM    2  C4  UNL     1      -5.917   4.930  13.036  1.00  0.00     0.009 C 
HETATM    3  C5  UNL     1      -6.221   6.394  13.399  1.00  0.00     0.010 C 
HETATM    4  C6  UNL     1      -4.930   6.898  14.058  1.00  0.00    -0.039 C 
HETATM    5  C7  UNL     1      -4.907   6.409  15.529  1.00  0.00     0.015 C 
HETATM    6  C8  UNL     1      -4.752   8.420  14.019  1.00  0.00     0.010 C 
HETATM    7  C9  UNL     1      -3.327   8.834  14.439  1.00  0.00     0.011 C 
HETATM    8  C10 UNL     1      -2.172   8.109  13.659  1.00  0.00    -0.032 C 
HETATM    9  C11 UNL     1      -2.228   8.699  12.207  1.00  0.00     0.016 C 
HETATM   10  C12 UNL     1      -2.441   6.547  13.622  1.00  0.00    -0.000 C 
HETATM   11  C13 UNL     1      -1.350   5.811  12.836  1.00  0.00     0.006 C 
HETATM   12  C14 UNL     1       0.060   6.097  13.358  1.00  0.00     0.006 C 
HETATM   13  C15 UNL     1       0.385   7.604  13.478  1.00  0.00     0.003 C 
HETATM   14  C16 UNL     1       1.909   7.932  13.820  1.00  0.00    -0.035 C 
HETATM   15  C17 UNL     1       2.349   7.305  15.165  1.00  0.00     0.016 C 
HETATM   16  C18 UNL     1       2.816   7.327  12.704  1.00  0.00     0.012 C 
HETATM   17  C19 UNL     1       4.263   7.812  12.735  1.00  0.00     0.034 C 
HETATM   18  C20 UNL     1       4.376   9.334  12.700  1.00  0.00     0.140 C 
HETATM   19  C26 UNL     1       3.551  10.042  13.819  1.00  0.00    -0.017 C 
HETATM   20  C27 UNL     1       3.560  11.564  13.501  1.00  0.00     0.018 C 
HETATM   21  C28 UNL     1       4.225   9.896  15.199  1.00  0.00     0.018 C 
HETATM   22  C29 UNL     1       2.074   9.499  13.768  1.00  0.00     0.004 C 
HETATM   23  C30 UNL     1       1.093  10.195  14.733  1.00  0.00     0.007 C 
HETATM   24  C31 UNL     1      -0.362   9.877  14.372  1.00  0.00     0.011 C 
HETATM   25  C32 UNL     1      -0.710   8.363  14.333  1.00  0.00    -0.032 C 
HETATM   26  C33 UNL     1      -0.716   7.871  15.812  1.00  0.00     0.016 C 
HETATM   27  C34 UNL     1      -3.875   6.243  13.133  1.00  0.00     0.006 C 
ENDROOT
BRANCH  18  28
HETATM   28  O1  UNL     1       5.782   9.642  12.833  1.00  0.00    -0.315 OA
BRANCH  28  29
HETATM   29  C21 UNL     1       6.652   8.601  12.920  1.00  0.00     0.259 C 
HETATM   30  O2  UNL     1       6.397   7.430  12.678  1.00  0.00    -0.265 OA
BRANCH  29  31
HETATM   31  C22 UNL     1       8.001   9.084  13.397  1.00  0.00     0.115 C 
BRANCH  31  32
HETATM   32  C23 UNL     1       8.822   7.991  14.094  1.00  0.00    -0.013 C 
HETATM   33  C24 UNL     1      10.315   8.263  13.915  1.00  0.00     0.010 C 
HETATM   34  C25 UNL     1       8.486   7.906  15.585  1.00  0.00     0.010 C 
ENDBRANCH  31  32
ENDBRANCH  29  31
ENDBRANCH  28  29
ENDBRANCH  18  28
BRANCH   1  35
HETATM   35  C2  UNL     1      -3.927   4.077  11.760  1.00  0.00    -0.032 C 
HETATM   36  C1  UNL     1      -4.708   3.258  11.041  1.00  0.00     0.007 C 
ENDBRANCH   1  35
TORSDOF 5
ENDMDL
MODEL 4
REMARK minimizedAffinity -8.62952137
REMARK  5 active torsions:
REMARK  status: ('A' for Active; 'I' for Inactive)
REMARK    1  A    between atoms: C2_2  and  C3_3 
REMARK    2  A    between atoms: C20_20  and  O1_21 
REMARK    3  A    between atoms: O1_21  and  C21_22 
REMARK    4  A    between atoms: C21_22  and  C22_24 
REMARK    5  A    between atoms: C22_24  and  C23_25 
ROOT
HETATM    1  C3  UNL     1      -6.634   4.005  12.871  1.00  0.00     0.012 C 
HETATM    2  C4  UNL     1      -8.185   4.032  12.892  1.00  0.00     0.009 C 
HETATM    3  C5  UNL     1      -8.598   5.376  13.515  1.00  0.00     0.010 C 
HETATM    4  C6  UNL     1      -7.351   5.838  14.281  1.00  0.00    -0.039 C 
HETATM    5  C7  UNL     1      -7.300   5.086  15.636  1.00  0.00     0.015 C 
HETATM    6  C8  UNL     1      -7.285   7.349  14.530  1.00  0.00     0.010 C 
HETATM    7  C9  UNL     1      -5.896   7.778  15.046  1.00  0.00     0.011 C 
HETATM    8  C10 UNL     1      -4.687   7.296  14.166  1.00  0.00    -0.032 C 
HETATM    9  C11 UNL     1      -4.778   8.141  12.849  1.00  0.00     0.016 C 
HETATM   10  C12 UNL     1      -4.840   5.753  13.834  1.00  0.00    -0.000 C 
HETATM   11  C13 UNL     1      -3.694   5.256  12.946  1.00  0.00     0.006 C 
HETATM   12  C14 UNL     1      -2.312   5.540  13.538  1.00  0.00     0.006 C 
HETATM   13  C15 UNL     1      -2.099   7.017  13.943  1.00  0.00     0.003 C 
HETATM   14  C16 UNL     1      -0.605   7.383  14.369  1.00  0.00    -0.035 C 
HETATM   15  C17 UNL     1      -0.127   6.548  15.582  1.00  0.00     0.016 C 
HETATM   16  C18 UNL     1       0.350   7.064  13.177  1.00  0.00     0.012 C 
HETATM   17  C19 UNL     1       1.757   7.636  13.325  1.00  0.00     0.034 C 
HETATM   18  C20 UNL     1       1.759   9.142  13.576  1.00  0.00     0.140 C 
HETATM   19  C26 UNL     1       0.878   9.567  14.792  1.00  0.00    -0.017 C 
HETATM   20  C27 UNL     1       0.776  11.118  14.763  1.00  0.00     0.018 C 
HETATM   21  C28 UNL     1       1.554   9.214  16.133  1.00  0.00     0.018 C 
HETATM   22  C29 UNL     1      -0.555   8.939  14.613  1.00  0.00     0.004 C 
HETATM   23  C30 UNL     1      -1.590   9.371  15.671  1.00  0.00     0.007 C 
HETATM   24  C31 UNL     1      -3.015   9.024  15.231  1.00  0.00     0.011 C 
HETATM   25  C32 UNL     1      -3.251   7.523  14.903  1.00  0.00    -0.032 C 
HETATM   26  C33 UNL     1      -3.229   6.763  16.265  1.00  0.00     0.016 C 
HETATM   27  C34 UNL     1      -6.246   5.444  13.270  1.00  0.00     0.006 C 
ENDROOT
BRANCH  18  28
HETATM   28  O1  UNL     1       3.137   9.519  13.791  1.00  0.00    -0.315 OA
BRANCH  28  29
HETATM   29  C21 UNL     1       4.100   8.626  13.437  1.00  0.00     0.259 C 
HETATM   30  O2  UNL     1       4.601   7.783  14.168  1.00  0.00    -0.265 OA
BRANCH  29  31
HETATM   31  C22 UNL     1       4.505   8.835  11.997  1.00  0.00     0.115 C 
BRANCH  31  32
HETATM   32  C23 UNL     1       4.367   7.571  11.141  1.00  0.00    -0.013 C 
HETATM   33  C24 UNL     1       3.837   7.932   9.754  1.00  0.00     0.010 C 
HETATM   34  C25 UNL     1       5.703   6.836  11.009  1.00  0.00     0.010 C 
ENDBRANCH  31  32
ENDBRANCH  29  31
ENDBRANCH  28  29
ENDBRANCH  18  28
BRANCH   1  35
HETATM   35  C2  UNL     1      -6.131   3.576  11.517  1.00  0.00    -0.032 C 
HETATM   36  C1  UNL     1      -5.559   2.389  11.269  1.00  0.00     0.007 C 
ENDBRANCH   1  35
TORSDOF 5
ENDMDL
MODEL 5
REMARK minimizedAffinity -8.60225391
REMARK  5 active torsions:
REMARK  status: ('A' for Active; 'I' for Inactive)
REMARK    1  A    between atoms: C2_2  and  C3_3 
REMARK    2  A    between atoms: C20_20  and  O1_21 
REMARK    3  A    between atoms: O1_21  and  C21_22 
REMARK    4  A    between atoms: C21_22  and  C22_24 
REMARK    5  A    between atoms: C22_24  and  C23_25 
ROOT
HETATM    1  C3  UNL     1      -5.658   3.999  12.107  1.00  0.00     0.012 C 
HETATM    2  C4  UNL     1      -5.701   2.572  11.501  1.00  0.00     0.009 C 
HETATM    3  C5  UNL     1      -4.252   2.056  11.476  1.00  0.00     0.010 C 
HETATM    4  C6  UNL     1      -3.395   3.325  11.570  1.00  0.00    -0.039 C 
HETATM    5  C7  UNL     1      -3.319   3.971  10.163  1.00  0.00     0.015 C 
HETATM    6  C8  UNL     1      -1.978   3.093  12.107  1.00  0.00     0.010 C 
HETATM    7  C9  UNL     1      -1.273   4.425  12.438  1.00  0.00     0.011 C 
HETATM    8  C10 UNL     1      -2.086   5.386  13.380  1.00  0.00    -0.032 C 
HETATM    9  C11 UNL     1      -2.065   4.691  14.785  1.00  0.00     0.016 C 
HETATM   10  C12 UNL     1      -3.577   5.518  12.860  1.00  0.00    -0.000 C 
HETATM   11  C13 UNL     1      -4.409   6.422  13.778  1.00  0.00     0.006 C 
HETATM   12  C14 UNL     1      -3.788   7.806  13.978  1.00  0.00     0.006 C 
HETATM   13  C15 UNL     1      -2.311   7.765  14.432  1.00  0.00     0.003 C 
HETATM   14  C16 UNL     1      -1.702   9.182  14.846  1.00  0.00    -0.035 C 
HETATM   15  C17 UNL     1      -1.749  10.197  13.679  1.00  0.00     0.016 C 
HETATM   16  C18 UNL     1      -2.552   9.772  16.013  1.00  0.00     0.012 C 
HETATM   17  C19 UNL     1      -1.919  10.973  16.711  1.00  0.00     0.034 C 
HETATM   18  C20 UNL     1      -0.508  10.684  17.218  1.00  0.00     0.140 C 
HETATM   19  C26 UNL     1       0.449  10.143  16.111  1.00  0.00    -0.017 C 
HETATM   20  C27 UNL     1       1.745   9.662  16.821  1.00  0.00     0.018 C 
HETATM   21  C28 UNL     1       0.888  11.262  15.144  1.00  0.00     0.018 C 
HETATM   22  C29 UNL     1      -0.250   8.923  15.402  1.00  0.00     0.004 C 
HETATM   23  C30 UNL     1       0.622   8.190  14.362  1.00  0.00     0.007 C 
HETATM   24  C31 UNL     1       0.025   6.828  13.995  1.00  0.00     0.011 C 
HETATM   25  C32 UNL     1      -1.433   6.877  13.459  1.00  0.00    -0.032 C 
HETATM   26  C33 UNL     1      -1.361   7.500  12.032  1.00  0.00     0.016 C 
HETATM   27  C34 UNL     1      -4.206   4.128  12.617  1.00  0.00     0.006 C 
ENDROOT
BRANCH  18  28
HETATM   28  O1  UNL     1      -0.006  11.926  17.760  1.00  0.00    -0.315 OA
BRANCH  28  29
HETATM   29  C21 UNL     1      -0.307  12.219  19.054  1.00  0.00     0.259 C 
HETATM   30  O2  UNL     1      -0.867  13.233  19.448  1.00  0.00    -0.265 OA
BRANCH  29  31
HETATM   31  C22 UNL     1       0.180  11.121  19.968  1.00  0.00     0.115 C 
BRANCH  31  32
HETATM   32  C23 UNL     1       1.675  11.224  20.291  1.00  0.00    -0.013 C 
HETATM   33  C24 UNL     1       1.955  12.504  21.078  1.00  0.00     0.010 C 
HETATM   34  C25 UNL     1       2.160  10.010  21.089  1.00  0.00     0.010 C 
ENDBRANCH  31  32
ENDBRANCH  29  31
ENDBRANCH  28  29
ENDBRANCH  18  28
BRANCH   1  35
HETATM   35  C2  UNL     1      -6.709   4.151  13.176  1.00  0.00    -0.032 C 
HETATM   36  C1  UNL     1      -7.798   3.375  13.275  1.00  0.00     0.007 C 
ENDBRANCH   1  35
TORSDOF 5
ENDMDL
MODEL 6
REMARK minimizedAffinity -8.58961296
REMARK  5 active torsions:
REMARK  status: ('A' for Active; 'I' for Inactive)
REMARK    1  A    between atoms: C2_2  and  C3_3 
REMARK    2  A    between atoms: C20_20  and  O1_21 
REMARK    3  A    between atoms: O1_21  and  C21_22 
REMARK    4  A    between atoms: C21_22  and  C22_24 
REMARK    5  A    between atoms: C22_24  and  C23_25 
ROOT
HETATM    1  C3  UNL     1      -6.078   4.508  13.391  1.00  0.00     0.012 C 
HETATM    2  C4  UNL     1      -7.623   4.650  13.354  1.00  0.00     0.009 C 
HETATM    3  C5  UNL     1      -7.945   6.100  13.753  1.00  0.00     0.010 C 
HETATM    4  C6  UNL     1      -6.684   6.584  14.481  1.00  0.00    -0.039 C 
HETATM    5  C7  UNL     1      -6.721   6.047  15.935  1.00  0.00     0.015 C 
HETATM    6  C8  UNL     1      -6.508   8.107  14.500  1.00  0.00     0.010 C 
HETATM    7  C9  UNL     1      -5.103   8.508  14.992  1.00  0.00     0.011 C 
HETATM    8  C10 UNL     1      -3.914   7.810  14.238  1.00  0.00    -0.032 C 
HETATM    9  C11 UNL     1      -3.911   8.448  12.805  1.00  0.00     0.016 C 
HETATM   10  C12 UNL     1      -4.178   6.250  14.138  1.00  0.00    -0.000 C 
HETATM   11  C13 UNL     1      -3.054   5.541  13.375  1.00  0.00     0.006 C 
HETATM   12  C14 UNL     1      -1.667   5.812  13.964  1.00  0.00     0.006 C 
HETATM   13  C15 UNL     1      -1.351   7.315  14.147  1.00  0.00     0.003 C 
HETATM   14  C16 UNL     1       0.157   7.633  14.564  1.00  0.00    -0.035 C 
HETATM   15  C17 UNL     1       0.542   6.962  15.904  1.00  0.00     0.016 C 
HETATM   16  C18 UNL     1       1.110   7.066  13.467  1.00  0.00     0.012 C 
HETATM   17  C19 UNL     1       2.554   7.551  13.574  1.00  0.00     0.034 C 
HETATM   18  C20 UNL     1       2.665   9.074  13.594  1.00  0.00     0.140 C 
HETATM   19  C26 UNL     1       1.792   9.743  14.701  1.00  0.00    -0.017 C 
HETATM   20  C27 UNL     1       1.810  11.275  14.434  1.00  0.00     0.018 C 
HETATM   21  C28 UNL     1       2.408   9.553  16.102  1.00  0.00     0.018 C 
HETATM   22  C29 UNL     1       0.320   9.200  14.570  1.00  0.00     0.004 C 
HETATM   23  C30 UNL     1      -0.703   9.863  15.515  1.00  0.00     0.007 C 
HETATM   24  C31 UNL     1      -2.140   9.556  15.084  1.00  0.00     0.011 C 
HETATM   25  C32 UNL     1      -2.483   8.044  14.980  1.00  0.00    -0.032 C 
HETATM   26  C33 UNL     1      -2.549   7.503  16.441  1.00  0.00     0.016 C 
HETATM   27  C34 UNL     1      -5.590   5.960  13.580  1.00  0.00     0.006 C 
ENDROOT
BRANCH  18  28
HETATM   28  O1  UNL     1       4.063   9.379  13.796  1.00  0.00    -0.315 OA
BRANCH  28  29
HETATM   29  C21 UNL     1       4.867   9.418  12.700  1.00  0.00     0.259 C 
HETATM   30  O2  UNL     1       4.948  10.342  11.902  1.00  0.00    -0.265 OA
BRANCH  29  31
HETATM   31  C22 UNL     1       5.643   8.129  12.572  1.00  0.00     0.115 C 
BRANCH  31  32
HETATM   32  C23 UNL     1       5.855   7.694  11.117  1.00  0.00    -0.013 C 
HETATM   33  C24 UNL     1       6.882   6.564  11.053  1.00  0.00     0.010 C 
HETATM   34  C25 UNL     1       4.543   7.237  10.473  1.00  0.00     0.010 C 
ENDBRANCH  31  32
ENDBRANCH  29  31
ENDBRANCH  28  29
ENDBRANCH  18  28
BRANCH   1  35
HETATM   35  C2  UNL     1      -5.579   3.842  12.136  1.00  0.00    -0.032 C 
HETATM   36  C1  UNL     1      -5.933   2.608  11.748  1.00  0.00     0.007 C 
ENDBRANCH   1  35
TORSDOF 5
ENDMDL
MODEL 7
REMARK minimizedAffinity -8.5715971
REMARK  5 active torsions:
REMARK  status: ('A' for Active; 'I' for Inactive)
REMARK    1  A    between atoms: C2_2  and  C3_3 
REMARK    2  A    between atoms: C20_20  and  O1_21 
REMARK    3  A    between atoms: O1_21  and  C21_22 
REMARK    4  A    between atoms: C21_22  and  C22_24 
REMARK    5  A    between atoms: C22_24  and  C23_25 
ROOT
HETATM    1  C3  UNL     1      -5.259   4.639  13.175  1.00  0.00     0.012 C 
HETATM    2  C4  UNL     1      -6.795   4.738  12.976  1.00  0.00     0.009 C 
HETATM    3  C5  UNL     1      -7.187   6.196  13.267  1.00  0.00     0.010 C 
HETATM    4  C6  UNL     1      -6.017   6.747  14.094  1.00  0.00    -0.039 C 
HETATM    5  C7  UNL     1      -6.191   6.279  15.562  1.00  0.00     0.015 C 
HETATM    6  C8  UNL     1      -5.877   8.273  14.054  1.00  0.00     0.010 C 
HETATM    7  C9  UNL     1      -4.538   8.735  14.664  1.00  0.00     0.011 C 
HETATM    8  C10 UNL     1      -3.264   8.033  14.069  1.00  0.00    -0.032 C 
HETATM    9  C11 UNL     1      -3.129   8.602  12.614  1.00  0.00     0.016 C 
HETATM   10  C12 UNL     1      -3.483   6.464  14.022  1.00  0.00    -0.000 C 
HETATM   11  C13 UNL     1      -2.272   5.749  13.412  1.00  0.00     0.006 C 
HETATM   12  C14 UNL     1      -0.959   6.085  14.124  1.00  0.00     0.006 C 
HETATM   13  C15 UNL     1      -0.695   7.602  14.262  1.00  0.00     0.003 C 
HETATM   14  C16 UNL     1       0.755   7.979  14.812  1.00  0.00    -0.035 C 
HETATM   15  C17 UNL     1       1.016   7.383  16.216  1.00  0.00     0.016 C 
HETATM   16  C18 UNL     1       1.828   7.386  13.846  1.00  0.00     0.012 C 
HETATM   17  C19 UNL     1       3.242   7.914  14.074  1.00  0.00     0.034 C 
HETATM   18  C20 UNL     1       3.317   9.438  14.029  1.00  0.00     0.140 C 
HETATM   19  C26 UNL     1       2.322  10.136  15.007  1.00  0.00    -0.017 C 
HETATM   20  C27 UNL     1       2.334  11.653  14.667  1.00  0.00     0.018 C 
HETATM   21  C28 UNL     1       2.797  10.029  16.471  1.00  0.00     0.018 C 
HETATM   22  C29 UNL     1       0.883   9.549  14.756  1.00  0.00     0.004 C 
HETATM   23  C30 UNL     1      -0.244  10.229  15.559  1.00  0.00     0.007 C 
HETATM   24  C31 UNL     1      -1.623   9.864  15.001  1.00  0.00     0.011 C 
HETATM   25  C32 UNL     1      -1.921   8.340  14.939  1.00  0.00    -0.032 C 
HETATM   26  C33 UNL     1      -2.124   7.867  16.411  1.00  0.00     0.016 C 
HETATM   27  C34 UNL     1      -4.824   6.111  13.340  1.00  0.00     0.006 C 
ENDROOT
BRANCH  18  28
HETATM   28  O1  UNL     1       4.681   9.789  14.355  1.00  0.00    -0.315 OA
BRANCH  28  29
HETATM   29  C21 UNL     1       5.402   8.905  15.094  1.00  0.00     0.259 C 
HETATM   30  O2  UNL     1       4.987   7.853  15.562  1.00  0.00    -0.265 OA
BRANCH  29  31
HETATM   31  C22 UNL     1       6.809   9.415  15.297  1.00  0.00     0.115 C 
BRANCH  31  32
HETATM   32  C23 UNL     1       7.851   8.294  15.385  1.00  0.00    -0.013 C 
HETATM   33  C24 UNL     1       8.183   7.776  13.986  1.00  0.00     0.010 C 
HETATM   34  C25 UNL     1       9.130   8.773  16.077  1.00  0.00     0.010 C 
ENDBRANCH  31  32
ENDBRANCH  29  31
ENDBRANCH  28  29
ENDBRANCH  18  28
BRANCH   1  35
HETATM   35  C2  UNL     1      -4.621   3.926  12.012  1.00  0.00    -0.032 C 
HETATM   36  C1  UNL     1      -5.156   2.862  11.397  1.00  0.00     0.007 C 
ENDBRANCH   1  35
TORSDOF 5
ENDMDL
MODEL 8
REMARK minimizedAffinity -8.10471344
REMARK  5 active torsions:
REMARK  status: ('A' for Active; 'I' for Inactive)
REMARK    1  A    between atoms: C2_2  and  C3_3 
REMARK    2  A    between atoms: C20_20  and  O1_21 
REMARK    3  A    between atoms: O1_21  and  C21_22 
REMARK    4  A    between atoms: C21_22  and  C22_24 
REMARK    5  A    between atoms: C22_24  and  C23_25 
ROOT
HETATM    1  C3  UNL     1      -5.768   3.536  12.065  1.00  0.00     0.012 C 
HETATM    2  C4  UNL     1      -5.483   2.151  11.426  1.00  0.00     0.009 C 
HETATM    3  C5  UNL     1      -3.963   1.931  11.505  1.00  0.00     0.010 C 
HETATM    4  C6  UNL     1      -3.384   3.340  11.693  1.00  0.00    -0.039 C 
HETATM    5  C7  UNL     1      -3.335   4.039  10.309  1.00  0.00     0.015 C 
HETATM    6  C8  UNL     1      -1.992   3.371  12.334  1.00  0.00     0.010 C 
HETATM    7  C9  UNL     1      -1.591   4.802  12.747  1.00  0.00     0.011 C 
HETATM    8  C10 UNL     1      -2.645   5.550  13.643  1.00  0.00    -0.032 C 
HETATM    9  C11 UNL     1      -2.589   4.822  15.030  1.00  0.00     0.016 C 
HETATM   10  C12 UNL     1      -4.091   5.406  13.011  1.00  0.00    -0.000 C 
HETATM   11  C13 UNL     1      -5.151   6.094  13.879  1.00  0.00     0.006 C 
HETATM   12  C14 UNL     1      -4.833   7.566  14.157  1.00  0.00     0.006 C 
HETATM   13  C15 UNL     1      -3.414   7.799  14.725  1.00  0.00     0.003 C 
HETATM   14  C16 UNL     1      -3.130   9.292  15.215  1.00  0.00    -0.035 C 
HETATM   15  C17 UNL     1      -3.293  10.320  14.069  1.00  0.00     0.016 C 
HETATM   16  C18 UNL     1      -4.164   9.661  16.324  1.00  0.00     0.012 C 
HETATM   17  C19 UNL     1      -3.834  10.936  17.095  1.00  0.00     0.034 C 
HETATM   18  C20 UNL     1      -2.435  10.912  17.705  1.00  0.00     0.140 C 
HETATM   19  C26 UNL     1      -1.311  10.610  16.665  1.00  0.00    -0.017 C 
HETATM   20  C27 UNL     1      -0.000  10.367  17.464  1.00  0.00     0.018 C 
HETATM   21  C28 UNL     1      -1.034  11.828  15.760  1.00  0.00     0.018 C 
HETATM   22  C29 UNL     1      -1.700   9.303  15.878  1.00  0.00     0.004 C 
HETATM   23  C30 UNL     1      -0.627   8.794  14.894  1.00  0.00     0.007 C 
HETATM   24  C31 UNL     1      -0.913   7.355  14.452  1.00  0.00     0.011 C 
HETATM   25  C32 UNL     1      -2.309   7.136  13.805  1.00  0.00    -0.032 C 
HETATM   26  C33 UNL     1      -2.259   7.813  12.402  1.00  0.00     0.016 C 
HETATM   27  C34 UNL     1      -4.412   3.929  12.689  1.00  0.00     0.006 C 
ENDROOT
BRANCH  18  28
HETATM   28  O1  UNL     1      -2.230  12.208  18.311  1.00  0.00    -0.315 OA
BRANCH  28  29
HETATM   29  C21 UNL     1      -3.290  13.059  18.357  1.00  0.00     0.259 C 
HETATM   30  O2  UNL     1      -3.449  14.046  17.652  1.00  0.00    -0.265 OA
BRANCH  29  31
HETATM   31  C22 UNL     1      -4.255  12.637  19.439  1.00  0.00     0.115 C 
BRANCH  31  32
HETATM   32  C23 UNL     1      -5.139  13.785  19.940  1.00  0.00    -0.013 C 
HETATM   33  C24 UNL     1      -6.430  13.847  19.124  1.00  0.00     0.010 C 
HETATM   34  C25 UNL     1      -5.474  13.626  21.426  1.00  0.00     0.010 C 
ENDBRANCH  31  32
ENDBRANCH  29  31
ENDBRANCH  28  29
ENDBRANCH  18  28
BRANCH   1  35
HETATM   35  C2  UNL     1      -6.903   3.440  13.050  1.00  0.00    -0.032 C 
HETATM   36  C1  UNL     1      -8.122   3.959  12.846  1.00  0.00     0.007 C 
ENDBRANCH   1  35
TORSDOF 5
ENDMDL
MODEL 9
REMARK minimizedAffinity -8.10401154
REMARK  5 active torsions:
REMARK  status: ('A' for Active; 'I' for Inactive)
REMARK    1  A    between atoms: C2_2  and  C3_3 
REMARK    2  A    between atoms: C20_20  and  O1_21 
REMARK    3  A    between atoms: O1_21  and  C21_22 
REMARK    4  A    between atoms: C21_22  and  C22_24 
REMARK    5  A    between atoms: C22_24  and  C23_25 
ROOT
HETATM    1  C3  UNL     1      -4.733   4.701  13.073  1.00  0.00     0.012 C 
HETATM    2  C4  UNL     1      -6.266   4.899  13.211  1.00  0.00     0.009 C 
HETATM    3  C5  UNL     1      -6.490   6.369  13.604  1.00  0.00     0.010 C 
HETATM    4  C6  UNL     1      -5.138   6.822  14.170  1.00  0.00    -0.039 C 
HETATM    5  C7  UNL     1      -5.025   6.320  15.633  1.00  0.00     0.015 C 
HETATM    6  C8  UNL     1      -4.909   8.337  14.128  1.00  0.00     0.010 C 
HETATM    7  C9  UNL     1      -3.444   8.698  14.444  1.00  0.00     0.011 C 
HETATM    8  C10 UNL     1      -2.375   7.939  13.577  1.00  0.00    -0.032 C 
HETATM    9  C11 UNL     1      -2.516   8.544  12.137  1.00  0.00     0.016 C 
HETATM   10  C12 UNL     1      -2.701   6.388  13.551  1.00  0.00    -0.000 C 
HETATM   11  C13 UNL     1      -1.698   5.621  12.682  1.00  0.00     0.006 C 
HETATM   12  C14 UNL     1      -0.244   5.854  13.101  1.00  0.00     0.006 C 
HETATM   13  C15 UNL     1       0.142   7.348  13.206  1.00  0.00     0.003 C 
HETATM   14  C16 UNL     1       1.698   7.619  13.438  1.00  0.00    -0.035 C 
HETATM   15  C17 UNL     1       2.213   6.965  14.743  1.00  0.00     0.016 C 
HETATM   16  C18 UNL     1       2.499   6.993  12.254  1.00  0.00     0.012 C 
HETATM   17  C19 UNL     1       3.960   7.426  12.182  1.00  0.00     0.034 C 
HETATM   18  C20 UNL     1       4.125   8.944  12.148  1.00  0.00     0.140 C 
HETATM   19  C26 UNL     1       3.409   9.671  13.329  1.00  0.00    -0.017 C 
HETATM   20  C27 UNL     1       3.448  11.193  13.021  1.00  0.00     0.018 C 
HETATM   21  C28 UNL     1       4.177   9.489  14.655  1.00  0.00     0.018 C 
HETATM   22  C29 UNL     1       1.914   9.179  13.383  1.00  0.00     0.004 C 
HETATM   23  C30 UNL     1       1.031   9.901  14.421  1.00  0.00     0.007 C 
HETATM   24  C31 UNL     1      -0.456   9.637  14.167  1.00  0.00     0.011 C 
HETATM   25  C32 UNL     1      -0.860   8.137  14.143  1.00  0.00    -0.032 C 
HETATM   26  C33 UNL     1      -0.775   7.632  15.616  1.00  0.00     0.016 C 
HETATM   27  C34 UNL     1      -4.177   6.138  13.166  1.00  0.00     0.006 C 
ENDROOT
BRANCH  18  28
HETATM   28  O1  UNL     1       5.547   9.202  12.180  1.00  0.00    -0.315 OA
BRANCH  28  29
HETATM   29  C21 UNL     1       6.086   9.899  11.145  1.00  0.00     0.259 C 
HETATM   30  O2  UNL     1       5.635   9.964  10.009  1.00  0.00    -0.265 OA
BRANCH  29  31
HETATM   31  C22 UNL     1       7.365  10.574  11.578  1.00  0.00     0.115 C 
BRANCH  31  32
HETATM   32  C23 UNL     1       7.502  10.690  13.100  1.00  0.00    -0.013 C 
HETATM   33  C24 UNL     1       8.946  10.418  13.520  1.00  0.00     0.010 C 
HETATM   34  C25 UNL     1       7.071  12.073  13.597  1.00  0.00     0.010 C 
ENDBRANCH  31  32
ENDBRANCH  29  31
ENDBRANCH  28  29
ENDBRANCH  18  28
BRANCH   1  35
HETATM   35  C2  UNL     1      -4.406   3.988  11.788  1.00  0.00    -0.032 C 
HETATM   36  C1  UNL     1      -3.945   2.731  11.722  1.00  0.00     0.007 C 
ENDBRANCH   1  35
TORSDOF 5
ENDMDL
