MODEL 1
REMARK minimizedAffinity -7.99544144
REMARK CNNscore 0.730257988
REMARK CNNaffinity 5.50548506
REMARK  11 active torsions:
REMARK  status: ('A' for Active; 'I' for Inactive)
REMARK    1  A    between atoms: C2_2  and  O1_3 
REMARK    2  A    between atoms: C2_2  and  C3_4 
REMARK    3  A    between atoms: C4_5  and  C5_6 
REMARK    4  A    between atoms: C5_6  and  O2_7 
REMARK    5  A    between atoms: C9_11  and  O3_12 
REMARK    6  A    between atoms: O3_12  and  C10_13 
REMARK    7  A    between atoms: C11_15  and  C12_16 
REMARK    8  A    between atoms: C12_16  and  O5_17 
REMARK    9  A    between atoms: C13_18  and  O6_19 
REMARK   10  A    between atoms: C14_20  and  O7_21 
REMARK   11  A    between atoms: C15_22  and  O8_23 
ROOT
HETATM    1  C5  UNL     1      -2.586  50.770 -25.645  1.00  0.00     0.086 C 
HETATM    2  C6  UNL     1      -2.535  49.197 -25.662  1.00  0.00     0.023 C 
HETATM    3  C7  UNL     1      -3.180  48.564 -26.907  1.00  0.00     0.013 C 
HETATM    4  C8  UNL     1      -3.223  48.623 -24.416  1.00  0.00     0.039 C 
HETATM    5  C9  UNL     1      -2.498  49.000 -23.124  1.00  0.00     0.126 C 
HETATM    6  C16 UNL     1      -1.635  50.261 -23.286  1.00  0.00     0.044 C 
HETATM    7  C17 UNL     1      -2.260  51.361 -24.189  1.00  0.00    -0.010 C 
HETATM    8  C18 UNL     1      -3.522  51.936 -23.497  1.00  0.00     0.018 C 
HETATM    9  C19 UNL     1      -1.237  52.529 -24.215  1.00  0.00     0.018 C 
ENDROOT
BRANCH   5  10
HETATM   10  O3  UNL     1      -3.423  49.229 -22.056  1.00  0.00    -0.353 OA
BRANCH  10  11
HETATM   11  C10 UNL     1      -2.858  49.123 -20.745  1.00  0.00     0.292 C 
HETATM   12  O4  UNL     1      -2.140  47.906 -20.572  1.00  0.00    -0.348 OA
HETATM   13  C11 UNL     1      -2.845  46.823 -19.946  1.00  0.00     0.179 C 
HETATM   14  C13 UNL     1      -3.302  47.213 -18.524  1.00  0.00     0.180 C 
HETATM   15  C14 UNL     1      -3.645  48.702 -18.387  1.00  0.00     0.183 C 
HETATM   16  C15 UNL     1      -3.998  49.339 -19.723  1.00  0.00     0.204 C 
BRANCH  13  17
HETATM   17  C12 UNL     1      -3.989  46.265 -20.815  1.00  0.00     0.198 C 
BRANCH  17  18
HETATM   18  O5  UNL     1      -3.905  44.839 -20.858  1.00  0.00    -0.398 OA
HETATM   19  H20 UNL     1      -3.913  44.569 -21.799  1.00  0.00     0.209 HD
ENDBRANCH  17  18
ENDBRANCH  13  17
BRANCH  14  20
HETATM   20  O6  UNL     1      -2.228  46.954 -17.593  1.00  0.00    -0.390 OA
HETATM   21  H22 UNL     1      -2.075  45.994 -17.581  1.00  0.00     0.210 HD
ENDBRANCH  14  20
BRANCH  15  22
HETATM   22  O7  UNL     1      -4.761  48.856 -17.490  1.00  0.00    -0.390 OA
HETATM   23  H24 UNL     1      -5.072  49.775 -17.604  1.00  0.00     0.210 HD
ENDBRANCH  15  22
BRANCH  16  24
HETATM   24  O8  UNL     1      -4.287  50.738 -19.505  1.00  0.00    -0.388 OA
HETATM   25  H26 UNL     1      -3.448  51.194 -19.313  1.00  0.00     0.210 HD
ENDBRANCH  16  24
ENDBRANCH  10  11
ENDBRANCH   5  10
BRANCH   1  26
HETATM   26  C4  UNL     1      -1.749  51.421 -26.740  1.00  0.00     0.010 C 
HETATM   27  C3  UNL     1      -0.514  51.094 -27.167  1.00  0.00     0.003 C 
BRANCH  27  28
HETATM   28  C2  UNL     1       0.272  51.786 -28.252  1.00  0.00     0.136 C 
HETATM   29  C1  UNL     1       1.756  51.864 -27.902  1.00  0.00     0.043 C 
BRANCH  28  30
HETATM   30  O1  UNL     1      -0.216  53.103 -28.481  1.00  0.00    -0.392 OA
HETATM   31  H5  UNL     1      -0.029  53.621 -27.679  1.00  0.00     0.210 HD
ENDBRANCH  28  30
ENDBRANCH  27  28
ENDBRANCH   1  26
BRANCH   1  32
HETATM   32  O2  UNL     1      -3.939  51.143 -25.976  1.00  0.00    -0.385 OA
HETATM   33  H8  UNL     1      -4.062  51.002 -26.930  1.00  0.00     0.211 HD
ENDBRANCH   1  32
TORSDOF 11
ENDMDL
MODEL 2
REMARK minimizedAffinity -7.84642935
REMARK CNNscore 0.638173521
REMARK CNNaffinity 5.1759491
REMARK  11 active torsions:
REMARK  status: ('A' for Active; 'I' for Inactive)
REMARK    1  A    between atoms: C2_2  and  O1_3 
REMARK    2  A    between atoms: C2_2  and  C3_4 
REMARK    3  A    between atoms: C4_5  and  C5_6 
REMARK    4  A    between atoms: C5_6  and  O2_7 
REMARK    5  A    between atoms: C9_11  and  O3_12 
REMARK    6  A    between atoms: O3_12  and  C10_13 
REMARK    7  A    between atoms: C11_15  and  C12_16 
REMARK    8  A    between atoms: C12_16  and  O5_17 
REMARK    9  A    between atoms: C13_18  and  O6_19 
REMARK   10  A    between atoms: C14_20  and  O7_21 
REMARK   11  A    between atoms: C15_22  and  O8_23 
ROOT
HETATM    1  C5  UNL     1      -2.550  50.755 -25.429  1.00  0.00     0.086 C 
HETATM    2  C6  UNL     1      -2.701  49.189 -25.371  1.00  0.00     0.023 C 
HETATM    3  C7  UNL     1      -3.236  48.564 -26.671  1.00  0.00     0.013 C 
HETATM    4  C8  UNL     1      -3.631  48.781 -24.220  1.00  0.00     0.039 C 
HETATM    5  C9  UNL     1      -3.057  49.146 -22.850  1.00  0.00     0.126 C 
HETATM    6  C16 UNL     1      -2.025  50.280 -22.934  1.00  0.00     0.044 C 
HETATM    7  C17 UNL     1      -2.364  51.390 -23.966  1.00  0.00    -0.010 C 
HETATM    8  C18 UNL     1      -3.628  52.155 -23.499  1.00  0.00     0.018 C 
HETATM    9  C19 UNL     1      -1.206  52.421 -23.888  1.00  0.00     0.018 C 
ENDROOT
BRANCH   5  10
HETATM   10  O3  UNL     1      -4.090  49.550 -21.946  1.00  0.00    -0.353 OA
BRANCH  10  11
HETATM   11  C10 UNL     1      -4.339  48.632 -20.876  1.00  0.00     0.292 C 
HETATM   12  O4  UNL     1      -3.514  48.896 -19.747  1.00  0.00    -0.348 OA
HETATM   13  C11 UNL     1      -2.312  48.119 -19.630  1.00  0.00     0.179 C 
HETATM   14  C13 UNL     1      -2.636  46.613 -19.534  1.00  0.00     0.180 C 
HETATM   15  C14 UNL     1      -3.886  46.213 -20.330  1.00  0.00     0.183 C 
HETATM   16  C15 UNL     1      -4.203  47.200 -21.443  1.00  0.00     0.204 C 
BRANCH  13  17
HETATM   17  C12 UNL     1      -1.274  48.444 -20.722  1.00  0.00     0.198 C 
BRANCH  17  18
HETATM   18  O5  UNL     1      -0.695  47.232 -21.207  1.00  0.00    -0.398 OA
HETATM   19  H20 UNL     1       0.279  47.324 -21.150  1.00  0.00     0.209 HD
ENDBRANCH  17  18
ENDBRANCH  13  17
BRANCH  14  20
HETATM   20  O6  UNL     1      -2.902  46.271 -18.157  1.00  0.00    -0.390 OA
HETATM   21  H22 UNL     1      -2.080  46.410 -17.655  1.00  0.00     0.210 HD
ENDBRANCH  14  20
BRANCH  15  22
HETATM   22  O7  UNL     1      -3.688  44.909 -20.907  1.00  0.00    -0.390 OA
HETATM   23  H24 UNL     1      -4.402  44.796 -21.565  1.00  0.00     0.210 HD
ENDBRANCH  15  22
BRANCH  16  24
HETATM   24  O8  UNL     1      -5.398  46.759 -22.124  1.00  0.00    -0.388 OA
HETATM   25  H26 UNL     1      -6.158  46.914 -21.535  1.00  0.00     0.210 HD
ENDBRANCH  16  24
ENDBRANCH  10  11
ENDBRANCH   5  10
BRANCH   1  26
HETATM   26  C4  UNL     1      -1.486  51.230 -26.411  1.00  0.00     0.010 C 
HETATM   27  C3  UNL     1      -0.228  50.779 -26.579  1.00  0.00     0.003 C 
BRANCH  27  28
HETATM   28  C2  UNL     1       0.787  51.300 -27.565  1.00  0.00     0.136 C 
HETATM   29  C1  UNL     1       2.110  51.630 -26.880  1.00  0.00     0.043 C 
BRANCH  28  30
HETATM   30  O1  UNL     1       0.310  52.465 -28.228  1.00  0.00    -0.392 OA
HETATM   31  H5  UNL     1       0.241  53.168 -27.558  1.00  0.00     0.210 HD
ENDBRANCH  28  30
ENDBRANCH  27  28
ENDBRANCH   1  26
BRANCH   1  32
HETATM   32  O2  UNL     1      -3.781  51.269 -25.976  1.00  0.00    -0.385 OA
HETATM   33  H8  UNL     1      -3.782  51.085 -26.932  1.00  0.00     0.211 HD
ENDBRANCH   1  32
TORSDOF 11
ENDMDL
MODEL 3
REMARK minimizedAffinity -7.93506718
REMARK CNNscore 0.564756572
REMARK CNNaffinity 5.43316841
REMARK  11 active torsions:
REMARK  status: ('A' for Active; 'I' for Inactive)
REMARK    1  A    between atoms: C2_2  and  O1_3 
REMARK    2  A    between atoms: C2_2  and  C3_4 
REMARK    3  A    between atoms: C4_5  and  C5_6 
REMARK    4  A    between atoms: C5_6  and  O2_7 
REMARK    5  A    between atoms: C9_11  and  O3_12 
REMARK    6  A    between atoms: O3_12  and  C10_13 
REMARK    7  A    between atoms: C11_15  and  C12_16 
REMARK    8  A    between atoms: C12_16  and  O5_17 
REMARK    9  A    between atoms: C13_18  and  O6_19 
REMARK   10  A    between atoms: C14_20  and  O7_21 
REMARK   11  A    between atoms: C15_22  and  O8_23 
ROOT
HETATM    1  C5  UNL     1      -2.498  50.791 -25.671  1.00  0.00     0.086 C 
HETATM    2  C6  UNL     1      -2.532  49.221 -25.563  1.00  0.00     0.023 C 
HETATM    3  C7  UNL     1      -3.138  48.523 -26.793  1.00  0.00     0.013 C 
HETATM    4  C8  UNL     1      -3.321  48.783 -24.322  1.00  0.00     0.039 C 
HETATM    5  C9  UNL     1      -2.651  49.226 -23.020  1.00  0.00     0.126 C 
HETATM    6  C16 UNL     1      -1.714  50.426 -23.226  1.00  0.00     0.044 C 
HETATM    7  C17 UNL     1      -2.225  51.479 -24.247  1.00  0.00    -0.010 C 
HETATM    8  C18 UNL     1      -3.492  52.170 -23.680  1.00  0.00     0.018 C 
HETATM    9  C19 UNL     1      -1.141  52.590 -24.300  1.00  0.00     0.018 C 
ENDROOT
BRANCH   5  10
HETATM   10  O3  UNL     1      -3.622  49.585 -22.032  1.00  0.00    -0.353 OA
BRANCH  10  11
HETATM   11  C10 UNL     1      -4.193  48.478 -21.327  1.00  0.00     0.292 C 
HETATM   12  O4  UNL     1      -5.460  48.105 -21.859  1.00  0.00    -0.348 OA
HETATM   13  C11 UNL     1      -6.619  48.637 -21.201  1.00  0.00     0.179 C 
HETATM   14  C13 UNL     1      -6.668  48.188 -19.724  1.00  0.00     0.180 C 
HETATM   15  C14 UNL     1      -5.277  48.026 -19.096  1.00  0.00     0.183 C 
HETATM   16  C15 UNL     1      -4.216  48.838 -19.824  1.00  0.00     0.204 C 
BRANCH  13  17
HETATM   17  C12 UNL     1      -6.766  50.161 -21.372  1.00  0.00     0.198 C 
BRANCH  17  18
HETATM   18  O5  UNL     1      -7.358  50.445 -22.640  1.00  0.00    -0.398 OA
HETATM   19  H20 UNL     1      -6.782  51.090 -23.101  1.00  0.00     0.209 HD
ENDBRANCH  17  18
ENDBRANCH  13  17
BRANCH  14  20
HETATM   20  O6  UNL     1      -7.305  46.894 -19.642  1.00  0.00    -0.390 OA
HETATM   21  H22 UNL     1      -8.229  47.003 -19.929  1.00  0.00     0.210 HD
ENDBRANCH  14  20
BRANCH  15  22
HETATM   22  O7  UNL     1      -5.322  48.446 -17.720  1.00  0.00    -0.390 OA
HETATM   23  H24 UNL     1      -4.391  48.529 -17.435  1.00  0.00     0.210 HD
ENDBRANCH  15  22
BRANCH  16  24
HETATM   24  O8  UNL     1      -2.942  48.613 -19.182  1.00  0.00    -0.388 OA
HETATM   25  H26 UNL     1      -2.648  47.711 -19.400  1.00  0.00     0.210 HD
ENDBRANCH  16  24
ENDBRANCH  10  11
ENDBRANCH   5  10
BRANCH   1  26
HETATM   26  C4  UNL     1      -1.566  51.310 -26.759  1.00  0.00     0.010 C 
HETATM   27  C3  UNL     1      -0.282  50.982 -26.999  1.00  0.00     0.003 C 
BRANCH  27  28
HETATM   28  C2  UNL     1       0.598  51.540 -28.089  1.00  0.00     0.136 C 
HETATM   29  C1  UNL     1       2.010  51.814 -27.579  1.00  0.00     0.043 C 
BRANCH  28  30
HETATM   30  O1  UNL     1       0.059  52.746 -28.619  1.00  0.00    -0.392 OA
HETATM   31  H5  UNL     1       0.098  53.413 -27.911  1.00  0.00     0.210 HD
ENDBRANCH  28  30
ENDBRANCH  27  28
ENDBRANCH   1  26
BRANCH   1  32
HETATM   32  O2  UNL     1      -3.808  51.203 -26.112  1.00  0.00    -0.385 OA
HETATM   33  H8  UNL     1      -3.884  50.992 -27.058  1.00  0.00     0.211 HD
ENDBRANCH   1  32
TORSDOF 11
ENDMDL
MODEL 4
REMARK minimizedAffinity -6.53256369
REMARK CNNscore 0.491345227
REMARK CNNaffinity 5.20805979
REMARK  11 active torsions:
REMARK  status: ('A' for Active; 'I' for Inactive)
REMARK    1  A    between atoms: C2_2  and  O1_3 
REMARK    2  A    between atoms: C2_2  and  C3_4 
REMARK    3  A    between atoms: C4_5  and  C5_6 
REMARK    4  A    between atoms: C5_6  and  O2_7 
REMARK    5  A    between atoms: C9_11  and  O3_12 
REMARK    6  A    between atoms: O3_12  and  C10_13 
REMARK    7  A    between atoms: C11_15  and  C12_16 
REMARK    8  A    between atoms: C12_16  and  O5_17 
REMARK    9  A    between atoms: C13_18  and  O6_19 
REMARK   10  A    between atoms: C14_20  and  O7_21 
REMARK   11  A    between atoms: C15_22  and  O8_23 
ROOT
HETATM    1  C5  UNL     1      -6.742  47.490 -30.825  1.00  0.00     0.086 C 
HETATM    2  C6  UNL     1      -7.832  48.578 -31.152  1.00  0.00     0.023 C 
HETATM    3  C7  UNL     1      -8.578  49.106 -29.915  1.00  0.00     0.013 C 
HETATM    4  C8  UNL     1      -8.867  48.023 -32.140  1.00  0.00     0.039 C 
HETATM    5  C9  UNL     1      -8.254  47.695 -33.503  1.00  0.00     0.126 C 
HETATM    6  C16 UNL     1      -6.739  47.458 -33.419  1.00  0.00     0.044 C 
HETATM    7  C17 UNL     1      -6.271  46.704 -32.144  1.00  0.00    -0.010 C 
HETATM    8  C18 UNL     1      -6.810  45.252 -32.180  1.00  0.00     0.018 C 
HETATM    9  C19 UNL     1      -4.728  46.573 -32.261  1.00  0.00     0.018 C 
ENDROOT
BRANCH   5  10
HETATM   10  O3  UNL     1      -8.856  46.530 -34.076  1.00  0.00    -0.353 OA
BRANCH  10  11
HETATM   11  C10 UNL     1      -9.684  46.786 -35.215  1.00  0.00     0.292 C 
HETATM   12  O4  UNL     1     -10.853  45.974 -35.215  1.00  0.00    -0.348 OA
HETATM   13  C11 UNL     1     -10.803  44.768 -35.993  1.00  0.00     0.179 C 
HETATM   14  C13 UNL     1     -10.547  45.085 -37.483  1.00  0.00     0.180 C 
HETATM   15  C14 UNL     1      -9.667  46.324 -37.694  1.00  0.00     0.183 C 
HETATM   16  C15 UNL     1      -8.805  46.635 -36.479  1.00  0.00     0.204 C 
BRANCH  13  17
HETATM   17  C12 UNL     1      -9.826  43.721 -35.424  1.00  0.00     0.198 C 
BRANCH  17  18
HETATM   18  O5  UNL     1      -8.495  44.240 -35.458  1.00  0.00    -0.398 OA
HETATM   19  H20 UNL     1      -7.931  43.584 -35.916  1.00  0.00     0.209 HD
ENDBRANCH  17  18
ENDBRANCH  13  17
BRANCH  14  20
HETATM   20  O6  UNL     1     -11.807  45.364 -38.132  1.00  0.00    -0.390 OA
HETATM   21  H22 UNL     1     -12.336  44.548 -38.109  1.00  0.00     0.210 HD
ENDBRANCH  14  20
BRANCH  15  22
HETATM   22  O7  UNL     1      -8.809  46.113 -38.831  1.00  0.00    -0.390 OA
HETATM   23  H24 UNL     1      -8.135  46.820 -38.792  1.00  0.00     0.210 HD
ENDBRANCH  15  22
BRANCH  16  24
HETATM   24  O8  UNL     1      -8.028  47.821 -36.756  1.00  0.00    -0.388 OA
HETATM   25  H26 UNL     1      -8.629  48.587 -36.743  1.00  0.00     0.210 HD
ENDBRANCH  16  24
ENDBRANCH  10  11
ENDBRANCH   5  10
BRANCH   1  26
HETATM   26  C4  UNL     1      -5.568  48.025 -30.014  1.00  0.00     0.010 C 
HETATM   27  C3  UNL     1      -5.300  47.859 -28.704  1.00  0.00     0.003 C 
BRANCH  27  28
HETATM   28  C2  UNL     1      -4.122  48.425 -27.951  1.00  0.00     0.136 C 
HETATM   29  C1  UNL     1      -4.388  48.462 -26.449  1.00  0.00     0.043 C 
BRANCH  28  30
HETATM   30  O1  UNL     1      -3.811  49.741 -28.395  1.00  0.00    -0.392 OA
HETATM   31  H5  UNL     1      -4.558  50.312 -28.143  1.00  0.00     0.210 HD
ENDBRANCH  28  30
ENDBRANCH  27  28
ENDBRANCH   1  26
BRANCH   1  32
HETATM   32  O2  UNL     1      -7.365  46.533 -29.944  1.00  0.00    -0.385 OA
HETATM   33  H8  UNL     1      -7.435  46.941 -29.064  1.00  0.00     0.211 HD
ENDBRANCH   1  32
TORSDOF 11
ENDMDL
MODEL 5
REMARK minimizedAffinity -6.38297987
REMARK CNNscore 0.44677794
REMARK CNNaffinity 5.12742805
REMARK  11 active torsions:
REMARK  status: ('A' for Active; 'I' for Inactive)
REMARK    1  A    between atoms: C2_2  and  O1_3 
REMARK    2  A    between atoms: C2_2  and  C3_4 
REMARK    3  A    between atoms: C4_5  and  C5_6 
REMARK    4  A    between atoms: C5_6  and  O2_7 
REMARK    5  A    between atoms: C9_11  and  O3_12 
REMARK    6  A    between atoms: O3_12  and  C10_13 
REMARK    7  A    between atoms: C11_15  and  C12_16 
REMARK    8  A    between atoms: C12_16  and  O5_17 
REMARK    9  A    between atoms: C13_18  and  O6_19 
REMARK   10  A    between atoms: C14_20  and  O7_21 
REMARK   11  A    between atoms: C15_22  and  O8_23 
ROOT
HETATM    1  C5  UNL     1      -8.457  46.228 -33.516  1.00  0.00     0.086 C 
HETATM    2  C6  UNL     1      -7.654  47.425 -32.885  1.00  0.00     0.023 C 
HETATM    3  C7  UNL     1      -6.189  47.507 -33.347  1.00  0.00     0.013 C 
HETATM    4  C8  UNL     1      -7.673  47.337 -31.352  1.00  0.00     0.039 C 
HETATM    5  C9  UNL     1      -9.081  47.497 -30.777  1.00  0.00     0.126 C 
HETATM    6  C16 UNL     1     -10.172  47.151 -31.803  1.00  0.00     0.044 C 
HETATM    7  C17 UNL     1      -9.831  45.954 -32.732  1.00  0.00    -0.010 C 
HETATM    8  C18 UNL     1      -9.774  44.653 -31.892  1.00  0.00     0.018 C 
HETATM    9  C19 UNL     1     -11.052  45.780 -33.676  1.00  0.00     0.018 C 
ENDROOT
BRANCH   5  10
HETATM   10  O3  UNL     1      -9.270  46.664 -29.629  1.00  0.00    -0.353 OA
BRANCH  10  11
HETATM   11  C10 UNL     1      -8.600  47.115 -28.448  1.00  0.00     0.292 C 
HETATM   12  O4  UNL     1      -8.601  46.124 -27.426  1.00  0.00    -0.348 OA
HETATM   13  C11 UNL     1      -9.628  46.227 -26.427  1.00  0.00     0.179 C 
HETATM   14  C13 UNL     1      -9.528  47.569 -25.671  1.00  0.00     0.180 C 
HETATM   15  C14 UNL     1      -9.013  48.719 -26.547  1.00  0.00     0.183 C 
HETATM   16  C15 UNL     1      -9.237  48.461 -28.030  1.00  0.00     0.204 C 
BRANCH  13  17
HETATM   17  C12 UNL     1     -11.039  45.951 -26.981  1.00  0.00     0.198 C 
BRANCH  17  18
HETATM   18  O5  UNL     1     -11.976  46.835 -26.364  1.00  0.00    -0.398 OA
HETATM   19  H20 UNL     1     -12.705  46.289 -26.000  1.00  0.00     0.209 HD
ENDBRANCH  17  18
ENDBRANCH  13  17
BRANCH  14  20
HETATM   20  O6  UNL     1      -8.587  47.432 -24.584  1.00  0.00    -0.390 OA
HETATM   21  H22 UNL     1      -8.956  46.787 -23.955  1.00  0.00     0.210 HD
ENDBRANCH  14  20
BRANCH  15  22
HETATM   22  O7  UNL     1      -9.686  49.938 -26.181  1.00  0.00    -0.390 OA
HETATM   23  H24 UNL     1      -9.490  50.577 -26.894  1.00  0.00     0.210 HD
ENDBRANCH  15  22
BRANCH  16  24
HETATM   24  O8  UNL     1      -8.707  49.578 -28.778  1.00  0.00    -0.388 OA
HETATM   25  H26 UNL     1      -7.735  49.535 -28.740  1.00  0.00     0.210 HD
ENDBRANCH  16  24
ENDBRANCH  10  11
ENDBRANCH   5  10
BRANCH   1  26
HETATM   26  C4  UNL     1      -8.659  46.353 -35.021  1.00  0.00     0.010 C 
HETATM   27  C3  UNL     1      -8.446  47.419 -35.817  1.00  0.00     0.003 C 
BRANCH  27  28
HETATM   28  C2  UNL     1      -8.675  47.486 -37.306  1.00  0.00     0.136 C 
HETATM   29  C1  UNL     1      -9.816  48.440 -37.651  1.00  0.00     0.043 C 
BRANCH  28  30
HETATM   30  O1  UNL     1      -8.975  46.201 -37.840  1.00  0.00    -0.392 OA
HETATM   31  H5  UNL     1      -9.835  45.932 -37.474  1.00  0.00     0.210 HD
ENDBRANCH  28  30
ENDBRANCH  27  28
ENDBRANCH   1  26
BRANCH   1  32
HETATM   32  O2  UNL     1      -7.631  45.054 -33.373  1.00  0.00    -0.385 OA
HETATM   33  H8  UNL     1      -6.915  45.113 -34.029  1.00  0.00     0.211 HD
ENDBRANCH   1  32
TORSDOF 11
ENDMDL
MODEL 6
REMARK minimizedAffinity -6.69981861
REMARK CNNscore 0.440509796
REMARK CNNaffinity 4.70677805
REMARK  11 active torsions:
REMARK  status: ('A' for Active; 'I' for Inactive)
REMARK    1  A    between atoms: C2_2  and  O1_3 
REMARK    2  A    between atoms: C2_2  and  C3_4 
REMARK    3  A    between atoms: C4_5  and  C5_6 
REMARK    4  A    between atoms: C5_6  and  O2_7 
REMARK    5  A    between atoms: C9_11  and  O3_12 
REMARK    6  A    between atoms: O3_12  and  C10_13 
REMARK    7  A    between atoms: C11_15  and  C12_16 
REMARK    8  A    between atoms: C12_16  and  O5_17 
REMARK    9  A    between atoms: C13_18  and  O6_19 
REMARK   10  A    between atoms: C14_20  and  O7_21 
REMARK   11  A    between atoms: C15_22  and  O8_23 
ROOT
HETATM    1  C5  UNL     1      -3.496  50.482 -24.303  1.00  0.00     0.086 C 
HETATM    2  C6  UNL     1      -3.597  48.914 -24.388  1.00  0.00     0.023 C 
HETATM    3  C7  UNL     1      -4.194  48.397 -25.709  1.00  0.00     0.013 C 
HETATM    4  C8  UNL     1      -4.442  48.366 -23.230  1.00  0.00     0.039 C 
HETATM    5  C9  UNL     1      -3.796  48.619 -21.867  1.00  0.00     0.126 C 
HETATM    6  C16 UNL     1      -2.804  49.792 -21.901  1.00  0.00     0.044 C 
HETATM    7  C17 UNL     1      -3.239  50.982 -22.799  1.00  0.00    -0.010 C 
HETATM    8  C18 UNL     1      -4.494  51.655 -22.186  1.00  0.00     0.018 C 
HETATM    9  C19 UNL     1      -2.109  52.041 -22.689  1.00  0.00     0.018 C 
ENDROOT
BRANCH   5  10
HETATM   10  O3  UNL     1      -4.782  48.899 -20.869  1.00  0.00    -0.353 OA
BRANCH  10  11
HETATM   11  C10 UNL     1      -5.054  47.813 -19.977  1.00  0.00     0.292 C 
HETATM   12  O4  UNL     1      -5.761  46.759 -20.623  1.00  0.00    -0.348 OA
HETATM   13  C11 UNL     1      -7.188  46.749 -20.467  1.00  0.00     0.179 C 
HETATM   14  C13 UNL     1      -7.579  46.627 -18.978  1.00  0.00     0.180 C 
HETATM   15  C14 UNL     1      -6.580  47.310 -18.034  1.00  0.00     0.183 C 
HETATM   16  C15 UNL     1      -5.769  48.391 -18.734  1.00  0.00     0.204 C 
BRANCH  13  17
HETATM   17  C12 UNL     1      -7.882  47.928 -21.177  1.00  0.00     0.198 C 
BRANCH  17  18
HETATM   18  O5  UNL     1      -9.170  48.144 -20.598  1.00  0.00    -0.398 OA
HETATM   19  H20 UNL     1      -9.827  48.149 -21.326  1.00  0.00     0.209 HD
ENDBRANCH  17  18
ENDBRANCH  13  17
BRANCH  14  20
HETATM   20  O6  UNL     1      -7.602  45.232 -18.607  1.00  0.00    -0.390 OA
HETATM   21  H22 UNL     1      -8.313  44.804 -19.115  1.00  0.00     0.210 HD
ENDBRANCH  14  20
BRANCH  15  22
HETATM   22  O7  UNL     1      -7.292  47.904 -16.933  1.00  0.00    -0.390 OA
HETATM   23  H24 UNL     1      -6.654  48.496 -16.489  1.00  0.00     0.210 HD
ENDBRANCH  15  22
BRANCH  16  24
HETATM   24  O8  UNL     1      -4.846  48.964 -17.782  1.00  0.00    -0.388 OA
HETATM   25  H26 UNL     1      -4.146  48.310 -17.606  1.00  0.00     0.210 HD
ENDBRANCH  16  24
ENDBRANCH  10  11
ENDBRANCH   5  10
BRANCH   1  26
HETATM   26  C4  UNL     1      -2.510  51.086 -25.295  1.00  0.00     0.010 C 
HETATM   27  C3  UNL     1      -2.748  51.929 -26.318  1.00  0.00     0.003 C 
BRANCH  27  28
HETATM   28  C2  UNL     1      -1.727  52.487 -27.277  1.00  0.00     0.136 C 
HETATM   29  C1  UNL     1      -0.639  51.463 -27.590  1.00  0.00     0.043 C 
BRANCH  28  30
HETATM   30  O1  UNL     1      -1.116  53.661 -26.753  1.00  0.00    -0.392 OA
HETATM   31  H5  UNL     1      -0.596  53.391 -25.976  1.00  0.00     0.210 HD
ENDBRANCH  28  30
ENDBRANCH  27  28
ENDBRANCH   1  26
BRANCH   1  32
HETATM   32  O2  UNL     1      -4.774  51.003 -24.724  1.00  0.00    -0.385 OA
HETATM   33  H8  UNL     1      -4.828  50.911 -25.691  1.00  0.00     0.211 HD
ENDBRANCH   1  32
TORSDOF 11
ENDMDL
MODEL 7
REMARK minimizedAffinity -7.86743307
REMARK CNNscore 0.431596726
REMARK CNNaffinity 5.37273264
REMARK  11 active torsions:
REMARK  status: ('A' for Active; 'I' for Inactive)
REMARK    1  A    between atoms: C2_2  and  O1_3 
REMARK    2  A    between atoms: C2_2  and  C3_4 
REMARK    3  A    between atoms: C4_5  and  C5_6 
REMARK    4  A    between atoms: C5_6  and  O2_7 
REMARK    5  A    between atoms: C9_11  and  O3_12 
REMARK    6  A    between atoms: O3_12  and  C10_13 
REMARK    7  A    between atoms: C11_15  and  C12_16 
REMARK    8  A    between atoms: C12_16  and  O5_17 
REMARK    9  A    between atoms: C13_18  and  O6_19 
REMARK   10  A    between atoms: C14_20  and  O7_21 
REMARK   11  A    between atoms: C15_22  and  O8_23 
ROOT
HETATM    1  C5  UNL     1       6.079  64.432 -35.871  1.00  0.00     0.086 C 
HETATM    2  C6  UNL     1       4.974  64.565 -34.757  1.00  0.00     0.023 C 
HETATM    3  C7  UNL     1       4.352  63.224 -34.332  1.00  0.00     0.013 C 
HETATM    4  C8  UNL     1       3.846  65.494 -35.227  1.00  0.00     0.039 C 
HETATM    5  C9  UNL     1       4.326  66.930 -35.441  1.00  0.00     0.126 C 
HETATM    6  C16 UNL     1       5.840  67.009 -35.687  1.00  0.00     0.044 C 
HETATM    7  C17 UNL     1       6.418  65.850 -36.545  1.00  0.00    -0.010 C 
HETATM    8  C18 UNL     1       5.863  65.955 -37.989  1.00  0.00     0.018 C 
HETATM    9  C19 UNL     1       7.941  66.122 -36.669  1.00  0.00     0.018 C 
ENDROOT
BRANCH   5  10
HETATM   10  O3  UNL     1       3.663  67.539 -36.553  1.00  0.00    -0.353 OA
BRANCH  10  11
HETATM   11  C10 UNL     1       2.396  66.959 -36.882  1.00  0.00     0.292 C 
HETATM   12  O4  UNL     1       2.485  66.095 -38.010  1.00  0.00    -0.348 OA
HETATM   13  C11 UNL     1       2.134  66.657 -39.284  1.00  0.00     0.179 C 
HETATM   14  C13 UNL     1       0.672  67.151 -39.284  1.00  0.00     0.180 C 
HETATM   15  C14 UNL     1       0.212  67.676 -37.917  1.00  0.00     0.183 C 
HETATM   16  C15 UNL     1       1.378  68.112 -37.043  1.00  0.00     0.204 C 
BRANCH  13  17
HETATM   17  C12 UNL     1       3.132  67.727 -39.767  1.00  0.00     0.198 C 
BRANCH  17  18
HETATM   18  O5  UNL     1       3.073  67.827 -41.191  1.00  0.00    -0.398 OA
HETATM   19  H20 UNL     1       3.987  67.734 -41.534  1.00  0.00     0.209 HD
ENDBRANCH  17  18
ENDBRANCH  13  17
BRANCH  14  20
HETATM   20  O6  UNL     1      -0.202  66.049 -39.613  1.00  0.00    -0.390 OA
HETATM   21  H22 UNL     1      -0.001  65.777 -40.525  1.00  0.00     0.210 HD
ENDBRANCH  14  20
BRANCH  15  22
HETATM   22  O7  UNL     1      -0.671  68.797 -38.108  1.00  0.00    -0.390 OA
HETATM   23  H24 UNL     1      -0.760  69.221 -37.232  1.00  0.00     0.210 HD
ENDBRANCH  15  22
BRANCH  16  24
HETATM   24  O8  UNL     1       0.858  68.571 -35.776  1.00  0.00    -0.388 OA
HETATM   25  H26 UNL     1       0.549  67.795 -35.276  1.00  0.00     0.210 HD
ENDBRANCH  16  24
ENDBRANCH  10  11
ENDBRANCH   5  10
BRANCH   1  26
HETATM   26  C4  UNL     1       7.329  63.693 -35.407  1.00  0.00     0.010 C 
HETATM   27  C3  UNL     1       7.608  63.185 -34.192  1.00  0.00     0.003 C 
BRANCH  27  28
HETATM   28  C2  UNL     1       8.873  62.469 -33.788  1.00  0.00     0.136 C 
HETATM   29  C1  UNL     1       9.655  61.989 -35.008  1.00  0.00     0.043 C 
BRANCH  28  30
HETATM   30  O1  UNL     1       8.588  61.350 -32.956  1.00  0.00    -0.392 OA
HETATM   31  H5  UNL     1       8.107  60.703 -33.501  1.00  0.00     0.210 HD
ENDBRANCH  28  30
ENDBRANCH  27  28
ENDBRANCH   1  26
BRANCH   1  32
HETATM   32  O2  UNL     1       5.532  63.579 -36.897  1.00  0.00    -0.385 OA
HETATM   33  H8  UNL     1       5.548  62.665 -36.563  1.00  0.00     0.211 HD
ENDBRANCH   1  32
TORSDOF 11
ENDMDL
MODEL 8
REMARK minimizedAffinity -7.90487337
REMARK CNNscore 0.417195797
REMARK CNNaffinity 5.10745764
REMARK  11 active torsions:
REMARK  status: ('A' for Active; 'I' for Inactive)
REMARK    1  A    between atoms: C2_2  and  O1_3 
REMARK    2  A    between atoms: C2_2  and  C3_4 
REMARK    3  A    between atoms: C4_5  and  C5_6 
REMARK    4  A    between atoms: C5_6  and  O2_7 
REMARK    5  A    between atoms: C9_11  and  O3_12 
REMARK    6  A    between atoms: O3_12  and  C10_13 
REMARK    7  A    between atoms: C11_15  and  C12_16 
REMARK    8  A    between atoms: C12_16  and  O5_17 
REMARK    9  A    between atoms: C13_18  and  O6_19 
REMARK   10  A    between atoms: C14_20  and  O7_21 
REMARK   11  A    between atoms: C15_22  and  O8_23 
ROOT
HETATM    1  C5  UNL     1      -0.197  51.911 -19.236  1.00  0.00     0.086 C 
HETATM    2  C6  UNL     1       0.606  52.463 -20.473  1.00  0.00     0.023 C 
HETATM    3  C7  UNL     1       1.154  53.887 -20.277  1.00  0.00     0.013 C 
HETATM    4  C8  UNL     1      -0.272  52.452 -21.732  1.00  0.00     0.039 C 
HETATM    5  C9  UNL     1      -0.669  51.037 -22.153  1.00  0.00     0.126 C 
HETATM    6  C16 UNL     1      -0.600  50.040 -20.987  1.00  0.00     0.044 C 
HETATM    7  C17 UNL     1      -1.060  50.612 -19.618  1.00  0.00    -0.010 C 
HETATM    8  C18 UNL     1      -2.578  50.917 -19.674  1.00  0.00     0.018 C 
HETATM    9  C19 UNL     1      -0.911  49.454 -18.594  1.00  0.00     0.018 C 
ENDROOT
BRANCH   5  10
HETATM   10  O3  UNL     1      -1.998  51.007 -22.685  1.00  0.00    -0.353 OA
BRANCH  10  11
HETATM   11  C10 UNL     1      -2.242  49.950 -23.619  1.00  0.00     0.292 C 
HETATM   12  O4  UNL     1      -1.569  50.167 -24.855  1.00  0.00    -0.348 OA
HETATM   13  C11 UNL     1      -2.333  50.768 -25.911  1.00  0.00     0.179 C 
HETATM   14  C13 UNL     1      -3.550  49.892 -26.277  1.00  0.00     0.180 C 
HETATM   15  C14 UNL     1      -4.127  49.127 -25.078  1.00  0.00     0.183 C 
HETATM   16  C15 UNL     1      -3.774  49.782 -23.751  1.00  0.00     0.204 C 
BRANCH  13  17
HETATM   17  C12 UNL     1      -2.712  52.235 -25.623  1.00  0.00     0.198 C 
BRANCH  17  18
HETATM   18  O5  UNL     1      -2.619  52.997 -26.827  1.00  0.00    -0.398 OA
HETATM   19  H20 UNL     1      -2.051  53.775 -26.644  1.00  0.00     0.209 HD
ENDBRANCH  17  18
ENDBRANCH  13  17
BRANCH  14  20
HETATM   20  O6  UNL     1      -3.144  48.895 -27.240  1.00  0.00    -0.390 OA
HETATM   21  H22 UNL     1      -2.883  49.361 -28.053  1.00  0.00     0.210 HD
ENDBRANCH  14  20
BRANCH  15  22
HETATM   22  O7  UNL     1      -5.560  49.062 -25.197  1.00  0.00    -0.390 OA
HETATM   23  H24 UNL     1      -5.888  48.766 -24.325  1.00  0.00     0.210 HD
ENDBRANCH  15  22
BRANCH  16  24
HETATM   24  O8  UNL     1      -4.337  48.991 -22.681  1.00  0.00    -0.388 OA
HETATM   25  H26 UNL     1      -3.821  48.167 -22.610  1.00  0.00     0.210 HD
ENDBRANCH  16  24
ENDBRANCH  10  11
ENDBRANCH   5  10
BRANCH   1  26
HETATM   26  C4  UNL     1       0.662  51.698 -17.996  1.00  0.00     0.010 C 
HETATM   27  C3  UNL     1       1.257  52.616 -17.211  1.00  0.00     0.003 C 
BRANCH  27  28
HETATM   28  C2  UNL     1       2.108  52.342 -15.996  1.00  0.00     0.136 C 
HETATM   29  C1  UNL     1       3.591  52.542 -16.300  1.00  0.00     0.043 C 
BRANCH  28  30
HETATM   30  O1  UNL     1       1.912  51.016 -15.519  1.00  0.00    -0.392 OA
HETATM   31  H5  UNL     1       2.258  50.412 -16.199  1.00  0.00     0.210 HD
ENDBRANCH  28  30
ENDBRANCH  27  28
ENDBRANCH   1  26
BRANCH   1  32
HETATM   32  O2  UNL     1      -1.119  52.949 -18.845  1.00  0.00    -0.385 OA
HETATM   33  H8  UNL     1      -0.610  53.644 -18.392  1.00  0.00     0.211 HD
ENDBRANCH   1  32
TORSDOF 11
ENDMDL
MODEL 9
REMARK minimizedAffinity -7.24708605
REMARK CNNscore 0.396167368
REMARK CNNaffinity 4.93211508
REMARK  11 active torsions:
REMARK  status: ('A' for Active; 'I' for Inactive)
REMARK    1  A    between atoms: C2_2  and  O1_3 
REMARK    2  A    between atoms: C2_2  and  C3_4 
REMARK    3  A    between atoms: C4_5  and  C5_6 
REMARK    4  A    between atoms: C5_6  and  O2_7 
REMARK    5  A    between atoms: C9_11  and  O3_12 
REMARK    6  A    between atoms: O3_12  and  C10_13 
REMARK    7  A    between atoms: C11_15  and  C12_16 
REMARK    8  A    between atoms: C12_16  and  O5_17 
REMARK    9  A    between atoms: C13_18  and  O6_19 
REMARK   10  A    between atoms: C14_20  and  O7_21 
REMARK   11  A    between atoms: C15_22  and  O8_23 
ROOT
HETATM    1  C5  UNL     1      -2.639  50.207 -20.053  1.00  0.00     0.086 C 
HETATM    2  C6  UNL     1      -1.083  50.273 -20.280  1.00  0.00     0.023 C 
HETATM    3  C7  UNL     1      -0.302  50.846 -19.085  1.00  0.00     0.013 C 
HETATM    4  C8  UNL     1      -0.756  51.116 -21.520  1.00  0.00     0.039 C 
HETATM    5  C9  UNL     1      -1.288  50.488 -22.809  1.00  0.00     0.126 C 
HETATM    6  C16 UNL     1      -2.454  49.522 -22.548  1.00  0.00     0.044 C 
HETATM    7  C17 UNL     1      -3.432  49.974 -21.430  1.00  0.00    -0.010 C 
HETATM    8  C18 UNL     1      -4.184  51.248 -21.892  1.00  0.00     0.018 C 
HETATM    9  C19 UNL     1      -4.518  48.868 -21.333  1.00  0.00     0.018 C 
ENDROOT
BRANCH   5  10
HETATM   10  O3  UNL     1      -1.738  51.489 -23.728  1.00  0.00    -0.353 OA
BRANCH  10  11
HETATM   11  C10 UNL     1      -1.247  51.336 -25.063  1.00  0.00     0.292 C 
HETATM   12  O4  UNL     1       0.163  51.522 -25.135  1.00  0.00    -0.348 OA
HETATM   13  C11 UNL     1       0.623  52.827 -25.518  1.00  0.00     0.179 C 
HETATM   14  C13 UNL     1       0.107  53.203 -26.923  1.00  0.00     0.180 C 
HETATM   15  C14 UNL     1      -1.275  52.615 -27.236  1.00  0.00     0.183 C 
HETATM   16  C15 UNL     1      -2.061  52.283 -25.976  1.00  0.00     0.204 C 
BRANCH  13  17
HETATM   17  C12 UNL     1       0.328  53.906 -24.458  1.00  0.00     0.198 C 
BRANCH  17  18
HETATM   18  O5  UNL     1       1.511  54.668 -24.209  1.00  0.00    -0.398 OA
HETATM   19  H20 UNL     1       1.667  54.667 -23.241  1.00  0.00     0.209 HD
ENDBRANCH  17  18
ENDBRANCH  13  17
BRANCH  14  20
HETATM   20  O6  UNL     1       1.010  52.674 -27.918  1.00  0.00    -0.390 OA
HETATM   21  H22 UNL     1       1.866  53.124 -27.808  1.00  0.00     0.210 HD
ENDBRANCH  14  20
BRANCH  15  22
HETATM   22  O7  UNL     1      -2.031  53.558 -28.019  1.00  0.00    -0.390 OA
HETATM   23  H24 UNL     1      -2.954  53.239 -28.006  1.00  0.00     0.210 HD
ENDBRANCH  15  22
BRANCH  16  24
HETATM   24  O8  UNL     1      -3.334  51.719 -26.361  1.00  0.00    -0.388 OA
HETATM   25  H26 UNL     1      -3.177  50.823 -26.708  1.00  0.00     0.210 HD
ENDBRANCH  16  24
ENDBRANCH  10  11
ENDBRANCH   5  10
BRANCH   1  26
HETATM   26  C4  UNL     1      -3.057  49.224 -18.965  1.00  0.00     0.010 C 
HETATM   27  C3  UNL     1      -2.427  48.111 -18.544  1.00  0.00     0.003 C 
BRANCH  27  28
HETATM   28  C2  UNL     1      -2.898  47.168 -17.465  1.00  0.00     0.136 C 
HETATM   29  C1  UNL     1      -3.906  46.159 -18.009  1.00  0.00     0.043 C 
BRANCH  28  30
HETATM   30  O1  UNL     1      -3.496  47.878 -16.386  1.00  0.00    -0.392 OA
HETATM   31  H5  UNL     1      -4.312  48.283 -16.727  1.00  0.00     0.210 HD
ENDBRANCH  28  30
ENDBRANCH  27  28
ENDBRANCH   1  26
BRANCH   1  32
HETATM   32  O2  UNL     1      -3.036  51.491 -19.531  1.00  0.00    -0.385 OA
HETATM   33  H8  UNL     1      -2.754  51.535 -18.602  1.00  0.00     0.211 HD
ENDBRANCH   1  32
TORSDOF 11
ENDMDL
