MODEL 1
REMARK minimizedAffinity -7.97099495
REMARK CNNscore 0.587543428
REMARK CNNaffinity 6.76195574
REMARK  7 active torsions:
REMARK  status: ('A' for Active; 'I' for Inactive)
REMARK    1  A    between atoms: C2_2  and  C30_33 
REMARK    2  A    between atoms: C3_3  and  C4_4 
REMARK    3  A    between atoms: C4_4  and  C5_5 
REMARK    4  A    between atoms: C5_5  and  C6_6 
REMARK    5  A    between atoms: C6_6  and  C8_8 
REMARK    6  A    between atoms: C15_15  and  O1_16 
REMARK    7  A    between atoms: C30_33  and  O5_35 
ROOT
HETATM    1  C8  UNL     1      -2.109  47.929 -19.270  1.00  0.00    -0.002 C 
HETATM    2  C9  UNL     1      -2.840  47.070 -18.214  1.00  0.00     0.007 C 
HETATM    3  C10 UNL     1      -4.217  46.704 -18.820  1.00  0.00     0.015 C 
HETATM    4  C11 UNL     1      -4.099  47.033 -20.326  1.00  0.00    -0.005 C 
HETATM    5  C12 UNL     1      -3.392  45.812 -20.998  1.00  0.00     0.021 C 
HETATM    6  C13 UNL     1      -5.323  47.268 -21.202  1.00  0.00     0.002 C 
HETATM    7  C14 UNL     1      -5.276  48.105 -22.280  1.00  0.00    -0.032 C 
HETATM    8  C15 UNL     1      -4.007  48.902 -22.604  1.00  0.00     0.149 C 
HETATM    9  C16 UNL     1      -2.798  48.737 -21.653  1.00  0.00     0.047 C 
HETATM   10  C17 UNL     1      -3.250  48.360 -20.236  1.00  0.00    -0.026 C 
HETATM   11  C18 UNL     1      -4.072  49.541 -19.638  1.00  0.00     0.016 C 
HETATM   12  C19 UNL     1      -6.528  48.314 -23.181  1.00  0.00    -0.012 C 
HETATM   13  C20 UNL     1      -7.378  49.401 -22.467  1.00  0.00     0.021 C 
HETATM   14  C21 UNL     1      -6.262  48.822 -24.633  1.00  0.00     0.021 C 
HETATM   15  C22 UNL     1      -6.152  47.705 -25.659  1.00  0.00     0.080 C 
HETATM   16  C23 UNL     1      -7.481  46.986 -25.754  1.00  0.00     0.135 C 
HETATM   17  O2  UNL     1      -7.928  46.646 -26.850  1.00  0.00    -0.297 OA
HETATM   18  C24 UNL     1      -8.225  46.691 -24.438  1.00  0.00     0.018 C 
HETATM   19  C25 UNL     1      -9.476  47.575 -24.387  1.00  0.00     0.023 C 
HETATM   20  C26 UNL     1      -8.680  45.215 -24.494  1.00  0.00     0.023 C 
HETATM   21  C27 UNL     1      -7.222  46.906 -23.259  1.00  0.00     0.020 C 
HETATM   22  C28 UNL     1      -7.723  46.495 -21.875  1.00  0.00     0.090 C 
HETATM   23  C29 UNL     1      -6.582  46.507 -20.877  1.00  0.00     0.157 C 
HETATM   24  O3  UNL     1      -6.699  45.893 -19.818  1.00  0.00    -0.293 OA
ENDROOT
BRANCH   1  25
HETATM   25  C6  UNL     1      -1.031  48.934 -18.777  1.00  0.00    -0.014 C 
HETATM   26  C7  UNL     1      -1.247  49.229 -17.282  1.00  0.00     0.010 C 
BRANCH  25  27
HETATM   27  C5  UNL     1      -0.712  50.232 -19.556  1.00  0.00     0.008 C 
BRANCH  27  28
HETATM   28  C4  UNL     1      -0.259  50.196 -21.020  1.00  0.00     0.028 C 
BRANCH  28  29
HETATM   29  C3  UNL     1       0.390  51.452 -21.524  1.00  0.00    -0.013 C 
HETATM   30  C2  UNL     1       0.456  52.641 -20.892  1.00  0.00     0.008 C 
HETATM   31  C1  UNL     1      -0.156  52.959 -19.561  1.00  0.00     0.055 C 
BRANCH  30  32
HETATM   32  C30 UNL     1       1.180  53.729 -21.598  1.00  0.00     0.171 C 
HETATM   33  O4  UNL     1       1.818  54.633 -21.088  1.00  0.00    -0.646 OA
BRANCH  32  34
HETATM   34  O5  UNL     1       1.067  53.636 -22.933  1.00  0.00    -0.773 OA
HETATM   35  H44 UNL     1       1.578  54.407 -23.257  1.00  0.00     0.167 HD
ENDBRANCH  32  34
ENDBRANCH  30  32
ENDBRANCH  28  29
ENDBRANCH  27  28
ENDBRANCH  25  27
ENDBRANCH   1  25
BRANCH   8  36
HETATM   36  O1  UNL     1      -4.363  50.283 -22.621  1.00  0.00    -0.391 OA
HETATM   37  H22 UNL     1      -3.585  50.784 -22.916  1.00  0.00     0.210 HD
ENDBRANCH   8  36
TORSDOF 7
ENDMDL
MODEL 2
REMARK minimizedAffinity -10.0575066
REMARK CNNscore 0.587403476
REMARK CNNaffinity 7.30494833
REMARK  7 active torsions:
REMARK  status: ('A' for Active; 'I' for Inactive)
REMARK    1  A    between atoms: C2_2  and  C30_33 
REMARK    2  A    between atoms: C3_3  and  C4_4 
REMARK    3  A    between atoms: C4_4  and  C5_5 
REMARK    4  A    between atoms: C5_5  and  C6_6 
REMARK    5  A    between atoms: C6_6  and  C8_8 
REMARK    6  A    between atoms: C15_15  and  O1_16 
REMARK    7  A    between atoms: C30_33  and  O5_35 
ROOT
HETATM    1  C8  UNL     1      -0.880  49.282 -18.266  1.00  0.00    -0.002 C 
HETATM    2  C9  UNL     1      -2.138  48.386 -18.218  1.00  0.00     0.007 C 
HETATM    3  C10 UNL     1      -2.798  48.479 -19.616  1.00  0.00     0.015 C 
HETATM    4  C11 UNL     1      -1.723  49.108 -20.532  1.00  0.00    -0.005 C 
HETATM    5  C12 UNL     1      -0.773  47.948 -20.972  1.00  0.00     0.021 C 
HETATM    6  C13 UNL     1      -2.080  49.798 -21.842  1.00  0.00     0.002 C 
HETATM    7  C14 UNL     1      -1.328  50.828 -22.332  1.00  0.00    -0.032 C 
HETATM    8  C15 UNL     1      -0.138  51.380 -21.539  1.00  0.00     0.149 C 
HETATM    9  C16 UNL     1       0.160  50.743 -20.161  1.00  0.00     0.047 C 
HETATM   10  C17 UNL     1      -1.111  50.161 -19.529  1.00  0.00    -0.026 C 
HETATM   11  C18 UNL     1      -2.101  51.325 -19.225  1.00  0.00     0.016 C 
HETATM   12  C19 UNL     1      -1.691  51.506 -23.685  1.00  0.00    -0.012 C 
HETATM   13  C20 UNL     1      -2.780  52.560 -23.345  1.00  0.00     0.021 C 
HETATM   14  C21 UNL     1      -0.536  52.260 -24.415  1.00  0.00     0.021 C 
HETATM   15  C22 UNL     1       0.193  51.410 -25.445  1.00  0.00     0.080 C 
HETATM   16  C23 UNL     1      -0.770  51.041 -26.553  1.00  0.00     0.135 C 
HETATM   17  O2  UNL     1      -0.405  51.066 -27.729  1.00  0.00    -0.297 OA
HETATM   18  C24 UNL     1      -2.196  50.624 -26.147  1.00  0.00     0.018 C 
HETATM   19  C25 UNL     1      -3.163  51.724 -26.597  1.00  0.00     0.023 C 
HETATM   20  C26 UNL     1      -2.533  49.336 -26.932  1.00  0.00     0.023 C 
HETATM   21  C27 UNL     1      -2.195  50.339 -24.610  1.00  0.00     0.020 C 
HETATM   22  C28 UNL     1      -3.483  49.744 -24.042  1.00  0.00     0.090 C 
HETATM   23  C29 UNL     1      -3.263  49.278 -22.617  1.00  0.00     0.157 C 
HETATM   24  O3  UNL     1      -4.052  48.480 -22.114  1.00  0.00    -0.293 OA
ENDROOT
BRANCH   1  25
HETATM   25  C6  UNL     1      -0.361  49.888 -16.932  1.00  0.00    -0.014 C 
HETATM   26  C7  UNL     1      -1.544  50.106 -15.971  1.00  0.00     0.010 C 
BRANCH  25  27
HETATM   27  C5  UNL     1       0.602  51.098 -16.907  1.00  0.00     0.008 C 
BRANCH  27  28
HETATM   28  C4  UNL     1       0.973  51.799 -15.596  1.00  0.00     0.028 C 
BRANCH  28  29
HETATM   29  C3  UNL     1       1.948  51.061 -14.725  1.00  0.00    -0.013 C 
HETATM   30  C2  UNL     1       3.288  51.200 -14.708  1.00  0.00     0.008 C 
HETATM   31  C1  UNL     1       4.085  52.101 -15.603  1.00  0.00     0.055 C 
BRANCH  30  32
HETATM   32  C30 UNL     1       4.031  50.365 -13.729  1.00  0.00     0.171 C 
HETATM   33  O4  UNL     1       4.886  49.535 -13.978  1.00  0.00    -0.646 OA
BRANCH  32  34
HETATM   34  O5  UNL     1       3.658  50.610 -12.462  1.00  0.00    -0.773 OA
HETATM   35  H44 UNL     1       4.214  49.995 -11.941  1.00  0.00     0.167 HD
ENDBRANCH  32  34
ENDBRANCH  30  32
ENDBRANCH  28  29
ENDBRANCH  27  28
ENDBRANCH  25  27
ENDBRANCH   1  25
BRANCH   8  36
HETATM   36  O1  UNL     1      -0.371  52.772 -21.334  1.00  0.00    -0.391 OA
HETATM   37  H22 UNL     1       0.422  53.145 -20.914  1.00  0.00     0.210 HD
ENDBRANCH   8  36
TORSDOF 7
ENDMDL
MODEL 3
REMARK minimizedAffinity -7.57457113
REMARK CNNscore 0.550647199
REMARK CNNaffinity 6.52211237
REMARK  7 active torsions:
REMARK  status: ('A' for Active; 'I' for Inactive)
REMARK    1  A    between atoms: C2_2  and  C30_33 
REMARK    2  A    between atoms: C3_3  and  C4_4 
REMARK    3  A    between atoms: C4_4  and  C5_5 
REMARK    4  A    between atoms: C5_5  and  C6_6 
REMARK    5  A    between atoms: C6_6  and  C8_8 
REMARK    6  A    between atoms: C15_15  and  O1_16 
REMARK    7  A    between atoms: C30_33  and  O5_35 
ROOT
HETATM    1  C8  UNL     1      -1.643  52.392  -9.823  1.00  0.00    -0.002 C 
HETATM    2  C9  UNL     1      -1.265  51.020  -9.220  1.00  0.00     0.007 C 
HETATM    3  C10 UNL     1       0.185  51.154  -8.694  1.00  0.00     0.015 C 
HETATM    4  C11 UNL     1       0.466  52.674  -8.663  1.00  0.00    -0.005 C 
HETATM    5  C12 UNL     1      -0.149  53.218  -7.334  1.00  0.00     0.021 C 
HETATM    6  C13 UNL     1       1.883  53.234  -8.661  1.00  0.00     0.002 C 
HETATM    7  C14 UNL     1       2.170  54.446  -9.222  1.00  0.00    -0.032 C 
HETATM    8  C15 UNL     1       1.087  55.255  -9.946  1.00  0.00     0.149 C 
HETATM    9  C16 UNL     1      -0.327  54.634 -10.034  1.00  0.00     0.047 C 
HETATM   10  C17 UNL     1      -0.270  53.102  -9.992  1.00  0.00    -0.026 C 
HETATM   11  C18 UNL     1       0.472  52.590 -11.263  1.00  0.00     0.016 C 
HETATM   12  C19 UNL     1       3.617  55.017  -9.188  1.00  0.00    -0.012 C 
HETATM   13  C20 UNL     1       4.350  54.367 -10.394  1.00  0.00     0.021 C 
HETATM   14  C21 UNL     1       3.757  56.564  -9.346  1.00  0.00     0.021 C 
HETATM   15  C22 UNL     1       3.814  57.310  -8.022  1.00  0.00     0.080 C 
HETATM   16  C23 UNL     1       5.064  56.897  -7.274  1.00  0.00     0.135 C 
HETATM   17  O2  UNL     1       5.739  57.737  -6.677  1.00  0.00    -0.297 OA
HETATM   18  C24 UNL     1       5.436  55.402  -7.281  1.00  0.00     0.018 C 
HETATM   19  C25 UNL     1       6.703  55.228  -8.126  1.00  0.00     0.023 C 
HETATM   20  C26 UNL     1       5.772  55.011  -5.824  1.00  0.00     0.023 C 
HETATM   21  C27 UNL     1       4.194  54.599  -7.787  1.00  0.00     0.020 C 
HETATM   22  C28 UNL     1       4.305  53.077  -7.702  1.00  0.00     0.090 C 
HETATM   23  C29 UNL     1       2.959  52.436  -7.971  1.00  0.00     0.157 C 
HETATM   24  O3  UNL     1       2.763  51.274  -7.621  1.00  0.00    -0.293 OA
ENDROOT
BRANCH   1  25
HETATM   25  C6  UNL     1      -2.726  52.429 -10.938  1.00  0.00    -0.014 C 
HETATM   26  C7  UNL     1      -3.688  53.603 -10.681  1.00  0.00     0.010 C 
BRANCH  25  27
HETATM   27  C5  UNL     1      -3.502  51.160 -11.361  1.00  0.00     0.008 C 
BRANCH  27  28
HETATM   28  C4  UNL     1      -4.113  50.212 -10.324  1.00  0.00     0.028 C 
BRANCH  28  29
HETATM   29  C3  UNL     1      -5.607  50.275 -10.195  1.00  0.00    -0.013 C 
HETATM   30  C2  UNL     1      -6.498  49.355 -10.615  1.00  0.00     0.008 C 
HETATM   31  C1  UNL     1      -6.167  48.089 -11.347  1.00  0.00     0.055 C 
BRANCH  30  32
HETATM   32  C30 UNL     1      -7.930  49.644 -10.345  1.00  0.00     0.171 C 
HETATM   33  O4  UNL     1      -8.404  50.075  -9.309  1.00  0.00    -0.646 OA
BRANCH  32  34
HETATM   34  O5  UNL     1      -8.715  49.371 -11.400  1.00  0.00    -0.773 OA
HETATM   35  H44 UNL     1      -9.612  49.598 -11.078  1.00  0.00     0.167 HD
ENDBRANCH  32  34
ENDBRANCH  30  32
ENDBRANCH  28  29
ENDBRANCH  27  28
ENDBRANCH  25  27
ENDBRANCH   1  25
BRANCH   8  36
HETATM   36  O1  UNL     1       1.546  55.485 -11.277  1.00  0.00    -0.391 OA
HETATM   37  H22 UNL     1       0.906  56.074 -11.711  1.00  0.00     0.210 HD
ENDBRANCH   8  36
TORSDOF 7
ENDMDL
MODEL 4
REMARK minimizedAffinity -9.31072712
REMARK CNNscore 0.388284147
REMARK CNNaffinity 6.6921773
REMARK  7 active torsions:
REMARK  status: ('A' for Active; 'I' for Inactive)
REMARK    1  A    between atoms: C2_2  and  C30_33 
REMARK    2  A    between atoms: C3_3  and  C4_4 
REMARK    3  A    between atoms: C4_4  and  C5_5 
REMARK    4  A    between atoms: C5_5  and  C6_6 
REMARK    5  A    between atoms: C6_6  and  C8_8 
REMARK    6  A    between atoms: C15_15  and  O1_16 
REMARK    7  A    between atoms: C30_33  and  O5_35 
ROOT
HETATM    1  C8  UNL     1      -0.654  52.465 -21.391  1.00  0.00    -0.002 C 
HETATM    2  C9  UNL     1      -0.181  52.199 -22.837  1.00  0.00     0.007 C 
HETATM    3  C10 UNL     1      -1.119  51.111 -23.414  1.00  0.00     0.015 C 
HETATM    4  C11 UNL     1      -2.318  51.051 -22.442  1.00  0.00    -0.005 C 
HETATM    5  C12 UNL     1      -3.285  52.209 -22.849  1.00  0.00     0.021 C 
HETATM    6  C13 UNL     1      -3.231  49.834 -22.356  1.00  0.00     0.002 C 
HETATM    7  C14 UNL     1      -3.856  49.494 -21.190  1.00  0.00    -0.032 C 
HETATM    8  C15 UNL     1      -3.601  50.283 -19.901  1.00  0.00     0.149 C 
HETATM    9  C16 UNL     1      -2.596  51.457 -19.970  1.00  0.00     0.047 C 
HETATM   10  C17 UNL     1      -1.554  51.237 -21.074  1.00  0.00    -0.026 C 
HETATM   11  C18 UNL     1      -0.691  49.991 -20.712  1.00  0.00     0.016 C 
HETATM   12  C19 UNL     1      -4.805  48.262 -21.126  1.00  0.00    -0.012 C 
HETATM   13  C20 UNL     1      -3.881  47.034 -20.902  1.00  0.00     0.021 C 
HETATM   14  C21 UNL     1      -5.859  48.258 -19.974  1.00  0.00     0.021 C 
HETATM   15  C22 UNL     1      -7.210  48.829 -20.380  1.00  0.00     0.080 C 
HETATM   16  C23 UNL     1      -7.820  47.946 -21.447  1.00  0.00     0.135 C 
HETATM   17  O2  UNL     1      -9.021  47.675 -21.419  1.00  0.00    -0.297 OA
HETATM   18  C24 UNL     1      -6.889  47.425 -22.558  1.00  0.00     0.018 C 
HETATM   19  C25 UNL     1      -6.713  45.915 -22.367  1.00  0.00     0.023 C 
HETATM   20  C26 UNL     1      -7.612  47.659 -23.904  1.00  0.00     0.023 C 
HETATM   21  C27 UNL     1      -5.564  48.252 -22.503  1.00  0.00     0.020 C 
HETATM   22  C28 UNL     1      -4.574  48.002 -23.640  1.00  0.00     0.090 C 
HETATM   23  C29 UNL     1      -3.469  49.038 -23.613  1.00  0.00     0.157 C 
HETATM   24  O3  UNL     1      -2.784  49.217 -24.619  1.00  0.00    -0.293 OA
ENDROOT
BRANCH   1  25
HETATM   25  C6  UNL     1       0.384  53.004 -20.367  1.00  0.00    -0.014 C 
HETATM   26  C7  UNL     1       1.743  53.195 -21.065  1.00  0.00     0.010 C 
BRANCH  25  27
HETATM   27  C5  UNL     1       0.564  52.359 -18.973  1.00  0.00     0.008 C 
BRANCH  27  28
HETATM   28  C4  UNL     1       1.682  52.802 -18.024  1.00  0.00     0.028 C 
BRANCH  28  29
HETATM   29  C3  UNL     1       1.628  52.211 -16.645  1.00  0.00    -0.013 C 
HETATM   30  C2  UNL     1       2.655  52.068 -15.783  1.00  0.00     0.008 C 
HETATM   31  C1  UNL     1       4.082  52.437 -16.055  1.00  0.00     0.055 C 
BRANCH  30  32
HETATM   32  C30 UNL     1       2.333  51.472 -14.461  1.00  0.00     0.171 C 
HETATM   33  O4  UNL     1       1.784  50.404 -14.256  1.00  0.00    -0.646 OA
BRANCH  32  34
HETATM   34  O5  UNL     1       2.718  52.255 -13.440  1.00  0.00    -0.773 OA
HETATM   35  H44 UNL     1       2.440  51.747 -12.649  1.00  0.00     0.167 HD
ENDBRANCH  32  34
ENDBRANCH  30  32
ENDBRANCH  28  29
ENDBRANCH  27  28
ENDBRANCH  25  27
ENDBRANCH   1  25
BRANCH   8  36
HETATM   36  O1  UNL     1      -3.127  49.360 -18.922  1.00  0.00    -0.391 OA
HETATM   37  H22 UNL     1      -3.052  49.836 -18.079  1.00  0.00     0.210 HD
ENDBRANCH   8  36
TORSDOF 7
ENDMDL
MODEL 5
REMARK minimizedAffinity -8.65659714
REMARK CNNscore 0.378067613
REMARK CNNaffinity 6.62677908
REMARK  7 active torsions:
REMARK  status: ('A' for Active; 'I' for Inactive)
REMARK    1  A    between atoms: C2_2  and  C30_33 
REMARK    2  A    between atoms: C3_3  and  C4_4 
REMARK    3  A    between atoms: C4_4  and  C5_5 
REMARK    4  A    between atoms: C5_5  and  C6_6 
REMARK    5  A    between atoms: C6_6  and  C8_8 
REMARK    6  A    between atoms: C15_15  and  O1_16 
REMARK    7  A    between atoms: C30_33  and  O5_35 
ROOT
HETATM    1  C8  UNL     1      -0.880  51.106 -23.672  1.00  0.00    -0.002 C 
HETATM    2  C9  UNL     1      -0.307  52.539 -23.739  1.00  0.00     0.007 C 
HETATM    3  C10 UNL     1       0.028  52.948 -22.283  1.00  0.00     0.015 C 
HETATM    4  C11 UNL     1      -0.003  51.632 -21.474  1.00  0.00    -0.005 C 
HETATM    5  C12 UNL     1       1.385  50.944 -21.682  1.00  0.00     0.021 C 
HETATM    6  C13 UNL     1      -0.190  51.614 -19.962  1.00  0.00     0.002 C 
HETATM    7  C14 UNL     1      -0.804  50.569 -19.333  1.00  0.00    -0.032 C 
HETATM    8  C15 UNL     1      -1.398  49.405 -20.136  1.00  0.00     0.149 C 
HETATM    9  C16 UNL     1      -1.295  49.476 -21.678  1.00  0.00     0.047 C 
HETATM   10  C17 UNL     1      -1.234  50.929 -22.168  1.00  0.00    -0.026 C 
HETATM   11  C18 UNL     1      -2.580  51.633 -21.824  1.00  0.00     0.016 C 
HETATM   12  C19 UNL     1      -0.964  50.555 -17.785  1.00  0.00    -0.012 C 
HETATM   13  C20 UNL     1      -2.243  51.386 -17.490  1.00  0.00     0.021 C 
HETATM   14  C21 UNL     1      -1.165  49.156 -17.121  1.00  0.00     0.021 C 
HETATM   15  C22 UNL     1       0.129  48.520 -16.636  1.00  0.00     0.080 C 
HETATM   16  C23 UNL     1       0.719  49.374 -15.534  1.00  0.00     0.135 C 
HETATM   17  O2  UNL     1       1.211  48.849 -14.534  1.00  0.00    -0.297 OA
HETATM   18  C24 UNL     1       0.689  50.902 -15.726  1.00  0.00     0.018 C 
HETATM   19  C25 UNL     1      -0.307  51.492 -14.722  1.00  0.00     0.023 C 
HETATM   20  C26 UNL     1       2.098  51.431 -15.374  1.00  0.00     0.023 C 
HETATM   21  C27 UNL     1       0.359  51.193 -17.226  1.00  0.00     0.020 C 
HETATM   22  C28 UNL     1       0.454  52.655 -17.658  1.00  0.00     0.090 C 
HETATM   23  C29 UNL     1       0.369  52.765 -19.167  1.00  0.00     0.157 C 
HETATM   24  O3  UNL     1       0.761  53.790 -19.721  1.00  0.00    -0.293 OA
ENDROOT
BRANCH   1  25
HETATM   25  C6  UNL     1      -1.848  50.650 -24.799  1.00  0.00    -0.014 C 
HETATM   26  C7  UNL     1      -2.891  51.753 -25.059  1.00  0.00     0.010 C 
BRANCH  25  27
HETATM   27  C5  UNL     1      -2.512  49.253 -24.788  1.00  0.00     0.008 C 
BRANCH  27  28
HETATM   28  C4  UNL     1      -4.034  49.089 -24.849  1.00  0.00     0.028 C 
BRANCH  28  29
HETATM   29  C3  UNL     1      -4.562  48.446 -26.098  1.00  0.00    -0.013 C 
HETATM   30  C2  UNL     1      -4.276  48.788 -27.370  1.00  0.00     0.008 C 
HETATM   31  C1  UNL     1      -3.396  49.925 -27.793  1.00  0.00     0.055 C 
BRANCH  30  32
HETATM   32  C30 UNL     1      -4.913  47.973 -28.436  1.00  0.00     0.171 C 
HETATM   33  O4  UNL     1      -4.584  47.916 -29.607  1.00  0.00    -0.646 OA
BRANCH  32  34
HETATM   34  O5  UNL     1      -5.955  47.259 -27.980  1.00  0.00    -0.773 OA
HETATM   35  H44 UNL     1      -6.273  46.788 -28.778  1.00  0.00     0.167 HD
ENDBRANCH  32  34
ENDBRANCH  30  32
ENDBRANCH  28  29
ENDBRANCH  27  28
ENDBRANCH  25  27
ENDBRANCH   1  25
BRANCH   8  36
HETATM   36  O1  UNL     1      -2.780  49.314 -19.795  1.00  0.00    -0.391 OA
HETATM   37  H22 UNL     1      -3.139  48.522 -20.230  1.00  0.00     0.210 HD
ENDBRANCH   8  36
TORSDOF 7
ENDMDL
MODEL 6
REMARK minimizedAffinity -7.59477663
REMARK CNNscore 0.329528004
REMARK CNNaffinity 6.03936434
REMARK  7 active torsions:
REMARK  status: ('A' for Active; 'I' for Inactive)
REMARK    1  A    between atoms: C2_2  and  C30_33 
REMARK    2  A    between atoms: C3_3  and  C4_4 
REMARK    3  A    between atoms: C4_4  and  C5_5 
REMARK    4  A    between atoms: C5_5  and  C6_6 
REMARK    5  A    between atoms: C6_6  and  C8_8 
REMARK    6  A    between atoms: C15_15  and  O1_16 
REMARK    7  A    between atoms: C30_33  and  O5_35 
ROOT
HETATM    1  C8  UNL     1      -8.675  47.587 -20.949  1.00  0.00    -0.002 C 
HETATM    2  C9  UNL     1      -7.919  47.067 -19.706  1.00  0.00     0.007 C 
HETATM    3  C10 UNL     1      -6.446  47.518 -19.865  1.00  0.00     0.015 C 
HETATM    4  C11 UNL     1      -6.467  48.587 -20.980  1.00  0.00    -0.005 C 
HETATM    5  C12 UNL     1      -6.887  49.932 -20.305  1.00  0.00     0.021 C 
HETATM    6  C13 UNL     1      -5.219  48.956 -21.772  1.00  0.00     0.002 C 
HETATM    7  C14 UNL     1      -5.298  49.385 -23.066  1.00  0.00    -0.032 C 
HETATM    8  C15 UNL     1      -6.644  49.438 -23.798  1.00  0.00     0.149 C 
HETATM    9  C16 UNL     1      -7.897  48.966 -23.022  1.00  0.00     0.047 C 
HETATM   10  C17 UNL     1      -7.532  47.936 -21.945  1.00  0.00    -0.026 C 
HETATM   11  C18 UNL     1      -6.986  46.653 -22.640  1.00  0.00     0.016 C 
HETATM   12  C19 UNL     1      -4.015  49.783 -23.853  1.00  0.00    -0.012 C 
HETATM   13  C20 UNL     1      -3.436  48.452 -24.407  1.00  0.00     0.021 C 
HETATM   14  C21 UNL     1      -4.217  50.737 -25.072  1.00  0.00     0.021 C 
HETATM   15  C22 UNL     1      -4.033  52.209 -24.732  1.00  0.00     0.080 C 
HETATM   16  C23 UNL     1      -2.599  52.444 -24.307  1.00  0.00     0.135 C 
HETATM   17  O2  UNL     1      -1.993  53.446 -24.689  1.00  0.00    -0.297 OA
HETATM   18  C24 UNL     1      -1.951  51.399 -23.380  1.00  0.00     0.018 C 
HETATM   19  C25 UNL     1      -0.879  50.650 -24.178  1.00  0.00     0.023 C 
HETATM   20  C26 UNL     1      -1.251  52.174 -22.241  1.00  0.00     0.023 C 
HETATM   21  C27 UNL     1      -3.090  50.496 -22.802  1.00  0.00     0.020 C 
HETATM   22  C28 UNL     1      -2.668  49.503 -21.721  1.00  0.00     0.090 C 
HETATM   23  C29 UNL     1      -3.888  48.885 -21.069  1.00  0.00     0.157 C 
HETATM   24  O3  UNL     1      -3.776  48.336 -19.974  1.00  0.00    -0.293 OA
ENDROOT
BRANCH   1  25
HETATM   25  C6  UNL     1      -9.951  46.824 -21.403  1.00  0.00    -0.014 C 
HETATM   26  C7  UNL     1     -10.026  46.816 -22.940  1.00  0.00     0.010 C 
BRANCH  25  27
HETATM   27  C5  UNL     1     -11.338  47.117 -20.782  1.00  0.00     0.008 C 
BRANCH  27  28
HETATM   28  C4  UNL     1     -11.485  47.542 -19.317  1.00  0.00     0.028 C 
BRANCH  28  29
HETATM   29  C3  UNL     1     -12.822  48.114 -18.945  1.00  0.00    -0.013 C 
HETATM   30  C2  UNL     1     -13.910  47.434 -18.533  1.00  0.00     0.008 C 
HETATM   31  C1  UNL     1     -14.013  45.944 -18.408  1.00  0.00     0.055 C 
BRANCH  30  32
HETATM   32  C30 UNL     1     -15.111  48.241 -18.199  1.00  0.00     0.171 C 
HETATM   33  O4  UNL     1     -15.133  49.319 -17.631  1.00  0.00    -0.646 OA
BRANCH  32  34
HETATM   34  O5  UNL     1     -16.251  47.650 -18.594  1.00  0.00    -0.773 OA
HETATM   35  H44 UNL     1     -16.944  48.280 -18.307  1.00  0.00     0.167 HD
ENDBRANCH  32  34
ENDBRANCH  30  32
ENDBRANCH  28  29
ENDBRANCH  27  28
ENDBRANCH  25  27
ENDBRANCH   1  25
BRANCH   8  36
HETATM   36  O1  UNL     1      -6.526  48.630 -24.967  1.00  0.00    -0.391 OA
HETATM   37  H22 UNL     1      -7.344  48.734 -25.481  1.00  0.00     0.210 HD
ENDBRANCH   8  36
TORSDOF 7
ENDMDL
MODEL 7
REMARK minimizedAffinity -7.86813545
REMARK CNNscore 0.327798426
REMARK CNNaffinity 6.42139292
REMARK  7 active torsions:
REMARK  status: ('A' for Active; 'I' for Inactive)
REMARK    1  A    between atoms: C2_2  and  C30_33 
REMARK    2  A    between atoms: C3_3  and  C4_4 
REMARK    3  A    between atoms: C4_4  and  C5_5 
REMARK    4  A    between atoms: C5_5  and  C6_6 
REMARK    5  A    between atoms: C6_6  and  C8_8 
REMARK    6  A    between atoms: C15_15  and  O1_16 
REMARK    7  A    between atoms: C30_33  and  O5_35 
ROOT
HETATM    1  C8  UNL     1      -4.281  49.641 -24.625  1.00  0.00    -0.002 C 
HETATM    2  C9  UNL     1      -4.858  48.591 -25.600  1.00  0.00     0.007 C 
HETATM    3  C10 UNL     1      -5.810  47.695 -24.771  1.00  0.00     0.015 C 
HETATM    4  C11 UNL     1      -6.047  48.466 -23.452  1.00  0.00    -0.005 C 
HETATM    5  C12 UNL     1      -7.165  49.518 -23.742  1.00  0.00     0.021 C 
HETATM    6  C13 UNL     1      -6.526  47.772 -22.183  1.00  0.00     0.002 C 
HETATM    7  C14 UNL     1      -6.178  48.232 -20.946  1.00  0.00    -0.032 C 
HETATM    8  C15 UNL     1      -5.225  49.423 -20.787  1.00  0.00     0.149 C 
HETATM    9  C16 UNL     1      -4.661  50.062 -22.078  1.00  0.00     0.047 C 
HETATM   10  C17 UNL     1      -4.596  49.043 -23.224  1.00  0.00    -0.026 C 
HETATM   11  C18 UNL     1      -3.575  47.928 -22.850  1.00  0.00     0.016 C 
HETATM   12  C19 UNL     1      -6.696  47.527 -19.659  1.00  0.00    -0.012 C 
HETATM   13  C20 UNL     1      -5.723  46.342 -19.411  1.00  0.00     0.021 C 
HETATM   14  C21 UNL     1      -6.713  48.386 -18.355  1.00  0.00     0.021 C 
HETATM   15  C22 UNL     1      -8.047  49.067 -18.091  1.00  0.00     0.080 C 
HETATM   16  C23 UNL     1      -9.105  48.010 -17.854  1.00  0.00     0.135 C 
HETATM   17  O2  UNL     1      -9.944  48.157 -16.965  1.00  0.00    -0.297 OA
HETATM   18  C24 UNL     1      -9.092  46.772 -18.771  1.00  0.00     0.018 C 
HETATM   19  C25 UNL     1      -8.662  45.562 -17.936  1.00  0.00     0.023 C 
HETATM   20  C26 UNL     1     -10.545  46.541 -19.242  1.00  0.00     0.023 C 
HETATM   21  C27 UNL     1      -8.169  47.088 -19.992  1.00  0.00     0.020 C 
HETATM   22  C28 UNL     1      -8.161  46.045 -21.109  1.00  0.00     0.090 C 
HETATM   23  C29 UNL     1      -7.444  46.585 -22.329  1.00  0.00     0.157 C 
HETATM   24  O3  UNL     1      -7.623  46.051 -23.421  1.00  0.00    -0.293 OA
ENDROOT
BRANCH   1  25
HETATM   25  C6  UNL     1      -2.896  50.265 -24.955  1.00  0.00    -0.014 C 
HETATM   26  C7  UNL     1      -2.283  49.543 -26.169  1.00  0.00     0.010 C 
BRANCH  25  27
HETATM   27  C5  UNL     1      -1.831  50.509 -23.860  1.00  0.00     0.008 C 
BRANCH  27  28
HETATM   28  C4  UNL     1      -1.128  51.863 -23.715  1.00  0.00     0.028 C 
BRANCH  28  29
HETATM   29  C3  UNL     1      -1.026  52.673 -24.974  1.00  0.00    -0.013 C 
HETATM   30  C2  UNL     1      -0.128  52.520 -25.968  1.00  0.00     0.008 C 
HETATM   31  C1  UNL     1       0.991  51.523 -25.988  1.00  0.00     0.055 C 
BRANCH  30  32
HETATM   32  C30 UNL     1      -0.256  53.441 -27.127  1.00  0.00     0.171 C 
HETATM   33  O4  UNL     1      -0.205  54.657 -27.102  1.00  0.00    -0.646 OA
BRANCH  32  34
HETATM   34  O5  UNL     1      -0.450  52.784 -28.282  1.00  0.00    -0.773 OA
HETATM   35  H44 UNL     1      -0.523  53.505 -28.942  1.00  0.00     0.167 HD
ENDBRANCH  32  34
ENDBRANCH  30  32
ENDBRANCH  28  29
ENDBRANCH  27  28
ENDBRANCH  25  27
ENDBRANCH   1  25
BRANCH   8  36
HETATM   36  O1  UNL     1      -4.120  48.984 -19.999  1.00  0.00    -0.391 OA
HETATM   37  H22 UNL     1      -3.561  49.757 -19.819  1.00  0.00     0.210 HD
ENDBRANCH   8  36
TORSDOF 7
ENDMDL
MODEL 8
REMARK minimizedAffinity -9.07506657
REMARK CNNscore 0.323511392
REMARK CNNaffinity 6.4257865
REMARK  7 active torsions:
REMARK  status: ('A' for Active; 'I' for Inactive)
REMARK    1  A    between atoms: C2_2  and  C30_33 
REMARK    2  A    between atoms: C3_3  and  C4_4 
REMARK    3  A    between atoms: C4_4  and  C5_5 
REMARK    4  A    between atoms: C5_5  and  C6_6 
REMARK    5  A    between atoms: C6_6  and  C8_8 
REMARK    6  A    between atoms: C15_15  and  O1_16 
REMARK    7  A    between atoms: C30_33  and  O5_35 
ROOT
HETATM    1  C8  UNL     1      -1.438  50.446 -22.977  1.00  0.00    -0.002 C 
HETATM    2  C9  UNL     1      -0.958  51.899 -23.194  1.00  0.00     0.007 C 
HETATM    3  C10 UNL     1      -0.487  52.419 -21.814  1.00  0.00     0.015 C 
HETATM    4  C11 UNL     1      -0.353  51.159 -20.929  1.00  0.00    -0.005 C 
HETATM    5  C12 UNL     1       1.039  50.528 -21.253  1.00  0.00     0.021 C 
HETATM    6  C13 UNL     1      -0.371  51.233 -19.408  1.00  0.00     0.002 C 
HETATM    7  C14 UNL     1      -0.851  50.202 -18.651  1.00  0.00    -0.032 C 
HETATM    8  C15 UNL     1      -1.463  48.960 -19.308  1.00  0.00     0.149 C 
HETATM    9  C16 UNL     1      -1.536  48.934 -20.854  1.00  0.00     0.047 C 
HETATM   10  C17 UNL     1      -1.612  50.352 -21.434  1.00  0.00    -0.026 C 
HETATM   11  C18 UNL     1      -2.950  51.010 -20.982  1.00  0.00     0.016 C 
HETATM   12  C19 UNL     1      -0.837  50.282 -17.096  1.00  0.00    -0.012 C 
HETATM   13  C20 UNL     1      -2.120  51.067 -16.708  1.00  0.00     0.021 C 
HETATM   14  C21 UNL     1      -0.883  48.922 -16.331  1.00  0.00     0.021 C 
HETATM   15  C22 UNL     1       0.490  48.384 -15.959  1.00  0.00     0.080 C 
HETATM   16  C23 UNL     1       1.149  49.338 -14.985  1.00  0.00     0.135 C 
HETATM   17  O2  UNL     1       1.778  48.905 -14.019  1.00  0.00    -0.297 OA
HETATM   18  C24 UNL     1       1.012  50.847 -15.264  1.00  0.00     0.018 C 
HETATM   19  C25 UNL     1       0.102  51.452 -14.191  1.00  0.00     0.023 C 
HETATM   20  C26 UNL     1       2.419  51.467 -15.108  1.00  0.00     0.023 C 
HETATM   21  C27 UNL     1       0.502  51.021 -16.732  1.00  0.00     0.020 C 
HETATM   22  C28 UNL     1       0.466  52.454 -17.259  1.00  0.00     0.090 C 
HETATM   23  C29 UNL     1       0.208  52.460 -18.752  1.00  0.00     0.157 C 
HETATM   24  O3  UNL     1       0.477  53.464 -19.408  1.00  0.00    -0.293 OA
ENDROOT
BRANCH   1  25
HETATM   25  C6  UNL     1      -2.498  49.870 -23.957  1.00  0.00    -0.014 C 
HETATM   26  C7  UNL     1      -2.963  48.490 -23.458  1.00  0.00     0.010 C 
BRANCH  25  27
HETATM   27  C5  UNL     1      -2.270  49.857 -25.487  1.00  0.00     0.008 C 
BRANCH  27  28
HETATM   28  C4  UNL     1      -2.738  51.015 -26.375  1.00  0.00     0.028 C 
BRANCH  28  29
HETATM   29  C3  UNL     1      -1.908  52.263 -26.296  1.00  0.00    -0.013 C 
HETATM   30  C2  UNL     1      -0.742  52.504 -26.927  1.00  0.00     0.008 C 
HETATM   31  C1  UNL     1      -0.010  51.538 -27.810  1.00  0.00     0.055 C 
BRANCH  30  32
HETATM   32  C30 UNL     1      -0.127  53.837 -26.701  1.00  0.00     0.171 C 
HETATM   33  O4  UNL     1       0.586  54.164 -25.770  1.00  0.00    -0.646 OA
BRANCH  32  34
HETATM   34  O5  UNL     1      -0.443  54.716 -27.666  1.00  0.00    -0.773 OA
HETATM   35  H44 UNL     1       0.016  55.535 -27.386  1.00  0.00     0.167 HD
ENDBRANCH  32  34
ENDBRANCH  30  32
ENDBRANCH  28  29
ENDBRANCH  27  28
ENDBRANCH  25  27
ENDBRANCH   1  25
BRANCH   8  36
HETATM   36  O1  UNL     1      -2.792  48.823 -18.807  1.00  0.00    -0.391 OA
HETATM   37  H22 UNL     1      -3.151  47.988 -19.149  1.00  0.00     0.210 HD
ENDBRANCH   8  36
TORSDOF 7
ENDMDL
MODEL 9
REMARK minimizedAffinity -8.26637745
REMARK CNNscore 0.30725202
REMARK CNNaffinity 6.39585352
REMARK  7 active torsions:
REMARK  status: ('A' for Active; 'I' for Inactive)
REMARK    1  A    between atoms: C2_2  and  C30_33 
REMARK    2  A    between atoms: C3_3  and  C4_4 
REMARK    3  A    between atoms: C4_4  and  C5_5 
REMARK    4  A    between atoms: C5_5  and  C6_6 
REMARK    5  A    between atoms: C6_6  and  C8_8 
REMARK    6  A    between atoms: C15_15  and  O1_16 
REMARK    7  A    between atoms: C30_33  and  O5_35 
ROOT
HETATM    1  C8  UNL     1      -1.148  50.882 -19.976  1.00  0.00    -0.002 C 
HETATM    2  C9  UNL     1      -0.676  51.066 -21.436  1.00  0.00     0.007 C 
HETATM    3  C10 UNL     1      -1.698  50.318 -22.327  1.00  0.00     0.015 C 
HETATM    4  C11 UNL     1      -2.915  50.050 -21.412  1.00  0.00    -0.005 C 
HETATM    5  C12 UNL     1      -3.766  51.360 -21.400  1.00  0.00     0.021 C 
HETATM    6  C13 UNL     1      -3.934  48.960 -21.720  1.00  0.00     0.002 C 
HETATM    7  C14 UNL     1      -4.606  48.313 -20.722  1.00  0.00    -0.032 C 
HETATM    8  C15 UNL     1      -4.303  48.606 -19.249  1.00  0.00     0.149 C 
HETATM    9  C16 UNL     1      -3.195  49.640 -18.940  1.00  0.00     0.047 C 
HETATM   10  C17 UNL     1      -2.159  49.704 -20.070  1.00  0.00    -0.026 C 
HETATM   11  C18 UNL     1      -1.418  48.336 -20.151  1.00  0.00     0.016 C 
HETATM   12  C19 UNL     1      -5.664  47.220 -21.055  1.00  0.00    -0.012 C 
HETATM   13  C20 UNL     1      -4.857  45.908 -21.261  1.00  0.00     0.021 C 
HETATM   14  C21 UNL     1      -6.733  46.931 -19.954  1.00  0.00     0.021 C 
HETATM   15  C22 UNL     1      -8.019  47.724 -20.130  1.00  0.00     0.080 C 
HETATM   16  C23 UNL     1      -8.689  47.300 -21.420  1.00  0.00     0.135 C 
HETATM   17  O2  UNL     1      -9.910  47.145 -21.466  1.00  0.00    -0.297 OA
HETATM   18  C24 UNL     1      -7.790  47.093 -22.654  1.00  0.00     0.018 C 
HETATM   19  C25 UNL     1      -7.754  45.595 -22.974  1.00  0.00     0.023 C 
HETATM   20  C26 UNL     1      -8.467  47.822 -23.837  1.00  0.00     0.023 C 
HETATM   21  C27 UNL     1      -6.397  47.732 -22.347  1.00  0.00     0.020 C 
HETATM   22  C28 UNL     1      -5.415  47.783 -23.517  1.00  0.00     0.090 C 
HETATM   23  C29 UNL     1      -4.222  48.648 -23.165  1.00  0.00     0.157 C 
HETATM   24  O3  UNL     1      -3.507  49.086 -24.065  1.00  0.00    -0.293 OA
ENDROOT
BRANCH   1  25
HETATM   25  C6  UNL     1      -0.082  50.957 -18.847  1.00  0.00    -0.014 C 
HETATM   26  C7  UNL     1      -0.347  49.845 -17.815  1.00  0.00     0.010 C 
BRANCH  25  27
HETATM   27  C5  UNL     1       0.267  52.290 -18.145  1.00  0.00     0.008 C 
BRANCH  27  28
HETATM   28  C4  UNL     1       1.671  52.559 -17.591  1.00  0.00     0.028 C 
BRANCH  28  29
HETATM   29  C3  UNL     1       1.914  52.072 -16.192  1.00  0.00    -0.013 C 
HETATM   30  C2  UNL     1       3.098  52.006 -15.550  1.00  0.00     0.008 C 
HETATM   31  C1  UNL     1       4.430  52.371 -16.133  1.00  0.00     0.055 C 
BRANCH  30  32
HETATM   32  C30 UNL     1       3.068  51.506 -14.152  1.00  0.00     0.171 C 
HETATM   33  O4  UNL     1       3.235  50.357 -13.783  1.00  0.00    -0.646 OA
BRANCH  32  34
HETATM   34  O5  UNL     1       2.823  52.484 -13.264  1.00  0.00    -0.773 OA
HETATM   35  H44 UNL     1       2.825  52.014 -12.404  1.00  0.00     0.167 HD
ENDBRANCH  32  34
ENDBRANCH  30  32
ENDBRANCH  28  29
ENDBRANCH  27  28
ENDBRANCH  25  27
ENDBRANCH   1  25
BRANCH   8  36
HETATM   36  O1  UNL     1      -3.930  47.372 -18.636  1.00  0.00    -0.391 OA
HETATM   37  H22 UNL     1      -3.827  47.535 -17.684  1.00  0.00     0.210 HD
ENDBRANCH   8  36
TORSDOF 7
ENDMDL
