MODEL 1
REMARK minimizedAffinity -9.09198475
REMARK  7 active torsions:
REMARK  status: ('A' for Active; 'I' for Inactive)
REMARK    1  A    between atoms: C2_2  and  C4_4 
REMARK    2  A    between atoms: C7_7  and  O1_9 
REMARK    3  A    between atoms: C9_10  and  C10_11 
REMARK    4  A    between atoms: C11_12  and  C12_13 
REMARK    5  A    between atoms: C14_15  and  C15_16 
REMARK    6  A    between atoms: C24_26  and  C26_28 
REMARK    7  A    between atoms: C29_32  and  O4_34 
ROOT
HETATM    1  C15 UNL     1      -2.055   9.024  14.710  1.00  0.00     0.149 C 
HETATM    2  C16 UNL     1      -2.945   9.600  15.798  1.00  0.00     0.054 C 
HETATM    3  C17 UNL     1      -2.460  11.064  16.023  1.00  0.00     0.050 C 
HETATM    4  C18 UNL     1      -1.663  11.307  14.688  1.00  0.00     0.272 C 
HETATM    5  O2  UNL     1      -1.993  12.402  13.858  1.00  0.00    -0.360 OA
HETATM    6  C19 UNL     1      -1.665  13.660  14.422  1.00  0.00     0.171 C 
HETATM    7  C20 UNL     1      -2.809  14.160  15.284  1.00  0.00     0.027 C 
HETATM    8  C21 UNL     1      -3.971  13.178  15.349  1.00  0.00     0.012 C 
HETATM    9  C22 UNL     1      -3.766  12.000  16.316  1.00  0.00     0.032 C 
HETATM   10  C23 UNL     1      -3.981  12.283  17.842  1.00  0.00    -0.066 C 
HETATM   11  C24 UNL     1      -4.453  13.396  18.473  1.00  0.00    -0.021 C 
HETATM   12  C25 UNL     1      -5.048  14.635  17.865  1.00  0.00     0.052 C 
HETATM   13  C27 UNL     1      -3.654  11.025  18.618  1.00  0.00     0.038 C 
HETATM   14  C28 UNL     1      -2.157  10.769  18.609  1.00  0.00     0.042 C 
HETATM   15  C29 UNL     1      -1.464  11.116  17.265  1.00  0.00     0.067 C 
HETATM   16  C30 UNL     1      -0.210  10.221  17.189  1.00  0.00     0.047 C 
HETATM   17  O5  UNL     1      -1.802  10.131  13.870  1.00  0.00    -0.351 OA
ENDROOT
BRANCH   1  18
HETATM   18  C14 UNL     1      -2.713   7.875  13.991  1.00  0.00     0.011 C 
HETATM   19  C12 UNL     1      -4.014   7.654  13.706  1.00  0.00    -0.064 C 
HETATM   20  C13 UNL     1      -5.116   8.643  13.993  1.00  0.00     0.048 C 
BRANCH  19  21
HETATM   21  C11 UNL     1      -4.371   6.397  13.047  1.00  0.00     0.003 C 
HETATM   22  C10 UNL     1      -3.981   5.162  13.409  1.00  0.00    -0.018 C 
BRANCH  22  23
HETATM   23  C9  UNL     1      -4.335   3.864  12.707  1.00  0.00     0.050 C 
HETATM   24  C4  UNL     1      -5.740   3.827  12.021  1.00  0.00     0.024 C 
HETATM   25  C5  UNL     1      -5.535   2.971  10.764  1.00  0.00     0.013 C 
HETATM   26  C6  UNL     1      -4.141   3.377  10.303  1.00  0.00     0.039 C 
HETATM   27  C7  UNL     1      -3.329   3.396  11.603  1.00  0.00     0.062 C 
HETATM   28  C8  UNL     1      -2.041   4.200  11.446  1.00  0.00     0.046 C 
BRANCH  24  29
HETATM   29  C2  UNL     1      -6.871   3.371  12.931  1.00  0.00    -0.088 C 
HETATM   30  C1  UNL     1      -7.426   2.153  12.793  1.00  0.00     0.014 C 
HETATM   31  C3  UNL     1      -7.369   4.320  13.991  1.00  0.00     0.043 C 
ENDBRANCH  24  29
BRANCH  27  32
HETATM   32  O1  UNL     1      -2.944   2.039  11.887  1.00  0.00    -0.390 OA
HETATM   33  H14 UNL     1      -2.434   2.048  12.716  1.00  0.00     0.210 HD
ENDBRANCH  27  32
ENDBRANCH  22  23
ENDBRANCH  19  21
ENDBRANCH   1  18
BRANCH  15  34
HETATM   34  O4  UNL     1      -0.976  12.466  17.351  1.00  0.00    -0.389 OA
HETATM   35  H44 UNL     1      -0.369  12.533  18.109  1.00  0.00     0.210 HD
ENDBRANCH  15  34
BRANCH  11  36
HETATM   36  C26 UNL     1      -4.434  13.463  19.977  1.00  0.00     0.265 C 
HETATM   37  O3  UNL     1      -5.287  12.952  20.693  1.00  0.00    -0.302 OA
ENDBRANCH  11  36
TORSDOF 7
ENDMDL
MODEL 2
REMARK minimizedAffinity -8.69759369
REMARK  7 active torsions:
REMARK  status: ('A' for Active; 'I' for Inactive)
REMARK    1  A    between atoms: C2_2  and  C4_4 
REMARK    2  A    between atoms: C7_7  and  O1_9 
REMARK    3  A    between atoms: C9_10  and  C10_11 
REMARK    4  A    between atoms: C11_12  and  C12_13 
REMARK    5  A    between atoms: C14_15  and  C15_16 
REMARK    6  A    between atoms: C24_26  and  C26_28 
REMARK    7  A    between atoms: C29_32  and  O4_34 
ROOT
HETATM    1  C15 UNL     1     -10.138   6.841  14.344  1.00  0.00     0.149 C 
HETATM    2  C16 UNL     1     -10.862   7.921  13.560  1.00  0.00     0.054 C 
HETATM    3  C17 UNL     1     -11.542   8.843  14.617  1.00  0.00     0.050 C 
HETATM    4  C18 UNL     1     -10.717   8.457  15.901  1.00  0.00     0.272 C 
HETATM    5  O2  UNL     1     -10.053   9.460  16.641  1.00  0.00    -0.360 OA
HETATM    6  C19 UNL     1     -10.932  10.336  17.326  1.00  0.00     0.171 C 
HETATM    7  C20 UNL     1     -11.337  11.483  16.418  1.00  0.00     0.027 C 
HETATM    8  C21 UNL     1     -10.736  11.371  15.023  1.00  0.00     0.012 C 
HETATM    9  C22 UNL     1     -11.456  10.385  14.087  1.00  0.00     0.032 C 
HETATM   10  C23 UNL     1     -12.788  10.875  13.423  1.00  0.00    -0.066 C 
HETATM   11  C24 UNL     1     -13.376  12.105  13.433  1.00  0.00    -0.021 C 
HETATM   12  C25 UNL     1     -12.831  13.399  13.969  1.00  0.00     0.052 C 
HETATM   13  C27 UNL     1     -13.372   9.737  12.614  1.00  0.00     0.038 C 
HETATM   14  C28 UNL     1     -13.919   8.657  13.532  1.00  0.00     0.042 C 
HETATM   15  C29 UNL     1     -13.064   8.415  14.804  1.00  0.00     0.067 C 
HETATM   16  C30 UNL     1     -13.330   6.955  15.224  1.00  0.00     0.047 C 
HETATM   17  O5  UNL     1      -9.702   7.515  15.507  1.00  0.00    -0.351 OA
ENDROOT
BRANCH   1  18
HETATM   18  C14 UNL     1      -9.007   6.232  13.557  1.00  0.00     0.011 C 
HETATM   19  C12 UNL     1      -7.930   5.532  13.975  1.00  0.00    -0.064 C 
HETATM   20  C13 UNL     1      -7.702   5.119  15.408  1.00  0.00     0.048 C 
BRANCH  19  21
HETATM   21  C11 UNL     1      -6.947   5.119  12.973  1.00  0.00     0.003 C 
HETATM   22  C10 UNL     1      -6.056   4.120  13.088  1.00  0.00    -0.018 C 
BRANCH  22  23
HETATM   23  C9  UNL     1      -5.021   3.711  12.055  1.00  0.00     0.050 C 
HETATM   24  C4  UNL     1      -3.540   3.686  12.554  1.00  0.00     0.024 C 
HETATM   25  C5  UNL     1      -2.896   2.513  11.802  1.00  0.00     0.013 C 
HETATM   26  C6  UNL     1      -4.018   1.484  11.762  1.00  0.00     0.039 C 
HETATM   27  C7  UNL     1      -5.250   2.316  11.385  1.00  0.00     0.062 C 
HETATM   28  C8  UNL     1      -6.545   1.581  11.723  1.00  0.00     0.046 C 
BRANCH  24  29
HETATM   29  C2  UNL     1      -2.809   5.014  12.418  1.00  0.00    -0.088 C 
HETATM   30  C1  UNL     1      -3.327   6.148  12.925  1.00  0.00     0.014 C 
HETATM   31  C3  UNL     1      -1.490   5.038  11.689  1.00  0.00     0.043 C 
ENDBRANCH  24  29
BRANCH  27  32
HETATM   32  O1  UNL     1      -5.228   2.489   9.957  1.00  0.00    -0.390 OA
HETATM   33  H14 UNL     1      -6.005   3.023   9.716  1.00  0.00     0.210 HD
ENDBRANCH  27  32
ENDBRANCH  22  23
ENDBRANCH  19  21
ENDBRANCH   1  18
BRANCH  15  34
HETATM   34  O4  UNL     1     -13.599   9.230  15.861  1.00  0.00    -0.389 OA
HETATM   35  H44 UNL     1     -14.535   8.997  15.994  1.00  0.00     0.210 HD
ENDBRANCH  15  34
BRANCH  11  36
HETATM   36  C26 UNL     1     -14.741  12.282  12.823  1.00  0.00     0.265 C 
HETATM   37  O3  UNL     1     -15.714  11.598  13.119  1.00  0.00    -0.302 OA
ENDBRANCH  11  36
TORSDOF 7
ENDMDL
MODEL 3
REMARK minimizedAffinity -8.67602921
REMARK  7 active torsions:
REMARK  status: ('A' for Active; 'I' for Inactive)
REMARK    1  A    between atoms: C2_2  and  C4_4 
REMARK    2  A    between atoms: C7_7  and  O1_9 
REMARK    3  A    between atoms: C9_10  and  C10_11 
REMARK    4  A    between atoms: C11_12  and  C12_13 
REMARK    5  A    between atoms: C14_15  and  C15_16 
REMARK    6  A    between atoms: C24_26  and  C26_28 
REMARK    7  A    between atoms: C29_32  and  O4_34 
ROOT
HETATM    1  C15 UNL     1       0.587  10.577  16.542  1.00  0.00     0.149 C 
HETATM    2  C16 UNL     1      -0.335   9.403  16.262  1.00  0.00     0.054 C 
HETATM    3  C17 UNL     1      -0.287   9.172  14.721  1.00  0.00     0.050 C 
HETATM    4  C18 UNL     1       1.042   9.937  14.362  1.00  0.00     0.272 C 
HETATM    5  O2  UNL     1       2.080   9.264  13.680  1.00  0.00    -0.360 OA
HETATM    6  C19 UNL     1       1.762   8.944  12.336  1.00  0.00     0.171 C 
HETATM    7  C20 UNL     1       1.054   7.603  12.273  1.00  0.00     0.027 C 
HETATM    8  C21 UNL     1       0.840   6.985  13.649  1.00  0.00     0.012 C 
HETATM    9  C22 UNL     1      -0.346   7.565  14.438  1.00  0.00     0.032 C 
HETATM   10  C23 UNL     1      -1.778   7.069  14.043  1.00  0.00    -0.066 C 
HETATM   11  C24 UNL     1      -2.162   6.090  13.176  1.00  0.00    -0.021 C 
HETATM   12  C25 UNL     1      -1.304   5.092  12.451  1.00  0.00     0.052 C 
HETATM   13  C27 UNL     1      -2.796   7.816  14.878  1.00  0.00     0.038 C 
HETATM   14  C28 UNL     1      -2.889   9.265  14.433  1.00  0.00     0.042 C 
HETATM   15  C29 UNL     1      -1.528   9.892  14.031  1.00  0.00     0.067 C 
HETATM   16  C30 UNL     1      -1.673  11.410  14.267  1.00  0.00     0.047 C 
HETATM   17  O5  UNL     1       1.619  10.420  15.589  1.00  0.00    -0.351 OA
ENDROOT
BRANCH   1  18
HETATM   18  C14 UNL     1       1.091  10.574  17.962  1.00  0.00     0.011 C 
HETATM   19  C12 UNL     1       0.470  10.924  19.109  1.00  0.00    -0.064 C 
HETATM   20  C13 UNL     1      -0.985  11.317  19.191  1.00  0.00     0.048 C 
BRANCH  19  21
HETATM   21  C11 UNL     1       1.244  10.884  20.351  1.00  0.00     0.003 C 
HETATM   22  C10 UNL     1       2.129  11.802  20.775  1.00  0.00    -0.018 C 
BRANCH  22  23
HETATM   23  C9  UNL     1       2.946  11.743  22.052  1.00  0.00     0.050 C 
HETATM   24  C4  UNL     1       3.636  10.372  22.351  1.00  0.00     0.024 C 
HETATM   25  C5  UNL     1       4.965  10.745  23.023  1.00  0.00     0.013 C 
HETATM   26  C6  UNL     1       5.384  11.999  22.267  1.00  0.00     0.039 C 
HETATM   27  C7  UNL     1       4.085  12.809  22.177  1.00  0.00     0.062 C 
HETATM   28  C8  UNL     1       4.166  13.875  21.087  1.00  0.00     0.046 C 
BRANCH  24  29
HETATM   29  C2  UNL     1       2.774   9.393  23.135  1.00  0.00    -0.088 C 
HETATM   30  C1  UNL     1       2.265   8.293  22.550  1.00  0.00     0.014 C 
HETATM   31  C3  UNL     1       2.489   9.686  24.586  1.00  0.00     0.043 C 
ENDBRANCH  24  29
BRANCH  27  32
HETATM   32  O1  UNL     1       3.924  13.501  23.428  1.00  0.00    -0.390 OA
HETATM   33  H14 UNL     1       3.096  14.010  23.375  1.00  0.00     0.210 HD
ENDBRANCH  27  32
ENDBRANCH  22  23
ENDBRANCH  19  21
ENDBRANCH   1  18
BRANCH  15  34
HETATM   34  O4  UNL     1      -1.367   9.731  12.611  1.00  0.00    -0.389 OA
HETATM   35  H44 UNL     1      -2.117  10.154  12.159  1.00  0.00     0.210 HD
ENDBRANCH  15  34
BRANCH  11  36
HETATM   36  C26 UNL     1      -3.624   5.899  12.869  1.00  0.00     0.265 C 
HETATM   37  O3  UNL     1      -4.315   5.015  13.362  1.00  0.00    -0.302 OA
ENDBRANCH  11  36
TORSDOF 7
ENDMDL
MODEL 4
REMARK minimizedAffinity -8.51115894
REMARK  7 active torsions:
REMARK  status: ('A' for Active; 'I' for Inactive)
REMARK    1  A    between atoms: C2_2  and  C4_4 
REMARK    2  A    between atoms: C7_7  and  O1_9 
REMARK    3  A    between atoms: C9_10  and  C10_11 
REMARK    4  A    between atoms: C11_12  and  C12_13 
REMARK    5  A    between atoms: C14_15  and  C15_16 
REMARK    6  A    between atoms: C24_26  and  C26_28 
REMARK    7  A    between atoms: C29_32  and  O4_34 
ROOT
HETATM    1  C15 UNL     1      -2.351   9.406  14.683  1.00  0.00     0.149 C 
HETATM    2  C16 UNL     1      -3.148  10.089  15.781  1.00  0.00     0.054 C 
HETATM    3  C17 UNL     1      -2.486  11.484  15.993  1.00  0.00     0.050 C 
HETATM    4  C18 UNL     1      -1.686  11.625  14.645  1.00  0.00     0.272 C 
HETATM    5  O2  UNL     1      -1.894  12.750  13.816  1.00  0.00    -0.360 OA
HETATM    6  C19 UNL     1      -1.407  13.961  14.369  1.00  0.00     0.171 C 
HETATM    7  C20 UNL     1      -2.468  14.598  15.247  1.00  0.00     0.027 C 
HETATM    8  C21 UNL     1      -3.740  13.764  15.333  1.00  0.00     0.012 C 
HETATM    9  C22 UNL     1      -3.664  12.571  16.302  1.00  0.00     0.032 C 
HETATM   10  C23 UNL     1      -3.820  12.882  17.830  1.00  0.00    -0.066 C 
HETATM   11  C24 UNL     1      -4.143  14.045  18.463  1.00  0.00    -0.021 C 
HETATM   12  C25 UNL     1      -4.593  15.346  17.859  1.00  0.00     0.052 C 
HETATM   13  C27 UNL     1      -3.635  11.596  18.606  1.00  0.00     0.038 C 
HETATM   14  C28 UNL     1      -2.180  11.160  18.575  1.00  0.00     0.042 C 
HETATM   15  C29 UNL     1      -1.472  11.417  17.219  1.00  0.00     0.067 C 
HETATM   16  C30 UNL     1      -0.336  10.377  17.128  1.00  0.00     0.047 C 
HETATM   17  O5  UNL     1      -1.980  10.474  13.834  1.00  0.00    -0.351 OA
ENDROOT
BRANCH   1  18
HETATM   18  C14 UNL     1      -3.155   8.344  13.978  1.00  0.00     0.011 C 
HETATM   19  C12 UNL     1      -2.992   7.004  13.946  1.00  0.00    -0.064 C 
HETATM   20  C13 UNL     1      -1.954   6.265  14.755  1.00  0.00     0.048 C 
BRANCH  19  21
HETATM   21  C11 UNL     1      -3.899   6.219  13.108  1.00  0.00     0.003 C 
HETATM   22  C10 UNL     1      -4.999   5.562  13.512  1.00  0.00    -0.018 C 
BRANCH  22  23
HETATM   23  C9  UNL     1      -5.922   4.730  12.642  1.00  0.00     0.050 C 
HETATM   24  C4  UNL     1      -5.589   3.204  12.567  1.00  0.00     0.024 C 
HETATM   25  C5  UNL     1      -6.956   2.512  12.471  1.00  0.00     0.013 C 
HETATM   26  C6  UNL     1      -7.828   3.363  13.385  1.00  0.00     0.039 C 
HETATM   27  C7  UNL     1      -7.442   4.798  13.009  1.00  0.00     0.062 C 
HETATM   28  C8  UNL     1      -7.854   5.789  14.095  1.00  0.00     0.046 C 
BRANCH  24  29
HETATM   29  C2  UNL     1      -4.602   2.830  11.470  1.00  0.00    -0.088 C 
HETATM   30  C1  UNL     1      -4.568   3.504  10.306  1.00  0.00     0.014 C 
HETATM   31  C3  UNL     1      -3.663   1.676  11.710  1.00  0.00     0.043 C 
ENDBRANCH  24  29
BRANCH  27  32
HETATM   32  O1  UNL     1      -8.181   5.144  11.825  1.00  0.00    -0.390 OA
HETATM   33  H14 UNL     1      -7.931   6.053  11.581  1.00  0.00     0.210 HD
ENDBRANCH  27  32
ENDBRANCH  22  23
ENDBRANCH  19  21
ENDBRANCH   1  18
BRANCH  15  34
HETATM   34  O4  UNL     1      -0.822  12.699  17.293  1.00  0.00    -0.389 OA
HETATM   35  H44 UNL     1      -0.200  12.693  18.041  1.00  0.00     0.210 HD
ENDBRANCH  15  34
BRANCH  11  36
HETATM   36  C26 UNL     1      -4.093  14.113  19.966  1.00  0.00     0.265 C 
HETATM   37  O3  UNL     1      -5.083  14.049  20.686  1.00  0.00    -0.302 OA
ENDBRANCH  11  36
TORSDOF 7
ENDMDL
MODEL 5
REMARK minimizedAffinity -8.50562382
REMARK  7 active torsions:
REMARK  status: ('A' for Active; 'I' for Inactive)
REMARK    1  A    between atoms: C2_2  and  C4_4 
REMARK    2  A    between atoms: C7_7  and  O1_9 
REMARK    3  A    between atoms: C9_10  and  C10_11 
REMARK    4  A    between atoms: C11_12  and  C12_13 
REMARK    5  A    between atoms: C14_15  and  C15_16 
REMARK    6  A    between atoms: C24_26  and  C26_28 
REMARK    7  A    between atoms: C29_32  and  O4_34 
ROOT
HETATM    1  C15 UNL     1      -9.146   6.189  13.898  1.00  0.00     0.149 C 
HETATM    2  C16 UNL     1      -9.841   7.411  13.322  1.00  0.00     0.054 C 
HETATM    3  C17 UNL     1     -10.666   8.031  14.490  1.00  0.00     0.050 C 
HETATM    4  C18 UNL     1      -9.954   7.363  15.725  1.00  0.00     0.272 C 
HETATM    5  O2  UNL     1      -9.416   8.171  16.751  1.00  0.00    -0.360 OA
HETATM    6  C19 UNL     1     -10.400   8.833  17.527  1.00  0.00     0.171 C 
HETATM    7  C20 UNL     1     -10.769  10.157  16.883  1.00  0.00     0.027 C 
HETATM    8  C21 UNL     1     -10.028  10.402  15.574  1.00  0.00     0.012 C 
HETATM    9  C22 UNL     1     -10.604   9.657  14.358  1.00  0.00     0.032 C 
HETATM   10  C23 UNL     1     -11.886  10.263  13.692  1.00  0.00    -0.066 C 
HETATM   11  C24 UNL     1     -12.531  11.439  13.932  1.00  0.00    -0.021 C 
HETATM   12  C25 UNL     1     -12.106  12.576  14.819  1.00  0.00     0.052 C 
HETATM   13  C27 UNL     1     -12.331   9.343  12.575  1.00  0.00     0.038 C 
HETATM   14  C28 UNL     1     -12.913   8.060  13.143  1.00  0.00     0.042 C 
HETATM   15  C29 UNL     1     -12.177   7.535  14.404  1.00  0.00     0.067 C 
HETATM   16  C30 UNL     1     -12.412   6.010  14.431  1.00  0.00     0.047 C 
HETATM   17  O5  UNL     1      -8.861   6.569  15.229  1.00  0.00    -0.351 OA
ENDROOT
BRANCH   1  18
HETATM   18  C14 UNL     1      -7.915   5.816  13.113  1.00  0.00     0.011 C 
HETATM   19  C12 UNL     1      -7.256   4.641  13.031  1.00  0.00    -0.064 C 
HETATM   20  C13 UNL     1      -7.729   3.365  13.682  1.00  0.00     0.048 C 
BRANCH  19  21
HETATM   21  C11 UNL     1      -6.031   4.593  12.232  1.00  0.00     0.003 C 
HETATM   22  C10 UNL     1      -4.777   4.453  12.694  1.00  0.00    -0.018 C 
BRANCH  22  23
HETATM   23  C9  UNL     1      -3.507   4.429  11.862  1.00  0.00     0.050 C 
HETATM   24  C4  UNL     1      -2.203   4.868  12.604  1.00  0.00     0.024 C 
HETATM   25  C5  UNL     1      -1.099   3.986  12.004  1.00  0.00     0.013 C 
HETATM   26  C6  UNL     1      -1.807   2.652  11.803  1.00  0.00     0.039 C 
HETATM   27  C7  UNL     1      -3.158   3.054  11.201  1.00  0.00     0.062 C 
HETATM   28  C8  UNL     1      -4.186   1.933  11.336  1.00  0.00     0.046 C 
BRANCH  24  29
HETATM   29  C2  UNL     1      -1.927   6.363  12.557  1.00  0.00    -0.088 C 
HETATM   30  C1  UNL     1      -0.788   6.843  12.026  1.00  0.00     0.014 C 
HETATM   31  C3  UNL     1      -2.956   7.304  13.130  1.00  0.00     0.043 C 
ENDBRANCH  24  29
BRANCH  27  32
HETATM   32  O1  UNL     1      -2.953   3.266   9.793  1.00  0.00    -0.390 OA
HETATM   33  H14 UNL     1      -3.809   3.528   9.410  1.00  0.00     0.210 HD
ENDBRANCH  27  32
ENDBRANCH  22  23
ENDBRANCH  19  21
ENDBRANCH   1  18
BRANCH  15  34
HETATM   34  O4  UNL     1     -12.853   8.055  15.562  1.00  0.00    -0.389 OA
HETATM   35  H44 UNL     1     -13.784   7.775  15.534  1.00  0.00     0.210 HD
ENDBRANCH  15  34
BRANCH  11  36
HETATM   36  C26 UNL     1     -13.837  11.727  13.240  1.00  0.00     0.265 C 
HETATM   37  O3  UNL     1     -14.935  11.490  13.728  1.00  0.00    -0.302 OA
ENDBRANCH  11  36
TORSDOF 7
ENDMDL
MODEL 6
REMARK minimizedAffinity -8.49231339
REMARK  7 active torsions:
REMARK  status: ('A' for Active; 'I' for Inactive)
REMARK    1  A    between atoms: C2_2  and  C4_4 
REMARK    2  A    between atoms: C7_7  and  O1_9 
REMARK    3  A    between atoms: C9_10  and  C10_11 
REMARK    4  A    between atoms: C11_12  and  C12_13 
REMARK    5  A    between atoms: C14_15  and  C15_16 
REMARK    6  A    between atoms: C24_26  and  C26_28 
REMARK    7  A    between atoms: C29_32  and  O4_34 
ROOT
HETATM    1  C15 UNL     1      -2.609   8.187  16.169  1.00  0.00     0.149 C 
HETATM    2  C16 UNL     1      -3.082   9.591  15.835  1.00  0.00     0.054 C 
HETATM    3  C17 UNL     1      -2.057  10.562  16.495  1.00  0.00     0.050 C 
HETATM    4  C18 UNL     1      -0.844   9.584  16.719  1.00  0.00     0.272 C 
HETATM    5  O2  UNL     1       0.425   9.901  16.185  1.00  0.00    -0.360 OA
HETATM    6  C19 UNL     1       1.047  11.006  16.819  1.00  0.00     0.171 C 
HETATM    7  C20 UNL     1       0.611  12.300  16.157  1.00  0.00     0.027 C 
HETATM    8  C21 UNL     1      -0.393  12.078  15.033  1.00  0.00     0.012 C 
HETATM    9  C22 UNL     1      -1.839  11.837  15.499  1.00  0.00     0.032 C 
HETATM   10  C23 UNL     1      -2.669  13.095  15.929  1.00  0.00    -0.066 C 
HETATM   11  C24 UNL     1      -2.365  14.421  15.844  1.00  0.00    -0.021 C 
HETATM   12  C25 UNL     1      -1.190  15.071  15.169  1.00  0.00     0.052 C 
HETATM   13  C27 UNL     1      -4.023  12.634  16.425  1.00  0.00     0.038 C 
HETATM   14  C28 UNL     1      -3.889  11.937  17.768  1.00  0.00     0.042 C 
HETATM   15  C29 UNL     1      -2.616  11.060  17.901  1.00  0.00     0.067 C 
HETATM   16  C30 UNL     1      -2.957   9.970  18.940  1.00  0.00     0.047 C 
HETATM   17  O5  UNL     1      -1.200   8.305  16.165  1.00  0.00    -0.351 OA
ENDROOT
BRANCH   1  18
HETATM   18  C14 UNL     1      -3.119   7.169  15.182  1.00  0.00     0.011 C 
HETATM   19  C12 UNL     1      -3.068   7.159  13.833  1.00  0.00    -0.064 C 
HETATM   20  C13 UNL     1      -2.346   8.200  13.012  1.00  0.00     0.048 C 
BRANCH  19  21
HETATM   21  C11 UNL     1      -3.718   6.054  13.127  1.00  0.00     0.003 C 
HETATM   22  C10 UNL     1      -3.505   4.742  13.321  1.00  0.00    -0.018 C 
BRANCH  22  23
HETATM   23  C9  UNL     1      -4.165   3.601  12.569  1.00  0.00     0.050 C 
HETATM   24  C4  UNL     1      -5.604   3.889  12.029  1.00  0.00     0.024 C 
HETATM   25  C5  UNL     1      -5.680   3.125  10.700  1.00  0.00     0.013 C 
HETATM   26  C6  UNL     1      -4.278   3.301  10.129  1.00  0.00     0.039 C 
HETATM   27  C7  UNL     1      -3.369   3.051  11.339  1.00  0.00     0.062 C 
HETATM   28  C8  UNL     1      -1.967   3.609  11.108  1.00  0.00     0.046 C 
BRANCH  24  29
HETATM   29  C2  UNL     1      -6.720   3.575  13.015  1.00  0.00    -0.088 C 
HETATM   30  C1  UNL     1      -7.410   2.423  12.939  1.00  0.00     0.014 C 
HETATM   31  C3  UNL     1      -7.047   4.592  14.078  1.00  0.00     0.043 C 
ENDBRANCH  24  29
BRANCH  27  32
HETATM   32  O1  UNL     1      -3.234   1.627  11.485  1.00  0.00    -0.390 OA
HETATM   33  H14 UNL     1      -2.663   1.466  12.257  1.00  0.00     0.210 HD
ENDBRANCH  27  32
ENDBRANCH  22  23
ENDBRANCH  19  21
ENDBRANCH   1  18
BRANCH  15  34
HETATM   34  O4  UNL     1      -1.584  11.862  18.500  1.00  0.00    -0.389 OA
HETATM   35  H44 UNL     1      -1.900  12.189  19.360  1.00  0.00     0.210 HD
ENDBRANCH  15  34
BRANCH  11  36
HETATM   36  C26 UNL     1      -3.289  15.437  16.461  1.00  0.00     0.265 C 
HETATM   37  O3  UNL     1      -2.909  16.372  17.156  1.00  0.00    -0.302 OA
ENDBRANCH  11  36
TORSDOF 7
ENDMDL
MODEL 7
REMARK minimizedAffinity -8.43899918
REMARK  7 active torsions:
REMARK  status: ('A' for Active; 'I' for Inactive)
REMARK    1  A    between atoms: C2_2  and  C4_4 
REMARK    2  A    between atoms: C7_7  and  O1_9 
REMARK    3  A    between atoms: C9_10  and  C10_11 
REMARK    4  A    between atoms: C11_12  and  C12_13 
REMARK    5  A    between atoms: C14_15  and  C15_16 
REMARK    6  A    between atoms: C24_26  and  C26_28 
REMARK    7  A    between atoms: C29_32  and  O4_34 
ROOT
HETATM    1  C15 UNL     1     -11.715   6.944  14.320  1.00  0.00     0.149 C 
HETATM    2  C16 UNL     1     -12.742   7.249  13.244  1.00  0.00     0.054 C 
HETATM    3  C17 UNL     1     -13.835   8.128  13.924  1.00  0.00     0.050 C 
HETATM    4  C18 UNL     1     -13.047   8.627  15.192  1.00  0.00     0.272 C 
HETATM    5  O2  UNL     1     -12.925  10.011  15.447  1.00  0.00    -0.360 OA
HETATM    6  C19 UNL     1     -14.146  10.631  15.816  1.00  0.00     0.171 C 
HETATM    7  C20 UNL     1     -14.899  11.077  14.576  1.00  0.00     0.027 C 
HETATM    8  C21 UNL     1     -14.178  10.712  13.285  1.00  0.00     0.012 C 
HETATM    9  C22 UNL     1     -14.340   9.247  12.847  1.00  0.00     0.032 C 
HETATM   10  C23 UNL     1     -15.688   8.855  12.150  1.00  0.00    -0.066 C 
HETATM   11  C24 UNL     1     -16.726   9.638  11.740  1.00  0.00    -0.021 C 
HETATM   12  C25 UNL     1     -16.812  11.138  11.706  1.00  0.00     0.052 C 
HETATM   13  C27 UNL     1     -15.676   7.367  11.876  1.00  0.00     0.038 C 
HETATM   14  C28 UNL     1     -15.815   6.586  13.172  1.00  0.00     0.042 C 
HETATM   15  C29 UNL     1     -15.059   7.213  14.372  1.00  0.00     0.067 C 
HETATM   16  C30 UNL     1     -14.741   6.046  15.331  1.00  0.00     0.047 C 
HETATM   17  O5  UNL     1     -11.705   8.118  15.107  1.00  0.00    -0.351 OA
ENDROOT
BRANCH   1  18
HETATM   18  C14 UNL     1     -10.366   6.611  13.738  1.00  0.00     0.011 C 
HETATM   19  C12 UNL     1      -9.157   6.521  14.332  1.00  0.00    -0.064 C 
HETATM   20  C13 UNL     1      -8.941   6.650  15.820  1.00  0.00     0.048 C 
BRANCH  19  21
HETATM   21  C11 UNL     1      -7.994   6.245  13.488  1.00  0.00     0.003 C 
HETATM   22  C10 UNL     1      -7.186   5.174  13.561  1.00  0.00    -0.018 C 
BRANCH  22  23
HETATM   23  C9  UNL     1      -5.966   4.905  12.699  1.00  0.00     0.050 C 
HETATM   24  C4  UNL     1      -4.585   5.204  13.368  1.00  0.00     0.024 C 
HETATM   25  C5  UNL     1      -3.642   4.130  12.808  1.00  0.00     0.013 C 
HETATM   26  C6  UNL     1      -4.539   2.901  12.732  1.00  0.00     0.039 C 
HETATM   27  C7  UNL     1      -5.842   3.449  12.138  1.00  0.00     0.062 C 
HETATM   28  C8  UNL     1      -7.012   2.501  12.390  1.00  0.00     0.046 C 
BRANCH  24  29
HETATM   29  C2  UNL     1      -4.101   6.637  13.195  1.00  0.00    -0.088 C 
HETATM   30  C1  UNL     1      -4.956   7.673  13.268  1.00  0.00     0.014 C 
HETATM   31  C3  UNL     1      -2.637   6.874  12.929  1.00  0.00     0.043 C 
ENDBRANCH  24  29
BRANCH  27  32
HETATM   32  O1  UNL     1      -5.664   3.525  10.713  1.00  0.00    -0.390 OA
HETATM   33  H14 UNL     1      -6.487   3.879  10.335  1.00  0.00     0.210 HD
ENDBRANCH  27  32
ENDBRANCH  22  23
ENDBRANCH  19  21
ENDBRANCH   1  18
BRANCH  15  34
HETATM   34  O4  UNL     1     -15.977   8.063  15.082  1.00  0.00    -0.389 OA
HETATM   35  H44 UNL     1     -16.742   7.532  15.363  1.00  0.00     0.210 HD
ENDBRANCH  15  34
BRANCH  11  36
HETATM   36  C26 UNL     1     -17.981   8.993  11.214  1.00  0.00     0.265 C 
HETATM   37  O3  UNL     1     -18.233   7.799  11.327  1.00  0.00    -0.302 OA
ENDBRANCH  11  36
TORSDOF 7
ENDMDL
MODEL 8
REMARK minimizedAffinity -8.41890907
REMARK  7 active torsions:
REMARK  status: ('A' for Active; 'I' for Inactive)
REMARK    1  A    between atoms: C2_2  and  C4_4 
REMARK    2  A    between atoms: C7_7  and  O1_9 
REMARK    3  A    between atoms: C9_10  and  C10_11 
REMARK    4  A    between atoms: C11_12  and  C12_13 
REMARK    5  A    between atoms: C14_15  and  C15_16 
REMARK    6  A    between atoms: C24_26  and  C26_28 
REMARK    7  A    between atoms: C29_32  and  O4_34 
ROOT
HETATM    1  C15 UNL     1     -11.595   7.923  14.494  1.00  0.00     0.149 C 
HETATM    2  C16 UNL     1     -12.692   6.878  14.595  1.00  0.00     0.054 C 
HETATM    3  C17 UNL     1     -14.020   7.606  14.227  1.00  0.00     0.050 C 
HETATM    4  C18 UNL     1     -13.452   8.872  13.483  1.00  0.00     0.272 C 
HETATM    5  O2  UNL     1     -13.873   9.164  12.167  1.00  0.00    -0.360 OA
HETATM    6  C19 UNL     1     -15.226   9.576  12.082  1.00  0.00     0.171 C 
HETATM    7  C20 UNL     1     -16.132   8.367  11.944  1.00  0.00     0.027 C 
HETATM    8  C21 UNL     1     -15.366   7.050  11.973  1.00  0.00     0.012 C 
HETATM    9  C22 UNL     1     -14.956   6.574  13.377  1.00  0.00     0.032 C 
HETATM   10  C23 UNL     1     -16.064   5.895  14.251  1.00  0.00    -0.066 C 
HETATM   11  C24 UNL     1     -17.337   5.529  13.931  1.00  0.00    -0.021 C 
HETATM   12  C25 UNL     1     -18.004   5.541  12.584  1.00  0.00     0.052 C 
HETATM   13  C27 UNL     1     -15.479   5.577  15.611  1.00  0.00     0.038 C 
HETATM   14  C28 UNL     1     -15.262   6.852  16.407  1.00  0.00     0.042 C 
HETATM   15  C29 UNL     1     -14.774   8.054  15.557  1.00  0.00     0.067 C 
HETATM   16  C30 UNL     1     -13.996   8.971  16.523  1.00  0.00     0.047 C 
HETATM   17  O5  UNL     1     -12.020   8.744  13.424  1.00  0.00    -0.351 OA
ENDROOT
BRANCH   1  18
HETATM   18  C14 UNL     1     -10.242   7.302  14.261  1.00  0.00     0.011 C 
HETATM   19  C12 UNL     1      -9.139   7.297  15.039  1.00  0.00    -0.064 C 
HETATM   20  C13 UNL     1      -9.091   7.871  16.434  1.00  0.00     0.048 C 
BRANCH  19  21
HETATM   21  C11 UNL     1      -7.929   6.663  14.513  1.00  0.00     0.003 C 
HETATM   22  C10 UNL     1      -6.862   6.258  15.223  1.00  0.00    -0.018 C 
BRANCH  22  23
HETATM   23  C9  UNL     1      -5.599   5.623  14.670  1.00  0.00     0.050 C 
HETATM   24  C4  UNL     1      -5.662   5.191  13.169  1.00  0.00     0.024 C 
HETATM   25  C5  UNL     1      -4.246   5.446  12.632  1.00  0.00     0.013 C 
HETATM   26  C6  UNL     1      -3.840   6.727  13.350  1.00  0.00     0.039 C 
HETATM   27  C7  UNL     1      -4.299   6.485  14.793  1.00  0.00     0.062 C 
HETATM   28  C8  UNL     1      -4.399   7.793  15.574  1.00  0.00     0.046 C 
BRANCH  24  29
HETATM   29  C2  UNL     1      -6.189   3.781  12.942  1.00  0.00    -0.088 C 
HETATM   30  C1  UNL     1      -5.611   2.958  12.050  1.00  0.00     0.014 C 
HETATM   31  C3  UNL     1      -7.388   3.326  13.735  1.00  0.00     0.043 C 
ENDBRANCH  24  29
BRANCH  27  32
HETATM   32  O1  UNL     1      -3.287   5.690  15.436  1.00  0.00    -0.390 OA
HETATM   33  H14 UNL     1      -3.580   5.530  16.350  1.00  0.00     0.210 HD
ENDBRANCH  27  32
ENDBRANCH  22  23
ENDBRANCH  19  21
ENDBRANCH   1  18
BRANCH  15  34
HETATM   34  O4  UNL     1     -15.928   8.808  15.148  1.00  0.00    -0.389 OA
HETATM   35  H44 UNL     1     -16.417   9.089  15.941  1.00  0.00     0.210 HD
ENDBRANCH  15  34
BRANCH  11  36
HETATM   36  C26 UNL     1     -18.256   5.011  15.006  1.00  0.00     0.265 C 
HETATM   37  O3  UNL     1     -19.477   5.097  14.959  1.00  0.00    -0.302 OA
ENDBRANCH  11  36
TORSDOF 7
ENDMDL
MODEL 9
REMARK minimizedAffinity -8.32138824
REMARK  7 active torsions:
REMARK  status: ('A' for Active; 'I' for Inactive)
REMARK    1  A    between atoms: C2_2  and  C4_4 
REMARK    2  A    between atoms: C7_7  and  O1_9 
REMARK    3  A    between atoms: C9_10  and  C10_11 
REMARK    4  A    between atoms: C11_12  and  C12_13 
REMARK    5  A    between atoms: C14_15  and  C15_16 
REMARK    6  A    between atoms: C24_26  and  C26_28 
REMARK    7  A    between atoms: C29_32  and  O4_34 
ROOT
HETATM    1  C15 UNL     1       2.801   7.558  12.170  1.00  0.00     0.149 C 
HETATM    2  C16 UNL     1       3.872   7.373  13.231  1.00  0.00     0.054 C 
HETATM    3  C17 UNL     1       4.668   8.712  13.281  1.00  0.00     0.050 C 
HETATM    4  C18 UNL     1       3.641   9.678  12.581  1.00  0.00     0.272 C 
HETATM    5  O2  UNL     1       3.208  10.848  13.244  1.00  0.00    -0.360 OA
HETATM    6  C19 UNL     1       4.220  11.831  13.379  1.00  0.00     0.171 C 
HETATM    7  C20 UNL     1       5.018  11.587  14.646  1.00  0.00     0.027 C 
HETATM    8  C21 UNL     1       4.556  10.350  15.405  1.00  0.00     0.012 C 
HETATM    9  C22 UNL     1       5.068   9.016  14.834  1.00  0.00     0.032 C 
HETATM   10  C23 UNL     1       6.544   8.615  15.172  1.00  0.00    -0.066 C 
HETATM   11  C24 UNL     1       7.445   9.200  16.011  1.00  0.00    -0.021 C 
HETATM   12  C25 UNL     1       7.228  10.330  16.978  1.00  0.00     0.052 C 
HETATM   13  C27 UNL     1       6.870   7.322  14.455  1.00  0.00     0.038 C 
HETATM   14  C28 UNL     1       6.999   7.561  12.961  1.00  0.00     0.042 C 
HETATM   15  C29 UNL     1       5.985   8.589  12.394  1.00  0.00     0.067 C 
HETATM   16  C30 UNL     1       5.792   8.221  10.908  1.00  0.00     0.047 C 
HETATM   17  O5  UNL     1       2.451   8.922  12.290  1.00  0.00    -0.351 OA
ENDROOT
BRANCH   1  18
HETATM   18  C14 UNL     1       1.633   6.629  12.378  1.00  0.00     0.011 C 
HETATM   19  C12 UNL     1       0.571   6.370  11.584  1.00  0.00    -0.064 C 
HETATM   20  C13 UNL     1       0.404   6.935  10.195  1.00  0.00     0.048 C 
BRANCH  19  21
HETATM   21  C11 UNL     1      -0.458   5.459  12.086  1.00  0.00     0.003 C 
HETATM   22  C10 UNL     1      -1.788   5.614  11.977  1.00  0.00    -0.018 C 
BRANCH  22  23
HETATM   23  C9  UNL     1      -2.852   4.677  12.521  1.00  0.00     0.050 C 
HETATM   24  C4  UNL     1      -4.170   5.362  13.010  1.00  0.00     0.024 C 
HETATM   25  C5  UNL     1      -5.281   4.364  12.654  1.00  0.00     0.013 C 
HETATM   26  C6  UNL     1      -4.812   3.801  11.318  1.00  0.00     0.039 C 
HETATM   27  C7  UNL     1      -3.317   3.544  11.547  1.00  0.00     0.062 C 
HETATM   28  C8  UNL     1      -2.566   3.407  10.225  1.00  0.00     0.046 C 
BRANCH  24  29
HETATM   29  C2  UNL     1      -4.145   5.802  14.467  1.00  0.00    -0.088 C 
HETATM   30  C1  UNL     1      -3.007   5.770  15.183  1.00  0.00     0.014 C 
HETATM   31  C3  UNL     1      -5.432   6.267  15.100  1.00  0.00     0.043 C 
ENDBRANCH  24  29
BRANCH  27  32
HETATM   32  O1  UNL     1      -3.199   2.283  12.228  1.00  0.00    -0.390 OA
HETATM   33  H14 UNL     1      -2.252   2.122  12.381  1.00  0.00     0.210 HD
ENDBRANCH  27  32
ENDBRANCH  22  23
ENDBRANCH  19  21
ENDBRANCH   1  18
BRANCH  15  34
HETATM   34  O4  UNL     1       6.613   9.883  12.398  1.00  0.00    -0.389 OA
HETATM   35  H44 UNL     1       7.429   9.837  11.870  1.00  0.00     0.210 HD
ENDBRANCH  15  34
BRANCH  11  36
HETATM   36  C26 UNL     1       8.861   8.690  16.055  1.00  0.00     0.265 C 
HETATM   37  O3  UNL     1       9.322   8.032  16.980  1.00  0.00    -0.302 OA
ENDBRANCH  11  36
TORSDOF 7
ENDMDL
