MODEL 1
REMARK minimizedAffinity -10.1952143
REMARK  11 active torsions:
REMARK  status: ('A' for Active; 'I' for Inactive)
REMARK    1  A    between atoms: C2_2  and  C3_3 
REMARK    2  A    between atoms: C2_2  and  C10_11 
REMARK    3  A    between atoms: C4_4  and  C5_5 
REMARK    4  A    between atoms: C5_5  and  C7_7 
REMARK    5  A    between atoms: C7_7  and  C9_9 
REMARK    6  A    between atoms: C9_9  and  O1_10 
REMARK    7  A    between atoms: C11_12  and  O2_13 
REMARK    8  A    between atoms: C12_14  and  O3_15 
REMARK    9  A    between atoms: C23_26  and  O4_27 
REMARK   10  A    between atoms: C26_30  and  O5_31 
REMARK   11  A    between atoms: C28_33  and  O6_34 
ROOT
HETATM    1  C10 UNL     1      -2.651  49.373 -26.011  1.00  0.00     0.033 C 
HETATM    2  C11 UNL     1      -2.004  50.636 -26.661  1.00  0.00     0.152 C 
HETATM    3  C12 UNL     1      -1.441  51.486 -25.485  1.00  0.00     0.155 C 
HETATM    4  C13 UNL     1      -1.665  50.610 -24.250  1.00  0.00     0.060 C 
HETATM    5  C14 UNL     1      -2.988  49.839 -24.556  1.00  0.00    -0.028 C 
HETATM    6  C15 UNL     1      -4.287  50.679 -24.498  1.00  0.00     0.016 C 
HETATM    7  C16 UNL     1      -3.100  48.704 -23.523  1.00  0.00     0.011 C 
HETATM    8  C17 UNL     1      -3.047  49.242 -22.078  1.00  0.00     0.009 C 
HETATM    9  C18 UNL     1      -1.765  50.073 -21.800  1.00  0.00     0.029 C 
HETATM   10  C19 UNL     1      -1.589  50.519 -20.295  1.00  0.00    -0.031 C 
HETATM   11  C20 UNL     1      -2.778  51.397 -19.825  1.00  0.00     0.016 C 
HETATM   12  C21 UNL     1      -1.538  49.257 -19.367  1.00  0.00     0.012 C 
HETATM   13  C22 UNL     1      -0.422  49.262 -18.311  1.00  0.00     0.032 C 
HETATM   14  C23 UNL     1      -0.175  50.628 -17.682  1.00  0.00     0.118 C 
HETATM   15  C24 UNL     1       0.049  51.737 -18.720  1.00  0.00     0.039 C 
HETATM   16  C25 UNL     1      -0.228  51.275 -20.168  1.00  0.00     0.025 C 
HETATM   17  C26 UNL     1      -0.078  52.429 -21.175  1.00  0.00     0.126 C 
HETATM   18  C27 UNL     1      -0.246  51.942 -22.617  1.00  0.00     0.071 C 
HETATM   19  C28 UNL     1      -1.586  51.232 -22.841  1.00  0.00     0.071 C 
ENDROOT
BRANCH   1  20
HETATM   20  C2  UNL     1      -3.670  48.545 -26.843  1.00  0.00     0.011 C 
HETATM   21  C1  UNL     1      -3.931  49.219 -28.202  1.00  0.00     0.015 C 
BRANCH  20  22
HETATM   22  C3  UNL     1      -4.949  48.097 -26.172  1.00  0.00    -0.026 C 
HETATM   23  C4  UNL     1      -6.093  47.739 -26.774  1.00  0.00    -0.026 C 
BRANCH  23  24
HETATM   24  C5  UNL     1      -7.351  47.350 -26.032  1.00  0.00     0.009 C 
HETATM   25  C6  UNL     1      -7.262  47.898 -24.603  1.00  0.00     0.014 C 
BRANCH  24  26
HETATM   26  C7  UNL     1      -8.639  47.767 -26.791  1.00  0.00     0.012 C 
HETATM   27  C8  UNL     1      -8.384  48.321 -28.199  1.00  0.00     0.012 C 
BRANCH  26  28
HETATM   28  C9  UNL     1      -9.464  48.771 -25.969  1.00  0.00     0.168 C 
BRANCH  28  29
HETATM   29  O1  UNL     1      -9.283  50.085 -26.481  1.00  0.00    -0.400 OA
HETATM   30  H17 UNL     1      -9.800  50.684 -25.917  1.00  0.00     0.209 HD
ENDBRANCH  28  29
ENDBRANCH  26  28
ENDBRANCH  24  26
ENDBRANCH  23  24
ENDBRANCH  20  22
ENDBRANCH   1  20
BRANCH   2  31
HETATM   31  O2  UNL     1      -2.885  51.403 -27.460  1.00  0.00    -0.393 OA
HETATM   32  H20 UNL     1      -3.100  52.209 -26.944  1.00  0.00     0.210 HD
ENDBRANCH   2  31
BRANCH   3  33
HETATM   33  O3  UNL     1      -2.128  52.737 -25.376  1.00  0.00    -0.392 OA
HETATM   34  H22 UNL     1      -1.493  53.426 -25.631  1.00  0.00     0.210 HD
ENDBRANCH   3  33
BRANCH  19  35
HETATM   35  O6  UNL     1      -2.590  52.224 -22.681  1.00  0.00    -0.389 OA
HETATM   36  H48 UNL     1      -2.662  52.713 -23.528  1.00  0.00     0.210 HD
ENDBRANCH  19  35
BRANCH  17  37
HETATM   37  O5  UNL     1       1.227  53.012 -21.065  1.00  0.00    -0.395 OA
HETATM   38  H45 UNL     1       1.884  52.296 -21.159  1.00  0.00     0.210 HD
ENDBRANCH  17  37
BRANCH  14  39
HETATM   39  O4  UNL     1      -1.280  50.979 -16.849  1.00  0.00    -0.396 OA
HETATM   40  H40 UNL     1      -1.383  50.278 -16.180  1.00  0.00     0.210 HD
ENDBRANCH  14  39
TORSDOF 11
ENDMDL
MODEL 2
REMARK minimizedAffinity -9.68644714
REMARK  11 active torsions:
REMARK  status: ('A' for Active; 'I' for Inactive)
REMARK    1  A    between atoms: C2_2  and  C3_3 
REMARK    2  A    between atoms: C2_2  and  C10_11 
REMARK    3  A    between atoms: C4_4  and  C5_5 
REMARK    4  A    between atoms: C5_5  and  C7_7 
REMARK    5  A    between atoms: C7_7  and  C9_9 
REMARK    6  A    between atoms: C9_9  and  O1_10 
REMARK    7  A    between atoms: C11_12  and  O2_13 
REMARK    8  A    between atoms: C12_14  and  O3_15 
REMARK    9  A    between atoms: C23_26  and  O4_27 
REMARK   10  A    between atoms: C26_30  and  O5_31 
REMARK   11  A    between atoms: C28_33  and  O6_34 
ROOT
HETATM    1  C10 UNL     1      -1.894  48.336 -20.108  1.00  0.00     0.033 C 
HETATM    2  C11 UNL     1      -3.151  47.542 -20.578  1.00  0.00     0.152 C 
HETATM    3  C12 UNL     1      -3.446  48.019 -22.030  1.00  0.00     0.155 C 
HETATM    4  C13 UNL     1      -2.275  48.945 -22.364  1.00  0.00     0.060 C 
HETATM    5  C14 UNL     1      -1.913  49.620 -21.003  1.00  0.00    -0.028 C 
HETATM    6  C15 UNL     1      -2.920  50.676 -20.486  1.00  0.00     0.016 C 
HETATM    7  C16 UNL     1      -0.546  50.303 -21.185  1.00  0.00     0.011 C 
HETATM    8  C17 UNL     1      -0.561  51.304 -22.358  1.00  0.00     0.009 C 
HETATM    9  C18 UNL     1      -0.995  50.644 -23.696  1.00  0.00     0.029 C 
HETATM   10  C19 UNL     1      -0.882  51.589 -24.957  1.00  0.00    -0.031 C 
HETATM   11  C20 UNL     1      -1.768  52.852 -24.795  1.00  0.00     0.016 C 
HETATM   12  C21 UNL     1       0.599  52.070 -25.132  1.00  0.00     0.012 C 
HETATM   13  C22 UNL     1       1.153  51.988 -26.563  1.00  0.00     0.032 C 
HETATM   14  C23 UNL     1       0.141  52.367 -27.638  1.00  0.00     0.118 C 
HETATM   15  C24 UNL     1      -1.182  51.596 -27.517  1.00  0.00     0.039 C 
HETATM   16  C25 UNL     1      -1.281  50.764 -26.221  1.00  0.00     0.025 C 
HETATM   17  C26 UNL     1      -2.650  50.072 -26.088  1.00  0.00     0.126 C 
HETATM   18  C27 UNL     1      -2.702  49.161 -24.858  1.00  0.00     0.071 C 
HETATM   19  C28 UNL     1      -2.374  49.911 -23.562  1.00  0.00     0.071 C 
ENDROOT
BRANCH   1  20
HETATM   20  C2  UNL     1      -1.594  48.427 -18.585  1.00  0.00     0.011 C 
HETATM   21  C1  UNL     1      -2.797  47.924 -17.767  1.00  0.00     0.015 C 
BRANCH  20  22
HETATM   22  C3  UNL     1      -1.032  49.721 -18.039  1.00  0.00    -0.026 C 
HETATM   23  C4  UNL     1      -0.109  49.856 -17.075  1.00  0.00    -0.026 C 
BRANCH  23  24
HETATM   24  C5  UNL     1       0.368  51.188 -16.545  1.00  0.00     0.009 C 
HETATM   25  C6  UNL     1       0.975  50.970 -15.154  1.00  0.00     0.014 C 
BRANCH  24  26
HETATM   26  C7  UNL     1       1.311  51.917 -17.540  1.00  0.00     0.012 C 
HETATM   27  C8  UNL     1       2.447  52.698 -16.867  1.00  0.00     0.012 C 
BRANCH  26  28
HETATM   28  C9  UNL     1       0.517  52.841 -18.478  1.00  0.00     0.168 C 
BRANCH  28  29
HETATM   29  O1  UNL     1       1.409  53.608 -19.276  1.00  0.00    -0.400 OA
HETATM   30  H17 UNL     1       0.866  54.191 -19.830  1.00  0.00     0.209 HD
ENDBRANCH  28  29
ENDBRANCH  26  28
ENDBRANCH  24  26
ENDBRANCH  23  24
ENDBRANCH  20  22
ENDBRANCH   1  20
BRANCH   2  31
HETATM   31  O2  UNL     1      -4.291  47.703 -19.753  1.00  0.00    -0.393 OA
HETATM   32  H20 UNL     1      -4.909  48.286 -20.243  1.00  0.00     0.210 HD
ENDBRANCH   2  31
BRANCH   3  33
HETATM   33  O3  UNL     1      -4.699  48.706 -22.103  1.00  0.00    -0.392 OA
HETATM   34  H22 UNL     1      -5.299  48.137 -22.612  1.00  0.00     0.210 HD
ENDBRANCH   3  33
BRANCH  19  35
HETATM   35  O6  UNL     1      -3.431  50.838 -23.363  1.00  0.00    -0.389 OA
HETATM   36  H48 UNL     1      -4.175  50.356 -22.944  1.00  0.00     0.210 HD
ENDBRANCH  19  35
BRANCH  17  37
HETATM   37  O5  UNL     1      -2.904  49.258 -27.241  1.00  0.00    -0.395 OA
HETATM   38  H45 UNL     1      -2.147  48.653 -27.353  1.00  0.00     0.210 HD
ENDBRANCH  17  37
BRANCH  14  39
HETATM   39  O4  UNL     1      -0.122  53.769 -27.575  1.00  0.00    -0.396 OA
HETATM   40  H40 UNL     1       0.726  54.236 -27.686  1.00  0.00     0.210 HD
ENDBRANCH  14  39
TORSDOF 11
ENDMDL
MODEL 3
REMARK minimizedAffinity -9.42636108
REMARK  11 active torsions:
REMARK  status: ('A' for Active; 'I' for Inactive)
REMARK    1  A    between atoms: C2_2  and  C3_3 
REMARK    2  A    between atoms: C2_2  and  C10_11 
REMARK    3  A    between atoms: C4_4  and  C5_5 
REMARK    4  A    between atoms: C5_5  and  C7_7 
REMARK    5  A    between atoms: C7_7  and  C9_9 
REMARK    6  A    between atoms: C9_9  and  O1_10 
REMARK    7  A    between atoms: C11_12  and  O2_13 
REMARK    8  A    between atoms: C12_14  and  O3_15 
REMARK    9  A    between atoms: C23_26  and  O4_27 
REMARK   10  A    between atoms: C26_30  and  O5_31 
REMARK   11  A    between atoms: C28_33  and  O6_34 
ROOT
HETATM    1  C10 UNL     1      -4.481  49.362 -21.616  1.00  0.00     0.033 C 
HETATM    2  C11 UNL     1      -5.801  49.383 -22.448  1.00  0.00     0.152 C 
HETATM    3  C12 UNL     1      -5.420  49.942 -23.849  1.00  0.00     0.155 C 
HETATM    4  C13 UNL     1      -3.897  50.077 -23.795  1.00  0.00     0.060 C 
HETATM    5  C14 UNL     1      -3.592  50.447 -22.309  1.00  0.00    -0.028 C 
HETATM    6  C15 UNL     1      -3.980  51.883 -21.878  1.00  0.00     0.016 C 
HETATM    7  C16 UNL     1      -2.078  50.273 -22.100  1.00  0.00     0.011 C 
HETATM    8  C17 UNL     1      -1.263  51.119 -23.100  1.00  0.00     0.009 C 
HETATM    9  C18 UNL     1      -1.624  50.802 -24.577  1.00  0.00     0.029 C 
HETATM   10  C19 UNL     1      -0.713  51.530 -25.643  1.00  0.00    -0.031 C 
HETATM   11  C20 UNL     1      -0.805  53.072 -25.502  1.00  0.00     0.016 C 
HETATM   12  C21 UNL     1       0.785  51.125 -25.430  1.00  0.00     0.012 C 
HETATM   13  C22 UNL     1       1.553  50.752 -26.708  1.00  0.00     0.032 C 
HETATM   14  C23 UNL     1       1.206  51.620 -27.911  1.00  0.00     0.118 C 
HETATM   15  C24 UNL     1      -0.303  51.697 -28.183  1.00  0.00     0.039 C 
HETATM   16  C25 UNL     1      -1.152  51.055 -27.064  1.00  0.00     0.025 C 
HETATM   17  C26 UNL     1      -2.660  51.223 -27.323  1.00  0.00     0.126 C 
HETATM   18  C27 UNL     1      -3.496  50.490 -26.269  1.00  0.00     0.071 C 
HETATM   19  C28 UNL     1      -3.163  50.940 -24.843  1.00  0.00     0.071 C 
ENDROOT
BRANCH   1  20
HETATM   20  C2  UNL     1      -4.577  49.276 -20.066  1.00  0.00     0.011 C 
HETATM   21  C1  UNL     1      -6.047  49.188 -19.620  1.00  0.00     0.015 C 
BRANCH  20  22
HETATM   22  C3  UNL     1      -3.788  50.268 -19.242  1.00  0.00    -0.026 C 
HETATM   23  C4  UNL     1      -2.585  50.074 -18.679  1.00  0.00    -0.026 C 
BRANCH  23  24
HETATM   24  C5  UNL     1      -1.879  51.100 -17.823  1.00  0.00     0.009 C 
HETATM   25  C6  UNL     1      -1.982  50.664 -16.357  1.00  0.00     0.014 C 
BRANCH  24  26
HETATM   26  C7  UNL     1      -0.427  51.371 -18.302  1.00  0.00     0.012 C 
HETATM   27  C8  UNL     1       0.568  51.637 -17.164  1.00  0.00     0.012 C 
BRANCH  26  28
HETATM   28  C9  UNL     1      -0.387  52.523 -19.320  1.00  0.00     0.168 C 
BRANCH  28  29
HETATM   29  O1  UNL     1       0.379  53.604 -18.802  1.00  0.00    -0.400 OA
HETATM   30  H17 UNL     1       0.354  54.313 -19.464  1.00  0.00     0.209 HD
ENDBRANCH  28  29
ENDBRANCH  26  28
ENDBRANCH  24  26
ENDBRANCH  23  24
ENDBRANCH  20  22
ENDBRANCH   1  20
BRANCH   2  31
HETATM   31  O2  UNL     1      -6.848  50.141 -21.870  1.00  0.00    -0.393 OA
HETATM   32  H20 UNL     1      -6.916  50.966 -22.395  1.00  0.00     0.210 HD
ENDBRANCH   2  31
BRANCH   3  33
HETATM   33  O3  UNL     1      -6.054  51.201 -24.092  1.00  0.00    -0.392 OA
HETATM   34  H22 UNL     1      -6.711  51.052 -24.791  1.00  0.00     0.210 HD
ENDBRANCH   3  33
BRANCH  19  35
HETATM   35  O6  UNL     1      -3.580  52.294 -24.748  1.00  0.00    -0.389 OA
HETATM   36  H48 UNL     1      -4.544  52.297 -24.567  1.00  0.00     0.210 HD
ENDBRANCH  19  35
BRANCH  17  37
HETATM   37  O5  UNL     1      -3.004  50.679 -28.603  1.00  0.00    -0.395 OA
HETATM   38  H45 UNL     1      -2.682  49.758 -28.634  1.00  0.00     0.210 HD
ENDBRANCH  17  37
BRANCH  14  39
HETATM   39  O4  UNL     1       1.718  52.938 -27.714  1.00  0.00    -0.396 OA
HETATM   40  H40 UNL     1       2.680  52.867 -27.576  1.00  0.00     0.210 HD
ENDBRANCH  14  39
TORSDOF 11
ENDMDL
MODEL 4
REMARK minimizedAffinity -9.3920126
REMARK  11 active torsions:
REMARK  status: ('A' for Active; 'I' for Inactive)
REMARK    1  A    between atoms: C2_2  and  C3_3 
REMARK    2  A    between atoms: C2_2  and  C10_11 
REMARK    3  A    between atoms: C4_4  and  C5_5 
REMARK    4  A    between atoms: C5_5  and  C7_7 
REMARK    5  A    between atoms: C7_7  and  C9_9 
REMARK    6  A    between atoms: C9_9  and  O1_10 
REMARK    7  A    between atoms: C11_12  and  O2_13 
REMARK    8  A    between atoms: C12_14  and  O3_15 
REMARK    9  A    between atoms: C23_26  and  O4_27 
REMARK   10  A    between atoms: C26_30  and  O5_31 
REMARK   11  A    between atoms: C28_33  and  O6_34 
ROOT
HETATM    1  C10 UNL     1      -1.376  49.687 -18.478  1.00  0.00     0.033 C 
HETATM    2  C11 UNL     1      -2.557  48.669 -18.541  1.00  0.00     0.152 C 
HETATM    3  C12 UNL     1      -3.043  48.662 -20.019  1.00  0.00     0.155 C 
HETATM    4  C13 UNL     1      -2.037  49.556 -20.747  1.00  0.00     0.060 C 
HETATM    5  C14 UNL     1      -1.644  50.638 -19.691  1.00  0.00    -0.028 C 
HETATM    6  C15 UNL     1      -2.728  51.697 -19.375  1.00  0.00     0.016 C 
HETATM    7  C16 UNL     1      -0.400  51.366 -20.230  1.00  0.00     0.011 C 
HETATM    8  C17 UNL     1      -0.652  51.967 -21.628  1.00  0.00     0.009 C 
HETATM    9  C18 UNL     1      -1.117  50.900 -22.658  1.00  0.00     0.029 C 
HETATM   10  C19 UNL     1      -1.243  51.434 -24.139  1.00  0.00    -0.031 C 
HETATM   11  C20 UNL     1      -2.267  52.595 -24.234  1.00  0.00     0.016 C 
HETATM   12  C21 UNL     1       0.140  51.983 -24.628  1.00  0.00     0.012 C 
HETATM   13  C22 UNL     1       0.567  51.534 -26.034  1.00  0.00     0.032 C 
HETATM   14  C23 UNL     1      -0.579  51.475 -27.037  1.00  0.00     0.118 C 
HETATM   15  C24 UNL     1      -1.774  50.650 -26.537  1.00  0.00     0.039 C 
HETATM   16  C25 UNL     1      -1.645  50.235 -25.055  1.00  0.00     0.025 C 
HETATM   17  C26 UNL     1      -2.894  49.484 -24.561  1.00  0.00     0.126 C 
HETATM   18  C27 UNL     1      -2.715  48.979 -23.126  1.00  0.00     0.071 C 
HETATM   19  C28 UNL     1      -2.371  50.108 -22.149  1.00  0.00     0.071 C 
ENDROOT
BRANCH   1  20
HETATM   20  C2  UNL     1      -0.952  50.255 -17.094  1.00  0.00     0.011 C 
HETATM   21  C1  UNL     1       0.302  49.530 -16.575  1.00  0.00     0.015 C 
BRANCH  20  22
HETATM   22  C3  UNL     1      -2.011  50.404 -16.025  1.00  0.00    -0.026 C 
HETATM   23  C4  UNL     1      -1.879  51.021 -14.841  1.00  0.00    -0.026 C 
BRANCH  23  24
HETATM   24  C5  UNL     1      -2.972  51.086 -13.798  1.00  0.00     0.009 C 
HETATM   25  C6  UNL     1      -3.189  49.678 -13.232  1.00  0.00     0.014 C 
BRANCH  24  26
HETATM   26  C7  UNL     1      -2.695  52.166 -12.717  1.00  0.00     0.012 C 
HETATM   27  C8  UNL     1      -2.190  51.601 -11.383  1.00  0.00     0.012 C 
BRANCH  26  28
HETATM   28  C9  UNL     1      -3.934  53.045 -12.484  1.00  0.00     0.168 C 
BRANCH  28  29
HETATM   29  O1  UNL     1      -4.260  53.751 -13.674  1.00  0.00    -0.400 OA
HETATM   30  H17 UNL     1      -5.029  54.310 -13.473  1.00  0.00     0.209 HD
ENDBRANCH  28  29
ENDBRANCH  26  28
ENDBRANCH  24  26
ENDBRANCH  23  24
ENDBRANCH  20  22
ENDBRANCH   1  20
BRANCH   2  31
HETATM   31  O2  UNL     1      -3.627  48.956 -17.660  1.00  0.00    -0.393 OA
HETATM   32  H20 UNL     1      -4.358  49.305 -18.214  1.00  0.00     0.210 HD
ENDBRANCH   2  31
BRANCH   3  33
HETATM   33  O3  UNL     1      -4.376  49.171 -20.127  1.00  0.00    -0.392 OA
HETATM   34  H22 UNL     1      -4.941  48.421 -20.374  1.00  0.00     0.210 HD
ENDBRANCH   3  33
BRANCH  19  35
HETATM   35  O6  UNL     1      -3.517  50.945 -22.091  1.00  0.00    -0.389 OA
HETATM   36  H48 UNL     1      -4.150  50.539 -21.462  1.00  0.00     0.210 HD
ENDBRANCH  19  35
BRANCH  17  37
HETATM   37  O5  UNL     1      -3.145  48.344 -25.393  1.00  0.00    -0.395 OA
HETATM   38  H45 UNL     1      -2.329  47.809 -25.422  1.00  0.00     0.210 HD
ENDBRANCH  17  37
BRANCH  14  39
HETATM   39  O4  UNL     1      -1.016  52.800 -27.343  1.00  0.00    -0.396 OA
HETATM   40  H40 UNL     1      -0.249  53.293 -27.687  1.00  0.00     0.210 HD
ENDBRANCH  14  39
TORSDOF 11
ENDMDL
MODEL 5
REMARK minimizedAffinity -9.37238979
REMARK  11 active torsions:
REMARK  status: ('A' for Active; 'I' for Inactive)
REMARK    1  A    between atoms: C2_2  and  C3_3 
REMARK    2  A    between atoms: C2_2  and  C10_11 
REMARK    3  A    between atoms: C4_4  and  C5_5 
REMARK    4  A    between atoms: C5_5  and  C7_7 
REMARK    5  A    between atoms: C7_7  and  C9_9 
REMARK    6  A    between atoms: C9_9  and  O1_10 
REMARK    7  A    between atoms: C11_12  and  O2_13 
REMARK    8  A    between atoms: C12_14  and  O3_15 
REMARK    9  A    between atoms: C23_26  and  O4_27 
REMARK   10  A    between atoms: C26_30  and  O5_31 
REMARK   11  A    between atoms: C28_33  and  O6_34 
ROOT
HETATM    1  C10 UNL     1      -5.489  50.616 -21.475  1.00  0.00     0.033 C 
HETATM    2  C11 UNL     1      -4.525  50.703 -20.251  1.00  0.00     0.152 C 
HETATM    3  C12 UNL     1      -3.121  51.043 -20.831  1.00  0.00     0.155 C 
HETATM    4  C13 UNL     1      -3.377  51.271 -22.322  1.00  0.00     0.060 C 
HETATM    5  C14 UNL     1      -4.536  50.284 -22.671  1.00  0.00    -0.028 C 
HETATM    6  C15 UNL     1      -4.155  48.785 -22.716  1.00  0.00     0.016 C 
HETATM    7  C16 UNL     1      -5.073  50.688 -24.056  1.00  0.00     0.011 C 
HETATM    8  C17 UNL     1      -3.956  50.692 -25.120  1.00  0.00     0.009 C 
HETATM    9  C18 UNL     1      -2.770  51.618 -24.733  1.00  0.00     0.029 C 
HETATM   10  C19 UNL     1      -1.670  51.776 -25.856  1.00  0.00    -0.031 C 
HETATM   11  C20 UNL     1      -1.042  50.406 -26.225  1.00  0.00     0.016 C 
HETATM   12  C21 UNL     1      -2.317  52.364 -27.156  1.00  0.00     0.012 C 
HETATM   13  C22 UNL     1      -1.533  53.507 -27.821  1.00  0.00     0.032 C 
HETATM   14  C23 UNL     1      -0.021  53.315 -27.792  1.00  0.00     0.118 C 
HETATM   15  C24 UNL     1       0.522  53.025 -26.385  1.00  0.00     0.039 C 
HETATM   16  C25 UNL     1      -0.594  52.784 -25.344  1.00  0.00     0.025 C 
HETATM   17  C26 UNL     1      -0.019  52.412 -23.965  1.00  0.00     0.126 C 
HETATM   18  C27 UNL     1      -1.123  52.282 -22.913  1.00  0.00     0.071 C 
HETATM   19  C28 UNL     1      -2.198  51.266 -23.316  1.00  0.00     0.071 C 
ENDROOT
BRANCH   1  20
HETATM   20  C2  UNL     1      -6.847  49.877 -21.304  1.00  0.00     0.011 C 
HETATM   21  C1  UNL     1      -7.047  49.448 -19.840  1.00  0.00     0.015 C 
BRANCH  20  22
HETATM   22  C3  UNL     1      -7.189  48.771 -22.277  1.00  0.00    -0.026 C 
HETATM   23  C4  UNL     1      -7.853  48.895 -23.437  1.00  0.00    -0.026 C 
BRANCH  23  24
HETATM   24  C5  UNL     1      -8.204  47.730 -24.335  1.00  0.00     0.009 C 
HETATM   25  C6  UNL     1      -8.046  46.433 -23.534  1.00  0.00     0.014 C 
BRANCH  24  26
HETATM   26  C7  UNL     1      -9.596  47.897 -25.002  1.00  0.00     0.012 C 
HETATM   27  C8  UNL     1     -10.322  46.572 -25.272  1.00  0.00     0.012 C 
BRANCH  26  28
HETATM   28  C9  UNL     1      -9.493  48.718 -26.298  1.00  0.00     0.168 C 
BRANCH  28  29
HETATM   29  O1  UNL     1      -9.727  50.093 -26.023  1.00  0.00    -0.400 OA
HETATM   30  H17 UNL     1      -9.678  50.565 -26.870  1.00  0.00     0.209 HD
ENDBRANCH  28  29
ENDBRANCH  26  28
ENDBRANCH  24  26
ENDBRANCH  23  24
ENDBRANCH  20  22
ENDBRANCH   1  20
BRANCH   2  31
HETATM   31  O2  UNL     1      -4.472  49.530 -19.459  1.00  0.00    -0.393 OA
HETATM   32  H20 UNL     1      -3.615  49.097 -19.660  1.00  0.00     0.210 HD
ENDBRANCH   2  31
BRANCH   3  33
HETATM   33  O3  UNL     1      -2.198  49.972 -20.612  1.00  0.00    -0.392 OA
HETATM   34  H22 UNL     1      -1.549  50.291 -19.964  1.00  0.00     0.210 HD
ENDBRANCH   3  33
BRANCH  19  35
HETATM   35  O6  UNL     1      -1.560  49.998 -23.320  1.00  0.00    -0.389 OA
HETATM   36  H48 UNL     1      -1.541  49.671 -22.396  1.00  0.00     0.210 HD
ENDBRANCH  19  35
BRANCH  17  37
HETATM   37  O5  UNL     1       0.887  53.429 -23.519  1.00  0.00    -0.395 OA
HETATM   38  H45 UNL     1       0.418  54.284 -23.551  1.00  0.00     0.210 HD
ENDBRANCH  17  37
BRANCH  14  39
HETATM   39  O4  UNL     1       0.343  52.248 -28.667  1.00  0.00    -0.396 OA
HETATM   40  H40 UNL     1       0.017  52.469 -29.558  1.00  0.00     0.210 HD
ENDBRANCH  14  39
TORSDOF 11
ENDMDL
MODEL 6
REMARK minimizedAffinity -9.30892372
REMARK  11 active torsions:
REMARK  status: ('A' for Active; 'I' for Inactive)
REMARK    1  A    between atoms: C2_2  and  C3_3 
REMARK    2  A    between atoms: C2_2  and  C10_11 
REMARK    3  A    between atoms: C4_4  and  C5_5 
REMARK    4  A    between atoms: C5_5  and  C7_7 
REMARK    5  A    between atoms: C7_7  and  C9_9 
REMARK    6  A    between atoms: C9_9  and  O1_10 
REMARK    7  A    between atoms: C11_12  and  O2_13 
REMARK    8  A    between atoms: C12_14  and  O3_15 
REMARK    9  A    between atoms: C23_26  and  O4_27 
REMARK   10  A    between atoms: C26_30  and  O5_31 
REMARK   11  A    between atoms: C28_33  and  O6_34 
ROOT
HETATM    1  C10 UNL     1      -3.021  50.749 -22.760  1.00  0.00     0.033 C 
HETATM    2  C11 UNL     1      -4.487  50.459 -22.315  1.00  0.00     0.152 C 
HETATM    3  C12 UNL     1      -4.446  50.304 -20.766  1.00  0.00     0.155 C 
HETATM    4  C13 UNL     1      -3.002  50.650 -20.395  1.00  0.00     0.060 C 
HETATM    5  C14 UNL     1      -2.158  50.140 -21.606  1.00  0.00    -0.028 C 
HETATM    6  C15 UNL     1      -2.016  48.604 -21.730  1.00  0.00     0.016 C 
HETATM    7  C16 UNL     1      -0.750  50.745 -21.462  1.00  0.00     0.011 C 
HETATM    8  C17 UNL     1      -0.113  50.390 -20.103  1.00  0.00     0.009 C 
HETATM    9  C18 UNL     1      -0.993  50.831 -18.901  1.00  0.00     0.029 C 
HETATM   10  C19 UNL     1      -0.318  50.627 -17.488  1.00  0.00    -0.031 C 
HETATM   11  C20 UNL     1       0.029  49.136 -17.239  1.00  0.00     0.016 C 
HETATM   12  C21 UNL     1       1.018  51.442 -17.412  1.00  0.00     0.012 C 
HETATM   13  C22 UNL     1       1.219  52.257 -16.125  1.00  0.00     0.032 C 
HETATM   14  C23 UNL     1       0.736  51.548 -14.865  1.00  0.00     0.118 C 
HETATM   15  C24 UNL     1      -0.712  51.047 -14.975  1.00  0.00     0.039 C 
HETATM   16  C25 UNL     1      -1.292  51.181 -16.399  1.00  0.00     0.025 C 
HETATM   17  C26 UNL     1      -2.711  50.593 -16.497  1.00  0.00     0.126 C 
HETATM   18  C27 UNL     1      -3.322  50.827 -17.881  1.00  0.00     0.071 C 
HETATM   19  C28 UNL     1      -2.450  50.262 -19.008  1.00  0.00     0.071 C 
ENDROOT
BRANCH   1  20
HETATM   20  C2  UNL     1      -2.635  50.527 -24.250  1.00  0.00     0.011 C 
HETATM   21  C1  UNL     1      -2.702  49.031 -24.608  1.00  0.00     0.015 C 
BRANCH  20  22
HETATM   22  C3  UNL     1      -1.377  51.184 -24.772  1.00  0.00    -0.026 C 
HETATM   23  C4  UNL     1      -0.595  50.749 -25.772  1.00  0.00    -0.026 C 
BRANCH  23  24
HETATM   24  C5  UNL     1       0.680  51.435 -26.205  1.00  0.00     0.009 C 
HETATM   25  C6  UNL     1       0.748  51.414 -27.736  1.00  0.00     0.014 C 
BRANCH  24  26
HETATM   26  C7  UNL     1       0.829  52.851 -25.585  1.00  0.00     0.012 C 
HETATM   27  C8  UNL     1       0.593  52.899 -24.070  1.00  0.00     0.012 C 
BRANCH  26  28
HETATM   28  C9  UNL     1      -0.083  53.865 -26.295  1.00  0.00     0.168 C 
BRANCH  28  29
HETATM   29  O1  UNL     1       0.276  55.189 -25.921  1.00  0.00    -0.400 OA
HETATM   30  H17 UNL     1      -0.340  55.789 -26.371  1.00  0.00     0.209 HD
ENDBRANCH  28  29
ENDBRANCH  26  28
ENDBRANCH  24  26
ENDBRANCH  23  24
ENDBRANCH  20  22
ENDBRANCH   1  20
BRANCH   2  31
HETATM   31  O2  UNL     1      -5.071  49.319 -22.920  1.00  0.00    -0.393 OA
HETATM   32  H20 UNL     1      -5.094  48.620 -22.232  1.00  0.00     0.210 HD
ENDBRANCH   2  31
BRANCH   3  33
HETATM   33  O3  UNL     1      -4.788  48.972 -20.371  1.00  0.00    -0.392 OA
HETATM   34  H22 UNL     1      -5.649  49.026 -19.927  1.00  0.00     0.210 HD
ENDBRANCH   3  33
BRANCH  19  35
HETATM   35  O6  UNL     1      -2.463  48.851 -18.848  1.00  0.00    -0.389 OA
HETATM   36  H48 UNL     1      -3.285  48.512 -19.260  1.00  0.00     0.210 HD
ENDBRANCH  19  35
BRANCH  17  37
HETATM   37  O5  UNL     1      -3.570  51.216 -15.533  1.00  0.00    -0.395 OA
HETATM   38  H45 UNL     1      -3.516  52.181 -15.664  1.00  0.00     0.210 HD
ENDBRANCH  17  37
BRANCH  14  39
HETATM   39  O4  UNL     1       1.596  50.447 -14.575  1.00  0.00    -0.396 OA
HETATM   40  H40 UNL     1       2.501  50.794 -14.478  1.00  0.00     0.210 HD
ENDBRANCH  14  39
TORSDOF 11
ENDMDL
MODEL 7
REMARK minimizedAffinity -9.22175694
REMARK  11 active torsions:
REMARK  status: ('A' for Active; 'I' for Inactive)
REMARK    1  A    between atoms: C2_2  and  C3_3 
REMARK    2  A    between atoms: C2_2  and  C10_11 
REMARK    3  A    between atoms: C4_4  and  C5_5 
REMARK    4  A    between atoms: C5_5  and  C7_7 
REMARK    5  A    between atoms: C7_7  and  C9_9 
REMARK    6  A    between atoms: C9_9  and  O1_10 
REMARK    7  A    between atoms: C11_12  and  O2_13 
REMARK    8  A    between atoms: C12_14  and  O3_15 
REMARK    9  A    between atoms: C23_26  and  O4_27 
REMARK   10  A    between atoms: C26_30  and  O5_31 
REMARK   11  A    between atoms: C28_33  and  O6_34 
ROOT
HETATM    1  C10 UNL     1      -3.376  49.744 -22.445  1.00  0.00     0.033 C 
HETATM    2  C11 UNL     1      -4.040  50.079 -21.073  1.00  0.00     0.152 C 
HETATM    3  C12 UNL     1      -5.515  49.593 -21.178  1.00  0.00     0.155 C 
HETATM    4  C13 UNL     1      -5.580  48.886 -22.533  1.00  0.00     0.060 C 
HETATM    5  C14 UNL     1      -4.586  49.683 -23.435  1.00  0.00    -0.028 C 
HETATM    6  C15 UNL     1      -5.054  51.092 -23.872  1.00  0.00     0.016 C 
HETATM    7  C16 UNL     1      -4.346  48.840 -24.699  1.00  0.00     0.011 C 
HETATM    8  C17 UNL     1      -5.667  48.508 -25.423  1.00  0.00     0.009 C 
HETATM    9  C18 UNL     1      -6.683  47.782 -24.499  1.00  0.00     0.029 C 
HETATM   10  C19 UNL     1      -7.992  47.285 -25.230  1.00  0.00    -0.031 C 
HETATM   11  C20 UNL     1      -8.764  48.470 -25.869  1.00  0.00     0.016 C 
HETATM   12  C21 UNL     1      -7.616  46.292 -26.382  1.00  0.00     0.012 C 
HETATM   13  C22 UNL     1      -8.460  45.010 -26.447  1.00  0.00     0.032 C 
HETATM   14  C23 UNL     1      -9.936  45.228 -26.139  1.00  0.00     0.118 C 
HETATM   15  C24 UNL     1     -10.171  45.972 -24.816  1.00  0.00     0.039 C 
HETATM   16  C25 UNL     1      -8.870  46.519 -24.191  1.00  0.00     0.025 C 
HETATM   17  C26 UNL     1      -9.147  47.331 -22.913  1.00  0.00     0.126 C 
HETATM   18  C27 UNL     1      -7.847  47.778 -22.238  1.00  0.00     0.071 C 
HETATM   19  C28 UNL     1      -6.948  48.587 -23.180  1.00  0.00     0.071 C 
ENDROOT
BRANCH   1  20
HETATM   20  C2  UNL     1      -2.059  50.473 -22.835  1.00  0.00     0.011 C 
HETATM   21  C1  UNL     1      -2.147  51.969 -22.487  1.00  0.00     0.015 C 
BRANCH  20  22
HETATM   22  C3  UNL     1      -1.490  50.239 -24.216  1.00  0.00    -0.026 C 
HETATM   23  C4  UNL     1      -0.841  51.129 -24.982  1.00  0.00    -0.026 C 
BRANCH  23  24
HETATM   24  C5  UNL     1      -0.344  50.835 -26.379  1.00  0.00     0.009 C 
HETATM   25  C6  UNL     1      -1.536  50.894 -27.341  1.00  0.00     0.014 C 
BRANCH  24  26
HETATM   26  C7  UNL     1       0.845  51.746 -26.788  1.00  0.00     0.012 C 
HETATM   27  C8  UNL     1       0.915  52.046 -28.291  1.00  0.00     0.012 C 
BRANCH  26  28
HETATM   28  C9  UNL     1       2.181  51.161 -26.303  1.00  0.00     0.168 C 
BRANCH  28  29
HETATM   29  O1  UNL     1       3.219  51.494 -27.216  1.00  0.00    -0.400 OA
HETATM   30  H17 UNL     1       4.033  51.084 -26.884  1.00  0.00     0.209 HD
ENDBRANCH  28  29
ENDBRANCH  26  28
ENDBRANCH  24  26
ENDBRANCH  23  24
ENDBRANCH  20  22
ENDBRANCH   1  20
BRANCH   2  31
HETATM   31  O2  UNL     1      -3.984  51.447 -20.712  1.00  0.00    -0.393 OA
HETATM   32  H20 UNL     1      -4.887  51.806 -20.841  1.00  0.00     0.210 HD
ENDBRANCH   2  31
BRANCH   3  33
HETATM   33  O3  UNL     1      -6.427  50.694 -21.112  1.00  0.00    -0.392 OA
HETATM   34  H22 UNL     1      -6.897  50.615 -20.266  1.00  0.00     0.210 HD
ENDBRANCH   3  33
BRANCH  19  35
HETATM   35  O6  UNL     1      -7.643  49.796 -23.448  1.00  0.00    -0.389 OA
HETATM   36  H48 UNL     1      -7.477  50.407 -22.699  1.00  0.00     0.210 HD
ENDBRANCH  19  35
BRANCH  17  37
HETATM   37  O5  UNL     1      -9.872  46.532 -21.969  1.00  0.00    -0.395 OA
HETATM   38  H45 UNL     1      -9.374  45.706 -21.830  1.00  0.00     0.210 HD
ENDBRANCH  17  37
BRANCH  14  39
HETATM   39  O4  UNL     1     -10.546  45.957 -27.205  1.00  0.00    -0.396 OA
HETATM   40  H40 UNL     1     -10.412  45.451 -28.026  1.00  0.00     0.210 HD
ENDBRANCH  14  39
TORSDOF 11
ENDMDL
MODEL 8
REMARK minimizedAffinity -9.16008186
REMARK  11 active torsions:
REMARK  status: ('A' for Active; 'I' for Inactive)
REMARK    1  A    between atoms: C2_2  and  C3_3 
REMARK    2  A    between atoms: C2_2  and  C10_11 
REMARK    3  A    between atoms: C4_4  and  C5_5 
REMARK    4  A    between atoms: C5_5  and  C7_7 
REMARK    5  A    between atoms: C7_7  and  C9_9 
REMARK    6  A    between atoms: C9_9  and  O1_10 
REMARK    7  A    between atoms: C11_12  and  O2_13 
REMARK    8  A    between atoms: C12_14  and  O3_15 
REMARK    9  A    between atoms: C23_26  and  O4_27 
REMARK   10  A    between atoms: C26_30  and  O5_31 
REMARK   11  A    between atoms: C28_33  and  O6_34 
ROOT
HETATM    1  C10 UNL     1      -2.452  49.410 -24.998  1.00  0.00     0.033 C 
HETATM    2  C11 UNL     1      -1.911  50.691 -25.707  1.00  0.00     0.152 C 
HETATM    3  C12 UNL     1      -1.336  51.598 -24.580  1.00  0.00     0.155 C 
HETATM    4  C13 UNL     1      -1.446  50.740 -23.318  1.00  0.00     0.060 C 
HETATM    5  C14 UNL     1      -2.738  49.891 -23.537  1.00  0.00    -0.028 C 
HETATM    6  C15 UNL     1      -4.077  50.660 -23.427  1.00  0.00     0.016 C 
HETATM    7  C16 UNL     1      -2.733  48.776 -22.476  1.00  0.00     0.011 C 
HETATM    8  C17 UNL     1      -2.635  49.349 -21.048  1.00  0.00     0.009 C 
HETATM    9  C18 UNL     1      -1.388  50.255 -20.855  1.00  0.00     0.029 C 
HETATM   10  C19 UNL     1      -1.159  50.745 -19.371  1.00  0.00    -0.031 C 
HETATM   11  C20 UNL     1      -2.369  51.567 -18.856  1.00  0.00     0.016 C 
HETATM   12  C21 UNL     1      -0.990  49.510 -18.422  1.00  0.00     0.012 C 
HETATM   13  C22 UNL     1       0.177  49.600 -17.427  1.00  0.00     0.032 C 
HETATM   14  C23 UNL     1       0.380  50.992 -16.840  1.00  0.00     0.118 C 
HETATM   15  C24 UNL     1       0.488  52.087 -17.911  1.00  0.00     0.039 C 
HETATM   16  C25 UNL     1       0.162  51.577 -19.332  1.00  0.00     0.025 C 
HETATM   17  C26 UNL     1       0.195  52.714 -20.369  1.00  0.00     0.126 C 
HETATM   18  C27 UNL     1      -0.021  52.185 -21.790  1.00  0.00     0.071 C 
HETATM   19  C28 UNL     1      -1.329  51.398 -21.927  1.00  0.00     0.071 C 
ENDROOT
BRANCH   1  20
HETATM   20  C2  UNL     1      -3.466  48.509 -25.758  1.00  0.00     0.011 C 
HETATM   21  C1  UNL     1      -3.205  48.561 -27.273  1.00  0.00     0.015 C 
BRANCH  20  22
HETATM   22  C3  UNL     1      -4.935  48.643 -25.425  1.00  0.00    -0.026 C 
HETATM   23  C4  UNL     1      -5.659  47.836 -24.635  1.00  0.00    -0.026 C 
BRANCH  23  24
HETATM   24  C5  UNL     1      -7.141  48.005 -24.390  1.00  0.00     0.009 C 
HETATM   25  C6  UNL     1      -7.869  46.771 -24.935  1.00  0.00     0.014 C 
BRANCH  24  26
HETATM   26  C7  UNL     1      -7.462  48.324 -22.904  1.00  0.00     0.012 C 
HETATM   27  C8  UNL     1      -8.668  47.556 -22.346  1.00  0.00     0.012 C 
BRANCH  26  28
HETATM   28  C9  UNL     1      -7.652  49.834 -22.692  1.00  0.00     0.168 C 
BRANCH  28  29
HETATM   29  O1  UNL     1      -6.959  50.253 -21.523  1.00  0.00    -0.400 OA
HETATM   30  H17 UNL     1      -7.129  51.202 -21.416  1.00  0.00     0.209 HD
ENDBRANCH  28  29
ENDBRANCH  26  28
ENDBRANCH  24  26
ENDBRANCH  23  24
ENDBRANCH  20  22
ENDBRANCH   1  20
BRANCH   2  31
HETATM   31  O2  UNL     1      -2.875  51.390 -26.474  1.00  0.00    -0.393 OA
HETATM   32  H20 UNL     1      -3.107  52.194 -25.963  1.00  0.00     0.210 HD
ENDBRANCH   2  31
BRANCH   3  33
HETATM   33  O3  UNL     1      -2.085  52.811 -24.461  1.00  0.00    -0.392 OA
HETATM   34  H22 UNL     1      -1.504  53.528 -24.762  1.00  0.00     0.210 HD
ENDBRANCH   3  33
BRANCH  19  35
HETATM   35  O6  UNL     1      -2.377  52.337 -21.735  1.00  0.00    -0.389 OA
HETATM   36  H48 UNL     1      -2.520  52.802 -22.586  1.00  0.00     0.210 HD
ENDBRANCH  19  35
BRANCH  17  37
HETATM   37  O5  UNL     1       1.470  53.369 -20.341  1.00  0.00    -0.395 OA
HETATM   38  H45 UNL     1       2.160  52.689 -20.455  1.00  0.00     0.210 HD
ENDBRANCH  17  37
BRANCH  14  39
HETATM   39  O4  UNL     1      -0.698  51.301 -15.957  1.00  0.00    -0.396 OA
HETATM   40  H40 UNL     1      -0.726  50.612 -15.269  1.00  0.00     0.210 HD
ENDBRANCH  14  39
TORSDOF 11
ENDMDL
MODEL 9
REMARK minimizedAffinity -9.15825653
REMARK  11 active torsions:
REMARK  status: ('A' for Active; 'I' for Inactive)
REMARK    1  A    between atoms: C2_2  and  C3_3 
REMARK    2  A    between atoms: C2_2  and  C10_11 
REMARK    3  A    between atoms: C4_4  and  C5_5 
REMARK    4  A    between atoms: C5_5  and  C7_7 
REMARK    5  A    between atoms: C7_7  and  C9_9 
REMARK    6  A    between atoms: C9_9  and  O1_10 
REMARK    7  A    between atoms: C11_12  and  O2_13 
REMARK    8  A    between atoms: C12_14  and  O3_15 
REMARK    9  A    between atoms: C23_26  and  O4_27 
REMARK   10  A    between atoms: C26_30  and  O5_31 
REMARK   11  A    between atoms: C28_33  and  O6_34 
ROOT
HETATM    1  C10 UNL     1      -3.384  49.269 -22.934  1.00  0.00     0.033 C 
HETATM    2  C11 UNL     1      -4.160  49.732 -21.662  1.00  0.00     0.152 C 
HETATM    3  C12 UNL     1      -5.659  49.411 -21.929  1.00  0.00     0.155 C 
HETATM    4  C13 UNL     1      -5.649  48.660 -23.262  1.00  0.00     0.060 C 
HETATM    5  C14 UNL     1      -4.470  49.303 -24.060  1.00  0.00    -0.028 C 
HETATM    6  C15 UNL     1      -4.717  50.737 -24.589  1.00  0.00     0.016 C 
HETATM    7  C16 UNL     1      -4.184  48.387 -25.262  1.00  0.00     0.011 C 
HETATM    8  C17 UNL     1      -5.442  48.175 -26.130  1.00  0.00     0.009 C 
HETATM    9  C18 UNL     1      -6.636  47.606 -25.315  1.00  0.00     0.029 C 
HETATM   10  C19 UNL     1      -7.900  47.230 -26.184  1.00  0.00    -0.031 C 
HETATM   11  C20 UNL     1      -8.450  48.466 -26.943  1.00  0.00     0.016 C 
HETATM   12  C21 UNL     1      -7.510  46.154 -27.255  1.00  0.00     0.012 C 
HETATM   13  C22 UNL     1      -8.484  44.973 -27.385  1.00  0.00     0.032 C 
HETATM   14  C23 UNL     1      -9.951  45.367 -27.263  1.00  0.00     0.118 C 
HETATM   15  C24 UNL     1     -10.250  46.186 -25.999  1.00  0.00     0.039 C 
HETATM   16  C25 UNL     1      -8.976  46.610 -25.237  1.00  0.00     0.025 C 
HETATM   17  C26 UNL     1      -9.303  47.500 -24.025  1.00  0.00     0.126 C 
HETATM   18  C27 UNL     1      -8.047  47.826 -23.211  1.00  0.00     0.071 C 
HETATM   19  C28 UNL     1      -6.957  48.489 -24.060  1.00  0.00     0.071 C 
ENDROOT
BRANCH   1  20
HETATM   20  C2  UNL     1      -1.955  49.829 -23.182  1.00  0.00     0.011 C 
HETATM   21  C1  UNL     1      -1.167  49.900 -21.863  1.00  0.00     0.015 C 
BRANCH  20  22
HETATM   22  C3  UNL     1      -1.811  51.089 -24.004  1.00  0.00    -0.026 C 
HETATM   23  C4  UNL     1      -0.932  51.311 -24.993  1.00  0.00    -0.026 C 
BRANCH  23  24
HETATM   24  C5  UNL     1      -0.814  52.621 -25.738  1.00  0.00     0.009 C 
HETATM   25  C6  UNL     1       0.245  53.483 -25.042  1.00  0.00     0.014 C 
BRANCH  24  26
HETATM   26  C7  UNL     1      -0.564  52.417 -27.257  1.00  0.00     0.012 C 
HETATM   27  C8  UNL     1       0.697  51.605 -27.581  1.00  0.00     0.012 C 
BRANCH  26  28
HETATM   28  C9  UNL     1      -0.531  53.764 -27.997  1.00  0.00     0.168 C 
BRANCH  28  29
HETATM   29  O1  UNL     1      -1.849  54.150 -28.366  1.00  0.00    -0.400 OA
HETATM   30  H17 UNL     1      -1.775  54.988 -28.850  1.00  0.00     0.209 HD
ENDBRANCH  28  29
ENDBRANCH  26  28
ENDBRANCH  24  26
ENDBRANCH  23  24
ENDBRANCH  20  22
ENDBRANCH   1  20
BRANCH   2  31
HETATM   31  O2  UNL     1      -3.988  51.099 -21.334  1.00  0.00    -0.393 OA
HETATM   32  H20 UNL     1      -4.822  51.551 -21.580  1.00  0.00     0.210 HD
ENDBRANCH   2  31
BRANCH   3  33
HETATM   33  O3  UNL     1      -6.439  50.608 -22.003  1.00  0.00    -0.392 OA
HETATM   34  H22 UNL     1      -7.010  50.618 -21.219  1.00  0.00     0.210 HD
ENDBRANCH   3  33
BRANCH  19  35
HETATM   35  O6  UNL     1      -7.472  49.757 -24.443  1.00  0.00    -0.389 OA
HETATM   36  H48 UNL     1      -7.324  50.375 -23.697  1.00  0.00     0.210 HD
ENDBRANCH  19  35
BRANCH  17  37
HETATM   37  O5  UNL     1     -10.221  46.827 -23.153  1.00  0.00    -0.395 OA
HETATM   38  H45 UNL     1      -9.841  45.956 -22.932  1.00  0.00     0.210 HD
ENDBRANCH  17  37
BRANCH  14  39
HETATM   39  O4  UNL     1     -10.344  46.115 -28.414  1.00  0.00    -0.396 OA
HETATM   40  H40 UNL     1     -10.175  45.564 -29.199  1.00  0.00     0.210 HD
ENDBRANCH  14  39
TORSDOF 11
ENDMDL
