MODEL 1
REMARK minimizedAffinity -8.71297455
REMARK  6 active torsions:
REMARK  status: ('A' for Active; 'I' for Inactive)
REMARK    1  A    between atoms: C4_4  and  C5_5 
REMARK    2  A    between atoms: C5_5  and  C6_6 
REMARK    3  A    between atoms: C6_6  and  C7_7 
REMARK    4  A    between atoms: C7_7  and  C9_9 
REMARK    5  A    between atoms: C12_12  and  C13_13 
REMARK    6  A    between atoms: C13_13  and  O2_15 
ROOT
HETATM    1  C9  UNL     1      -1.169   6.103  12.077  1.00  0.00    -0.001 C 
HETATM    2  C10 UNL     1      -1.746   7.198  13.017  1.00  0.00     0.007 C 
HETATM    3  C11 UNL     1      -0.593   8.175  13.320  1.00  0.00     0.026 C 
HETATM    4  C12 UNL     1       0.473   7.856  12.249  1.00  0.00     0.076 C 
HETATM    5  C14 UNL     1       1.915   8.305  12.460  1.00  0.00    -0.057 C 
HETATM    6  C15 UNL     1       2.937   7.597  11.915  1.00  0.00    -0.067 C 
HETATM    7  C16 UNL     1       2.690   6.294  11.144  1.00  0.00     0.036 C 
HETATM    8  C17 UNL     1       1.251   5.738  11.092  1.00  0.00     0.015 C 
HETATM    9  C18 UNL     1       0.372   6.281  12.225  1.00  0.00    -0.018 C 
HETATM   10  C19 UNL     1       0.881   5.628  13.547  1.00  0.00     0.017 C 
HETATM   11  C20 UNL     1       4.415   8.049  12.078  1.00  0.00    -0.015 C 
HETATM   12  C21 UNL     1       4.970   7.232  13.269  1.00  0.00     0.020 C 
HETATM   13  C22 UNL     1       5.251   7.744  10.809  1.00  0.00     0.021 C 
HETATM   14  C23 UNL     1       6.678   8.260  10.888  1.00  0.00     0.080 C 
HETATM   15  C24 UNL     1       6.715   9.746  11.140  1.00  0.00     0.135 C 
HETATM   16  O3  UNL     1       7.511  10.449  10.511  1.00  0.00    -0.297 OA
HETATM   17  C25 UNL     1       5.845  10.312  12.275  1.00  0.00     0.018 C 
HETATM   18  C26 UNL     1       6.638  10.203  13.584  1.00  0.00     0.023 C 
HETATM   19  C27 UNL     1       5.646  11.824  11.988  1.00  0.00     0.023 C 
HETATM   20  C28 UNL     1       4.445   9.609  12.281  1.00  0.00     0.013 C 
HETATM   21  C29 UNL     1       3.561   9.994  13.479  1.00  0.00     0.011 C 
HETATM   22  C30 UNL     1       2.108   9.586  13.238  1.00  0.00     0.036 C 
ENDROOT
BRANCH   1  23
HETATM   23  C7  UNL     1      -1.883   4.723  12.197  1.00  0.00    -0.014 C 
HETATM   24  C8  UNL     1      -1.591   3.714  11.082  1.00  0.00     0.010 C 
BRANCH  23  25
HETATM   25  C6  UNL     1      -3.406   4.903  12.418  1.00  0.00     0.008 C 
BRANCH  25  26
HETATM   26  C5  UNL     1      -4.303   3.972  11.588  1.00  0.00     0.028 C 
BRANCH  26  27
HETATM   27  C4  UNL     1      -5.626   3.657  12.226  1.00  0.00    -0.025 C 
HETATM   28  C2  UNL     1      -6.375   2.545  12.090  1.00  0.00    -0.091 C 
HETATM   29  C1  UNL     1      -6.037   1.368  11.217  1.00  0.00     0.042 C 
HETATM   30  C3  UNL     1      -7.671   2.397  12.844  1.00  0.00     0.042 C 
ENDBRANCH  26  27
ENDBRANCH  25  26
ENDBRANCH  23  25
ENDBRANCH   1  23
BRANCH   4  31
HETATM   31  C13 UNL     1       0.061   8.562  10.919  1.00  0.00     0.153 C 
HETATM   32  O1  UNL     1       0.665   8.579   9.859  1.00  0.00    -0.649 OA
BRANCH  31  33
HETATM   33  O2  UNL     1      -1.074   9.289  11.012  1.00  0.00    -0.776 OA
HETATM   34  H21 UNL     1      -1.152   9.700  10.124  1.00  0.00     0.167 HD
ENDBRANCH  31  33
ENDBRANCH   4  31
TORSDOF 6
ENDMDL
MODEL 2
REMARK minimizedAffinity -8.70624638
REMARK  6 active torsions:
REMARK  status: ('A' for Active; 'I' for Inactive)
REMARK    1  A    between atoms: C4_4  and  C5_5 
REMARK    2  A    between atoms: C5_5  and  C6_6 
REMARK    3  A    between atoms: C6_6  and  C7_7 
REMARK    4  A    between atoms: C7_7  and  C9_9 
REMARK    5  A    between atoms: C12_12  and  C13_13 
REMARK    6  A    between atoms: C13_13  and  O2_15 
ROOT
HETATM    1  C9  UNL     1      -3.008   7.625  14.369  1.00  0.00    -0.001 C 
HETATM    2  C10 UNL     1      -2.450   7.649  15.820  1.00  0.00     0.007 C 
HETATM    3  C11 UNL     1      -0.915   7.730  15.703  1.00  0.00     0.026 C 
HETATM    4  C12 UNL     1      -0.663   8.155  14.240  1.00  0.00     0.076 C 
HETATM    5  C14 UNL     1       0.713   7.939  13.617  1.00  0.00    -0.057 C 
HETATM    6  C15 UNL     1       0.832   7.734  12.280  1.00  0.00    -0.067 C 
HETATM    7  C16 UNL     1      -0.399   7.635  11.370  1.00  0.00     0.036 C 
HETATM    8  C17 UNL     1      -1.796   7.663  12.026  1.00  0.00     0.015 C 
HETATM    9  C18 UNL     1      -1.754   7.280  13.510  1.00  0.00    -0.018 C 
HETATM   10  C19 UNL     1      -1.441   5.753  13.576  1.00  0.00     0.017 C 
HETATM   11  C20 UNL     1       2.221   7.550  11.608  1.00  0.00    -0.015 C 
HETATM   12  C21 UNL     1       2.425   6.021  11.489  1.00  0.00     0.020 C 
HETATM   13  C22 UNL     1       2.263   8.188  10.196  1.00  0.00     0.021 C 
HETATM   14  C23 UNL     1       3.634   8.117   9.543  1.00  0.00     0.080 C 
HETATM   15  C24 UNL     1       4.687   8.776  10.398  1.00  0.00     0.135 C 
HETATM   16  O3  UNL     1       5.530   9.505   9.868  1.00  0.00    -0.297 OA
HETATM   17  C25 UNL     1       4.751   8.402  11.888  1.00  0.00     0.018 C 
HETATM   18  C26 UNL     1       5.613   7.141  12.028  1.00  0.00     0.023 C 
HETATM   19  C27 UNL     1       5.501   9.548  12.616  1.00  0.00     0.023 C 
HETATM   20  C28 UNL     1       3.304   8.291  12.477  1.00  0.00     0.013 C 
HETATM   21  C29 UNL     1       3.258   7.766  13.921  1.00  0.00     0.011 C 
HETATM   22  C30 UNL     1       1.893   8.031  14.556  1.00  0.00     0.036 C 
ENDROOT
BRANCH   1  23
HETATM   23  C7  UNL     1      -4.371   6.884  14.225  1.00  0.00    -0.014 C 
HETATM   24  C8  UNL     1      -5.056   6.472  15.532  1.00  0.00     0.010 C 
BRANCH  23  25
HETATM   25  C6  UNL     1      -4.254   5.692  13.242  1.00  0.00     0.008 C 
BRANCH  25  26
HETATM   26  C5  UNL     1      -5.549   4.893  13.025  1.00  0.00     0.028 C 
BRANCH  26  27
HETATM   27  C4  UNL     1      -5.378   3.656  12.191  1.00  0.00    -0.025 C 
HETATM   28  C2  UNL     1      -6.214   2.604  12.077  1.00  0.00    -0.091 C 
HETATM   29  C1  UNL     1      -7.516   2.442  12.812  1.00  0.00     0.042 C 
HETATM   30  C3  UNL     1      -5.883   1.459  11.156  1.00  0.00     0.042 C 
ENDBRANCH  26  27
ENDBRANCH  25  26
ENDBRANCH  23  25
ENDBRANCH   1  23
BRANCH   4  31
HETATM   31  C13 UNL     1      -0.875   9.697  14.131  1.00  0.00     0.153 C 
HETATM   32  O1  UNL     1      -0.691  10.545  14.990  1.00  0.00    -0.649 OA
BRANCH  31  33
HETATM   33  O2  UNL     1      -1.392  10.098  12.948  1.00  0.00    -0.776 OA
HETATM   34  H21 UNL     1      -1.511  11.065  13.070  1.00  0.00     0.167 HD
ENDBRANCH  31  33
ENDBRANCH   4  31
TORSDOF 6
ENDMDL
MODEL 3
REMARK minimizedAffinity -8.68576336
REMARK  6 active torsions:
REMARK  status: ('A' for Active; 'I' for Inactive)
REMARK    1  A    between atoms: C4_4  and  C5_5 
REMARK    2  A    between atoms: C5_5  and  C6_6 
REMARK    3  A    between atoms: C6_6  and  C7_7 
REMARK    4  A    between atoms: C7_7  and  C9_9 
REMARK    5  A    between atoms: C12_12  and  C13_13 
REMARK    6  A    between atoms: C13_13  and  O2_15 
ROOT
HETATM    1  C9  UNL     1      -2.297   4.973  12.886  1.00  0.00    -0.001 C 
HETATM    2  C10 UNL     1      -1.436   5.580  11.743  1.00  0.00     0.007 C 
HETATM    3  C11 UNL     1      -1.100   7.026  12.160  1.00  0.00     0.026 C 
HETATM    4  C12 UNL     1      -1.419   7.074  13.670  1.00  0.00     0.076 C 
HETATM    5  C14 UNL     1      -1.619   8.420  14.358  1.00  0.00    -0.057 C 
HETATM    6  C15 UNL     1      -2.433   8.520  15.441  1.00  0.00    -0.067 C 
HETATM    7  C16 UNL     1      -3.230   7.316  15.959  1.00  0.00     0.036 C 
HETATM    8  C17 UNL     1      -3.176   6.002  15.151  1.00  0.00     0.015 C 
HETATM    9  C18 UNL     1      -2.750   6.226  13.695  1.00  0.00    -0.018 C 
HETATM   10  C19 UNL     1      -3.934   6.949  12.982  1.00  0.00     0.017 C 
HETATM   11  C20 UNL     1      -2.627   9.867  16.189  1.00  0.00    -0.015 C 
HETATM   12  C21 UNL     1      -3.929  10.476  15.613  1.00  0.00     0.020 C 
HETATM   13  C22 UNL     1      -2.786   9.658  17.716  1.00  0.00     0.021 C 
HETATM   14  C23 UNL     1      -2.880  10.959  18.496  1.00  0.00     0.080 C 
HETATM   15  C24 UNL     1      -1.677  11.835  18.255  1.00  0.00     0.135 C 
HETATM   16  O3  UNL     1      -1.149  12.417  19.207  1.00  0.00    -0.297 OA
HETATM   17  C25 UNL     1      -1.235  12.078  16.803  1.00  0.00     0.018 C 
HETATM   18  C26 UNL     1      -2.043  13.260  16.249  1.00  0.00     0.023 C 
HETATM   19  C27 UNL     1       0.251  12.524  16.845  1.00  0.00     0.023 C 
HETATM   20  C28 UNL     1      -1.342  10.751  15.979  1.00  0.00     0.013 C 
HETATM   21  C29 UNL     1      -1.073  10.927  14.476  1.00  0.00     0.011 C 
HETATM   22  C30 UNL     1      -0.823   9.578  13.803  1.00  0.00     0.036 C 
ENDROOT
BRANCH   1  23
HETATM   23  C7  UNL     1      -3.281   3.860  12.417  1.00  0.00    -0.014 C 
HETATM   24  C8  UNL     1      -3.449   3.703  10.902  1.00  0.00     0.010 C 
BRANCH  23  25
HETATM   25  C6  UNL     1      -4.650   3.990  13.132  1.00  0.00     0.008 C 
BRANCH  25  26
HETATM   26  C5  UNL     1      -5.843   3.380  12.379  1.00  0.00     0.028 C 
BRANCH  26  27
HETATM   27  C4  UNL     1      -7.028   4.294  12.255  1.00  0.00    -0.025 C 
HETATM   28  C2  UNL     1      -7.713   4.910  13.239  1.00  0.00    -0.091 C 
HETATM   29  C1  UNL     1      -7.435   4.776  14.711  1.00  0.00     0.042 C 
HETATM   30  C3  UNL     1      -8.866   5.824  12.913  1.00  0.00     0.042 C 
ENDBRANCH  26  27
ENDBRANCH  25  26
ENDBRANCH  23  25
ENDBRANCH   1  23
BRANCH   4  31
HETATM   31  C13 UNL     1      -0.222   6.441  14.447  1.00  0.00     0.153 C 
HETATM   32  O1  UNL     1       0.971   6.566  14.221  1.00  0.00    -0.649 OA
BRANCH  31  33
HETATM   33  O2  UNL     1      -0.593   5.604  15.441  1.00  0.00    -0.776 OA
HETATM   34  H21 UNL     1       0.263   5.261  15.777  1.00  0.00     0.167 HD
ENDBRANCH  31  33
ENDBRANCH   4  31
TORSDOF 6
ENDMDL
MODEL 4
REMARK minimizedAffinity -8.51923752
REMARK  6 active torsions:
REMARK  status: ('A' for Active; 'I' for Inactive)
REMARK    1  A    between atoms: C4_4  and  C5_5 
REMARK    2  A    between atoms: C5_5  and  C6_6 
REMARK    3  A    between atoms: C6_6  and  C7_7 
REMARK    4  A    between atoms: C7_7  and  C9_9 
REMARK    5  A    between atoms: C12_12  and  C13_13 
REMARK    6  A    between atoms: C13_13  and  O2_15 
ROOT
HETATM    1  C9  UNL     1      -2.273   6.935  13.452  1.00  0.00    -0.001 C 
HETATM    2  C10 UNL     1      -3.582   7.475  12.812  1.00  0.00     0.007 C 
HETATM    3  C11 UNL     1      -3.955   8.758  13.581  1.00  0.00     0.026 C 
HETATM    4  C12 UNL     1      -2.669   9.135  14.346  1.00  0.00     0.076 C 
HETATM    5  C14 UNL     1      -2.748  10.089  15.534  1.00  0.00    -0.057 C 
HETATM    6  C15 UNL     1      -1.846   9.996  16.546  1.00  0.00    -0.067 C 
HETATM    7  C16 UNL     1      -0.778   8.896  16.570  1.00  0.00     0.036 C 
HETATM    8  C17 UNL     1      -0.816   7.816  15.468  1.00  0.00     0.015 C 
HETATM    9  C18 UNL     1      -2.195   7.703  14.807  1.00  0.00    -0.018 C 
HETATM   10  C19 UNL     1      -3.152   7.065  15.861  1.00  0.00     0.017 C 
HETATM   11  C20 UNL     1      -1.874  10.977  17.750  1.00  0.00    -0.015 C 
HETATM   12  C21 UNL     1      -2.652  10.240  18.867  1.00  0.00     0.020 C 
HETATM   13  C22 UNL     1      -0.446  11.312  18.251  1.00  0.00     0.021 C 
HETATM   14  C23 UNL     1      -0.424  12.345  19.364  1.00  0.00     0.080 C 
HETATM   15  C24 UNL     1      -1.097  13.627  18.942  1.00  0.00     0.135 C 
HETATM   16  O3  UNL     1      -0.576  14.709  19.230  1.00  0.00    -0.297 OA
HETATM   17  C25 UNL     1      -2.482  13.537  18.282  1.00  0.00     0.018 C 
HETATM   18  C26 UNL     1      -3.539  13.503  19.394  1.00  0.00     0.023 C 
HETATM   19  C27 UNL     1      -2.698  14.853  17.490  1.00  0.00     0.023 C 
HETATM   20  C28 UNL     1      -2.524  12.332  17.283  1.00  0.00     0.013 C 
HETATM   21  C29 UNL     1      -3.917  12.062  16.691  1.00  0.00     0.011 C 
HETATM   22  C30 UNL     1      -3.825  11.146  15.471  1.00  0.00     0.036 C 
ENDROOT
BRANCH   1  23
HETATM   23  C7  UNL     1      -2.099   5.391  13.336  1.00  0.00    -0.014 C 
HETATM   24  C8  UNL     1      -1.431   4.882  12.055  1.00  0.00     0.010 C 
BRANCH  23  25
HETATM   25  C6  UNL     1      -3.437   4.659  13.611  1.00  0.00     0.008 C 
BRANCH  25  26
HETATM   26  C5  UNL     1      -4.264   4.315  12.362  1.00  0.00     0.028 C 
BRANCH  26  27
HETATM   27  C4  UNL     1      -5.638   3.786  12.658  1.00  0.00    -0.025 C 
HETATM   28  C2  UNL     1      -6.205   2.644  12.220  1.00  0.00    -0.091 C 
HETATM   29  C1  UNL     1      -5.561   1.652  11.290  1.00  0.00     0.042 C 
HETATM   30  C3  UNL     1      -7.596   2.263  12.655  1.00  0.00     0.042 C 
ENDBRANCH  26  27
ENDBRANCH  25  26
ENDBRANCH  23  25
ENDBRANCH   1  23
BRANCH   4  31
HETATM   31  C13 UNL     1      -1.702   9.862  13.359  1.00  0.00     0.153 C 
HETATM   32  O1  UNL     1      -1.236   9.437  12.313  1.00  0.00    -0.649 OA
BRANCH  31  33
HETATM   33  O2  UNL     1      -1.300  11.081  13.781  1.00  0.00    -0.776 OA
HETATM   34  H21 UNL     1      -0.668  11.363  13.085  1.00  0.00     0.167 HD
ENDBRANCH  31  33
ENDBRANCH   4  31
TORSDOF 6
ENDMDL
MODEL 5
REMARK minimizedAffinity -8.39900875
REMARK  6 active torsions:
REMARK  status: ('A' for Active; 'I' for Inactive)
REMARK    1  A    between atoms: C4_4  and  C5_5 
REMARK    2  A    between atoms: C5_5  and  C6_6 
REMARK    3  A    between atoms: C6_6  and  C7_7 
REMARK    4  A    between atoms: C7_7  and  C9_9 
REMARK    5  A    between atoms: C12_12  and  C13_13 
REMARK    6  A    between atoms: C13_13  and  O2_15 
ROOT
HETATM    1  C9  UNL     1      -2.921   8.424  15.180  1.00  0.00    -0.001 C 
HETATM    2  C10 UNL     1      -1.875   8.030  16.261  1.00  0.00     0.007 C 
HETATM    3  C11 UNL     1      -0.548   7.770  15.520  1.00  0.00     0.026 C 
HETATM    4  C12 UNL     1      -0.756   8.401  14.127  1.00  0.00     0.076 C 
HETATM    5  C14 UNL     1       0.151   7.995  12.970  1.00  0.00    -0.057 C 
HETATM    6  C15 UNL     1      -0.311   8.033  11.693  1.00  0.00    -0.067 C 
HETATM    7  C16 UNL     1      -1.764   8.407  11.377  1.00  0.00     0.036 C 
HETATM    8  C17 UNL     1      -2.734   8.634  12.557  1.00  0.00     0.015 C 
HETATM    9  C18 UNL     1      -2.248   7.969  13.850  1.00  0.00    -0.018 C 
HETATM   10  C19 UNL     1      -2.398   6.428  13.652  1.00  0.00     0.017 C 
HETATM   11  C20 UNL     1       0.599   7.664  10.489  1.00  0.00    -0.015 C 
HETATM   12  C21 UNL     1       0.282   6.183  10.170  1.00  0.00     0.020 C 
HETATM   13  C22 UNL     1       0.289   8.537   9.247  1.00  0.00     0.021 C 
HETATM   14  C23 UNL     1       1.224   8.276   8.078  1.00  0.00     0.080 C 
HETATM   15  C24 UNL     1       2.665   8.487   8.465  1.00  0.00     0.135 C 
HETATM   16  O3  UNL     1       3.419   9.088   7.694  1.00  0.00    -0.297 OA
HETATM   17  C25 UNL     1       3.175   7.825   9.755  1.00  0.00     0.018 C 
HETATM   18  C26 UNL     1       3.613   6.394   9.416  1.00  0.00     0.023 C 
HETATM   19  C27 UNL     1       4.447   8.597  10.194  1.00  0.00     0.023 C 
HETATM   20  C28 UNL     1       2.096   7.944  10.884  1.00  0.00     0.013 C 
HETATM   21  C29 UNL     1       2.448   7.172  12.166  1.00  0.00     0.011 C 
HETATM   22  C30 UNL     1       1.570   7.621  13.333  1.00  0.00     0.036 C 
ENDROOT
BRANCH   1  23
HETATM   23  C7  UNL     1      -4.389   8.066  15.559  1.00  0.00    -0.014 C 
HETATM   24  C8  UNL     1      -4.682   6.582  15.799  1.00  0.00     0.010 C 
BRANCH  23  25
HETATM   25  C6  UNL     1      -5.390   8.689  14.553  1.00  0.00     0.008 C 
BRANCH  25  26
HETATM   26  C5  UNL     1      -6.744   7.971  14.446  1.00  0.00     0.028 C 
BRANCH  26  27
HETATM   27  C4  UNL     1      -7.839   8.592  15.267  1.00  0.00    -0.025 C 
HETATM   28  C2  UNL     1      -9.145   8.261  15.302  1.00  0.00    -0.091 C 
HETATM   29  C1  UNL     1      -9.795   7.185  14.476  1.00  0.00     0.042 C 
HETATM   30  C3  UNL     1     -10.094   8.986  16.222  1.00  0.00     0.042 C 
ENDBRANCH  26  27
ENDBRANCH  25  26
ENDBRANCH  23  25
ENDBRANCH   1  23
BRANCH   4  31
HETATM   31  C13 UNL     1      -0.529   9.941  14.245  1.00  0.00     0.153 C 
HETATM   32  O1  UNL     1       0.240  10.534  14.984  1.00  0.00    -0.649 OA
BRANCH  31  33
HETATM   33  O2  UNL     1      -1.352  10.679  13.467  1.00  0.00    -0.776 OA
HETATM   34  H21 UNL     1      -1.117  11.602  13.702  1.00  0.00     0.167 HD
ENDBRANCH  31  33
ENDBRANCH   4  31
TORSDOF 6
ENDMDL
MODEL 6
REMARK minimizedAffinity -8.24405193
REMARK  6 active torsions:
REMARK  status: ('A' for Active; 'I' for Inactive)
REMARK    1  A    between atoms: C4_4  and  C5_5 
REMARK    2  A    between atoms: C5_5  and  C6_6 
REMARK    3  A    between atoms: C6_6  and  C7_7 
REMARK    4  A    between atoms: C7_7  and  C9_9 
REMARK    5  A    between atoms: C12_12  and  C13_13 
REMARK    6  A    between atoms: C13_13  and  O2_15 
ROOT
HETATM    1  C9  UNL     1      -0.448   9.791  17.056  1.00  0.00    -0.001 C 
HETATM    2  C10 UNL     1      -1.694   9.873  16.131  1.00  0.00     0.007 C 
HETATM    3  C11 UNL     1      -1.222   9.484  14.715  1.00  0.00     0.026 C 
HETATM    4  C12 UNL     1       0.149   8.811  14.939  1.00  0.00     0.076 C 
HETATM    5  C14 UNL     1       1.119   8.667  13.771  1.00  0.00    -0.057 C 
HETATM    6  C15 UNL     1       2.459   8.649  13.995  1.00  0.00    -0.067 C 
HETATM    7  C16 UNL     1       3.041   8.847  15.401  1.00  0.00     0.036 C 
HETATM    8  C17 UNL     1       2.069   9.182  16.553  1.00  0.00     0.015 C 
HETATM    9  C18 UNL     1       0.742   9.762  16.050  1.00  0.00    -0.018 C 
HETATM   10  C19 UNL     1       1.048  11.194  15.511  1.00  0.00     0.017 C 
HETATM   11  C20 UNL     1       3.474   8.465  12.833  1.00  0.00    -0.015 C 
HETATM   12  C21 UNL     1       3.928   9.893  12.449  1.00  0.00     0.020 C 
HETATM   13  C22 UNL     1       4.705   7.632  13.273  1.00  0.00     0.021 C 
HETATM   14  C23 UNL     1       5.674   7.344  12.139  1.00  0.00     0.080 C 
HETATM   15  C24 UNL     1       4.995   6.629  10.999  1.00  0.00     0.135 C 
HETATM   16  O3  UNL     1       5.565   5.683  10.450  1.00  0.00    -0.297 OA
HETATM   17  C25 UNL     1       3.665   7.196  10.475  1.00  0.00     0.018 C 
HETATM   18  C26 UNL     1       3.984   8.276   9.434  1.00  0.00     0.023 C 
HETATM   19  C27 UNL     1       2.939   6.046   9.729  1.00  0.00     0.023 C 
HETATM   20  C28 UNL     1       2.772   7.666  11.673  1.00  0.00     0.013 C 
HETATM   21  C29 UNL     1       1.488   8.394  11.244  1.00  0.00     0.011 C 
HETATM   22  C30 UNL     1       0.499   8.490  12.405  1.00  0.00     0.036 C 
ENDROOT
BRANCH   1  23
HETATM   23  C7  UNL     1      -0.504  10.750  18.283  1.00  0.00    -0.014 C 
HETATM   24  C8  UNL     1      -1.197  12.097  18.055  1.00  0.00     0.010 C 
BRANCH  23  25
HETATM   25  C6  UNL     1       0.900  10.930  18.912  1.00  0.00     0.008 C 
BRANCH  25  26
HETATM   26  C5  UNL     1       0.923  11.033  20.445  1.00  0.00     0.028 C 
BRANCH  26  27
HETATM   27  C4  UNL     1       1.924  10.132  21.110  1.00  0.00    -0.025 C 
HETATM   28  C2  UNL     1       2.850  10.453  22.036  1.00  0.00    -0.091 C 
HETATM   29  C1  UNL     1       3.093  11.833  22.585  1.00  0.00     0.042 C 
HETATM   30  C3  UNL     1       3.753   9.395  22.615  1.00  0.00     0.042 C 
ENDBRANCH  26  27
ENDBRANCH  25  26
ENDBRANCH  23  25
ENDBRANCH   1  23
BRANCH   4  31
HETATM   31  C13 UNL     1      -0.094   7.338  15.395  1.00  0.00     0.153 C 
HETATM   32  O1  UNL     1      -0.885   6.529  14.937  1.00  0.00    -0.649 OA
BRANCH  31  33
HETATM   33  O2  UNL     1       0.629   6.972  16.477  1.00  0.00    -0.776 OA
HETATM   34  H21 UNL     1       0.318   6.059  16.657  1.00  0.00     0.167 HD
ENDBRANCH  31  33
ENDBRANCH   4  31
TORSDOF 6
ENDMDL
MODEL 7
REMARK minimizedAffinity -8.20566273
REMARK  6 active torsions:
REMARK  status: ('A' for Active; 'I' for Inactive)
REMARK    1  A    between atoms: C4_4  and  C5_5 
REMARK    2  A    between atoms: C5_5  and  C6_6 
REMARK    3  A    between atoms: C6_6  and  C7_7 
REMARK    4  A    between atoms: C7_7  and  C9_9 
REMARK    5  A    between atoms: C12_12  and  C13_13 
REMARK    6  A    between atoms: C13_13  and  O2_15 
ROOT
HETATM    1  C9  UNL     1      -1.545   5.811  12.195  1.00  0.00    -0.001 C 
HETATM    2  C10 UNL     1      -2.274   6.570  13.338  1.00  0.00     0.007 C 
HETATM    3  C11 UNL     1      -1.312   7.673  13.822  1.00  0.00     0.026 C 
HETATM    4  C12 UNL     1      -0.255   7.779  12.702  1.00  0.00     0.076 C 
HETATM    5  C14 UNL     1       1.085   8.449  12.988  1.00  0.00    -0.057 C 
HETATM    6  C15 UNL     1       2.197   8.071  12.306  1.00  0.00    -0.067 C 
HETATM    7  C16 UNL     1       2.164   6.920  11.291  1.00  0.00     0.036 C 
HETATM    8  C17 UNL     1       0.854   6.118  11.140  1.00  0.00     0.015 C 
HETATM    9  C18 UNL     1      -0.059   6.251  12.364  1.00  0.00    -0.018 C 
HETATM   10  C19 UNL     1       0.623   5.463  13.526  1.00  0.00     0.017 C 
HETATM   11  C20 UNL     1       3.570   8.759  12.544  1.00  0.00    -0.015 C 
HETATM   12  C21 UNL     1       4.321   7.848  13.545  1.00  0.00     0.020 C 
HETATM   13  C22 UNL     1       4.390   8.873  11.234  1.00  0.00     0.021 C 
HETATM   14  C23 UNL     1       5.696   9.629  11.405  1.00  0.00     0.080 C 
HETATM   15  C24 UNL     1       5.465  11.017  11.948  1.00  0.00     0.135 C 
HETATM   16  O3  UNL     1       6.087  11.968  11.467  1.00  0.00    -0.297 OA
HETATM   17  C25 UNL     1       4.558  11.172  13.179  1.00  0.00     0.018 C 
HETATM   18  C26 UNL     1       5.415  10.966  14.434  1.00  0.00     0.023 C 
HETATM   19  C27 UNL     1       4.065  12.644  13.202  1.00  0.00     0.023 C 
HETATM   20  C28 UNL     1       3.316  10.225  13.055  1.00  0.00     0.013 C 
HETATM   21  C29 UNL     1       2.430  10.192  14.311  1.00  0.00     0.011 C 
HETATM   22  C30 UNL     1       1.070   9.566  14.005  1.00  0.00     0.036 C 
ENDROOT
BRANCH   1  23
HETATM   23  C7  UNL     1      -1.981   4.323  12.041  1.00  0.00    -0.014 C 
HETATM   24  C8  UNL     1      -2.126   3.807  10.607  1.00  0.00     0.010 C 
BRANCH  23  25
HETATM   25  C6  UNL     1      -3.247   4.025  12.885  1.00  0.00     0.008 C 
BRANCH  25  26
HETATM   26  C5  UNL     1      -4.563   3.971  12.093  1.00  0.00     0.028 C 
BRANCH  26  27
HETATM   27  C4  UNL     1      -5.798   3.997  12.947  1.00  0.00    -0.025 C 
HETATM   28  C2  UNL     1      -6.384   5.059  13.537  1.00  0.00    -0.091 C 
HETATM   29  C1  UNL     1      -5.881   6.476  13.478  1.00  0.00     0.042 C 
HETATM   30  C3  UNL     1      -7.649   4.890  14.337  1.00  0.00     0.042 C 
ENDBRANCH  26  27
ENDBRANCH  25  26
ENDBRANCH  23  25
ENDBRANCH   1  23
BRANCH   4  31
HETATM   31  C13 UNL     1      -0.851   8.638  11.542  1.00  0.00     0.153 C 
HETATM   32  O1  UNL     1      -0.509   8.661  10.371  1.00  0.00    -0.649 OA
BRANCH  31  33
HETATM   33  O2  UNL     1      -1.816   9.498  11.936  1.00  0.00    -0.776 OA
HETATM   34  H21 UNL     1      -2.033   9.986  11.112  1.00  0.00     0.167 HD
ENDBRANCH  31  33
ENDBRANCH   4  31
TORSDOF 6
ENDMDL
MODEL 8
REMARK minimizedAffinity -8.14302063
REMARK  6 active torsions:
REMARK  status: ('A' for Active; 'I' for Inactive)
REMARK    1  A    between atoms: C4_4  and  C5_5 
REMARK    2  A    between atoms: C5_5  and  C6_6 
REMARK    3  A    between atoms: C6_6  and  C7_7 
REMARK    4  A    between atoms: C7_7  and  C9_9 
REMARK    5  A    between atoms: C12_12  and  C13_13 
REMARK    6  A    between atoms: C13_13  and  O2_15 
ROOT
HETATM    1  C9  UNL     1      -1.391   7.849  13.643  1.00  0.00    -0.001 C 
HETATM    2  C10 UNL     1      -1.145   7.491  15.136  1.00  0.00     0.007 C 
HETATM    3  C11 UNL     1       0.380   7.535  15.357  1.00  0.00     0.026 C 
HETATM    4  C12 UNL     1       0.925   8.296  14.130  1.00  0.00     0.076 C 
HETATM    5  C14 UNL     1       2.402   8.184  13.765  1.00  0.00    -0.057 C 
HETATM    6  C15 UNL     1       2.797   8.311  12.472  1.00  0.00    -0.067 C 
HETATM    7  C16 UNL     1       1.782   8.491  11.336  1.00  0.00     0.036 C 
HETATM    8  C17 UNL     1       0.279   8.414  11.680  1.00  0.00     0.015 C 
HETATM    9  C18 UNL     1       0.018   7.675  12.998  1.00  0.00    -0.018 C 
HETATM   10  C19 UNL     1       0.327   6.167  12.742  1.00  0.00     0.017 C 
HETATM   11  C20 UNL     1       4.297   8.241  12.072  1.00  0.00    -0.015 C 
HETATM   12  C21 UNL     1       4.537   6.782  11.618  1.00  0.00     0.020 C 
HETATM   13  C22 UNL     1       4.624   9.206  10.903  1.00  0.00     0.021 C 
HETATM   14  C23 UNL     1       6.100   9.242  10.546  1.00  0.00     0.080 C 
HETATM   15  C24 UNL     1       6.947   9.624  11.734  1.00  0.00     0.135 C 
HETATM   16  O3  UNL     1       7.873  10.426  11.586  1.00  0.00    -0.297 OA
HETATM   17  C25 UNL     1       6.705   8.892  13.063  1.00  0.00     0.018 C 
HETATM   18  C26 UNL     1       7.533   7.600  13.055  1.00  0.00     0.023 C 
HETATM   19  C27 UNL     1       7.276   9.791  14.192  1.00  0.00     0.023 C 
HETATM   20  C28 UNL     1       5.168   8.699  13.300  1.00  0.00     0.013 C 
HETATM   21  C29 UNL     1       4.830   7.836  14.526  1.00  0.00     0.011 C 
HETATM   22  C30 UNL     1       3.361   7.992  14.917  1.00  0.00     0.036 C 
ENDROOT
BRANCH   1  23
HETATM   23  C7  UNL     1      -2.686   7.224  13.045  1.00  0.00    -0.014 C 
HETATM   24  C8  UNL     1      -3.904   8.148  12.958  1.00  0.00     0.010 C 
BRANCH  23  25
HETATM   25  C6  UNL     1      -3.033   5.887  13.747  1.00  0.00     0.008 C 
BRANCH  25  26
HETATM   26  C5  UNL     1      -3.614   4.797  12.831  1.00  0.00     0.028 C 
BRANCH  26  27
HETATM   27  C4  UNL     1      -5.062   4.488  13.081  1.00  0.00    -0.025 C 
HETATM   28  C2  UNL     1      -5.835   3.565  12.474  1.00  0.00    -0.091 C 
HETATM   29  C1  UNL     1      -5.392   2.649  11.366  1.00  0.00     0.042 C 
HETATM   30  C3  UNL     1      -7.272   3.379  12.887  1.00  0.00     0.042 C 
ENDBRANCH  26  27
ENDBRANCH  25  26
ENDBRANCH  23  25
ENDBRANCH   1  23
BRANCH   4  31
HETATM   31  C13 UNL     1       0.723   9.825  14.370  1.00  0.00     0.153 C 
HETATM   32  O1  UNL     1      -0.263  10.394  14.809  1.00  0.00    -0.649 OA
BRANCH  31  33
HETATM   33  O2  UNL     1       1.764  10.587  13.964  1.00  0.00    -0.776 OA
HETATM   34  H21 UNL     1       1.452  11.502  14.132  1.00  0.00     0.167 HD
ENDBRANCH  31  33
ENDBRANCH   4  31
TORSDOF 6
ENDMDL
MODEL 9
REMARK minimizedAffinity -8.07252693
REMARK  6 active torsions:
REMARK  status: ('A' for Active; 'I' for Inactive)
REMARK    1  A    between atoms: C4_4  and  C5_5 
REMARK    2  A    between atoms: C5_5  and  C6_6 
REMARK    3  A    between atoms: C6_6  and  C7_7 
REMARK    4  A    between atoms: C7_7  and  C9_9 
REMARK    5  A    between atoms: C12_12  and  C13_13 
REMARK    6  A    between atoms: C13_13  and  O2_15 
ROOT
HETATM    1  C9  UNL     1      -0.455   9.371  15.078  1.00  0.00    -0.001 C 
HETATM    2  C10 UNL     1       0.470   8.145  14.838  1.00  0.00     0.007 C 
HETATM    3  C11 UNL     1      -0.447   6.966  14.456  1.00  0.00     0.026 C 
HETATM    4  C12 UNL     1      -1.794   7.628  14.096  1.00  0.00     0.076 C 
HETATM    5  C14 UNL     1      -3.067   6.788  14.073  1.00  0.00    -0.057 C 
HETATM    6  C15 UNL     1      -4.268   7.361  14.346  1.00  0.00    -0.067 C 
HETATM    7  C16 UNL     1      -4.380   8.834  14.756  1.00  0.00     0.036 C 
HETATM    8  C17 UNL     1      -3.077   9.636  14.964  1.00  0.00     0.015 C 
HETATM    9  C18 UNL     1      -1.868   8.729  15.223  1.00  0.00    -0.018 C 
HETATM   10  C19 UNL     1      -2.055   8.118  16.647  1.00  0.00     0.017 C 
HETATM   11  C20 UNL     1      -5.588   6.543  14.293  1.00  0.00    -0.015 C 
HETATM   12  C21 UNL     1      -5.872   6.120  15.754  1.00  0.00     0.020 C 
HETATM   13  C22 UNL     1      -6.770   7.394  13.763  1.00  0.00     0.021 C 
HETATM   14  C23 UNL     1      -8.058   6.605  13.601  1.00  0.00     0.080 C 
HETATM   15  C24 UNL     1      -7.870   5.423  12.684  1.00  0.00     0.135 C 
HETATM   16  O3  UNL     1      -8.732   5.167  11.839  1.00  0.00    -0.297 OA
HETATM   17  C25 UNL     1      -6.667   4.498  12.929  1.00  0.00     0.018 C 
HETATM   18  C26 UNL     1      -7.073   3.453  13.976  1.00  0.00     0.023 C 
HETATM   19  C27 UNL     1      -6.400   3.734  11.605  1.00  0.00     0.023 C 
HETATM   20  C28 UNL     1      -5.400   5.346  13.288  1.00  0.00     0.013 C 
HETATM   21  C29 UNL     1      -4.184   4.504  13.706  1.00  0.00     0.011 C 
HETATM   22  C30 UNL     1      -2.904   5.339  13.677  1.00  0.00     0.036 C 
ENDROOT
BRANCH   1  23
HETATM   23  C7  UNL     1       0.118  10.410  16.088  1.00  0.00    -0.014 C 
HETATM   24  C8  UNL     1       0.396  11.809  15.531  1.00  0.00     0.010 C 
BRANCH  23  25
HETATM   25  C6  UNL     1       1.349   9.838  16.835  1.00  0.00     0.008 C 
BRANCH  25  26
HETATM   26  C5  UNL     1       2.226  10.881  17.547  1.00  0.00     0.028 C 
BRANCH  26  27
HETATM   27  C4  UNL     1       2.518  10.564  18.986  1.00  0.00    -0.025 C 
HETATM   28  C2  UNL     1       1.682  10.633  20.041  1.00  0.00    -0.091 C 
HETATM   29  C1  UNL     1       0.248  11.085  19.990  1.00  0.00     0.042 C 
HETATM   30  C3  UNL     1       2.153  10.240  21.418  1.00  0.00     0.042 C 
ENDBRANCH  26  27
ENDBRANCH  25  26
ENDBRANCH  23  25
ENDBRANCH   1  23
BRANCH   4  31
HETATM   31  C13 UNL     1      -1.697   8.182  12.640  1.00  0.00     0.153 C 
HETATM   32  O1  UNL     1      -2.231   9.177  12.176  1.00  0.00    -0.649 OA
BRANCH  31  33
HETATM   33  O2  UNL     1      -0.980   7.401  11.802  1.00  0.00    -0.776 OA
HETATM   34  H21 UNL     1      -1.068   7.858  10.938  1.00  0.00     0.167 HD
ENDBRANCH  31  33
ENDBRANCH   4  31
TORSDOF 6
ENDMDL
