MODEL 1
REMARK minimizedAffinity -7.42753267
REMARK CNNscore 0.631899178
REMARK CNNaffinity 6.57192469
REMARK  12 active torsions:
REMARK  status: ('A' for Active; 'I' for Inactive)
REMARK    1  A    between atoms: C2_2  and  C3_3 
REMARK    2  A    between atoms: C2_2  and  C13_14 
REMARK    3  A    between atoms: C3_3  and  C4_4 
REMARK    4  A    between atoms: C4_4  and  C5_5 
REMARK    5  A    between atoms: C13_14  and  C14_15 
REMARK    6  A    between atoms: C14_15  and  O2_16 
REMARK    7  A    between atoms: C14_15  and  C15_17 
REMARK    8  A    between atoms: C16_18  and  C18_20 
REMARK    9  A    between atoms: C18_20  and  C19_21 
REMARK       I    between atoms: C19_21  and  N1_23 
REMARK   10  A    between atoms: N1_23  and  C20_24 
REMARK   11  A    between atoms: C20_24  and  C21_25 
REMARK   12  A    between atoms: C21_25  and  C22_26 
ROOT
HETATM    1  C14 UNL     1       0.018  52.297 -18.428  1.00  0.00     0.145 C 
ENDROOT
BRANCH   1   2
HETATM    2  C13 UNL     1       0.209  51.325 -19.618  1.00  0.00     0.069 C 
BRANCH   2   3
HETATM    3  C2  UNL     1      -0.799  51.409 -20.756  1.00  0.00    -0.086 C 
HETATM    4  C1  UNL     1      -2.119  51.365 -20.499  1.00  0.00     0.014 C 
BRANCH   3   5
HETATM    5  C3  UNL     1      -0.293  51.550 -22.178  1.00  0.00     0.034 C 
BRANCH   5   6
HETATM    6  C4  UNL     1      -1.295  51.141 -23.270  1.00  0.00     0.010 C 
BRANCH   6   7
HETATM    7  C5  UNL     1      -1.684  52.254 -24.282  1.00  0.00     0.001 C 
HETATM    8  C6  UNL     1      -3.186  52.108 -24.637  1.00  0.00     0.006 C 
HETATM    9  C7  UNL     1      -3.408  51.200 -25.833  1.00  0.00     0.008 C 
HETATM   10  C8  UNL     1      -2.828  51.822 -27.093  1.00  0.00     0.079 C 
HETATM   11  C9  UNL     1      -1.623  52.695 -26.805  1.00  0.00     0.135 C 
HETATM   12  O1  UNL     1      -1.312  53.583 -27.602  1.00  0.00    -0.297 OA
HETATM   13  C10 UNL     1      -0.771  52.363 -25.565  1.00  0.00     0.017 C 
HETATM   14  C11 UNL     1       0.012  51.086 -25.928  1.00  0.00     0.023 C 
HETATM   15  C12 UNL     1       0.254  53.501 -25.368  1.00  0.00     0.023 C 
ENDBRANCH   6   7
ENDBRANCH   5   6
ENDBRANCH   3   5
ENDBRANCH   2   3
ENDBRANCH   1   2
BRANCH   1  16
HETATM   16  O2  UNL     1       0.930  53.392 -18.485  1.00  0.00    -0.391 OA
HETATM   17  H23 UNL     1       1.020  53.638 -19.421  1.00  0.00     0.210 HD
ENDBRANCH   1  16
BRANCH   1  18
HETATM   18  C15 UNL     1       0.175  51.657 -17.077  1.00  0.00     0.007 C 
HETATM   19  C16 UNL     1       1.245  51.730 -16.258  1.00  0.00    -0.076 C 
HETATM   20  C17 UNL     1       2.472  52.557 -16.542  1.00  0.00     0.043 C 
BRANCH  19  21
HETATM   21  C18 UNL     1       1.266  50.986 -14.938  1.00  0.00     0.136 C 
BRANCH  21  22
HETATM   22  C19 UNL     1       0.498  51.755 -13.866  1.00  0.00     0.221 C 
HETATM   23  O3  UNL     1      -0.728  51.734 -13.787  1.00  0.00    -0.273 OA
HETATM   24  N1  UNL     1       1.301  52.483 -13.015  1.00  0.00    -0.361 N 
HETATM   25  H30 UNL     1       2.257  52.660 -13.299  1.00  0.00     0.162 HD
BRANCH  24  26
HETATM   26  C20 UNL     1       0.733  53.397 -12.039  1.00  0.00     0.127 C 
BRANCH  26  27
HETATM   27  C21 UNL     1       1.318  53.199 -10.635  1.00  0.00     0.058 C 
BRANCH  27  28
HETATM   28  C22 UNL     1       2.112  54.399 -10.169  1.00  0.00    -0.057 A 
HETATM   29  C23 UNL     1       2.208  54.698  -8.803  1.00  0.00     0.007 A 
HETATM   30  C24 UNL     1       2.906  55.827  -8.374  1.00  0.00     0.001 A 
HETATM   31  C25 UNL     1       3.519  56.664  -9.302  1.00  0.00     0.000 A 
HETATM   32  C26 UNL     1       3.433  56.374 -10.664  1.00  0.00     0.001 A 
HETATM   33  C27 UNL     1       2.729  55.248 -11.096  1.00  0.00     0.007 A 
ENDBRANCH  27  28
ENDBRANCH  26  27
ENDBRANCH  24  26
ENDBRANCH  21  22
ENDBRANCH  19  21
ENDBRANCH   1  18
TORSDOF 12
ENDMDL
MODEL 2
REMARK minimizedAffinity -9.02752686
REMARK CNNscore 0.546168983
REMARK CNNaffinity 6.95536566
REMARK  12 active torsions:
REMARK  status: ('A' for Active; 'I' for Inactive)
REMARK    1  A    between atoms: C2_2  and  C3_3 
REMARK    2  A    between atoms: C2_2  and  C13_14 
REMARK    3  A    between atoms: C3_3  and  C4_4 
REMARK    4  A    between atoms: C4_4  and  C5_5 
REMARK    5  A    between atoms: C13_14  and  C14_15 
REMARK    6  A    between atoms: C14_15  and  O2_16 
REMARK    7  A    between atoms: C14_15  and  C15_17 
REMARK    8  A    between atoms: C16_18  and  C18_20 
REMARK    9  A    between atoms: C18_20  and  C19_21 
REMARK       I    between atoms: C19_21  and  N1_23 
REMARK   10  A    between atoms: N1_23  and  C20_24 
REMARK   11  A    between atoms: C20_24  and  C21_25 
REMARK   12  A    between atoms: C21_25  and  C22_26 
ROOT
HETATM    1  C14 UNL     1      -0.080  53.871 -25.367  1.00  0.00     0.145 C 
ENDROOT
BRANCH   1   2
HETATM    2  C13 UNL     1       0.052  53.063 -26.682  1.00  0.00     0.069 C 
BRANCH   2   3
HETATM    3  C2  UNL     1       0.675  51.677 -26.589  1.00  0.00    -0.086 C 
HETATM    4  C1  UNL     1       2.010  51.538 -26.491  1.00  0.00     0.014 C 
BRANCH   3   5
HETATM    5  C3  UNL     1      -0.230  50.461 -26.602  1.00  0.00     0.034 C 
BRANCH   5   6
HETATM    6  C4  UNL     1      -1.606  50.667 -25.948  1.00  0.00     0.010 C 
BRANCH   6   7
HETATM    7  C5  UNL     1      -2.289  49.386 -25.392  1.00  0.00     0.001 C 
HETATM    8  C6  UNL     1      -2.646  48.453 -26.578  1.00  0.00     0.006 C 
HETATM    9  C7  UNL     1      -4.034  48.730 -27.129  1.00  0.00     0.008 C 
HETATM   10  C8  UNL     1      -5.098  48.383 -26.101  1.00  0.00     0.079 C 
HETATM   11  C9  UNL     1      -4.612  48.575 -24.678  1.00  0.00     0.135 C 
HETATM   12  O1  UNL     1      -5.155  47.956 -23.762  1.00  0.00    -0.297 OA
HETATM   13  C10 UNL     1      -3.513  49.626 -24.426  1.00  0.00     0.017 C 
HETATM   14  C11 UNL     1      -4.208  50.995 -24.568  1.00  0.00     0.023 C 
HETATM   15  C12 UNL     1      -3.043  49.488 -22.962  1.00  0.00     0.023 C 
ENDBRANCH   6   7
ENDBRANCH   5   6
ENDBRANCH   3   5
ENDBRANCH   2   3
ENDBRANCH   1   2
BRANCH   1  16
HETATM   16  O2  UNL     1       0.292  55.236 -25.543  1.00  0.00    -0.391 OA
HETATM   17  H23 UNL     1      -0.028  55.507 -26.420  1.00  0.00     0.210 HD
ENDBRANCH   1  16
BRANCH   1  18
HETATM   18  C15 UNL     1       0.736  53.331 -24.226  1.00  0.00     0.007 C 
HETATM   19  C16 UNL     1       0.280  52.725 -23.110  1.00  0.00    -0.076 C 
HETATM   20  C17 UNL     1      -1.170  52.415 -22.849  1.00  0.00     0.043 C 
BRANCH  19  21
HETATM   21  C18 UNL     1       1.237  52.275 -22.024  1.00  0.00     0.136 C 
BRANCH  21  22
HETATM   22  C19 UNL     1       0.988  53.040 -20.727  1.00  0.00     0.221 C 
HETATM   23  O3  UNL     1       1.284  54.224 -20.590  1.00  0.00    -0.273 OA
HETATM   24  N1  UNL     1       0.420  52.279 -19.727  1.00  0.00    -0.361 N 
HETATM   25  H30 UNL     1       0.450  51.270 -19.823  1.00  0.00     0.162 HD
BRANCH  24  26
HETATM   26  C20 UNL     1       0.260  52.799 -18.380  1.00  0.00     0.127 C 
BRANCH  26  27
HETATM   27  C21 UNL     1       0.312  51.699 -17.313  1.00  0.00     0.058 C 
BRANCH  27  28
HETATM   28  C22 UNL     1       1.561  51.781 -16.465  1.00  0.00    -0.057 A 
HETATM   29  C23 UNL     1       2.628  52.604 -16.851  1.00  0.00     0.007 A 
HETATM   30  C24 UNL     1       3.797  52.649 -16.092  1.00  0.00     0.001 A 
HETATM   31  C25 UNL     1       3.910  51.879 -14.937  1.00  0.00     0.000 A 
HETATM   32  C26 UNL     1       2.853  51.060 -14.541  1.00  0.00     0.001 A 
HETATM   33  C27 UNL     1       1.685  51.008 -15.304  1.00  0.00     0.007 A 
ENDBRANCH  27  28
ENDBRANCH  26  27
ENDBRANCH  24  26
ENDBRANCH  21  22
ENDBRANCH  19  21
ENDBRANCH   1  18
TORSDOF 12
ENDMDL
MODEL 3
REMARK minimizedAffinity -8.2803936
REMARK CNNscore 0.504322827
REMARK CNNaffinity 6.71132851
REMARK  12 active torsions:
REMARK  status: ('A' for Active; 'I' for Inactive)
REMARK    1  A    between atoms: C2_2  and  C3_3 
REMARK    2  A    between atoms: C2_2  and  C13_14 
REMARK    3  A    between atoms: C3_3  and  C4_4 
REMARK    4  A    between atoms: C4_4  and  C5_5 
REMARK    5  A    between atoms: C13_14  and  C14_15 
REMARK    6  A    between atoms: C14_15  and  O2_16 
REMARK    7  A    between atoms: C14_15  and  C15_17 
REMARK    8  A    between atoms: C16_18  and  C18_20 
REMARK    9  A    between atoms: C18_20  and  C19_21 
REMARK       I    between atoms: C19_21  and  N1_23 
REMARK   10  A    between atoms: N1_23  and  C20_24 
REMARK   11  A    between atoms: C20_24  and  C21_25 
REMARK   12  A    between atoms: C21_25  and  C22_26 
ROOT
HETATM    1  C14 UNL     1       0.058  52.724 -18.734  1.00  0.00     0.145 C 
ENDROOT
BRANCH   1   2
HETATM    2  C13 UNL     1       0.098  51.594 -19.793  1.00  0.00     0.069 C 
BRANCH   2   3
HETATM    3  C2  UNL     1      -0.022  52.003 -21.254  1.00  0.00    -0.086 C 
HETATM    4  C1  UNL     1       1.060  52.426 -21.933  1.00  0.00     0.014 C 
BRANCH   3   5
HETATM    5  C3  UNL     1      -1.376  51.920 -21.932  1.00  0.00     0.034 C 
BRANCH   5   6
HETATM    6  C4  UNL     1      -1.348  51.408 -23.381  1.00  0.00     0.010 C 
BRANCH   6   7
HETATM    7  C5  UNL     1      -1.785  52.430 -24.468  1.00  0.00     0.001 C 
HETATM    8  C6  UNL     1      -3.258  52.146 -24.861  1.00  0.00     0.006 C 
HETATM    9  C7  UNL     1      -3.367  51.158 -26.009  1.00  0.00     0.008 C 
HETATM   10  C8  UNL     1      -2.792  51.753 -27.283  1.00  0.00     0.079 C 
HETATM   11  C9  UNL     1      -1.668  52.733 -27.009  1.00  0.00     0.135 C 
HETATM   12  O1  UNL     1      -1.398  53.597 -27.846  1.00  0.00    -0.297 OA
HETATM   13  C10 UNL     1      -0.838  52.539 -25.726  1.00  0.00     0.017 C 
HETATM   14  C11 UNL     1       0.053  51.309 -25.990  1.00  0.00     0.023 C 
HETATM   15  C12 UNL     1       0.088  53.763 -25.563  1.00  0.00     0.023 C 
ENDBRANCH   6   7
ENDBRANCH   5   6
ENDBRANCH   3   5
ENDBRANCH   2   3
ENDBRANCH   1   2
BRANCH   1  16
HETATM   16  O2  UNL     1       0.075  54.017 -19.337  1.00  0.00    -0.391 OA
HETATM   17  H23 UNL     1      -0.467  53.962 -20.142  1.00  0.00     0.210 HD
ENDBRANCH   1  16
BRANCH   1  18
HETATM   18  C15 UNL     1       1.187  52.681 -17.743  1.00  0.00     0.007 C 
HETATM   19  C16 UNL     1       1.370  51.785 -16.751  1.00  0.00    -0.076 C 
HETATM   20  C17 UNL     1       0.478  50.595 -16.513  1.00  0.00     0.043 C 
BRANCH  19  21
HETATM   21  C18 UNL     1       2.544  51.905 -15.801  1.00  0.00     0.136 C 
BRANCH  21  22
HETATM   22  C19 UNL     1       2.110  51.637 -14.362  1.00  0.00     0.221 C 
HETATM   23  O3  UNL     1       2.476  50.646 -13.735  1.00  0.00    -0.273 OA
HETATM   24  N1  UNL     1       1.263  52.592 -13.844  1.00  0.00    -0.361 N 
HETATM   25  H30 UNL     1       0.804  53.223 -14.492  1.00  0.00     0.162 HD
BRANCH  24  26
HETATM   26  C20 UNL     1       0.626  52.416 -12.550  1.00  0.00     0.127 C 
BRANCH  26  27
HETATM   27  C21 UNL     1      -0.755  51.760 -12.656  1.00  0.00     0.058 C 
BRANCH  27  28
HETATM   28  C22 UNL     1      -1.809  52.509 -11.874  1.00  0.00    -0.057 A 
HETATM   29  C23 UNL     1      -3.170  52.281 -12.119  1.00  0.00     0.007 A 
HETATM   30  C24 UNL     1      -4.145  53.002 -11.427  1.00  0.00     0.001 A 
HETATM   31  C25 UNL     1      -3.769  53.950 -10.480  1.00  0.00     0.000 A 
HETATM   32  C26 UNL     1      -2.418  54.183 -10.224  1.00  0.00     0.001 A 
HETATM   33  C27 UNL     1      -1.442  53.468 -10.921  1.00  0.00     0.007 A 
ENDBRANCH  27  28
ENDBRANCH  26  27
ENDBRANCH  24  26
ENDBRANCH  21  22
ENDBRANCH  19  21
ENDBRANCH   1  18
TORSDOF 12
ENDMDL
MODEL 4
REMARK minimizedAffinity -8.08331776
REMARK CNNscore 0.353128076
REMARK CNNaffinity 6.3510375
REMARK  12 active torsions:
REMARK  status: ('A' for Active; 'I' for Inactive)
REMARK    1  A    between atoms: C2_2  and  C3_3 
REMARK    2  A    between atoms: C2_2  and  C13_14 
REMARK    3  A    between atoms: C3_3  and  C4_4 
REMARK    4  A    between atoms: C4_4  and  C5_5 
REMARK    5  A    between atoms: C13_14  and  C14_15 
REMARK    6  A    between atoms: C14_15  and  O2_16 
REMARK    7  A    between atoms: C14_15  and  C15_17 
REMARK    8  A    between atoms: C16_18  and  C18_20 
REMARK    9  A    between atoms: C18_20  and  C19_21 
REMARK       I    between atoms: C19_21  and  N1_23 
REMARK   10  A    between atoms: N1_23  and  C20_24 
REMARK   11  A    between atoms: C20_24  and  C21_25 
REMARK   12  A    between atoms: C21_25  and  C22_26 
ROOT
HETATM    1  C14 UNL     1       0.294  52.862 -20.134  1.00  0.00     0.145 C 
ENDROOT
BRANCH   1   2
HETATM    2  C13 UNL     1       0.956  52.483 -21.482  1.00  0.00     0.069 C 
BRANCH   2   3
HETATM    3  C2  UNL     1       0.093  52.575 -22.732  1.00  0.00    -0.086 C 
HETATM    4  C1  UNL     1       0.548  53.213 -23.826  1.00  0.00     0.014 C 
BRANCH   3   5
HETATM    5  C3  UNL     1      -1.281  51.934 -22.727  1.00  0.00     0.034 C 
BRANCH   5   6
HETATM    6  C4  UNL     1      -1.427  50.700 -23.633  1.00  0.00     0.010 C 
BRANCH   6   7
HETATM    7  C5  UNL     1      -2.475  50.819 -24.774  1.00  0.00     0.001 C 
HETATM    8  C6  UNL     1      -3.495  49.658 -24.643  1.00  0.00     0.006 C 
HETATM    9  C7  UNL     1      -3.064  48.426 -25.418  1.00  0.00     0.008 C 
HETATM   10  C8  UNL     1      -3.068  48.704 -26.912  1.00  0.00     0.079 C 
HETATM   11  C9  UNL     1      -2.757  50.152 -27.232  1.00  0.00     0.135 C 
HETATM   12  O1  UNL     1      -3.132  50.631 -28.303  1.00  0.00    -0.297 OA
HETATM   13  C10 UNL     1      -1.888  50.941 -26.234  1.00  0.00     0.017 C 
HETATM   14  C11 UNL     1      -0.454  50.403 -26.416  1.00  0.00     0.023 C 
HETATM   15  C12 UNL     1      -1.889  52.424 -26.663  1.00  0.00     0.023 C 
ENDBRANCH   6   7
ENDBRANCH   5   6
ENDBRANCH   3   5
ENDBRANCH   2   3
ENDBRANCH   1   2
BRANCH   1  16
HETATM   16  O2  UNL     1       1.144  53.684 -19.337  1.00  0.00    -0.391 OA
HETATM   17  H23 UNL     1       1.604  54.289 -19.944  1.00  0.00     0.210 HD
ENDBRANCH   1  16
BRANCH   1  18
HETATM   18  C15 UNL     1      -0.105  51.684 -19.289  1.00  0.00     0.007 C 
HETATM   19  C16 UNL     1       0.291  51.412 -18.028  1.00  0.00    -0.076 C 
HETATM   20  C17 UNL     1       1.171  52.317 -17.205  1.00  0.00     0.043 C 
BRANCH  19  21
HETATM   21  C18 UNL     1      -0.168  50.151 -17.324  1.00  0.00     0.136 C 
BRANCH  21  22
HETATM   22  C19 UNL     1      -1.081  50.486 -16.148  1.00  0.00     0.221 C 
HETATM   23  O3  UNL     1      -2.176  51.025 -16.292  1.00  0.00    -0.273 OA
HETATM   24  N1  UNL     1      -0.560  50.147 -14.918  1.00  0.00    -0.361 N 
HETATM   25  H30 UNL     1       0.434  49.956 -14.859  1.00  0.00     0.162 HD
BRANCH  24  26
HETATM   26  C20 UNL     1      -1.220  50.536 -13.683  1.00  0.00     0.127 C 
BRANCH  26  27
HETATM   27  C21 UNL     1      -0.774  51.915 -13.185  1.00  0.00     0.058 C 
BRANCH  27  28
HETATM   28  C22 UNL     1      -1.772  52.532 -12.232  1.00  0.00    -0.057 A 
HETATM   29  C23 UNL     1      -3.148  52.431 -12.483  1.00  0.00     0.007 A 
HETATM   30  C24 UNL     1      -4.070  53.036 -11.628  1.00  0.00     0.001 A 
HETATM   31  C25 UNL     1      -3.627  53.739 -10.511  1.00  0.00     0.000 A 
HETATM   32  C26 UNL     1      -2.261  53.843 -10.248  1.00  0.00     0.001 A 
HETATM   33  C27 UNL     1      -1.337  53.245 -11.108  1.00  0.00     0.007 A 
ENDBRANCH  27  28
ENDBRANCH  26  27
ENDBRANCH  24  26
ENDBRANCH  21  22
ENDBRANCH  19  21
ENDBRANCH   1  18
TORSDOF 12
ENDMDL
MODEL 5
REMARK minimizedAffinity -7.25360632
REMARK CNNscore 0.29242602
REMARK CNNaffinity 6.57718229
REMARK  12 active torsions:
REMARK  status: ('A' for Active; 'I' for Inactive)
REMARK    1  A    between atoms: C2_2  and  C3_3 
REMARK    2  A    between atoms: C2_2  and  C13_14 
REMARK    3  A    between atoms: C3_3  and  C4_4 
REMARK    4  A    between atoms: C4_4  and  C5_5 
REMARK    5  A    between atoms: C13_14  and  C14_15 
REMARK    6  A    between atoms: C14_15  and  O2_16 
REMARK    7  A    between atoms: C14_15  and  C15_17 
REMARK    8  A    between atoms: C16_18  and  C18_20 
REMARK    9  A    between atoms: C18_20  and  C19_21 
REMARK       I    between atoms: C19_21  and  N1_23 
REMARK   10  A    between atoms: N1_23  and  C20_24 
REMARK   11  A    between atoms: C20_24  and  C21_25 
REMARK   12  A    between atoms: C21_25  and  C22_26 
ROOT
HETATM    1  C14 UNL     1      -1.570  52.629 -27.116  1.00  0.00     0.145 C 
ENDROOT
BRANCH   1   2
HETATM    2  C13 UNL     1      -0.265  53.322 -26.650  1.00  0.00     0.069 C 
BRANCH   2   3
HETATM    3  C2  UNL     1       0.528  52.643 -25.543  1.00  0.00    -0.086 C 
HETATM    4  C1  UNL     1       1.082  51.434 -25.747  1.00  0.00     0.014 C 
BRANCH   3   5
HETATM    5  C3  UNL     1       0.689  53.351 -24.212  1.00  0.00     0.034 C 
BRANCH   5   6
HETATM    6  C4  UNL     1       0.711  52.430 -22.982  1.00  0.00     0.010 C 
BRANCH   6   7
HETATM    7  C5  UNL     1      -0.166  52.883 -21.781  1.00  0.00     0.001 C 
HETATM    8  C6  UNL     1       0.628  53.918 -20.942  1.00  0.00     0.006 C 
HETATM    9  C7  UNL     1       1.454  53.260 -19.852  1.00  0.00     0.008 C 
HETATM   10  C8  UNL     1       0.553  52.612 -18.814  1.00  0.00     0.079 C 
HETATM   11  C9  UNL     1      -0.753  52.122 -19.407  1.00  0.00     0.135 C 
HETATM   12  O1  UNL     1      -1.736  51.980 -18.677  1.00  0.00    -0.297 OA
HETATM   13  C10 UNL     1      -0.766  51.724 -20.895  1.00  0.00     0.017 C 
HETATM   14  C11 UNL     1      -0.016  50.379 -20.971  1.00  0.00     0.023 C 
HETATM   15  C12 UNL     1      -2.231  51.468 -21.311  1.00  0.00     0.023 C 
ENDBRANCH   6   7
ENDBRANCH   5   6
ENDBRANCH   3   5
ENDBRANCH   2   3
ENDBRANCH   1   2
BRANCH   1  16
HETATM   16  O2  UNL     1      -2.236  53.378 -28.129  1.00  0.00    -0.391 OA
HETATM   17  H23 UNL     1      -1.548  53.756 -28.703  1.00  0.00     0.210 HD
ENDBRANCH   1  16
BRANCH   1  18
HETATM   18  C15 UNL     1      -2.565  52.384 -26.016  1.00  0.00     0.007 C 
HETATM   19  C16 UNL     1      -3.332  51.289 -25.837  1.00  0.00    -0.076 C 
HETATM   20  C17 UNL     1      -3.259  50.056 -26.700  1.00  0.00     0.043 C 
BRANCH  19  21
HETATM   21  C18 UNL     1      -4.326  51.214 -24.696  1.00  0.00     0.136 C 
BRANCH  21  22
HETATM   22  C19 UNL     1      -4.572  49.765 -24.282  1.00  0.00     0.221 C 
HETATM   23  O3  UNL     1      -5.484  49.089 -24.750  1.00  0.00    -0.273 OA
HETATM   24  N1  UNL     1      -3.692  49.297 -23.330  1.00  0.00    -0.361 N 
HETATM   25  H30 UNL     1      -3.148  49.977 -22.810  1.00  0.00     0.162 HD
BRANCH  24  26
HETATM   26  C20 UNL     1      -3.875  47.998 -22.705  1.00  0.00     0.127 C 
BRANCH  26  27
HETATM   27  C21 UNL     1      -2.710  47.618 -21.783  1.00  0.00     0.058 C 
BRANCH  27  28
HETATM   28  C22 UNL     1      -2.939  48.060 -20.356  1.00  0.00    -0.057 A 
HETATM   29  C23 UNL     1      -4.184  48.570 -19.963  1.00  0.00     0.007 A 
HETATM   30  C24 UNL     1      -4.385  49.018 -18.657  1.00  0.00     0.001 A 
HETATM   31  C25 UNL     1      -3.349  48.954 -17.730  1.00  0.00     0.000 A 
HETATM   32  C26 UNL     1      -2.107  48.444 -18.108  1.00  0.00     0.001 A 
HETATM   33  C27 UNL     1      -1.902  48.002 -19.417  1.00  0.00     0.007 A 
ENDBRANCH  27  28
ENDBRANCH  26  27
ENDBRANCH  24  26
ENDBRANCH  21  22
ENDBRANCH  19  21
ENDBRANCH   1  18
TORSDOF 12
ENDMDL
MODEL 6
REMARK minimizedAffinity -8.17920017
REMARK CNNscore 0.286291301
REMARK CNNaffinity 6.44322777
REMARK  12 active torsions:
REMARK  status: ('A' for Active; 'I' for Inactive)
REMARK    1  A    between atoms: C2_2  and  C3_3 
REMARK    2  A    between atoms: C2_2  and  C13_14 
REMARK    3  A    between atoms: C3_3  and  C4_4 
REMARK    4  A    between atoms: C4_4  and  C5_5 
REMARK    5  A    between atoms: C13_14  and  C14_15 
REMARK    6  A    between atoms: C14_15  and  O2_16 
REMARK    7  A    between atoms: C14_15  and  C15_17 
REMARK    8  A    between atoms: C16_18  and  C18_20 
REMARK    9  A    between atoms: C18_20  and  C19_21 
REMARK       I    between atoms: C19_21  and  N1_23 
REMARK   10  A    between atoms: N1_23  and  C20_24 
REMARK   11  A    between atoms: C20_24  and  C21_25 
REMARK   12  A    between atoms: C21_25  and  C22_26 
ROOT
HETATM    1  C14 UNL     1      -5.390  49.766 -23.040  1.00  0.00     0.145 C 
ENDROOT
BRANCH   1   2
HETATM    2  C13 UNL     1      -5.072  51.281 -22.991  1.00  0.00     0.069 C 
BRANCH   2   3
HETATM    3  C2  UNL     1      -3.607  51.683 -22.894  1.00  0.00    -0.086 C 
HETATM    4  C1  UNL     1      -3.015  52.345 -23.905  1.00  0.00     0.014 C 
BRANCH   3   5
HETATM    5  C3  UNL     1      -2.830  51.333 -21.640  1.00  0.00     0.034 C 
BRANCH   5   6
HETATM    6  C4  UNL     1      -1.362  51.789 -21.634  1.00  0.00     0.010 C 
BRANCH   6   7
HETATM    7  C5  UNL     1      -0.421  51.029 -20.659  1.00  0.00     0.001 C 
HETATM    8  C6  UNL     1      -0.478  49.514 -20.985  1.00  0.00     0.006 C 
HETATM    9  C7  UNL     1      -1.564  48.798 -20.203  1.00  0.00     0.008 C 
HETATM   10  C8  UNL     1      -1.247  48.806 -18.716  1.00  0.00     0.079 C 
HETATM   11  C9  UNL     1      -0.463  50.034 -18.298  1.00  0.00     0.135 C 
HETATM   12  O1  UNL     1       0.226  49.996 -17.277  1.00  0.00    -0.297 OA
HETATM   13  C10 UNL     1      -0.644  51.322 -19.124  1.00  0.00     0.017 C 
HETATM   14  C11 UNL     1      -2.039  51.861 -18.751  1.00  0.00     0.023 C 
HETATM   15  C12 UNL     1       0.401  52.352 -18.643  1.00  0.00     0.023 C 
ENDBRANCH   6   7
ENDBRANCH   5   6
ENDBRANCH   3   5
ENDBRANCH   2   3
ENDBRANCH   1   2
BRANCH   1  16
HETATM   16  O2  UNL     1      -4.550  49.019 -22.163  1.00  0.00    -0.391 OA
HETATM   17  H23 UNL     1      -4.426  49.555 -21.362  1.00  0.00     0.210 HD
ENDBRANCH   1  16
BRANCH   1  18
HETATM   18  C15 UNL     1      -5.263  49.153 -24.407  1.00  0.00     0.007 C 
HETATM   19  C16 UNL     1      -4.136  48.709 -25.002  1.00  0.00    -0.076 C 
HETATM   20  C17 UNL     1      -2.784  48.686 -24.339  1.00  0.00     0.043 C 
BRANCH  19  21
HETATM   21  C18 UNL     1      -4.168  48.154 -26.411  1.00  0.00     0.136 C 
BRANCH  21  22
HETATM   22  C19 UNL     1      -3.854  49.245 -27.432  1.00  0.00     0.221 C 
HETATM   23  O3  UNL     1      -4.247  49.196 -28.595  1.00  0.00    -0.273 OA
HETATM   24  N1  UNL     1      -3.078  50.271 -26.936  1.00  0.00    -0.361 N 
HETATM   25  H30 UNL     1      -2.582  50.114 -26.067  1.00  0.00     0.162 HD
BRANCH  24  26
HETATM   26  C20 UNL     1      -2.552  51.309 -27.806  1.00  0.00     0.127 C 
BRANCH  26  27
HETATM   27  C21 UNL     1      -1.749  52.368 -27.042  1.00  0.00     0.058 C 
BRANCH  27  28
HETATM   28  C22 UNL     1      -0.271  52.055 -27.009  1.00  0.00    -0.057 A 
HETATM   29  C23 UNL     1       0.367  51.773 -25.794  1.00  0.00     0.007 A 
HETATM   30  C24 UNL     1       1.740  51.525 -25.756  1.00  0.00     0.001 A 
HETATM   31  C25 UNL     1       2.486  51.548 -26.931  1.00  0.00     0.000 A 
HETATM   32  C26 UNL     1       1.861  51.823 -28.147  1.00  0.00     0.001 A 
HETATM   33  C27 UNL     1       0.489  52.080 -28.186  1.00  0.00     0.007 A 
ENDBRANCH  27  28
ENDBRANCH  26  27
ENDBRANCH  24  26
ENDBRANCH  21  22
ENDBRANCH  19  21
ENDBRANCH   1  18
TORSDOF 12
ENDMDL
MODEL 7
REMARK minimizedAffinity -8.48464584
REMARK CNNscore 0.281021506
REMARK CNNaffinity 6.34004927
REMARK  12 active torsions:
REMARK  status: ('A' for Active; 'I' for Inactive)
REMARK    1  A    between atoms: C2_2  and  C3_3 
REMARK    2  A    between atoms: C2_2  and  C13_14 
REMARK    3  A    between atoms: C3_3  and  C4_4 
REMARK    4  A    between atoms: C4_4  and  C5_5 
REMARK    5  A    between atoms: C13_14  and  C14_15 
REMARK    6  A    between atoms: C14_15  and  O2_16 
REMARK    7  A    between atoms: C14_15  and  C15_17 
REMARK    8  A    between atoms: C16_18  and  C18_20 
REMARK    9  A    between atoms: C18_20  and  C19_21 
REMARK       I    between atoms: C19_21  and  N1_23 
REMARK   10  A    between atoms: N1_23  and  C20_24 
REMARK   11  A    between atoms: C20_24  and  C21_25 
REMARK   12  A    between atoms: C21_25  and  C22_26 
ROOT
HETATM    1  C14 UNL     1      -2.933  50.394 -27.486  1.00  0.00     0.145 C 
ENDROOT
BRANCH   1   2
HETATM    2  C13 UNL     1      -2.914  48.910 -27.043  1.00  0.00     0.069 C 
BRANCH   2   3
HETATM    3  C2  UNL     1      -4.032  48.443 -26.121  1.00  0.00    -0.086 C 
HETATM    4  C1  UNL     1      -5.195  47.999 -26.634  1.00  0.00     0.014 C 
BRANCH   3   5
HETATM    5  C3  UNL     1      -3.813  48.481 -24.622  1.00  0.00     0.034 C 
BRANCH   5   6
HETATM    6  C4  UNL     1      -5.076  48.262 -23.773  1.00  0.00     0.010 C 
BRANCH   6   7
HETATM    7  C5  UNL     1      -5.337  49.319 -22.663  1.00  0.00     0.001 C 
HETATM    8  C6  UNL     1      -5.614  50.691 -23.332  1.00  0.00     0.006 C 
HETATM    9  C7  UNL     1      -4.343  51.494 -23.541  1.00  0.00     0.008 C 
HETATM   10  C8  UNL     1      -3.734  51.892 -22.206  1.00  0.00     0.079 C 
HETATM   11  C9  UNL     1      -4.019  50.878 -21.116  1.00  0.00     0.135 C 
HETATM   12  O1  UNL     1      -3.986  51.230 -19.935  1.00  0.00    -0.297 OA
HETATM   13  C10 UNL     1      -4.239  49.411 -21.534  1.00  0.00     0.017 C 
HETATM   14  C11 UNL     1      -2.846  48.876 -21.921  1.00  0.00     0.023 C 
HETATM   15  C12 UNL     1      -4.715  48.625 -20.293  1.00  0.00     0.023 C 
ENDBRANCH   6   7
ENDBRANCH   5   6
ENDBRANCH   3   5
ENDBRANCH   2   3
ENDBRANCH   1   2
BRANCH   1  16
HETATM   16  O2  UNL     1      -3.344  50.537 -28.844  1.00  0.00    -0.391 OA
HETATM   17  H23 UNL     1      -4.042  49.880 -29.001  1.00  0.00     0.210 HD
ENDBRANCH   1  16
BRANCH   1  18
HETATM   18  C15 UNL     1      -1.613  51.098 -27.343  1.00  0.00     0.007 C 
HETATM   19  C16 UNL     1      -0.927  51.324 -26.203  1.00  0.00    -0.076 C 
HETATM   20  C17 UNL     1      -1.352  50.825 -24.847  1.00  0.00     0.043 C 
BRANCH  19  21
HETATM   21  C18 UNL     1       0.379  52.093 -26.222  1.00  0.00     0.136 C 
BRANCH  21  22
HETATM   22  C19 UNL     1       0.268  53.374 -25.399  1.00  0.00     0.221 C 
HETATM   23  O3  UNL     1      -0.497  54.288 -25.697  1.00  0.00    -0.273 OA
HETATM   24  N1  UNL     1       1.111  53.415 -24.309  1.00  0.00    -0.361 N 
HETATM   25  H30 UNL     1       1.883  52.759 -24.280  1.00  0.00     0.162 HD
BRANCH  24  26
HETATM   26  C20 UNL     1       1.253  54.619 -23.509  1.00  0.00     0.127 C 
BRANCH  26  27
HETATM   27  C21 UNL     1       1.871  54.344 -22.133  1.00  0.00     0.058 C 
BRANCH  27  28
HETATM   28  C22 UNL     1       1.047  53.374 -21.316  1.00  0.00    -0.057 A 
HETATM   29  C23 UNL     1       0.821  52.071 -21.780  1.00  0.00     0.007 A 
HETATM   30  C24 UNL     1       0.026  51.188 -21.049  1.00  0.00     0.001 A 
HETATM   31  C25 UNL     1      -0.543  51.594 -19.845  1.00  0.00     0.000 A 
HETATM   32  C26 UNL     1      -0.321  52.887 -19.372  1.00  0.00     0.001 A 
HETATM   33  C27 UNL     1       0.468  53.775 -20.106  1.00  0.00     0.007 A 
ENDBRANCH  27  28
ENDBRANCH  26  27
ENDBRANCH  24  26
ENDBRANCH  21  22
ENDBRANCH  19  21
ENDBRANCH   1  18
TORSDOF 12
ENDMDL
MODEL 8
REMARK minimizedAffinity -7.58596325
REMARK CNNscore 0.266786903
REMARK CNNaffinity 5.82617903
REMARK  12 active torsions:
REMARK  status: ('A' for Active; 'I' for Inactive)
REMARK    1  A    between atoms: C2_2  and  C3_3 
REMARK    2  A    between atoms: C2_2  and  C13_14 
REMARK    3  A    between atoms: C3_3  and  C4_4 
REMARK    4  A    between atoms: C4_4  and  C5_5 
REMARK    5  A    between atoms: C13_14  and  C14_15 
REMARK    6  A    between atoms: C14_15  and  O2_16 
REMARK    7  A    between atoms: C14_15  and  C15_17 
REMARK    8  A    between atoms: C16_18  and  C18_20 
REMARK    9  A    between atoms: C18_20  and  C19_21 
REMARK       I    between atoms: C19_21  and  N1_23 
REMARK   10  A    between atoms: N1_23  and  C20_24 
REMARK   11  A    between atoms: C20_24  and  C21_25 
REMARK   12  A    between atoms: C21_25  and  C22_26 
ROOT
HETATM    1  C14 UNL     1      -5.327  47.954 -28.178  1.00  0.00     0.145 C 
ENDROOT
BRANCH   1   2
HETATM    2  C13 UNL     1      -4.233  48.887 -27.603  1.00  0.00     0.069 C 
BRANCH   2   3
HETATM    3  C2  UNL     1      -3.891  48.734 -26.128  1.00  0.00    -0.086 C 
HETATM    4  C1  UNL     1      -4.845  48.405 -25.239  1.00  0.00     0.014 C 
BRANCH   3   5
HETATM    5  C3  UNL     1      -2.459  48.952 -25.679  1.00  0.00     0.034 C 
BRANCH   5   6
HETATM    6  C4  UNL     1      -1.658  49.958 -26.522  1.00  0.00     0.010 C 
BRANCH   6   7
HETATM    7  C5  UNL     1      -1.572  51.401 -25.952  1.00  0.00     0.001 C 
HETATM    8  C6  UNL     1      -2.240  52.377 -26.955  1.00  0.00     0.006 C 
HETATM    9  C7  UNL     1      -1.253  52.918 -27.974  1.00  0.00     0.008 C 
HETATM   10  C8  UNL     1      -0.214  53.797 -27.298  1.00  0.00     0.079 C 
HETATM   11  C9  UNL     1       0.071  53.365 -25.873  1.00  0.00     0.135 C 
HETATM   12  O1  UNL     1       0.530  54.181 -25.071  1.00  0.00    -0.297 OA
HETATM   13  C10 UNL     1      -0.134  51.881 -25.514  1.00  0.00     0.017 C 
HETATM   14  C11 UNL     1       1.041  51.129 -26.171  1.00  0.00     0.023 C 
HETATM   15  C12 UNL     1       0.011  51.732 -23.984  1.00  0.00     0.023 C 
ENDBRANCH   6   7
ENDBRANCH   5   6
ENDBRANCH   3   5
ENDBRANCH   2   3
ENDBRANCH   1   2
BRANCH   1  16
HETATM   16  O2  UNL     1      -5.812  48.417 -29.437  1.00  0.00    -0.391 OA
HETATM   17  H23 UNL     1      -5.049  48.776 -29.920  1.00  0.00     0.210 HD
ENDBRANCH   1  16
BRANCH   1  18
HETATM   18  C15 UNL     1      -6.520  47.775 -27.280  1.00  0.00     0.007 C 
HETATM   19  C16 UNL     1      -7.504  46.861 -27.402  1.00  0.00    -0.076 C 
HETATM   20  C17 UNL     1      -7.531  45.783 -28.454  1.00  0.00     0.043 C 
BRANCH  19  21
HETATM   21  C18 UNL     1      -8.670  46.840 -26.434  1.00  0.00     0.136 C 
BRANCH  21  22
HETATM   22  C19 UNL     1      -9.996  46.721 -27.181  1.00  0.00     0.221 C 
HETATM   23  O3  UNL     1     -10.679  45.700 -27.157  1.00  0.00    -0.273 OA
HETATM   24  N1  UNL     1     -10.342  47.849 -27.892  1.00  0.00    -0.361 N 
HETATM   25  H30 UNL     1      -9.619  48.535 -28.077  1.00  0.00     0.162 HD
BRANCH  24  26
HETATM   26  C20 UNL     1     -11.487  47.857 -28.786  1.00  0.00     0.127 C 
BRANCH  26  27
HETATM   27  C21 UNL     1     -11.327  46.881 -29.959  1.00  0.00     0.058 C 
BRANCH  27  28
HETATM   28  C22 UNL     1     -10.271  47.333 -30.941  1.00  0.00    -0.057 A 
HETATM   29  C23 UNL     1     -10.072  46.633 -32.139  1.00  0.00     0.007 A 
HETATM   30  C24 UNL     1      -9.070  47.022 -33.028  1.00  0.00     0.001 A 
HETATM   31  C25 UNL     1      -8.262  48.117 -32.733  1.00  0.00     0.000 A 
HETATM   32  C26 UNL     1      -8.453  48.824 -31.545  1.00  0.00     0.001 A 
HETATM   33  C27 UNL     1      -9.451  48.431 -30.651  1.00  0.00     0.007 A 
ENDBRANCH  27  28
ENDBRANCH  26  27
ENDBRANCH  24  26
ENDBRANCH  21  22
ENDBRANCH  19  21
ENDBRANCH   1  18
TORSDOF 12
ENDMDL
MODEL 9
REMARK minimizedAffinity -7.40597963
REMARK CNNscore 0.266735017
REMARK CNNaffinity 5.7145505
REMARK  12 active torsions:
REMARK  status: ('A' for Active; 'I' for Inactive)
REMARK    1  A    between atoms: C2_2  and  C3_3 
REMARK    2  A    between atoms: C2_2  and  C13_14 
REMARK    3  A    between atoms: C3_3  and  C4_4 
REMARK    4  A    between atoms: C4_4  and  C5_5 
REMARK    5  A    between atoms: C13_14  and  C14_15 
REMARK    6  A    between atoms: C14_15  and  O2_16 
REMARK    7  A    between atoms: C14_15  and  C15_17 
REMARK    8  A    between atoms: C16_18  and  C18_20 
REMARK    9  A    between atoms: C18_20  and  C19_21 
REMARK       I    between atoms: C19_21  and  N1_23 
REMARK   10  A    between atoms: N1_23  and  C20_24 
REMARK   11  A    between atoms: C20_24  and  C21_25 
REMARK   12  A    between atoms: C21_25  and  C22_26 
ROOT
HETATM    1  C14 UNL     1       0.120  52.638 -19.901  1.00  0.00     0.145 C 
ENDROOT
BRANCH   1   2
HETATM    2  C13 UNL     1       0.756  52.226 -21.252  1.00  0.00     0.069 C 
BRANCH   2   3
HETATM    3  C2  UNL     1      -0.190  51.817 -22.372  1.00  0.00    -0.086 C 
HETATM    4  C1  UNL     1      -0.204  52.498 -23.533  1.00  0.00     0.014 C 
BRANCH   3   5
HETATM    5  C3  UNL     1      -1.110  50.631 -22.161  1.00  0.00     0.034 C 
BRANCH   5   6
HETATM    6  C4  UNL     1      -2.612  50.954 -22.208  1.00  0.00     0.010 C 
BRANCH   6   7
HETATM    7  C5  UNL     1      -3.556  49.746 -22.464  1.00  0.00     0.001 C 
HETATM    8  C6  UNL     1      -2.771  48.648 -23.227  1.00  0.00     0.006 C 
HETATM    9  C7  UNL     1      -2.873  48.810 -24.733  1.00  0.00     0.008 C 
HETATM   10  C8  UNL     1      -4.302  48.582 -25.200  1.00  0.00     0.079 C 
HETATM   11  C9  UNL     1      -5.323  48.984 -24.155  1.00  0.00     0.135 C 
HETATM   12  O1  UNL     1      -6.450  48.485 -24.184  1.00  0.00    -0.297 OA
HETATM   13  C10 UNL     1      -4.935  50.087 -23.152  1.00  0.00     0.017 C 
HETATM   14  C11 UNL     1      -4.965  51.405 -23.953  1.00  0.00     0.023 C 
HETATM   15  C12 UNL     1      -6.038  50.168 -22.076  1.00  0.00     0.023 C 
ENDBRANCH   6   7
ENDBRANCH   5   6
ENDBRANCH   3   5
ENDBRANCH   2   3
ENDBRANCH   1   2
BRANCH   1  16
HETATM   16  O2  UNL     1       0.963  53.524 -19.166  1.00  0.00    -0.391 OA
HETATM   17  H23 UNL     1       1.381  54.118 -19.811  1.00  0.00     0.210 HD
ENDBRANCH   1  16
BRANCH   1  18
HETATM   18  C15 UNL     1      -0.209  51.484 -18.996  1.00  0.00     0.007 C 
HETATM   19  C16 UNL     1       0.215  51.293 -17.729  1.00  0.00    -0.076 C 
HETATM   20  C17 UNL     1       1.059  52.277 -16.963  1.00  0.00     0.043 C 
BRANCH  19  21
HETATM   21  C18 UNL     1      -0.172  50.046 -16.960  1.00  0.00     0.136 C 
BRANCH  21  22
HETATM   22  C19 UNL     1      -1.552  50.203 -16.327  1.00  0.00     0.221 C 
HETATM   23  O3  UNL     1      -2.564  50.414 -16.990  1.00  0.00    -0.273 OA
HETATM   24  N1  UNL     1      -1.553  50.106 -14.952  1.00  0.00    -0.361 N 
HETATM   25  H30 UNL     1      -0.666  50.196 -14.468  1.00  0.00     0.162 HD
BRANCH  24  26
HETATM   26  C20 UNL     1      -2.747  50.388 -14.175  1.00  0.00     0.127 C 
BRANCH  26  27
HETATM   27  C21 UNL     1      -2.983  51.890 -13.979  1.00  0.00     0.058 C 
BRANCH  27  28
HETATM   28  C22 UNL     1      -2.986  52.286 -12.520  1.00  0.00    -0.057 A 
HETATM   29  C23 UNL     1      -2.050  51.735 -11.634  1.00  0.00     0.007 A 
HETATM   30  C24 UNL     1      -2.078  52.067 -10.279  1.00  0.00     0.001 A 
HETATM   31  C25 UNL     1      -3.035  52.956  -9.798  1.00  0.00     0.000 A 
HETATM   32  C26 UNL     1      -3.969  53.513 -10.671  1.00  0.00     0.001 A 
HETATM   33  C27 UNL     1      -3.948  53.176 -12.026  1.00  0.00     0.007 A 
ENDBRANCH  27  28
ENDBRANCH  26  27
ENDBRANCH  24  26
ENDBRANCH  21  22
ENDBRANCH  19  21
ENDBRANCH   1  18
TORSDOF 12
ENDMDL
