MODEL 1
REMARK minimizedAffinity -10.9536581
REMARK CNNscore 0.423586309
REMARK CNNaffinity 6.95336866
REMARK  0 active torsions:
REMARK  status: ('A' for Active; 'I' for Inactive)
ROOT
HETATM    1  C1  UNL     1      -8.866  48.083 -20.541  1.00  0.00     0.023 C 
HETATM    2  C2  UNL     1      -7.501  47.392 -20.752  1.00  0.00     0.017 C 
HETATM    3  C3  UNL     1      -7.754  46.111 -21.569  1.00  0.00     0.023 C 
HETATM    4  C4  UNL     1      -6.989  47.008 -19.360  1.00  0.00     0.135 C 
HETATM    5  O1  UNL     1      -7.322  45.966 -18.794  1.00  0.00    -0.297 OA
HETATM    6  C5  UNL     1      -6.115  48.015 -18.657  1.00  0.00     0.080 C 
HETATM    7  C6  UNL     1      -4.872  48.371 -19.465  1.00  0.00     0.017 C 
HETATM    8  C7  UNL     1      -4.991  48.192 -21.022  1.00  0.00    -0.035 C 
HETATM    9  C8  UNL     1      -4.485  46.765 -21.336  1.00  0.00     0.016 C 
HETATM   10  C9  UNL     1      -4.113  49.324 -21.715  1.00  0.00     0.003 C 
HETATM   11  C10 UNL     1      -2.608  49.250 -21.380  1.00  0.00     0.006 C 
HETATM   12  C11 UNL     1      -1.838  50.497 -21.822  1.00  0.00     0.006 C 
HETATM   13  C12 UNL     1      -2.033  50.817 -23.307  1.00  0.00    -0.000 C 
HETATM   14  C13 UNL     1      -1.222  52.035 -23.809  1.00  0.00     0.009 C 
HETATM   15  C14 UNL     1       0.296  52.132 -23.552  1.00  0.00     0.067 A 
HETATM   16  C15 UNL     1       0.805  53.031 -24.721  1.00  0.00     0.140 A 
HETATM   17  C16 UNL     1      -0.405  53.331 -25.615  1.00  0.00     0.042 C 
HETATM   18  C17 UNL     1      -1.340  52.149 -25.353  1.00  0.00    -0.037 C 
HETATM   19  C18 UNL     1      -0.811  50.922 -26.142  1.00  0.00     0.015 C 
HETATM   20  C19 UNL     1      -2.805  52.409 -25.726  1.00  0.00     0.010 C 
HETATM   21  C20 UNL     1      -3.730  51.292 -25.202  1.00  0.00     0.011 C 
HETATM   22  C21 UNL     1      -3.572  50.964 -23.673  1.00  0.00    -0.032 C 
HETATM   23  C22 UNL     1      -4.186  52.197 -22.927  1.00  0.00     0.016 C 
HETATM   24  C23 UNL     1      -4.343  49.587 -23.256  1.00  0.00    -0.032 C 
HETATM   25  C24 UNL     1      -3.814  48.404 -24.121  1.00  0.00     0.016 C 
HETATM   26  C25 UNL     1      -5.871  49.690 -23.516  1.00  0.00     0.011 C 
HETATM   27  C26 UNL     1      -6.685  48.528 -22.941  1.00  0.00     0.007 C 
HETATM   28  C27 UNL     1      -6.496  48.401 -21.420  1.00  0.00     0.009 C 
HETATM   29  O2  UNL     1       1.327  54.262 -24.198  1.00  0.00    -0.313 OA
HETATM   30  C28 UNL     1       1.294  54.244 -22.838  1.00  0.00     0.297 A 
HETATM   31  O3  UNL     1       1.694  55.134 -22.107  1.00  0.00    -0.262 OA
HETATM   32  C29 UNL     1       0.745  52.954 -22.393  1.00  0.00     0.175 A 
HETATM   33  C30 UNL     1       1.189  52.339 -21.087  1.00  0.00     0.218 A 
HETATM   34  O4  UNL     1      -0.097  52.959 -21.235  1.00  0.00    -0.364 OA
ENDROOT
TORSDOF 0
ENDMDL
MODEL 2
REMARK minimizedAffinity -7.09627438
REMARK CNNscore 0.415684581
REMARK CNNaffinity 5.3630538
REMARK  0 active torsions:
REMARK  status: ('A' for Active; 'I' for Inactive)
ROOT
HETATM    1  C1  UNL     1      -8.054  46.639 -30.302  1.00  0.00     0.023 C 
HETATM    2  C2  UNL     1      -8.660  45.301 -29.825  1.00  0.00     0.017 C 
HETATM    3  C3  UNL     1      -7.513  44.462 -29.232  1.00  0.00     0.023 C 
HETATM    4  C4  UNL     1      -9.202  44.600 -31.076  1.00  0.00     0.135 C 
HETATM    5  O1  UNL     1      -8.493  43.909 -31.809  1.00  0.00    -0.297 OA
HETATM    6  C5  UNL     1     -10.642  44.865 -31.431  1.00  0.00     0.080 C 
HETATM    7  C6  UNL     1     -11.599  44.487 -30.305  1.00  0.00     0.017 C 
HETATM    8  C7  UNL     1     -10.994  44.515 -28.854  1.00  0.00    -0.035 C 
HETATM    9  C8  UNL     1     -10.484  43.083 -28.568  1.00  0.00     0.016 C 
HETATM   10  C9  UNL     1     -12.143  44.972 -27.851  1.00  0.00     0.003 C 
HETATM   11  C10 UNL     1     -13.355  44.017 -27.803  1.00  0.00     0.006 C 
HETATM   12  C11 UNL     1     -14.552  44.613 -27.059  1.00  0.00     0.006 C 
HETATM   13  C12 UNL     1     -14.195  45.085 -25.646  1.00  0.00    -0.000 C 
HETATM   14  C13 UNL     1     -15.392  45.637 -24.836  1.00  0.00     0.009 C 
HETATM   15  C14 UNL     1     -16.692  44.819 -24.691  1.00  0.00     0.067 A 
HETATM   16  C15 UNL     1     -17.295  45.333 -23.347  1.00  0.00     0.140 A 
HETATM   17  C16 UNL     1     -16.295  46.337 -22.761  1.00  0.00     0.042 C 
HETATM   18  C17 UNL     1     -14.960  45.901 -23.368  1.00  0.00    -0.037 C 
HETATM   19  C18 UNL     1     -14.458  44.650 -22.598  1.00  0.00     0.015 C 
HETATM   20  C19 UNL     1     -13.876  46.986 -23.351  1.00  0.00     0.010 C 
HETATM   21  C20 UNL     1     -12.654  46.580 -24.201  1.00  0.00     0.011 C 
HETATM   22  C21 UNL     1     -12.990  46.120 -25.665  1.00  0.00    -0.032 C 
HETATM   23  C22 UNL     1     -13.419  47.428 -26.414  1.00  0.00     0.016 C 
HETATM   24  C23 UNL     1     -11.711  45.421 -26.400  1.00  0.00    -0.032 C 
HETATM   25  C24 UNL     1     -11.214  44.211 -25.554  1.00  0.00     0.016 C 
HETATM   26  C25 UNL     1     -10.517  46.407 -26.523  1.00  0.00     0.011 C 
HETATM   27  C26 UNL     1      -9.370  45.897 -27.398  1.00  0.00     0.007 C 
HETATM   28  C27 UNL     1      -9.842  45.583 -28.828  1.00  0.00     0.009 C 
HETATM   29  O2  UNL     1     -18.545  45.995 -23.595  1.00  0.00    -0.313 OA
HETATM   30  C28 UNL     1     -18.866  45.909 -24.915  1.00  0.00     0.297 A 
HETATM   31  O3  UNL     1     -19.879  46.352 -25.428  1.00  0.00    -0.262 OA
HETATM   32  C29 UNL     1     -17.817  45.150 -25.612  1.00  0.00     0.175 A 
HETATM   33  C30 UNL     1     -18.150  44.307 -26.819  1.00  0.00     0.218 A 
HETATM   34  O4  UNL     1     -17.471  45.565 -26.937  1.00  0.00    -0.364 OA
ENDROOT
TORSDOF 0
ENDMDL
MODEL 3
REMARK minimizedAffinity -7.02460861
REMARK CNNscore 0.397420913
REMARK CNNaffinity 6.4106884
REMARK  0 active torsions:
REMARK  status: ('A' for Active; 'I' for Inactive)
ROOT
HETATM    1  C1  UNL     1      -3.956  50.301  -9.679  1.00  0.00     0.023 C 
HETATM    2  C2  UNL     1      -2.861  50.628 -10.719  1.00  0.00     0.017 C 
HETATM    3  C3  UNL     1      -3.551  51.303 -11.918  1.00  0.00     0.023 C 
HETATM    4  C4  UNL     1      -2.273  49.285 -11.167  1.00  0.00     0.135 C 
HETATM    5  O1  UNL     1      -2.782  48.602 -12.057  1.00  0.00    -0.297 OA
HETATM    6  C5  UNL     1      -1.078  48.779 -10.401  1.00  0.00     0.080 C 
HETATM    7  C6  UNL     1       0.088  49.763 -10.426  1.00  0.00     0.017 C 
HETATM    8  C7  UNL     1      -0.295  51.273 -10.631  1.00  0.00    -0.035 C 
HETATM    9  C8  UNL     1      -0.226  51.536 -12.154  1.00  0.00     0.016 C 
HETATM   10  C9  UNL     1       0.739  52.159  -9.806  1.00  0.00     0.003 C 
HETATM   11  C10 UNL     1       2.205  52.011 -10.266  1.00  0.00     0.006 C 
HETATM   12  C11 UNL     1       3.201  52.643  -9.291  1.00  0.00     0.006 C 
HETATM   13  C12 UNL     1       2.886  54.112  -8.992  1.00  0.00    -0.000 C 
HETATM   14  C13 UNL     1       3.906  54.806  -8.059  1.00  0.00     0.009 C 
HETATM   15  C14 UNL     1       5.418  54.751  -8.361  1.00  0.00     0.067 A 
HETATM   16  C15 UNL     1       5.970  56.042  -7.681  1.00  0.00     0.140 A 
HETATM   17  C16 UNL     1       4.765  56.797  -7.106  1.00  0.00     0.042 C 
HETATM   18  C17 UNL     1       3.602  56.327  -7.983  1.00  0.00    -0.037 C 
HETATM   19  C18 UNL     1       3.678  57.078  -9.338  1.00  0.00     0.015 C 
HETATM   20  C19 UNL     1       2.218  56.532  -7.356  1.00  0.00     0.010 C 
HETATM   21  C20 UNL     1       1.119  55.810  -8.161  1.00  0.00     0.011 C 
HETATM   22  C21 UNL     1       1.402  54.292  -8.455  1.00  0.00    -0.032 C 
HETATM   23  C22 UNL     1       1.242  53.573  -7.072  1.00  0.00     0.016 C 
HETATM   24  C23 UNL     1       0.368  53.674  -9.557  1.00  0.00    -0.032 C 
HETATM   25  C24 UNL     1       0.444  54.503 -10.873  1.00  0.00     0.016 C 
HETATM   26  C25 UNL     1      -1.102  53.747  -9.060  1.00  0.00     0.011 C 
HETATM   27  C26 UNL     1      -2.098  52.985  -9.936  1.00  0.00     0.007 C 
HETATM   28  C27 UNL     1      -1.735  51.494 -10.045  1.00  0.00     0.009 C 
HETATM   29  O2  UNL     1       6.863  55.687  -6.614  1.00  0.00    -0.313 OA
HETATM   30  C28 UNL     1       7.020  54.336  -6.564  1.00  0.00     0.297 A 
HETATM   31  O3  UNL     1       7.737  53.734  -5.783  1.00  0.00    -0.262 OA
HETATM   32  C29 UNL     1       6.225  53.726  -7.640  1.00  0.00     0.175 A 
HETATM   33  C30 UNL     1       6.675  52.442  -8.295  1.00  0.00     0.218 A 
HETATM   34  O4  UNL     1       5.587  52.475  -7.361  1.00  0.00    -0.364 OA
ENDROOT
TORSDOF 0
ENDMDL
MODEL 4
REMARK minimizedAffinity -7.13995457
REMARK CNNscore 0.378329992
REMARK CNNaffinity 6.43454504
REMARK  0 active torsions:
REMARK  status: ('A' for Active; 'I' for Inactive)
ROOT
HETATM    1  C1  UNL     1      -0.012  52.485 -13.495  1.00  0.00     0.023 C 
HETATM    2  C2  UNL     1      -0.001  51.985 -12.033  1.00  0.00     0.017 C 
HETATM    3  C3  UNL     1       0.367  50.489 -12.061  1.00  0.00     0.023 C 
HETATM    4  C4  UNL     1      -1.432  52.142 -11.510  1.00  0.00     0.135 C 
HETATM    5  O1  UNL     1      -2.303  51.291 -11.695  1.00  0.00    -0.297 OA
HETATM    6  C5  UNL     1      -1.765  53.442 -10.824  1.00  0.00     0.080 C 
HETATM    7  C6  UNL     1      -0.860  53.716  -9.627  1.00  0.00     0.017 C 
HETATM    8  C7  UNL     1       0.558  53.042  -9.671  1.00  0.00    -0.035 C 
HETATM    9  C8  UNL     1       0.418  51.686  -8.941  1.00  0.00     0.016 C 
HETATM   10  C9  UNL     1       1.591  54.022  -8.959  1.00  0.00     0.003 C 
HETATM   11  C10 UNL     1       1.280  54.293  -7.471  1.00  0.00     0.006 C 
HETATM   12  C11 UNL     1       2.107  55.443  -6.890  1.00  0.00     0.006 C 
HETATM   13  C12 UNL     1       3.614  55.247  -7.088  1.00  0.00    -0.000 C 
HETATM   14  C13 UNL     1       4.489  56.357  -6.460  1.00  0.00     0.009 C 
HETATM   15  C14 UNL     1       4.307  56.765  -4.984  1.00  0.00     0.067 A 
HETATM   16  C15 UNL     1       5.710  57.320  -4.587  1.00  0.00     0.140 A 
HETATM   17  C16 UNL     1       6.628  57.132  -5.801  1.00  0.00     0.042 C 
HETATM   18  C17 UNL     1       5.988  55.960  -6.549  1.00  0.00    -0.037 C 
HETATM   19  C18 UNL     1       6.363  54.647  -5.813  1.00  0.00     0.015 C 
HETATM   20  C19 UNL     1       6.393  55.858  -8.024  1.00  0.00     0.010 C 
HETATM   21  C20 UNL     1       5.526  54.832  -8.781  1.00  0.00     0.011 C 
HETATM   22  C21 UNL     1       3.975  55.028  -8.620  1.00  0.00    -0.032 C 
HETATM   23  C22 UNL     1       3.642  56.322  -9.439  1.00  0.00     0.016 C 
HETATM   24  C23 UNL     1       3.130  53.749  -9.180  1.00  0.00    -0.032 C 
HETATM   25  C24 UNL     1       3.591  52.453  -8.449  1.00  0.00     0.016 C 
HETATM   26  C25 UNL     1       3.379  53.525 -10.697  1.00  0.00     0.011 C 
HETATM   27  C26 UNL     1       2.451  52.490 -11.338  1.00  0.00     0.007 C 
HETATM   28  C27 UNL     1       0.971  52.877 -11.178  1.00  0.00     0.009 C 
HETATM   29  O2  UNL     1       5.611  58.718  -4.277  1.00  0.00    -0.313 OA
HETATM   30  C28 UNL     1       4.314  59.123  -4.347  1.00  0.00     0.297 A 
HETATM   31  O3  UNL     1       3.908  60.249  -4.112  1.00  0.00    -0.262 OA
HETATM   32  C29 UNL     1       3.474  57.969  -4.703  1.00  0.00     0.175 A 
HETATM   33  C30 UNL     1       2.051  57.872  -4.209  1.00  0.00     0.218 A 
HETATM   34  O4  UNL     1       2.360  58.205  -5.569  1.00  0.00    -0.364 OA
ENDROOT
TORSDOF 0
ENDMDL
MODEL 5
REMARK minimizedAffinity -7.54434252
REMARK CNNscore 0.374575555
REMARK CNNaffinity 5.7153163
REMARK  0 active torsions:
REMARK  status: ('A' for Active; 'I' for Inactive)
ROOT
HETATM    1  C1  UNL     1      -7.204  48.793 -31.146  1.00  0.00     0.023 C 
HETATM    2  C2  UNL     1      -7.478  47.304 -30.837  1.00  0.00     0.017 C 
HETATM    3  C3  UNL     1      -6.193  46.717 -30.224  1.00  0.00     0.023 C 
HETATM    4  C4  UNL     1      -7.750  46.625 -32.184  1.00  0.00     0.135 C 
HETATM    5  O1  UNL     1      -6.848  46.210 -32.912  1.00  0.00    -0.297 OA
HETATM    6  C5  UNL     1      -9.187  46.562 -32.633  1.00  0.00     0.080 C 
HETATM    7  C6  UNL     1     -10.081  45.845 -31.626  1.00  0.00     0.017 C 
HETATM    8  C7  UNL     1      -9.590  45.870 -30.134  1.00  0.00    -0.035 C 
HETATM    9  C8  UNL     1      -8.751  44.587 -29.931  1.00  0.00     0.016 C 
HETATM   10  C9  UNL     1     -10.874  45.923 -29.195  1.00  0.00     0.003 C 
HETATM   11  C10 UNL     1     -11.805  44.699 -29.329  1.00  0.00     0.006 C 
HETATM   12  C11 UNL     1     -13.156  44.900 -28.638  1.00  0.00     0.006 C 
HETATM   13  C12 UNL     1     -13.013  45.297 -27.165  1.00  0.00    -0.000 C 
HETATM   14  C13 UNL     1     -14.357  45.450 -26.413  1.00  0.00     0.009 C 
HETATM   15  C14 UNL     1     -15.413  44.326 -26.447  1.00  0.00     0.067 A 
HETATM   16  C15 UNL     1     -16.205  44.532 -25.119  1.00  0.00     0.140 A 
HETATM   17  C16 UNL     1     -15.528  45.685 -24.368  1.00  0.00     0.042 C 
HETATM   18  C17 UNL     1     -14.093  45.658 -24.897  1.00  0.00    -0.037 C 
HETATM   19  C18 UNL     1     -13.336  44.497 -24.199  1.00  0.00     0.015 C 
HETATM   20  C19 UNL     1     -13.322  46.968 -24.698  1.00  0.00     0.010 C 
HETATM   21  C20 UNL     1     -11.990  46.967 -25.474  1.00  0.00     0.011 C 
HETATM   22  C21 UNL     1     -12.111  46.593 -26.996  1.00  0.00    -0.032 C 
HETATM   23  C22 UNL     1     -12.813  47.826 -27.663  1.00  0.00     0.016 C 
HETATM   24  C23 UNL     1     -10.656  46.311 -27.679  1.00  0.00    -0.032 C 
HETATM   25  C24 UNL     1      -9.919  45.180 -26.901  1.00  0.00     0.016 C 
HETATM   26  C25 UNL     1      -9.746  47.569 -27.618  1.00  0.00     0.011 C 
HETATM   27  C26 UNL     1      -8.457  47.451 -28.435  1.00  0.00     0.007 C 
HETATM   28  C27 UNL     1      -8.750  47.181 -29.921  1.00  0.00     0.009 C 
HETATM   29  O2  UNL     1     -17.564  44.888 -25.412  1.00  0.00    -0.313 OA
HETATM   30  C28 UNL     1     -17.776  44.863 -26.757  1.00  0.00     0.297 A 
HETATM   31  O3  UNL     1     -18.836  45.093 -27.313  1.00  0.00    -0.262 OA
HETATM   32  C29 UNL     1     -16.529  44.463 -27.426  1.00  0.00     0.175 A 
HETATM   33  C30 UNL     1     -16.566  43.694 -28.725  1.00  0.00     0.218 A 
HETATM   34  O4  UNL     1     -16.222  45.085 -28.678  1.00  0.00    -0.364 OA
ENDROOT
TORSDOF 0
ENDMDL
MODEL 6
REMARK minimizedAffinity -6.77182436
REMARK CNNscore 0.358376205
REMARK CNNaffinity 6.85078812
REMARK  0 active torsions:
REMARK  status: ('A' for Active; 'I' for Inactive)
ROOT
HETATM    1  C1  UNL     1       6.598  55.742  -3.727  1.00  0.00     0.023 C 
HETATM    2  C2  UNL     1       6.245  56.507  -5.021  1.00  0.00     0.017 C 
HETATM    3  C3  UNL     1       7.569  56.961  -5.663  1.00  0.00     0.023 C 
HETATM    4  C4  UNL     1       5.444  57.741  -4.591  1.00  0.00     0.135 C 
HETATM    5  O1  UNL     1       5.981  58.788  -4.231  1.00  0.00    -0.297 OA
HETATM    6  C5  UNL     1       3.945  57.591  -4.540  1.00  0.00     0.080 C 
HETATM    7  C6  UNL     1       3.355  57.170  -5.882  1.00  0.00     0.017 C 
HETATM    8  C7  UNL     1       4.321  56.378  -6.836  1.00  0.00    -0.035 C 
HETATM    9  C8  UNL     1       4.997  57.433  -7.744  1.00  0.00     0.016 C 
HETATM   10  C9  UNL     1       3.450  55.327  -7.655  1.00  0.00     0.003 C 
HETATM   11  C10 UNL     1       2.372  55.966  -8.555  1.00  0.00     0.006 C 
HETATM   12  C11 UNL     1       1.375  54.943  -9.106  1.00  0.00     0.006 C 
HETATM   13  C12 UNL     1       2.059  53.786  -9.841  1.00  0.00    -0.000 C 
HETATM   14  C13 UNL     1       1.084  52.763 -10.469  1.00  0.00     0.009 C 
HETATM   15  C14 UNL     1      -0.064  53.227 -11.388  1.00  0.00     0.067 A 
HETATM   16  C15 UNL     1      -0.325  51.986 -12.297  1.00  0.00     0.140 A 
HETATM   17  C16 UNL     1       0.717  50.926 -11.918  1.00  0.00     0.042 C 
HETATM   18  C17 UNL     1       1.871  51.752 -11.346  1.00  0.00    -0.037 C 
HETATM   19  C18 UNL     1       2.653  52.383 -12.529  1.00  0.00     0.015 C 
HETATM   20  C19 UNL     1       2.834  50.958 -10.456  1.00  0.00     0.010 C 
HETATM   21  C20 UNL     1       3.811  51.887  -9.708  1.00  0.00     0.011 C 
HETATM   22  C21 UNL     1       3.133  53.065  -8.920  1.00  0.00    -0.032 C 
HETATM   23  C22 UNL     1       2.421  52.383  -7.701  1.00  0.00     0.016 C 
HETATM   24  C23 UNL     1       4.219  54.174  -8.414  1.00  0.00    -0.032 C 
HETATM   25  C24 UNL     1       5.014  54.727  -9.634  1.00  0.00     0.016 C 
HETATM   26  C25 UNL     1       5.258  53.550  -7.442  1.00  0.00     0.011 C 
HETATM   27  C26 UNL     1       6.165  54.572  -6.754  1.00  0.00     0.007 C 
HETATM   28  C27 UNL     1       5.353  55.599  -5.944  1.00  0.00     0.009 C 
HETATM   29  O2  UNL     1      -1.641  51.470 -12.053  1.00  0.00    -0.313 OA
HETATM   30  C28 UNL     1      -2.296  52.261 -11.159  1.00  0.00     0.297 A 
HETATM   31  O3  UNL     1      -3.440  52.096 -10.771  1.00  0.00    -0.262 OA
HETATM   32  C29 UNL     1      -1.416  53.375 -10.777  1.00  0.00     0.175 A 
HETATM   33  C30 UNL     1      -1.995  54.720 -10.408  1.00  0.00     0.218 A 
HETATM   34  O4  UNL     1      -1.469  53.823  -9.419  1.00  0.00    -0.364 OA
ENDROOT
TORSDOF 0
ENDMDL
MODEL 7
REMARK minimizedAffinity -7.51248455
REMARK CNNscore 0.318078101
REMARK CNNaffinity 6.14258003
REMARK  0 active torsions:
REMARK  status: ('A' for Active; 'I' for Inactive)
ROOT
HETATM    1  C1  UNL     1      -4.165  53.303 -10.521  1.00  0.00     0.023 C 
HETATM    2  C2  UNL     1      -2.966  52.389 -10.858  1.00  0.00     0.017 C 
HETATM    3  C3  UNL     1      -2.932  52.218 -12.388  1.00  0.00     0.023 C 
HETATM    4  C4  UNL     1      -3.258  51.033 -10.206  1.00  0.00     0.135 C 
HETATM    5  O1  UNL     1      -3.947  50.170 -10.750  1.00  0.00    -0.297 OA
HETATM    6  C5  UNL     1      -2.733  50.826  -8.808  1.00  0.00     0.080 C 
HETATM    7  C6  UNL     1      -1.221  51.003  -8.722  1.00  0.00     0.017 C 
HETATM    8  C7  UNL     1      -0.577  51.934  -9.812  1.00  0.00    -0.035 C 
HETATM    9  C8  UNL     1      -0.154  51.010 -10.978  1.00  0.00     0.016 C 
HETATM   10  C9  UNL     1       0.656  52.690  -9.147  1.00  0.00     0.003 C 
HETATM   11  C10 UNL     1       1.778  51.753  -8.652  1.00  0.00     0.006 C 
HETATM   12  C11 UNL     1       2.807  52.470  -7.774  1.00  0.00     0.006 C 
HETATM   13  C12 UNL     1       3.410  53.703  -8.455  1.00  0.00    -0.000 C 
HETATM   14  C13 UNL     1       4.501  54.421  -7.625  1.00  0.00     0.009 C 
HETATM   15  C14 UNL     1       5.693  53.636  -7.042  1.00  0.00     0.067 A 
HETATM   16  C15 UNL     1       6.814  54.715  -6.925  1.00  0.00     0.140 A 
HETATM   17  C16 UNL     1       6.248  56.015  -7.509  1.00  0.00     0.042 C 
HETATM   18  C17 UNL     1       5.174  55.527  -8.483  1.00  0.00    -0.037 C 
HETATM   19  C18 UNL     1       5.875  55.021  -9.771  1.00  0.00     0.015 C 
HETATM   20  C19 UNL     1       4.126  56.586  -8.848  1.00  0.00     0.010 C 
HETATM   21  C20 UNL     1       2.939  55.969  -9.614  1.00  0.00     0.011 C 
HETATM   22  C21 UNL     1       2.282  54.720  -8.921  1.00  0.00    -0.032 C 
HETATM   23  C22 UNL     1       1.530  55.296  -7.673  1.00  0.00     0.016 C 
HETATM   24  C23 UNL     1       1.249  53.937  -9.914  1.00  0.00    -0.032 C 
HETATM   25  C24 UNL     1       1.992  53.506 -11.213  1.00  0.00     0.016 C 
HETATM   26  C25 UNL     1       0.073  54.854 -10.348  1.00  0.00     0.011 C 
HETATM   27  C26 UNL     1      -1.049  54.126 -11.092  1.00  0.00     0.007 C 
HETATM   28  C27 UNL     1      -1.652  52.995 -10.242  1.00  0.00     0.009 C 
HETATM   29  O2  UNL     1       7.152  54.920  -5.545  1.00  0.00    -0.313 OA
HETATM   30  C28 UNL     1       6.449  54.059  -4.758  1.00  0.00     0.297 A 
HETATM   31  O3  UNL     1       6.538  53.974  -3.545  1.00  0.00    -0.262 OA
HETATM   32  C29 UNL     1       5.604  53.214  -5.615  1.00  0.00     0.175 A 
HETATM   33  C30 UNL     1       5.270  51.799  -5.208  1.00  0.00     0.218 A 
HETATM   34  O4  UNL     1       4.309  52.860  -5.121  1.00  0.00    -0.364 OA
ENDROOT
TORSDOF 0
ENDMDL
MODEL 8
REMARK minimizedAffinity -7.62170458
REMARK CNNscore 0.277396739
REMARK CNNaffinity 6.60806847
REMARK  0 active torsions:
REMARK  status: ('A' for Active; 'I' for Inactive)
ROOT
HETATM    1  C1  UNL     1       6.208  54.546  -6.556  1.00  0.00     0.023 C 
HETATM    2  C2  UNL     1       5.536  55.202  -7.782  1.00  0.00     0.017 C 
HETATM    3  C3  UNL     1       6.648  55.535  -8.794  1.00  0.00     0.023 C 
HETATM    4  C4  UNL     1       4.902  56.506  -7.283  1.00  0.00     0.135 C 
HETATM    5  O1  UNL     1       5.536  57.557  -7.187  1.00  0.00    -0.297 OA
HETATM    6  C5  UNL     1       3.469  56.430  -6.822  1.00  0.00     0.080 C 
HETATM    7  C6  UNL     1       2.534  55.912  -7.911  1.00  0.00     0.017 C 
HETATM    8  C7  UNL     1       3.194  54.993  -9.001  1.00  0.00    -0.035 C 
HETATM    9  C8  UNL     1       3.622  55.927 -10.157  1.00  0.00     0.016 C 
HETATM   10  C9  UNL     1       2.116  53.910  -9.449  1.00  0.00     0.003 C 
HETATM   11  C10 UNL     1       0.848  54.512 -10.092  1.00  0.00     0.006 C 
HETATM   12  C11 UNL     1      -0.279  53.488 -10.253  1.00  0.00     0.006 C 
HETATM   13  C12 UNL     1       0.162  52.238 -11.021  1.00  0.00    -0.000 C 
HETATM   14  C13 UNL     1      -0.965  51.206 -11.261  1.00  0.00     0.009 C 
HETATM   15  C14 UNL     1      -2.309  51.635 -11.886  1.00  0.00     0.067 A 
HETATM   16  C15 UNL     1      -2.826  50.328 -12.563  1.00  0.00     0.140 A 
HETATM   17  C16 UNL     1      -1.742  49.261 -12.367  1.00  0.00     0.042 C 
HETATM   18  C17 UNL     1      -0.461  50.084 -12.208  1.00  0.00    -0.037 C 
HETATM   19  C18 UNL     1      -0.012  50.566 -13.613  1.00  0.00     0.015 C 
HETATM   20  C19 UNL     1       0.690  49.333 -11.528  1.00  0.00     0.010 C 
HETATM   21  C20 UNL     1       1.850  50.282 -11.164  1.00  0.00     0.011 C 
HETATM   22  C21 UNL     1       1.429  51.558 -10.348  1.00  0.00    -0.032 C 
HETATM   23  C22 UNL     1       1.057  51.025  -8.922  1.00  0.00     0.016 C 
HETATM   24  C23 UNL     1       2.632  52.659 -10.263  1.00  0.00    -0.032 C 
HETATM   25  C24 UNL     1       3.081  53.059 -11.700  1.00  0.00     0.016 C 
HETATM   26  C25 UNL     1       3.881  52.081  -9.542  1.00  0.00     0.011 C 
HETATM   27  C26 UNL     1       4.958  53.121  -9.226  1.00  0.00     0.007 C 
HETATM   28  C27 UNL     1       4.412  54.254  -8.340  1.00  0.00     0.009 C 
HETATM   29  O2  UNL     1      -4.039  49.897 -11.927  1.00  0.00    -0.313 OA
HETATM   30  C28 UNL     1      -4.415  50.796 -10.978  1.00  0.00     0.297 A 
HETATM   31  O3  UNL     1      -5.417  50.720 -10.287  1.00  0.00    -0.262 OA
HETATM   32  C29 UNL     1      -3.444  51.900 -10.957  1.00  0.00     0.175 A 
HETATM   33  C30 UNL     1      -3.877  53.298 -10.587  1.00  0.00     0.218 A 
HETATM   34  O4  UNL     1      -3.124  52.474  -9.687  1.00  0.00    -0.364 OA
ENDROOT
TORSDOF 0
ENDMDL
MODEL 9
REMARK minimizedAffinity -7.20135832
REMARK CNNscore 0.239142656
REMARK CNNaffinity 5.94301987
REMARK  0 active torsions:
REMARK  status: ('A' for Active; 'I' for Inactive)
ROOT
HETATM    1  C1  UNL     1       0.971  49.325 -14.945  1.00  0.00     0.023 C 
HETATM    2  C2  UNL     1       1.537  48.991 -13.547  1.00  0.00     0.017 C 
HETATM    3  C3  UNL     1       2.873  48.255 -13.755  1.00  0.00     0.023 C 
HETATM    4  C4  UNL     1       0.533  48.037 -12.890  1.00  0.00     0.135 C 
HETATM    5  O1  UNL     1       0.549  46.821 -13.083  1.00  0.00    -0.297 OA
HETATM    6  C5  UNL     1      -0.551  48.666 -12.053  1.00  0.00     0.080 C 
HETATM    7  C6  UNL     1       0.010  49.514 -10.916  1.00  0.00     0.017 C 
HETATM    8  C7  UNL     1       1.446  50.108 -11.148  1.00  0.00    -0.035 C 
HETATM    9  C8  UNL     1       2.441  49.087 -10.547  1.00  0.00     0.016 C 
HETATM   10  C9  UNL     1       1.512  51.528 -10.433  1.00  0.00     0.003 C 
HETATM   11  C10 UNL     1       1.301  51.476  -8.905  1.00  0.00     0.006 C 
HETATM   12  C11 UNL     1       1.089  52.860  -8.286  1.00  0.00     0.006 C 
HETATM   13  C12 UNL     1       2.214  53.841  -8.631  1.00  0.00    -0.000 C 
HETATM   14  C13 UNL     1       2.069  55.234  -7.973  1.00  0.00     0.009 C 
HETATM   15  C14 UNL     1       1.842  55.369  -6.453  1.00  0.00     0.067 A 
HETATM   16  C15 UNL     1       2.425  56.778  -6.124  1.00  0.00     0.140 A 
HETATM   17  C16 UNL     1       3.018  57.333  -7.425  1.00  0.00     0.042 C 
HETATM   18  C17 UNL     1       3.349  56.074  -8.229  1.00  0.00    -0.037 C 
HETATM   19  C18 UNL     1       4.658  55.463  -7.661  1.00  0.00     0.015 C 
HETATM   20  C19 UNL     1       3.502  56.310  -9.736  1.00  0.00     0.010 C 
HETATM   21  C20 UNL     1       3.574  54.981 -10.514  1.00  0.00     0.011 C 
HETATM   22  C21 UNL     1       2.415  53.967 -10.201  1.00  0.00    -0.032 C 
HETATM   23  C22 UNL     1       1.137  54.595 -10.857  1.00  0.00     0.016 C 
HETATM   24  C23 UNL     1       2.712  52.482 -10.812  1.00  0.00    -0.032 C 
HETATM   25  C24 UNL     1       4.065  51.946 -10.255  1.00  0.00     0.016 C 
HETATM   26  C25 UNL     1       2.844  52.520 -12.359  1.00  0.00     0.011 C 
HETATM   27  C26 UNL     1       2.897  51.140 -13.018  1.00  0.00     0.007 C 
HETATM   28  C27 UNL     1       1.645  50.307 -12.694  1.00  0.00     0.009 C 
HETATM   29  O2  UNL     1       1.376  57.647  -5.670  1.00  0.00    -0.313 OA
HETATM   30  C28 UNL     1       0.203  56.961  -5.589  1.00  0.00     0.297 A 
HETATM   31  O3  UNL     1      -0.861  57.420  -5.209  1.00  0.00    -0.262 OA
HETATM   32  C29 UNL     1       0.440  55.565  -5.984  1.00  0.00     0.175 A 
HETATM   33  C30 UNL     1      -0.375  54.446  -5.382  1.00  0.00     0.218 A 
HETATM   34  O4  UNL     1      -0.591  54.904  -6.724  1.00  0.00    -0.364 OA
ENDROOT
TORSDOF 0
ENDMDL
