MODEL 1
REMARK minimizedAffinity -7.42914248
REMARK CNNscore 0.583259881
REMARK CNNaffinity 5.75823975
REMARK  10 active torsions:
REMARK  status: ('A' for Active; 'I' for Inactive)
REMARK    1  A    between atoms: C19_21  and  O3_22 
REMARK    2  A    between atoms: C19_21  and  C20_23 
REMARK    3  A    between atoms: C20_23  and  C21_25 
REMARK    4  A    between atoms: C21_25  and  O5_26 
REMARK    5  A    between atoms: O5_26  and  C22_27 
REMARK    6  A    between atoms: C22_27  and  C23_29 
REMARK    7  A    between atoms: C23_29  and  C24_30 
REMARK    8  A    between atoms: C24_30  and  C25_31 
REMARK       I    between atoms: C25_31  and  N1_33 
REMARK    9  A    between atoms: N1_33  and  C26_34 
REMARK   10  A    between atoms: C26_34  and  C27_35 
ROOT
HETATM    1  C1  UNL     1     -10.583  14.001  22.572  1.00  0.00     0.021 C 
HETATM    2  C2  UNL     1      -9.560  12.877  22.298  1.00  0.00    -0.009 C 
HETATM    3  C3  UNL     1      -8.289  13.095  23.177  1.00  0.00     0.022 C 
HETATM    4  C4  UNL     1      -7.413  14.252  22.719  1.00  0.00     0.084 C 
HETATM    5  C5  UNL     1      -7.026  14.078  21.277  1.00  0.00     0.149 C 
HETATM    6  O1  UNL     1      -5.976  14.525  20.816  1.00  0.00    -0.293 OA
HETATM    7  C6  UNL     1      -8.003  13.432  20.366  1.00  0.00     0.053 C 
HETATM    8  C7  UNL     1      -9.174  12.944  20.809  1.00  0.00    -0.067 C 
HETATM    9  C8  UNL     1     -10.197  12.448  19.811  1.00  0.00     0.035 C 
HETATM   10  C9  UNL     1     -10.717  11.062  20.160  1.00  0.00     0.010 C 
HETATM   11  C10 UNL     1     -11.257  11.015  21.597  1.00  0.00     0.003 C 
HETATM   12  C11 UNL     1     -10.146  11.448  22.599  1.00  0.00     0.072 C 
HETATM   13  C12 UNL     1     -10.617  11.217  24.048  1.00  0.00     0.133 C 
HETATM   14  O2  UNL     1     -10.467  12.035  24.952  1.00  0.00    -0.297 OA
HETATM   15  C13 UNL     1     -11.192   9.848  24.372  1.00  0.00     0.091 C 
HETATM   16  C14 UNL     1     -12.322   9.503  23.395  1.00  0.00     0.005 C 
HETATM   17  C15 UNL     1     -13.517  10.465  23.636  1.00  0.00     0.019 C 
HETATM   18  C16 UNL     1     -11.739   9.603  21.962  1.00  0.00     0.002 C 
HETATM   19  C17 UNL     1     -12.810   8.953  21.094  1.00  0.00     0.009 C 
HETATM   20  C18 UNL     1     -13.433   7.860  21.988  1.00  0.00     0.047 C 
HETATM   21  C19 UNL     1     -12.792   8.013  23.398  1.00  0.00     0.128 C 
ENDROOT
BRANCH  21  22
HETATM   22  O3  UNL     1     -11.638   7.167  23.390  1.00  0.00    -0.381 OA
HETATM   23  H25 UNL     1     -11.789   6.421  24.006  1.00  0.00     0.211 HD
ENDBRANCH  21  22
BRANCH  21  24
HETATM   24  C20 UNL     1     -13.798   7.666  24.537  1.00  0.00     0.185 C 
HETATM   25  O4  UNL     1     -13.819   8.291  25.603  1.00  0.00    -0.292 OA
BRANCH  24  26
HETATM   26  C21 UNL     1     -14.707   6.457  24.356  1.00  0.00     0.260 C 
BRANCH  26  27
HETATM   27  O5  UNL     1     -13.940   5.274  24.160  1.00  0.00    -0.314 OA
BRANCH  27  28
HETATM   28  C22 UNL     1     -14.365   4.493  23.136  1.00  0.00     0.259 C 
HETATM   29  O6  UNL     1     -15.222   4.805  22.321  1.00  0.00    -0.265 OA
BRANCH  28  30
HETATM   30  C23 UNL     1     -13.614   3.183  23.122  1.00  0.00     0.120 C 
BRANCH  30  31
HETATM   31  C24 UNL     1     -13.987   2.356  24.344  1.00  0.00     0.112 C 
BRANCH  31  32
HETATM   32  C25 UNL     1     -12.789   2.113  25.244  1.00  0.00     0.218 C 
HETATM   33  O7  UNL     1     -11.635   2.106  24.831  1.00  0.00    -0.274 OA
HETATM   34  N1  UNL     1     -13.135   1.897  26.555  1.00  0.00    -0.355 N 
HETATM   35  H32 UNL     1     -14.103   1.968  26.839  1.00  0.00     0.162 HD
BRANCH  34  36
HETATM   36  C26 UNL     1     -12.151   1.638  27.582  1.00  0.00     0.187 C 
BRANCH  36  37
HETATM   37  C27 UNL     1     -12.476   2.451  28.779  1.00  0.00     0.070 A 
HETATM   38  C28 UNL     1     -12.030   3.672  29.245  1.00  0.00     0.036 A 
HETATM   39  C29 UNL     1     -12.757   3.929  30.435  1.00  0.00     0.027 A 
HETATM   40  C30 UNL     1     -13.589   2.851  30.623  1.00  0.00     0.142 A 
HETATM   41  O8  UNL     1     -13.426   1.948  29.621  1.00  0.00    -0.325 OA
ENDBRANCH  36  37
ENDBRANCH  34  36
ENDBRANCH  31  32
ENDBRANCH  30  31
ENDBRANCH  28  30
ENDBRANCH  27  28
ENDBRANCH  26  27
ENDBRANCH  24  26
ENDBRANCH  21  24
TORSDOF 10
ENDMDL
MODEL 2
REMARK minimizedAffinity -8.37168217
REMARK CNNscore 0.525809944
REMARK CNNaffinity 6.43739367
REMARK  10 active torsions:
REMARK  status: ('A' for Active; 'I' for Inactive)
REMARK    1  A    between atoms: C19_21  and  O3_22 
REMARK    2  A    between atoms: C19_21  and  C20_23 
REMARK    3  A    between atoms: C20_23  and  C21_25 
REMARK    4  A    between atoms: C21_25  and  O5_26 
REMARK    5  A    between atoms: O5_26  and  C22_27 
REMARK    6  A    between atoms: C22_27  and  C23_29 
REMARK    7  A    between atoms: C23_29  and  C24_30 
REMARK    8  A    between atoms: C24_30  and  C25_31 
REMARK       I    between atoms: C25_31  and  N1_33 
REMARK    9  A    between atoms: N1_33  and  C26_34 
REMARK   10  A    between atoms: C26_34  and  C27_35 
ROOT
HETATM    1  C1  UNL     1      -2.709   7.412  12.713  1.00  0.00     0.021 C 
HETATM    2  C2  UNL     1      -3.462   6.809  13.920  1.00  0.00    -0.009 C 
HETATM    3  C3  UNL     1      -2.997   5.337  14.150  1.00  0.00     0.022 C 
HETATM    4  C4  UNL     1      -3.512   4.356  13.106  1.00  0.00     0.084 C 
HETATM    5  C5  UNL     1      -5.011   4.421  13.020  1.00  0.00     0.149 C 
HETATM    6  O1  UNL     1      -5.696   3.455  12.688  1.00  0.00    -0.293 OA
HETATM    7  C6  UNL     1      -5.666   5.733  13.247  1.00  0.00     0.053 C 
HETATM    8  C7  UNL     1      -4.967   6.827  13.592  1.00  0.00    -0.067 C 
HETATM    9  C8  UNL     1      -5.665   8.168  13.648  1.00  0.00     0.035 C 
HETATM   10  C9  UNL     1      -5.399   8.903  14.952  1.00  0.00     0.010 C 
HETATM   11  C10 UNL     1      -3.893   9.037  15.220  1.00  0.00     0.003 C 
HETATM   12  C11 UNL     1      -3.228   7.628  15.242  1.00  0.00     0.072 C 
HETATM   13  C12 UNL     1      -1.761   7.740  15.700  1.00  0.00     0.133 C 
HETATM   14  O2  UNL     1      -0.829   7.158  15.152  1.00  0.00    -0.297 OA
HETATM   15  C13 UNL     1      -1.499   8.528  16.974  1.00  0.00     0.091 C 
HETATM   16  C14 UNL     1      -2.120   9.926  16.869  1.00  0.00     0.005 C 
HETATM   17  C15 UNL     1      -1.370  10.738  15.778  1.00  0.00     0.019 C 
HETATM   18  C16 UNL     1      -3.627   9.737  16.560  1.00  0.00     0.002 C 
HETATM   19  C17 UNL     1      -4.214  11.127  16.782  1.00  0.00     0.009 C 
HETATM   20  C18 UNL     1      -3.358  11.741  17.911  1.00  0.00     0.047 C 
HETATM   21  C19 UNL     1      -2.211  10.731  18.204  1.00  0.00     0.128 C 
ENDROOT
BRANCH  21  22
HETATM   22  O3  UNL     1      -2.710   9.867  19.230  1.00  0.00    -0.381 OA
HETATM   23  H25 UNL     1      -2.206  10.029  20.053  1.00  0.00     0.211 HD
ENDBRANCH  21  22
BRANCH  21  24
HETATM   24  C20 UNL     1      -0.887  11.451  18.603  1.00  0.00     0.185 C 
HETATM   25  O4  UNL     1      -0.527  12.503  18.064  1.00  0.00    -0.292 OA
BRANCH  24  26
HETATM   26  C21 UNL     1       0.026  10.776  19.619  1.00  0.00     0.260 C 
BRANCH  26  27
HETATM   27  O5  UNL     1       1.253  10.386  19.013  1.00  0.00    -0.314 OA
BRANCH  27  28
HETATM   28  C22 UNL     1       2.323  10.412  19.846  1.00  0.00     0.259 C 
HETATM   29  O6  UNL     1       3.468  10.685  19.512  1.00  0.00    -0.265 OA
BRANCH  28  30
HETATM   30  C23 UNL     1       1.905  10.080  21.258  1.00  0.00     0.120 C 
BRANCH  30  31
HETATM   31  C24 UNL     1       3.126  10.039  22.166  1.00  0.00     0.112 C 
BRANCH  31  32
HETATM   32  C25 UNL     1       3.473  11.416  22.704  1.00  0.00     0.218 C 
HETATM   33  O7  UNL     1       2.648  12.150  23.236  1.00  0.00    -0.274 OA
HETATM   34  N1  UNL     1       4.793  11.747  22.525  1.00  0.00    -0.355 N 
HETATM   35  H32 UNL     1       5.432  11.074  22.125  1.00  0.00     0.162 HD
BRANCH  34  36
HETATM   36  C26 UNL     1       5.336  13.016  22.957  1.00  0.00     0.187 C 
BRANCH  36  37
HETATM   37  C27 UNL     1       6.816  12.918  23.000  1.00  0.00     0.070 A 
HETATM   38  C28 UNL     1       7.691  11.861  23.155  1.00  0.00     0.036 A 
HETATM   39  C29 UNL     1       8.994  12.413  23.071  1.00  0.00     0.027 A 
HETATM   40  C30 UNL     1       8.833  13.764  22.880  1.00  0.00     0.142 A 
HETATM   41  O8  UNL     1       7.512  14.080  22.834  1.00  0.00    -0.325 OA
ENDBRANCH  36  37
ENDBRANCH  34  36
ENDBRANCH  31  32
ENDBRANCH  30  31
ENDBRANCH  28  30
ENDBRANCH  27  28
ENDBRANCH  26  27
ENDBRANCH  24  26
ENDBRANCH  21  24
TORSDOF 10
ENDMDL
MODEL 3
REMARK minimizedAffinity -7.71723461
REMARK CNNscore 0.47157827
REMARK CNNaffinity 5.75609732
REMARK  10 active torsions:
REMARK  status: ('A' for Active; 'I' for Inactive)
REMARK    1  A    between atoms: C19_21  and  O3_22 
REMARK    2  A    between atoms: C19_21  and  C20_23 
REMARK    3  A    between atoms: C20_23  and  C21_25 
REMARK    4  A    between atoms: C21_25  and  O5_26 
REMARK    5  A    between atoms: O5_26  and  C22_27 
REMARK    6  A    between atoms: C22_27  and  C23_29 
REMARK    7  A    between atoms: C23_29  and  C24_30 
REMARK    8  A    between atoms: C24_30  and  C25_31 
REMARK       I    between atoms: C25_31  and  N1_33 
REMARK    9  A    between atoms: N1_33  and  C26_34 
REMARK   10  A    between atoms: C26_34  and  C27_35 
ROOT
HETATM    1  C1  UNL     1      17.176  14.948  18.793  1.00  0.00     0.021 C 
HETATM    2  C2  UNL     1      17.345  13.414  18.858  1.00  0.00    -0.009 C 
HETATM    3  C3  UNL     1      18.145  13.025  20.140  1.00  0.00     0.022 C 
HETATM    4  C4  UNL     1      19.627  13.368  20.071  1.00  0.00     0.084 C 
HETATM    5  C5  UNL     1      20.253  12.742  18.856  1.00  0.00     0.149 C 
HETATM    6  O1  UNL     1      21.439  12.416  18.818  1.00  0.00    -0.293 OA
HETATM    7  C6  UNL     1      19.424  12.615  17.632  1.00  0.00     0.053 C 
HETATM    8  C7  UNL     1      18.130  12.974  17.608  1.00  0.00    -0.067 C 
HETATM    9  C8  UNL     1      17.384  12.977  16.292  1.00  0.00     0.035 C 
HETATM   10  C9  UNL     1      16.062  12.229  16.377  1.00  0.00     0.010 C 
HETATM   11  C10 UNL     1      15.192  12.763  17.524  1.00  0.00     0.003 C 
HETATM   12  C11 UNL     1      15.965  12.660  18.872  1.00  0.00     0.072 C 
HETATM   13  C12 UNL     1      15.031  13.011  20.048  1.00  0.00     0.133 C 
HETATM   14  O2  UNL     1      15.353  13.746  20.978  1.00  0.00    -0.297 OA
HETATM   15  C13 UNL     1      13.687  12.302  20.091  1.00  0.00     0.091 C 
HETATM   16  C14 UNL     1      12.945  12.492  18.763  1.00  0.00     0.005 C 
HETATM   17  C15 UNL     1      12.562  13.987  18.600  1.00  0.00     0.019 C 
HETATM   18  C16 UNL     1      13.879  11.975  17.637  1.00  0.00     0.002 C 
HETATM   19  C17 UNL     1      12.964  11.907  16.418  1.00  0.00     0.009 C 
HETATM   20  C18 UNL     1      11.574  11.552  16.988  1.00  0.00     0.047 C 
HETATM   21  C19 UNL     1      11.706  11.568  18.538  1.00  0.00     0.128 C 
ENDROOT
BRANCH  21  22
HETATM   22  O3  UNL     1      12.056  10.230  18.909  1.00  0.00    -0.381 OA
HETATM   23  H25 UNL     1      11.308   9.832  19.400  1.00  0.00     0.211 HD
ENDBRANCH  21  22
BRANCH  21  24
HETATM   24  C20 UNL     1      10.404  12.073  19.230  1.00  0.00     0.185 C 
HETATM   25  O4  UNL     1       9.367  12.288  18.593  1.00  0.00    -0.292 OA
BRANCH  24  26
HETATM   26  C21 UNL     1      10.455  12.399  20.717  1.00  0.00     0.260 C 
BRANCH  26  27
HETATM   27  O5  UNL     1       9.365  11.795  21.404  1.00  0.00    -0.314 OA
BRANCH  27  28
HETATM   28  C22 UNL     1       8.876  12.526  22.436  1.00  0.00     0.259 C 
HETATM   29  O6  UNL     1       9.251  13.650  22.742  1.00  0.00    -0.265 OA
BRANCH  28  30
HETATM   30  C23 UNL     1       7.780  11.771  23.149  1.00  0.00     0.120 C 
BRANCH  30  31
HETATM   31  C24 UNL     1       6.488  12.576  23.118  1.00  0.00     0.112 C 
BRANCH  31  32
HETATM   32  C25 UNL     1       5.322  11.746  22.611  1.00  0.00     0.218 C 
HETATM   33  O7  UNL     1       5.354  10.523  22.544  1.00  0.00    -0.274 OA
HETATM   34  N1  UNL     1       4.244  12.508  22.233  1.00  0.00    -0.355 N 
HETATM   35  H32 UNL     1       4.264  13.510  22.362  1.00  0.00     0.162 HD
BRANCH  34  36
HETATM   36  C26 UNL     1       3.029  11.921  21.713  1.00  0.00     0.187 C 
BRANCH  36  37
HETATM   37  C27 UNL     1       2.843  10.580  22.318  1.00  0.00     0.070 A 
HETATM   38  C28 UNL     1       2.825   9.301  21.799  1.00  0.00     0.036 A 
HETATM   39  C29 UNL     1       2.641   8.430  22.903  1.00  0.00     0.027 A 
HETATM   40  C30 UNL     1       2.550   9.229  24.017  1.00  0.00     0.142 A 
HETATM   41  O8  UNL     1       2.673  10.538  23.672  1.00  0.00    -0.325 OA
ENDBRANCH  36  37
ENDBRANCH  34  36
ENDBRANCH  31  32
ENDBRANCH  30  31
ENDBRANCH  28  30
ENDBRANCH  27  28
ENDBRANCH  26  27
ENDBRANCH  24  26
ENDBRANCH  21  24
TORSDOF 10
ENDMDL
MODEL 4
REMARK minimizedAffinity -7.73416615
REMARK CNNscore 0.444381416
REMARK CNNaffinity 7.19776201
REMARK  10 active torsions:
REMARK  status: ('A' for Active; 'I' for Inactive)
REMARK    1  A    between atoms: C19_21  and  O3_22 
REMARK    2  A    between atoms: C19_21  and  C20_23 
REMARK    3  A    between atoms: C20_23  and  C21_25 
REMARK    4  A    between atoms: C21_25  and  O5_26 
REMARK    5  A    between atoms: O5_26  and  C22_27 
REMARK    6  A    between atoms: C22_27  and  C23_29 
REMARK    7  A    between atoms: C23_29  and  C24_30 
REMARK    8  A    between atoms: C24_30  and  C25_31 
REMARK       I    between atoms: C25_31  and  N1_33 
REMARK    9  A    between atoms: N1_33  and  C26_34 
REMARK   10  A    between atoms: C26_34  and  C27_35 
ROOT
HETATM    1  C1  UNL     1      -2.403   6.066  11.659  1.00  0.00     0.021 C 
HETATM    2  C2  UNL     1      -2.633   4.711  12.365  1.00  0.00    -0.009 C 
HETATM    3  C3  UNL     1      -1.405   4.371  13.266  1.00  0.00     0.022 C 
HETATM    4  C4  UNL     1      -0.162   3.963  12.489  1.00  0.00     0.084 C 
HETATM    5  C5  UNL     1      -0.471   2.811  11.574  1.00  0.00     0.149 C 
HETATM    6  O1  UNL     1       0.378   1.982  11.246  1.00  0.00    -0.293 OA
HETATM    7  C6  UNL     1      -1.824   2.744  10.971  1.00  0.00     0.053 C 
HETATM    8  C7  UNL     1      -2.784   3.633  11.275  1.00  0.00    -0.067 C 
HETATM    9  C8  UNL     1      -4.087   3.612  10.506  1.00  0.00     0.035 C 
HETATM   10  C9  UNL     1      -5.299   3.609  11.425  1.00  0.00     0.010 C 
HETATM   11  C10 UNL     1      -5.246   4.777  12.421  1.00  0.00     0.003 C 
HETATM   12  C11 UNL     1      -3.931   4.710  13.252  1.00  0.00     0.072 C 
HETATM   13  C12 UNL     1      -3.961   5.760  14.381  1.00  0.00     0.133 C 
HETATM   14  O2  UNL     1      -3.014   6.492  14.657  1.00  0.00    -0.297 OA
HETATM   15  C13 UNL     1      -5.204   5.788  15.257  1.00  0.00     0.091 C 
HETATM   16  C14 UNL     1      -6.461   5.920  14.389  1.00  0.00     0.005 C 
HETATM   17  C15 UNL     1      -6.467   7.313  13.704  1.00  0.00     0.019 C 
HETATM   18  C16 UNL     1      -6.447   4.744  13.378  1.00  0.00     0.002 C 
HETATM   19  C17 UNL     1      -7.851   4.767  12.784  1.00  0.00     0.009 C 
HETATM   20  C18 UNL     1      -8.757   5.262  13.932  1.00  0.00     0.047 C 
HETATM   21  C19 UNL     1      -7.818   5.645  15.112  1.00  0.00     0.128 C 
ENDROOT
BRANCH  21  22
HETATM   22  O3  UNL     1      -7.687   4.458  15.901  1.00  0.00    -0.381 OA
HETATM   23  H25 UNL     1      -8.129   4.601  16.763  1.00  0.00     0.211 HD
ENDBRANCH  21  22
BRANCH  21  24
HETATM   24  C20 UNL     1      -8.364   6.860  15.922  1.00  0.00     0.185 C 
HETATM   25  O4  UNL     1      -7.742   7.344  16.873  1.00  0.00    -0.292 OA
BRANCH  24  26
HETATM   26  C21 UNL     1      -9.750   7.392  15.580  1.00  0.00     0.260 C 
BRANCH  26  27
HETATM   27  O5  UNL     1      -9.673   8.731  15.105  1.00  0.00    -0.314 OA
BRANCH  27  28
HETATM   28  C22 UNL     1     -10.846   9.411  15.148  1.00  0.00     0.259 C 
HETATM   29  O6  UNL     1     -11.805   9.207  14.417  1.00  0.00    -0.265 OA
BRANCH  28  30
HETATM   30  C23 UNL     1     -10.819  10.446  16.248  1.00  0.00     0.120 C 
BRANCH  30  31
HETATM   31  C24 UNL     1     -10.578   9.772  17.591  1.00  0.00     0.112 C 
BRANCH  31  32
HETATM   32  C25 UNL     1     -11.865   9.625  18.384  1.00  0.00     0.218 C 
HETATM   33  O7  UNL     1     -12.902  10.207  18.085  1.00  0.00    -0.274 OA
HETATM   34  N1  UNL     1     -11.739   8.786  19.463  1.00  0.00    -0.355 N 
HETATM   35  H32 UNL     1     -10.869   8.298  19.624  1.00  0.00     0.162 HD
BRANCH  34  36
HETATM   36  C26 UNL     1     -12.841   8.510  20.359  1.00  0.00     0.187 C 
BRANCH  36  37
HETATM   37  C27 UNL     1     -12.435   8.855  21.744  1.00  0.00     0.070 A 
HETATM   38  C28 UNL     1     -13.110   8.887  22.948  1.00  0.00     0.036 A 
HETATM   39  C29 UNL     1     -12.154   9.263  23.925  1.00  0.00     0.027 A 
HETATM   40  C30 UNL     1     -10.966   9.444  23.258  1.00  0.00     0.142 A 
HETATM   41  O8  UNL     1     -11.127   9.196  21.931  1.00  0.00    -0.325 OA
ENDBRANCH  36  37
ENDBRANCH  34  36
ENDBRANCH  31  32
ENDBRANCH  30  31
ENDBRANCH  28  30
ENDBRANCH  27  28
ENDBRANCH  26  27
ENDBRANCH  24  26
ENDBRANCH  21  24
TORSDOF 10
ENDMDL
MODEL 5
REMARK minimizedAffinity -7.58557606
REMARK CNNscore 0.417276442
REMARK CNNaffinity 7.12854147
REMARK  10 active torsions:
REMARK  status: ('A' for Active; 'I' for Inactive)
REMARK    1  A    between atoms: C19_21  and  O3_22 
REMARK    2  A    between atoms: C19_21  and  C20_23 
REMARK    3  A    between atoms: C20_23  and  C21_25 
REMARK    4  A    between atoms: C21_25  and  O5_26 
REMARK    5  A    between atoms: O5_26  and  C22_27 
REMARK    6  A    between atoms: C22_27  and  C23_29 
REMARK    7  A    between atoms: C23_29  and  C24_30 
REMARK    8  A    between atoms: C24_30  and  C25_31 
REMARK       I    between atoms: C25_31  and  N1_33 
REMARK    9  A    between atoms: N1_33  and  C26_34 
REMARK   10  A    between atoms: C26_34  and  C27_35 
ROOT
HETATM    1  C1  UNL     1      -2.261  11.853  14.769  1.00  0.00     0.021 C 
HETATM    2  C2  UNL     1      -2.371  10.777  15.873  1.00  0.00    -0.009 C 
HETATM    3  C3  UNL     1      -3.865  10.597  16.286  1.00  0.00     0.022 C 
HETATM    4  C4  UNL     1      -4.424  11.753  17.103  1.00  0.00     0.084 C 
HETATM    5  C5  UNL     1      -3.573  11.995  18.318  1.00  0.00     0.149 C 
HETATM    6  O1  UNL     1      -4.029  12.463  19.361  1.00  0.00    -0.293 OA
HETATM    7  C6  UNL     1      -2.114  11.753  18.207  1.00  0.00     0.053 C 
HETATM    8  C7  UNL     1      -1.557  11.263  17.086  1.00  0.00    -0.067 C 
HETATM    9  C8  UNL     1      -0.050  11.193  16.975  1.00  0.00     0.035 C 
HETATM   10  C9  UNL     1       0.432   9.822  16.529  1.00  0.00     0.010 C 
HETATM   11  C10 UNL     1      -0.254   9.385  15.226  1.00  0.00     0.003 C 
HETATM   12  C11 UNL     1      -1.800   9.386  15.412  1.00  0.00     0.072 C 
HETATM   13  C12 UNL     1      -2.484   8.766  14.178  1.00  0.00     0.133 C 
HETATM   14  O2  UNL     1      -3.473   9.249  13.631  1.00  0.00    -0.297 OA
HETATM   15  C13 UNL     1      -1.955   7.421  13.704  1.00  0.00     0.091 C 
HETATM   16  C14 UNL     1      -0.441   7.499  13.476  1.00  0.00     0.005 C 
HETATM   17  C15 UNL     1      -0.151   8.446  12.281  1.00  0.00     0.019 C 
HETATM   18  C16 UNL     1       0.200   7.980  14.804  1.00  0.00     0.002 C 
HETATM   19  C17 UNL     1       1.689   7.730  14.593  1.00  0.00     0.009 C 
HETATM   20  C18 UNL     1       1.755   6.477  13.694  1.00  0.00     0.047 C 
HETATM   21  C19 UNL     1       0.291   6.131  13.298  1.00  0.00     0.128 C 
ENDROOT
BRANCH  21  22
HETATM   22  O3  UNL     1      -0.176   5.225  14.303  1.00  0.00    -0.381 OA
HETATM   23  H25 UNL     1      -0.306   4.343  13.898  1.00  0.00     0.211 HD
ENDBRANCH  21  22
BRANCH  21  24
HETATM   24  C20 UNL     1       0.199   5.545  11.856  1.00  0.00     0.185 C 
HETATM   25  O4  UNL     1       0.175   6.270  10.856  1.00  0.00    -0.292 OA
BRANCH  24  26
HETATM   26  C21 UNL     1       0.036   4.038  11.697  1.00  0.00     0.260 C 
BRANCH  26  27
HETATM   27  O5  UNL     1      -1.301   3.642  11.983  1.00  0.00    -0.314 OA
BRANCH  27  28
HETATM   28  C22 UNL     1      -1.927   3.003  10.964  1.00  0.00     0.259 C 
HETATM   29  O6  UNL     1      -1.390   2.230  10.182  1.00  0.00    -0.265 OA
BRANCH  28  30
HETATM   30  C23 UNL     1      -3.395   3.357  10.937  1.00  0.00     0.120 C 
BRANCH  30  31
HETATM   31  C24 UNL     1      -4.215   2.219  11.529  1.00  0.00     0.112 C 
BRANCH  31  32
HETATM   32  C25 UNL     1      -5.606   2.678  11.928  1.00  0.00     0.218 C 
HETATM   33  O7  UNL     1      -6.612   2.006  11.730  1.00  0.00    -0.274 OA
HETATM   34  N1  UNL     1      -5.615   3.917  12.521  1.00  0.00    -0.355 N 
HETATM   35  H32 UNL     1      -4.744   4.396  12.701  1.00  0.00     0.162 HD
BRANCH  34  36
HETATM   36  C26 UNL     1      -6.835   4.548  12.971  1.00  0.00     0.187 C 
BRANCH  36  37
HETATM   37  C27 UNL     1      -6.513   5.497  14.065  1.00  0.00     0.070 A 
HETATM   38  C28 UNL     1      -5.555   6.480  14.214  1.00  0.00     0.036 A 
HETATM   39  C29 UNL     1      -5.790   7.070  15.482  1.00  0.00     0.027 A 
HETATM   40  C30 UNL     1      -6.864   6.408  16.026  1.00  0.00     0.142 A 
HETATM   41  O8  UNL     1      -7.311   5.450  15.171  1.00  0.00    -0.325 OA
ENDBRANCH  36  37
ENDBRANCH  34  36
ENDBRANCH  31  32
ENDBRANCH  30  31
ENDBRANCH  28  30
ENDBRANCH  27  28
ENDBRANCH  26  27
ENDBRANCH  24  26
ENDBRANCH  21  24
TORSDOF 10
ENDMDL
MODEL 6
REMARK minimizedAffinity -8.24483204
REMARK CNNscore 0.391561866
REMARK CNNaffinity 6.96933174
REMARK  10 active torsions:
REMARK  status: ('A' for Active; 'I' for Inactive)
REMARK    1  A    between atoms: C19_21  and  O3_22 
REMARK    2  A    between atoms: C19_21  and  C20_23 
REMARK    3  A    between atoms: C20_23  and  C21_25 
REMARK    4  A    between atoms: C21_25  and  O5_26 
REMARK    5  A    between atoms: O5_26  and  C22_27 
REMARK    6  A    between atoms: C22_27  and  C23_29 
REMARK    7  A    between atoms: C23_29  and  C24_30 
REMARK    8  A    between atoms: C24_30  and  C25_31 
REMARK       I    between atoms: C25_31  and  N1_33 
REMARK    9  A    between atoms: N1_33  and  C26_34 
REMARK   10  A    between atoms: C26_34  and  C27_35 
ROOT
HETATM    1  C1  UNL     1      -7.485   4.241  14.785  1.00  0.00     0.021 C 
HETATM    2  C2  UNL     1      -6.976   5.607  14.274  1.00  0.00    -0.009 C 
HETATM    3  C3  UNL     1      -6.092   5.398  13.005  1.00  0.00     0.022 C 
HETATM    4  C4  UNL     1      -4.726   4.793  13.297  1.00  0.00     0.084 C 
HETATM    5  C5  UNL     1      -3.992   5.623  14.313  1.00  0.00     0.149 C 
HETATM    6  O1  UNL     1      -2.764   5.689  14.349  1.00  0.00    -0.293 OA
HETATM    7  C6  UNL     1      -4.788   6.297  15.368  1.00  0.00     0.053 C 
HETATM    8  C7  UNL     1      -6.130   6.242  15.392  1.00  0.00    -0.067 C 
HETATM    9  C8  UNL     1      -6.875   6.808  16.581  1.00  0.00     0.035 C 
HETATM   10  C9  UNL     1      -7.994   7.750  16.164  1.00  0.00     0.010 C 
HETATM   11  C10 UNL     1      -8.947   7.077  15.165  1.00  0.00     0.003 C 
HETATM   12  C11 UNL     1      -8.152   6.589  13.917  1.00  0.00     0.072 C 
HETATM   13  C12 UNL     1      -9.124   6.090  12.830  1.00  0.00     0.133 C 
HETATM   14  O2  UNL     1      -8.963   5.051  12.196  1.00  0.00    -0.297 OA
HETATM   15  C13 UNL     1     -10.274   7.014  12.463  1.00  0.00     0.091 C 
HETATM   16  C14 UNL     1     -11.058   7.410  13.721  1.00  0.00     0.005 C 
HETATM   17  C15 UNL     1     -11.769   6.155  14.296  1.00  0.00     0.019 C 
HETATM   18  C16 UNL     1     -10.048   8.046  14.710  1.00  0.00     0.002 C 
HETATM   19  C17 UNL     1     -10.940   8.682  15.771  1.00  0.00     0.009 C 
HETATM   20  C18 UNL     1     -12.207   9.123  15.008  1.00  0.00     0.047 C 
HETATM   21  C19 UNL     1     -12.061   8.595  13.551  1.00  0.00     0.128 C 
ENDROOT
BRANCH  21  22
HETATM   22  O3  UNL     1     -11.416   9.644  12.824  1.00  0.00    -0.381 OA
HETATM   23  H25 UNL     1     -12.049  10.015  12.175  1.00  0.00     0.211 HD
ENDBRANCH  21  22
BRANCH  21  24
HETATM   24  C20 UNL     1     -13.434   8.182  12.940  1.00  0.00     0.185 C 
HETATM   25  O4  UNL     1     -14.057   8.923  12.172  1.00  0.00    -0.292 OA
BRANCH  24  26
HETATM   26  C21 UNL     1     -14.059   6.866  13.388  1.00  0.00     0.260 C 
BRANCH  26  27
HETATM   27  O5  UNL     1     -15.432   7.046  13.717  1.00  0.00    -0.314 OA
BRANCH  27  28
HETATM   28  C22 UNL     1     -16.297   6.422  12.881  1.00  0.00     0.259 C 
HETATM   29  O6  UNL     1     -16.452   6.692  11.698  1.00  0.00    -0.265 OA
BRANCH  28  30
HETATM   30  C23 UNL     1     -17.033   5.319  13.605  1.00  0.00     0.120 C 
BRANCH  30  31
HETATM   31  C24 UNL     1     -16.504   5.187  15.026  1.00  0.00     0.112 C 
BRANCH  31  32
HETATM   32  C25 UNL     1     -16.306   3.733  15.418  1.00  0.00     0.218 C 
HETATM   33  O7  UNL     1     -16.928   3.198  16.328  1.00  0.00    -0.274 OA
HETATM   34  N1  UNL     1     -15.359   3.094  14.656  1.00  0.00    -0.355 N 
HETATM   35  H32 UNL     1     -14.919   3.580  13.887  1.00  0.00     0.162 HD
BRANCH  34  36
HETATM   36  C26 UNL     1     -15.007   1.707  14.865  1.00  0.00     0.187 C 
BRANCH  36  37
HETATM   37  C27 UNL     1     -15.689   0.877  13.842  1.00  0.00     0.070 A 
HETATM   38  C28 UNL     1     -16.415   1.179  12.707  1.00  0.00     0.036 A 
HETATM   39  C29 UNL     1     -16.774  -0.064  12.127  1.00  0.00     0.027 A 
HETATM   40  C30 UNL     1     -16.255  -1.039  12.944  1.00  0.00     0.142 A 
HETATM   41  O8  UNL     1     -15.592  -0.476  13.989  1.00  0.00    -0.325 OA
ENDBRANCH  36  37
ENDBRANCH  34  36
ENDBRANCH  31  32
ENDBRANCH  30  31
ENDBRANCH  28  30
ENDBRANCH  27  28
ENDBRANCH  26  27
ENDBRANCH  24  26
ENDBRANCH  21  24
TORSDOF 10
ENDMDL
MODEL 7
REMARK minimizedAffinity -8.0682354
REMARK CNNscore 0.335058153
REMARK CNNaffinity 6.45171881
REMARK  10 active torsions:
REMARK  status: ('A' for Active; 'I' for Inactive)
REMARK    1  A    between atoms: C19_21  and  O3_22 
REMARK    2  A    between atoms: C19_21  and  C20_23 
REMARK    3  A    between atoms: C20_23  and  C21_25 
REMARK    4  A    between atoms: C21_25  and  O5_26 
REMARK    5  A    between atoms: O5_26  and  C22_27 
REMARK    6  A    between atoms: C22_27  and  C23_29 
REMARK    7  A    between atoms: C23_29  and  C24_30 
REMARK    8  A    between atoms: C24_30  and  C25_31 
REMARK       I    between atoms: C25_31  and  N1_33 
REMARK    9  A    between atoms: N1_33  and  C26_34 
REMARK   10  A    between atoms: C26_34  and  C27_35 
ROOT
HETATM    1  C1  UNL     1       1.938   8.461  10.466  1.00  0.00     0.021 C 
HETATM    2  C2  UNL     1       2.476   7.453  11.506  1.00  0.00    -0.009 C 
HETATM    3  C3  UNL     1       3.642   8.101  12.315  1.00  0.00     0.022 C 
HETATM    4  C4  UNL     1       4.934   8.251  11.523  1.00  0.00     0.084 C 
HETATM    5  C5  UNL     1       5.363   6.923  10.964  1.00  0.00     0.149 C 
HETATM    6  O1  UNL     1       6.543   6.645  10.754  1.00  0.00    -0.293 OA
HETATM    7  C6  UNL     1       4.306   5.965  10.557  1.00  0.00     0.053 C 
HETATM    8  C7  UNL     1       3.001   6.224  10.741  1.00  0.00    -0.067 C 
HETATM    9  C8  UNL     1       1.968   5.285  10.158  1.00  0.00     0.035 C 
HETATM   10  C9  UNL     1       0.926   4.865  11.183  1.00  0.00     0.010 C 
HETATM   11  C10 UNL     1       0.273   6.086  11.847  1.00  0.00     0.003 C 
HETATM   12  C11 UNL     1       1.363   6.979  12.511  1.00  0.00     0.072 C 
HETATM   13  C12 UNL     1       0.701   8.096  13.341  1.00  0.00     0.133 C 
HETATM   14  O2  UNL     1       1.064   9.270  13.317  1.00  0.00    -0.297 OA
HETATM   15  C13 UNL     1      -0.382   7.673  14.321  1.00  0.00     0.091 C 
HETATM   16  C14 UNL     1      -1.458   6.854  13.599  1.00  0.00     0.005 C 
HETATM   17  C15 UNL     1      -2.212   7.769  12.598  1.00  0.00     0.019 C 
HETATM   18  C16 UNL     1      -0.744   5.659  12.916  1.00  0.00     0.002 C 
HETATM   19  C17 UNL     1      -1.894   4.746  12.501  1.00  0.00     0.009 C 
HETATM   20  C18 UNL     1      -2.970   4.949  13.588  1.00  0.00     0.047 C 
HETATM   21  C19 UNL     1      -2.459   6.086  14.520  1.00  0.00     0.128 C 
ENDROOT
BRANCH  21  22
HETATM   22  O3  UNL     1      -1.721   5.431  15.557  1.00  0.00    -0.381 OA
HETATM   23  H25 UNL     1      -2.204   5.533  16.403  1.00  0.00     0.211 HD
ENDBRANCH  21  22
BRANCH  21  24
HETATM   24  C20 UNL     1      -3.626   6.966  15.063  1.00  0.00     0.185 C 
HETATM   25  O4  UNL     1      -3.503   8.184  15.230  1.00  0.00    -0.292 OA
BRANCH  24  26
HETATM   26  C21 UNL     1      -4.916   6.274  15.486  1.00  0.00     0.260 C 
BRANCH  26  27
HETATM   27  O5  UNL     1      -5.682   5.896  14.349  1.00  0.00    -0.314 OA
BRANCH  27  28
HETATM   28  C22 UNL     1      -6.922   6.441  14.300  1.00  0.00     0.259 C 
HETATM   29  O6  UNL     1      -7.745   6.244  13.416  1.00  0.00    -0.265 OA
BRANCH  28  30
HETATM   30  C23 UNL     1      -7.166   7.314  15.509  1.00  0.00     0.120 C 
BRANCH  30  31
HETATM   31  C24 UNL     1      -8.468   6.912  16.187  1.00  0.00     0.112 C 
BRANCH  31  32
HETATM   32  C25 UNL     1      -9.591   7.883  15.868  1.00  0.00     0.218 C 
HETATM   33  O7  UNL     1      -9.996   8.718  16.667  1.00  0.00    -0.274 OA
HETATM   34  N1  UNL     1     -10.101   7.719  14.603  1.00  0.00    -0.355 N 
HETATM   35  H32 UNL     1      -9.686   7.044  13.976  1.00  0.00     0.162 HD
BRANCH  34  36
HETATM   36  C26 UNL     1     -11.182   8.534  14.095  1.00  0.00     0.187 C 
BRANCH  36  37
HETATM   37  C27 UNL     1     -12.385   7.684  13.919  1.00  0.00     0.070 A 
HETATM   38  C28 UNL     1     -12.736   6.432  14.382  1.00  0.00     0.036 A 
HETATM   39  C29 UNL     1     -14.044   6.184  13.894  1.00  0.00     0.027 A 
HETATM   40  C30 UNL     1     -14.403   7.291  13.163  1.00  0.00     0.142 A 
HETATM   41  O8  UNL     1     -13.401   8.209  13.174  1.00  0.00    -0.325 OA
ENDBRANCH  36  37
ENDBRANCH  34  36
ENDBRANCH  31  32
ENDBRANCH  30  31
ENDBRANCH  28  30
ENDBRANCH  27  28
ENDBRANCH  26  27
ENDBRANCH  24  26
ENDBRANCH  21  24
TORSDOF 10
ENDMDL
MODEL 8
REMARK minimizedAffinity -8.41890907
REMARK CNNscore 0.332831264
REMARK CNNaffinity 6.72490072
REMARK  10 active torsions:
REMARK  status: ('A' for Active; 'I' for Inactive)
REMARK    1  A    between atoms: C19_21  and  O3_22 
REMARK    2  A    between atoms: C19_21  and  C20_23 
REMARK    3  A    between atoms: C20_23  and  C21_25 
REMARK    4  A    between atoms: C21_25  and  O5_26 
REMARK    5  A    between atoms: O5_26  and  C22_27 
REMARK    6  A    between atoms: C22_27  and  C23_29 
REMARK    7  A    between atoms: C23_29  and  C24_30 
REMARK    8  A    between atoms: C24_30  and  C25_31 
REMARK       I    between atoms: C25_31  and  N1_33 
REMARK    9  A    between atoms: N1_33  and  C26_34 
REMARK   10  A    between atoms: C26_34  and  C27_35 
ROOT
HETATM    1  C1  UNL     1      -0.552   8.594  11.001  1.00  0.00     0.021 C 
HETATM    2  C2  UNL     1      -0.094   7.728  12.196  1.00  0.00    -0.009 C 
HETATM    3  C3  UNL     1       1.036   8.465  12.979  1.00  0.00     0.022 C 
HETATM    4  C4  UNL     1       2.374   8.494  12.253  1.00  0.00     0.084 C 
HETATM    5  C5  UNL     1       2.808   7.098  11.901  1.00  0.00     0.149 C 
HETATM    6  O1  UNL     1       3.993   6.780  11.801  1.00  0.00    -0.293 OA
HETATM    7  C6  UNL     1       1.759   6.105  11.564  1.00  0.00     0.053 C 
HETATM    8  C7  UNL     1       0.450   6.401  11.634  1.00  0.00    -0.067 C 
HETATM    9  C8  UNL     1      -0.566   5.404  11.121  1.00  0.00     0.035 C 
HETATM   10  C9  UNL     1      -1.672   5.138  12.130  1.00  0.00     0.010 C 
HETATM   11  C10 UNL     1      -2.339   6.444  12.585  1.00  0.00     0.003 C 
HETATM   12  C11 UNL     1      -1.272   7.406  13.187  1.00  0.00     0.072 C 
HETATM   13  C12 UNL     1      -1.959   8.632  13.820  1.00  0.00     0.133 C 
HETATM   14  O2  UNL     1      -1.573   9.787  13.661  1.00  0.00    -0.297 OA
HETATM   15  C13 UNL     1      -3.104   8.356  14.781  1.00  0.00     0.091 C 
HETATM   16  C14 UNL     1      -4.152   7.459  14.113  1.00  0.00     0.005 C 
HETATM   17  C15 UNL     1      -4.830   8.240  12.955  1.00  0.00     0.019 C 
HETATM   18  C16 UNL     1      -3.424   6.176  13.638  1.00  0.00     0.002 C 
HETATM   19  C17 UNL     1      -4.565   5.229  13.282  1.00  0.00     0.009 C 
HETATM   20  C18 UNL     1      -5.698   5.588  14.266  1.00  0.00     0.047 C 
HETATM   21  C19 UNL     1      -5.219   6.834  15.067  1.00  0.00     0.128 C 
ENDROOT
BRANCH  21  22
HETATM   22  O3  UNL     1      -4.555   6.316  16.224  1.00  0.00    -0.381 OA
HETATM   23  H25 UNL     1      -5.083   6.536  17.018  1.00  0.00     0.211 HD
ENDBRANCH  21  22
BRANCH  21  24
HETATM   24  C20 UNL     1      -6.398   7.791  15.417  1.00  0.00     0.185 C 
HETATM   25  O4  UNL     1      -6.412   8.971  15.051  1.00  0.00    -0.292 OA
BRANCH  24  26
HETATM   26  C21 UNL     1      -7.510   7.270  16.319  1.00  0.00     0.260 C 
BRANCH  26  27
HETATM   27  O5  UNL     1      -8.395   6.426  15.591  1.00  0.00    -0.314 OA
BRANCH  27  28
HETATM   28  C22 UNL     1      -9.118   7.061  14.636  1.00  0.00     0.259 C 
HETATM   29  O6  UNL     1      -9.215   6.701  13.470  1.00  0.00    -0.265 OA
BRANCH  28  30
HETATM   30  C23 UNL     1      -9.814   8.271  15.213  1.00  0.00     0.120 C 
BRANCH  30  31
HETATM   31  C24 UNL     1     -10.860   8.785  14.234  1.00  0.00     0.112 C 
BRANCH  31  32
HETATM   32  C25 UNL     1     -12.178   8.045  14.379  1.00  0.00     0.218 C 
HETATM   33  O7  UNL     1     -12.725   7.864  15.461  1.00  0.00    -0.274 OA
HETATM   34  N1  UNL     1     -12.679   7.598  13.181  1.00  0.00    -0.355 N 
HETATM   35  H32 UNL     1     -12.203   7.826  12.320  1.00  0.00     0.162 HD
BRANCH  34  36
HETATM   36  C26 UNL     1     -13.920   6.862  13.090  1.00  0.00     0.187 C 
BRANCH  36  37
HETATM   37  C27 UNL     1     -14.948   7.724  12.457  1.00  0.00     0.070 A 
HETATM   38  C28 UNL     1     -16.249   7.505  12.051  1.00  0.00     0.036 A 
HETATM   39  C29 UNL     1     -16.720   8.744  11.550  1.00  0.00     0.027 A 
HETATM   40  C30 UNL     1     -15.680   9.634  11.674  1.00  0.00     0.142 A 
HETATM   41  O8  UNL     1     -14.599   9.023  12.226  1.00  0.00    -0.325 OA
ENDBRANCH  36  37
ENDBRANCH  34  36
ENDBRANCH  31  32
ENDBRANCH  30  31
ENDBRANCH  28  30
ENDBRANCH  27  28
ENDBRANCH  26  27
ENDBRANCH  24  26
ENDBRANCH  21  24
TORSDOF 10
ENDMDL
MODEL 9
REMARK minimizedAffinity -7.75116014
REMARK CNNscore 0.307766438
REMARK CNNaffinity 6.20759773
REMARK  10 active torsions:
REMARK  status: ('A' for Active; 'I' for Inactive)
REMARK    1  A    between atoms: C19_21  and  O3_22 
REMARK    2  A    between atoms: C19_21  and  C20_23 
REMARK    3  A    between atoms: C20_23  and  C21_25 
REMARK    4  A    between atoms: C21_25  and  O5_26 
REMARK    5  A    between atoms: O5_26  and  C22_27 
REMARK    6  A    between atoms: C22_27  and  C23_29 
REMARK    7  A    between atoms: C23_29  and  C24_30 
REMARK    8  A    between atoms: C24_30  and  C25_31 
REMARK       I    between atoms: C25_31  and  N1_33 
REMARK    9  A    between atoms: N1_33  and  C26_34 
REMARK   10  A    between atoms: C26_34  and  C27_35 
ROOT
HETATM    1  C1  UNL     1       1.512   6.229  11.342  1.00  0.00     0.021 C 
HETATM    2  C2  UNL     1       1.288   7.695  10.912  1.00  0.00    -0.009 C 
HETATM    3  C3  UNL     1       0.421   7.738   9.615  1.00  0.00     0.022 C 
HETATM    4  C4  UNL     1       1.161   7.292   8.362  1.00  0.00     0.084 C 
HETATM    5  C5  UNL     1       2.414   8.103   8.178  1.00  0.00     0.149 C 
HETATM    6  O1  UNL     1       2.898   8.327   7.069  1.00  0.00    -0.293 OA
HETATM    7  C6  UNL     1       3.138   8.553   9.392  1.00  0.00     0.053 C 
HETATM    8  C7  UNL     1       2.668   8.318  10.629  1.00  0.00    -0.067 C 
HETATM    9  C8  UNL     1       3.529   8.655  11.827  1.00  0.00     0.035 C 
HETATM   10  C9  UNL     1       2.779   9.478  12.862  1.00  0.00     0.010 C 
HETATM   11  C10 UNL     1       1.470   8.792  13.279  1.00  0.00     0.003 C 
HETATM   12  C11 UNL     1       0.576   8.544  12.028  1.00  0.00     0.072 C 
HETATM   13  C12 UNL     1      -0.814   8.037  12.460  1.00  0.00     0.133 C 
HETATM   14  O2  UNL     1      -1.395   7.098  11.920  1.00  0.00    -0.297 OA
HETATM   15  C13 UNL     1      -1.530   8.833  13.539  1.00  0.00     0.091 C 
HETATM   16  C14 UNL     1      -0.627   8.989  14.768  1.00  0.00     0.005 C 
HETATM   17  C15 UNL     1      -0.412   7.599  15.425  1.00  0.00     0.019 C 
HETATM   18  C16 UNL     1       0.692   9.648  14.289  1.00  0.00     0.002 C 
HETATM   19  C17 UNL     1       1.384  10.047  15.588  1.00  0.00     0.009 C 
HETATM   20  C18 UNL     1       0.234  10.393  16.558  1.00  0.00     0.047 C 
HETATM   21  C19 UNL     1      -1.093  10.041  15.824  1.00  0.00     0.128 C 
ENDROOT
BRANCH  21  22
HETATM   22  O3  UNL     1      -1.483  11.237  15.141  1.00  0.00    -0.381 OA
HETATM   23  H25 UNL     1      -2.300  11.586  15.555  1.00  0.00     0.211 HD
ENDBRANCH  21  22
BRANCH  21  24
HETATM   24  C20 UNL     1      -2.182   9.516  16.808  1.00  0.00     0.185 C 
HETATM   25  O4  UNL     1      -2.109   9.705  18.026  1.00  0.00    -0.292 OA
BRANCH  24  26
HETATM   26  C21 UNL     1      -3.312   8.662  16.245  1.00  0.00     0.260 C 
BRANCH  26  27
HETATM   27  O5  UNL     1      -4.159   9.437  15.403  1.00  0.00    -0.314 OA
BRANCH  27  28
HETATM   28  C22 UNL     1      -4.957   8.708  14.586  1.00  0.00     0.259 C 
HETATM   29  O6  UNL     1      -4.992   8.803  13.367  1.00  0.00    -0.265 OA
BRANCH  28  30
HETATM   30  C23 UNL     1      -5.790   7.735  15.387  1.00  0.00     0.120 C 
BRANCH  30  31
HETATM   31  C24 UNL     1      -7.101   7.456  14.666  1.00  0.00     0.112 C 
BRANCH  31  32
HETATM   32  C25 UNL     1      -7.541   6.013  14.839  1.00  0.00     0.218 C 
HETATM   33  O7  UNL     1      -8.085   5.600  15.857  1.00  0.00    -0.274 OA
HETATM   34  N1  UNL     1      -7.261   5.230  13.747  1.00  0.00    -0.355 N 
HETATM   35  H32 UNL     1      -6.857   5.645  12.919  1.00  0.00     0.162 HD
BRANCH  34  36
HETATM   36  C26 UNL     1      -7.588   3.822  13.702  1.00  0.00     0.187 C 
BRANCH  36  37
HETATM   37  C27 UNL     1      -6.769   3.170  12.650  1.00  0.00     0.070 A 
HETATM   38  C28 UNL     1      -5.698   3.590  11.887  1.00  0.00     0.036 A 
HETATM   39  C29 UNL     1      -5.331   2.484  11.080  1.00  0.00     0.027 A 
HETATM   40  C30 UNL     1      -6.202   1.468  11.394  1.00  0.00     0.142 A 
HETATM   41  O8  UNL     1      -7.079   1.875  12.349  1.00  0.00    -0.325 OA
ENDBRANCH  36  37
ENDBRANCH  34  36
ENDBRANCH  31  32
ENDBRANCH  30  31
ENDBRANCH  28  30
ENDBRANCH  27  28
ENDBRANCH  26  27
ENDBRANCH  24  26
ENDBRANCH  21  24
TORSDOF 10
ENDMDL
