MODEL 1
REMARK minimizedAffinity -9.3085947
REMARK  8 active torsions:
REMARK  status: ('A' for Active; 'I' for Inactive)
REMARK    1  A    between atoms: C4_4  and  C5_5 
REMARK    2  A    between atoms: C5_5  and  C6_6 
REMARK    3  A    between atoms: C6_6  and  C7_7 
REMARK    4  A    between atoms: C7_7  and  C9_9 
REMARK    5  A    between atoms: C22_22  and  O1_23 
REMARK    6  A    between atoms: C24_25  and  O2_26 
REMARK    7  A    between atoms: C25_27  and  C27_29 
REMARK    8  A    between atoms: C27_29  and  O4_31 
ROOT
HETATM    1  C9  UNL     1      -3.596   7.501  14.772  1.00  0.00    -0.002 C 
HETATM    2  C10 UNL     1      -4.175   6.199  14.169  1.00  0.00     0.007 C 
HETATM    3  C11 UNL     1      -3.083   5.619  13.240  1.00  0.00     0.015 C 
HETATM    4  C12 UNL     1      -1.792   6.400  13.582  1.00  0.00    -0.005 C 
HETATM    5  C13 UNL     1      -1.161   5.703  14.827  1.00  0.00     0.021 C 
HETATM    6  C14 UNL     1      -0.644   6.510  12.586  1.00  0.00    -0.000 C 
HETATM    7  C15 UNL     1       0.195   7.582  12.593  1.00  0.00    -0.058 C 
HETATM    8  C16 UNL     1      -0.049   8.750  13.567  1.00  0.00     0.036 C 
HETATM    9  C17 UNL     1      -1.312   8.707  14.454  1.00  0.00     0.015 C 
HETATM   10  C18 UNL     1      -2.401   7.831  13.834  1.00  0.00    -0.028 C 
HETATM   11  C19 UNL     1      -2.897   8.529  12.532  1.00  0.00     0.016 C 
HETATM   12  C20 UNL     1       1.403   7.738  11.607  1.00  0.00     0.011 C 
HETATM   13  C21 UNL     1       0.905   8.647  10.457  1.00  0.00     0.023 C 
HETATM   14  C22 UNL     1       2.656   8.396  12.296  1.00  0.00     0.133 C 
HETATM   15  C23 UNL     1       3.928   8.327  11.454  1.00  0.00     0.065 C 
HETATM   16  C24 UNL     1       4.262   6.907  11.030  1.00  0.00     0.139 C 
HETATM   17  C25 UNL     1       3.122   6.221  10.232  1.00  0.00     0.072 C 
HETATM   18  C26 UNL     1       3.544   4.754   9.978  1.00  0.00     0.030 C 
HETATM   19  C28 UNL     1       1.825   6.297  11.119  1.00  0.00     0.029 C 
HETATM   20  C29 UNL     1       0.618   5.537  10.559  1.00  0.00     0.090 C 
HETATM   21  C30 UNL     1      -0.432   5.381  11.628  1.00  0.00     0.157 C 
HETATM   22  O5  UNL     1      -1.104   4.354  11.688  1.00  0.00    -0.293 OA
ENDROOT
BRANCH   1  23
HETATM   23  C7  UNL     1      -4.618   8.625  15.121  1.00  0.00    -0.014 C 
HETATM   24  C8  UNL     1      -3.973   9.539  16.181  1.00  0.00     0.010 C 
BRANCH  23  25
HETATM   25  C6  UNL     1      -6.001   8.140  15.623  1.00  0.00     0.008 C 
BRANCH  25  26
HETATM   26  C5  UNL     1      -6.364   6.707  15.197  1.00  0.00     0.028 C 
BRANCH  26  27
HETATM   27  C4  UNL     1      -7.376   6.630  14.089  1.00  0.00    -0.025 C 
HETATM   28  C2  UNL     1      -7.802   5.539  13.422  1.00  0.00    -0.091 C 
HETATM   29  C1  UNL     1      -8.844   5.665  12.341  1.00  0.00     0.042 C 
HETATM   30  C3  UNL     1      -7.310   4.135  13.641  1.00  0.00     0.042 C 
ENDBRANCH  26  27
ENDBRANCH  25  26
ENDBRANCH  23  25
ENDBRANCH   1  23
BRANCH  14  31
HETATM   31  O1  UNL     1       2.433   9.782  12.572  1.00  0.00    -0.394 OA
HETATM   32  H35 UNL     1       3.193  10.109  13.087  1.00  0.00     0.210 HD
ENDBRANCH  14  31
BRANCH  17  33
HETATM   33  C27 UNL     1       2.901   6.807   8.838  1.00  0.00     0.151 C 
HETATM   34  O3  UNL     1       3.195   7.934   8.477  1.00  0.00    -0.649 OA
BRANCH  33  35
HETATM   35  O4  UNL     1       2.273   5.989   7.970  1.00  0.00    -0.776 OA
HETATM   36  H43 UNL     1       2.186   6.543   7.161  1.00  0.00     0.167 HD
ENDBRANCH  33  35
ENDBRANCH  17  33
BRANCH  16  37
HETATM   37  O2  UNL     1       5.512   6.901  10.342  1.00  0.00    -0.394 OA
HETATM   38  H39 UNL     1       5.371   7.369   9.493  1.00  0.00     0.210 HD
ENDBRANCH  16  37
TORSDOF 8
ENDMDL
MODEL 2
REMARK minimizedAffinity -9.24817657
REMARK  8 active torsions:
REMARK  status: ('A' for Active; 'I' for Inactive)
REMARK    1  A    between atoms: C4_4  and  C5_5 
REMARK    2  A    between atoms: C5_5  and  C6_6 
REMARK    3  A    between atoms: C6_6  and  C7_7 
REMARK    4  A    between atoms: C7_7  and  C9_9 
REMARK    5  A    between atoms: C22_22  and  O1_23 
REMARK    6  A    between atoms: C24_25  and  O2_26 
REMARK    7  A    between atoms: C25_27  and  C27_29 
REMARK    8  A    between atoms: C27_29  and  O4_31 
ROOT
HETATM    1  C9  UNL     1      -2.092   6.083  13.449  1.00  0.00    -0.002 C 
HETATM    2  C10 UNL     1      -2.227   5.371  12.081  1.00  0.00     0.007 C 
HETATM    3  C11 UNL     1      -0.820   5.376  11.439  1.00  0.00     0.015 C 
HETATM    4  C12 UNL     1       0.150   5.781  12.574  1.00  0.00    -0.005 C 
HETATM    5  C13 UNL     1       0.475   4.480  13.372  1.00  0.00     0.021 C 
HETATM    6  C14 UNL     1       1.513   6.391  12.272  1.00  0.00    -0.000 C 
HETATM    7  C15 UNL     1       2.115   7.240  13.150  1.00  0.00    -0.058 C 
HETATM    8  C16 UNL     1       1.388   7.663  14.440  1.00  0.00     0.036 C 
HETATM    9  C17 UNL     1      -0.060   7.173  14.655  1.00  0.00     0.015 C 
HETATM   10  C18 UNL     1      -0.739   6.841  13.326  1.00  0.00    -0.028 C 
HETATM   11  C19 UNL     1      -0.921   8.169  12.532  1.00  0.00     0.016 C 
HETATM   12  C20 UNL     1       3.523   7.881  12.902  1.00  0.00     0.011 C 
HETATM   13  C21 UNL     1       3.258   9.298  12.337  1.00  0.00     0.023 C 
HETATM   14  C22 UNL     1       4.373   7.989  14.223  1.00  0.00     0.133 C 
HETATM   15  C23 UNL     1       5.835   8.361  13.986  1.00  0.00     0.065 C 
HETATM   16  C24 UNL     1       6.518   7.417  13.011  1.00  0.00     0.139 C 
HETATM   17  C25 UNL     1       5.813   7.342  11.631  1.00  0.00     0.072 C 
HETATM   18  C26 UNL     1       6.535   6.261  10.793  1.00  0.00     0.030 C 
HETATM   19  C28 UNL     1       4.313   6.952  11.898  1.00  0.00     0.029 C 
HETATM   20  C29 UNL     1       3.484   6.686  10.636  1.00  0.00     0.090 C 
HETATM   21  C30 UNL     1       2.198   5.993  11.003  1.00  0.00     0.157 C 
HETATM   22  O5  UNL     1       1.724   5.136  10.260  1.00  0.00    -0.293 OA
ENDROOT
BRANCH   1  23
HETATM   23  C7  UNL     1      -3.347   6.850  13.964  1.00  0.00    -0.014 C 
HETATM   24  C8  UNL     1      -3.593   6.427  15.426  1.00  0.00     0.010 C 
BRANCH  23  25
HETATM   25  C6  UNL     1      -4.641   6.648  13.139  1.00  0.00     0.008 C 
BRANCH  25  26
HETATM   26  C5  UNL     1      -5.533   5.494  13.629  1.00  0.00     0.028 C 
BRANCH  26  27
HETATM   27  C4  UNL     1      -5.443   4.247  12.795  1.00  0.00    -0.025 C 
HETATM   28  C2  UNL     1      -6.402   3.330  12.560  1.00  0.00    -0.091 C 
HETATM   29  C1  UNL     1      -6.120   2.143  11.675  1.00  0.00     0.042 C 
HETATM   30  C3  UNL     1      -7.793   3.355  13.129  1.00  0.00     0.042 C 
ENDBRANCH  26  27
ENDBRANCH  25  26
ENDBRANCH  23  25
ENDBRANCH   1  23
BRANCH  14  31
HETATM   31  O1  UNL     1       3.844   8.984  15.104  1.00  0.00    -0.394 OA
HETATM   32  H35 UNL     1       4.341   8.935  15.940  1.00  0.00     0.210 HD
ENDBRANCH  14  31
BRANCH  17  33
HETATM   33  C27 UNL     1       5.937   8.621  10.803  1.00  0.00     0.151 C 
HETATM   34  O3  UNL     1       5.066   9.114  10.107  1.00  0.00    -0.649 OA
BRANCH  33  35
HETATM   35  O4  UNL     1       7.154   9.200  10.828  1.00  0.00    -0.776 OA
HETATM   36  H43 UNL     1       7.053   9.966  10.219  1.00  0.00     0.167 HD
ENDBRANCH  33  35
ENDBRANCH  17  33
BRANCH  16  37
HETATM   37  O2  UNL     1       7.901   7.754  12.919  1.00  0.00    -0.394 OA
HETATM   38  H39 UNL     1       7.952   8.624  12.472  1.00  0.00     0.210 HD
ENDBRANCH  16  37
TORSDOF 8
ENDMDL
MODEL 3
REMARK minimizedAffinity -9.16697788
REMARK  8 active torsions:
REMARK  status: ('A' for Active; 'I' for Inactive)
REMARK    1  A    between atoms: C4_4  and  C5_5 
REMARK    2  A    between atoms: C5_5  and  C6_6 
REMARK    3  A    between atoms: C6_6  and  C7_7 
REMARK    4  A    between atoms: C7_7  and  C9_9 
REMARK    5  A    between atoms: C22_22  and  O1_23 
REMARK    6  A    between atoms: C24_25  and  O2_26 
REMARK    7  A    between atoms: C25_27  and  C27_29 
REMARK    8  A    between atoms: C27_29  and  O4_31 
ROOT
HETATM    1  C9  UNL     1       2.063   6.766  11.574  1.00  0.00    -0.002 C 
HETATM    2  C10 UNL     1       1.772   5.336  11.058  1.00  0.00     0.007 C 
HETATM    3  C11 UNL     1       0.290   5.042  11.386  1.00  0.00     0.015 C 
HETATM    4  C12 UNL     1      -0.327   6.407  11.771  1.00  0.00    -0.005 C 
HETATM    5  C13 UNL     1      -0.720   7.114  10.437  1.00  0.00     0.021 C 
HETATM    6  C14 UNL     1      -1.581   6.497  12.632  1.00  0.00    -0.000 C 
HETATM    7  C15 UNL     1      -1.813   7.576  13.429  1.00  0.00    -0.058 C 
HETATM    8  C16 UNL     1      -0.766   8.700  13.534  1.00  0.00     0.036 C 
HETATM    9  C17 UNL     1       0.574   8.519  12.790  1.00  0.00     0.015 C 
HETATM   10  C18 UNL     1       0.885   7.041  12.550  1.00  0.00    -0.028 C 
HETATM   11  C19 UNL     1       1.147   6.375  13.934  1.00  0.00     0.016 C 
HETATM   12  C20 UNL     1      -3.093   7.731  14.319  1.00  0.00     0.011 C 
HETATM   13  C21 UNL     1      -2.686   7.275  15.742  1.00  0.00     0.023 C 
HETATM   14  C22 UNL     1      -3.612   9.216  14.368  1.00  0.00     0.133 C 
HETATM   15  C23 UNL     1      -4.992   9.366  15.003  1.00  0.00     0.065 C 
HETATM   16  C24 UNL     1      -6.031   8.481  14.336  1.00  0.00     0.139 C 
HETATM   17  C25 UNL     1      -5.658   6.975  14.352  1.00  0.00     0.072 C 
HETATM   18  C26 UNL     1      -6.731   6.215  13.537  1.00  0.00     0.030 C 
HETATM   19  C28 UNL     1      -4.237   6.843  13.689  1.00  0.00     0.029 C 
HETATM   20  C29 UNL     1      -3.757   5.403  13.480  1.00  0.00     0.090 C 
HETATM   21  C30 UNL     1      -2.579   5.386  12.542  1.00  0.00     0.157 C 
HETATM   22  O5  UNL     1      -2.443   4.466  11.738  1.00  0.00    -0.293 OA
ENDROOT
BRANCH   1  23
HETATM   23  C7  UNL     1       3.521   7.056  12.043  1.00  0.00    -0.014 C 
HETATM   24  C8  UNL     1       3.484   8.287  12.970  1.00  0.00     0.010 C 
BRANCH  23  25
HETATM   25  C6  UNL     1       4.555   7.286  10.913  1.00  0.00     0.008 C 
BRANCH  25  26
HETATM   26  C5  UNL     1       4.058   8.190   9.772  1.00  0.00     0.028 C 
BRANCH  26  27
HETATM   27  C4  UNL     1       3.528   7.444   8.579  1.00  0.00    -0.025 C 
HETATM   28  C2  UNL     1       2.343   7.600   7.957  1.00  0.00    -0.091 C 
HETATM   29  C1  UNL     1       1.997   6.758   6.756  1.00  0.00     0.042 C 
HETATM   30  C3  UNL     1       1.263   8.564   8.364  1.00  0.00     0.042 C 
ENDBRANCH  26  27
ENDBRANCH  25  26
ENDBRANCH  23  25
ENDBRANCH   1  23
BRANCH  14  31
HETATM   31  O1  UNL     1      -2.731  10.052  15.124  1.00  0.00    -0.394 OA
HETATM   32  H35 UNL     1      -3.042  10.971  15.034  1.00  0.00     0.210 HD
ENDBRANCH  14  31
BRANCH  17  33
HETATM   33  C27 UNL     1      -5.705   6.340  15.742  1.00  0.00     0.151 C 
HETATM   34  O3  UNL     1      -6.698   6.204  16.437  1.00  0.00    -0.649 OA
BRANCH  33  35
HETATM   35  O4  UNL     1      -4.511   5.955  16.233  1.00  0.00    -0.776 OA
HETATM   36  H43 UNL     1      -4.733   5.617  17.130  1.00  0.00     0.167 HD
ENDBRANCH  33  35
ENDBRANCH  17  33
BRANCH  16  37
HETATM   37  O2  UNL     1      -7.313   8.748  14.903  1.00  0.00    -0.394 OA
HETATM   38  H39 UNL     1      -7.289   8.421  15.826  1.00  0.00     0.210 HD
ENDBRANCH  16  37
TORSDOF 8
ENDMDL
MODEL 4
REMARK minimizedAffinity -9.1393795
REMARK  8 active torsions:
REMARK  status: ('A' for Active; 'I' for Inactive)
REMARK    1  A    between atoms: C4_4  and  C5_5 
REMARK    2  A    between atoms: C5_5  and  C6_6 
REMARK    3  A    between atoms: C6_6  and  C7_7 
REMARK    4  A    between atoms: C7_7  and  C9_9 
REMARK    5  A    between atoms: C22_22  and  O1_23 
REMARK    6  A    between atoms: C24_25  and  O2_26 
REMARK    7  A    between atoms: C25_27  and  C27_29 
REMARK    8  A    between atoms: C27_29  and  O4_31 
ROOT
HETATM    1  C9  UNL     1      -6.686   6.866  14.168  1.00  0.00    -0.002 C 
HETATM    2  C10 UNL     1      -6.837   8.205  14.930  1.00  0.00     0.007 C 
HETATM    3  C11 UNL     1      -5.414   8.792  15.077  1.00  0.00     0.015 C 
HETATM    4  C12 UNL     1      -4.525   7.965  14.118  1.00  0.00    -0.005 C 
HETATM    5  C13 UNL     1      -4.684   8.598  12.701  1.00  0.00     0.021 C 
HETATM    6  C14 UNL     1      -3.018   7.865  14.322  1.00  0.00    -0.000 C 
HETATM    7  C15 UNL     1      -2.322   6.772  13.904  1.00  0.00    -0.058 C 
HETATM    8  C16 UNL     1      -3.062   5.574  13.280  1.00  0.00     0.036 C 
HETATM    9  C17 UNL     1      -4.605   5.616  13.233  1.00  0.00     0.015 C 
HETATM   10  C18 UNL     1      -5.172   6.542  14.309  1.00  0.00    -0.028 C 
HETATM   11  C19 UNL     1      -4.870   5.908  15.699  1.00  0.00     0.016 C 
HETATM   12  C20 UNL     1      -0.771   6.623  14.069  1.00  0.00     0.011 C 
HETATM   13  C21 UNL     1      -0.554   5.772  15.344  1.00  0.00     0.023 C 
HETATM   14  C22 UNL     1      -0.104   5.907  12.835  1.00  0.00     0.133 C 
HETATM   15  C23 UNL     1       1.421   5.976  12.835  1.00  0.00     0.065 C 
HETATM   16  C24 UNL     1       1.934   7.402  12.940  1.00  0.00     0.139 C 
HETATM   17  C25 UNL     1       1.422   8.148  14.200  1.00  0.00     0.072 C 
HETATM   18  C26 UNL     1       1.914   9.612  14.113  1.00  0.00     0.030 C 
HETATM   19  C28 UNL     1      -0.149   8.071  14.177  1.00  0.00     0.029 C 
HETATM   20  C29 UNL     1      -0.849   8.882  15.273  1.00  0.00     0.090 C 
HETATM   21  C30 UNL     1      -2.313   9.024  14.953  1.00  0.00     0.157 C 
HETATM   22  O5  UNL     1      -2.908  10.065  15.224  1.00  0.00    -0.293 OA
ENDROOT
BRANCH   1  23
HETATM   23  C7  UNL     1      -7.732   5.757  14.491  1.00  0.00    -0.014 C 
HETATM   24  C8  UNL     1      -8.337   6.065  15.875  1.00  0.00     0.010 C 
BRANCH  23  25
HETATM   25  C6  UNL     1      -7.196   4.304  14.469  1.00  0.00     0.008 C 
BRANCH  25  26
HETATM   26  C5  UNL     1      -7.593   3.500  13.218  1.00  0.00     0.028 C 
BRANCH  26  27
HETATM   27  C4  UNL     1      -6.683   3.702  12.040  1.00  0.00    -0.025 C 
HETATM   28  C2  UNL     1      -6.060   2.766  11.297  1.00  0.00    -0.091 C 
HETATM   29  C1  UNL     1      -5.190   3.171  10.134  1.00  0.00     0.042 C 
HETATM   30  C3  UNL     1      -6.129   1.281  11.525  1.00  0.00     0.042 C 
ENDBRANCH  26  27
ENDBRANCH  25  26
ENDBRANCH  23  25
ENDBRANCH   1  23
BRANCH  14  31
HETATM   31  O1  UNL     1      -0.442   4.518  12.792  1.00  0.00    -0.394 OA
HETATM   32  H35 UNL     1      -0.092   4.153  11.959  1.00  0.00     0.210 HD
ENDBRANCH  14  31
BRANCH  17  33
HETATM   33  C27 UNL     1       2.005   7.621  15.511  1.00  0.00     0.151 C 
HETATM   34  O3  UNL     1       1.807   8.081  16.623  1.00  0.00    -0.649 OA
BRANCH  33  35
HETATM   35  O4  UNL     1       2.854   6.582  15.380  1.00  0.00    -0.776 OA
HETATM   36  H43 UNL     1       3.150   6.414  16.303  1.00  0.00     0.167 HD
ENDBRANCH  33  35
ENDBRANCH  17  33
BRANCH  16  37
HETATM   37  O2  UNL     1       3.356   7.402  12.825  1.00  0.00    -0.394 OA
HETATM   38  H39 UNL     1       3.706   6.972  13.632  1.00  0.00     0.210 HD
ENDBRANCH  16  37
TORSDOF 8
ENDMDL
MODEL 5
REMARK minimizedAffinity -9.02255344
REMARK  8 active torsions:
REMARK  status: ('A' for Active; 'I' for Inactive)
REMARK    1  A    between atoms: C4_4  and  C5_5 
REMARK    2  A    between atoms: C5_5  and  C6_6 
REMARK    3  A    between atoms: C6_6  and  C7_7 
REMARK    4  A    between atoms: C7_7  and  C9_9 
REMARK    5  A    between atoms: C22_22  and  O1_23 
REMARK    6  A    between atoms: C24_25  and  O2_26 
REMARK    7  A    between atoms: C25_27  and  C27_29 
REMARK    8  A    between atoms: C27_29  and  O4_31 
ROOT
HETATM    1  C9  UNL     1       2.780   7.117  11.218  1.00  0.00    -0.002 C 
HETATM    2  C10 UNL     1       2.549   5.667  10.729  1.00  0.00     0.007 C 
HETATM    3  C11 UNL     1       1.087   5.309  11.083  1.00  0.00     0.015 C 
HETATM    4  C12 UNL     1       0.413   6.650  11.457  1.00  0.00    -0.005 C 
HETATM    5  C13 UNL     1      -0.032   7.317  10.118  1.00  0.00     0.021 C 
HETATM    6  C14 UNL     1      -0.832   6.695  12.335  1.00  0.00    -0.000 C 
HETATM    7  C15 UNL     1      -1.102   7.775  13.119  1.00  0.00    -0.058 C 
HETATM    8  C16 UNL     1      -0.108   8.948  13.192  1.00  0.00     0.036 C 
HETATM    9  C17 UNL     1       1.229   8.818  12.430  1.00  0.00     0.015 C 
HETATM   10  C18 UNL     1       1.605   7.353  12.208  1.00  0.00    -0.028 C 
HETATM   11  C19 UNL     1       1.918   6.721  13.597  1.00  0.00     0.016 C 
HETATM   12  C20 UNL     1      -2.376   7.884  14.026  1.00  0.00     0.011 C 
HETATM   13  C21 UNL     1      -1.927   7.470  15.449  1.00  0.00     0.023 C 
HETATM   14  C22 UNL     1      -2.962   9.345  14.060  1.00  0.00     0.133 C 
HETATM   15  C23 UNL     1      -4.339   9.440  14.713  1.00  0.00     0.065 C 
HETATM   16  C24 UNL     1      -5.345   8.497  14.076  1.00  0.00     0.139 C 
HETATM   17  C25 UNL     1      -4.901   7.011  14.109  1.00  0.00     0.072 C 
HETATM   18  C26 UNL     1      -5.950   6.189  13.321  1.00  0.00     0.030 C 
HETATM   19  C28 UNL     1      -3.486   6.935  13.426  1.00  0.00     0.029 C 
HETATM   20  C29 UNL     1      -2.942   5.515  13.232  1.00  0.00     0.090 C 
HETATM   21  C30 UNL     1      -1.778   5.538  12.276  1.00  0.00     0.157 C 
HETATM   22  O5  UNL     1      -1.611   4.613  11.485  1.00  0.00    -0.293 OA
ENDROOT
BRANCH   1  23
HETATM   23  C7  UNL     1       4.230   7.482  11.661  1.00  0.00    -0.014 C 
HETATM   24  C8  UNL     1       4.550   8.889  11.120  1.00  0.00     0.010 C 
BRANCH  23  25
HETATM   25  C6  UNL     1       5.335   6.490  11.219  1.00  0.00     0.008 C 
BRANCH  25  26
HETATM   26  C5  UNL     1       6.619   6.553  12.065  1.00  0.00     0.028 C 
BRANCH  26  27
HETATM   27  C4  UNL     1       6.411   7.051  13.468  1.00  0.00    -0.025 C 
HETATM   28  C2  UNL     1       7.067   8.039  14.108  1.00  0.00    -0.091 C 
HETATM   29  C1  UNL     1       6.699   8.404  15.523  1.00  0.00     0.042 C 
HETATM   30  C3  UNL     1       8.198   8.849  13.538  1.00  0.00     0.042 C 
ENDBRANCH  26  27
ENDBRANCH  25  26
ENDBRANCH  23  25
ENDBRANCH   1  23
BRANCH  14  31
HETATM   31  O1  UNL     1      -2.111  10.233  14.790  1.00  0.00    -0.394 OA
HETATM   32  H35 UNL     1      -2.466  11.134  14.690  1.00  0.00     0.210 HD
ENDBRANCH  14  31
BRANCH  17  33
HETATM   33  C27 UNL     1      -4.899   6.396  15.508  1.00  0.00     0.151 C 
HETATM   34  O3  UNL     1      -5.883   6.112  16.171  1.00  0.00    -0.649 OA
BRANCH  33  35
HETATM   35  O4  UNL     1      -3.678   6.215  16.049  1.00  0.00    -0.776 OA
HETATM   36  H43 UNL     1      -3.878   5.858  16.944  1.00  0.00     0.167 HD
ENDBRANCH  33  35
ENDBRANCH  17  33
BRANCH  16  37
HETATM   37  O2  UNL     1      -6.630   8.713  14.658  1.00  0.00    -0.394 OA
HETATM   38  H39 UNL     1      -6.577   8.402  15.585  1.00  0.00     0.210 HD
ENDBRANCH  16  37
TORSDOF 8
ENDMDL
MODEL 6
REMARK minimizedAffinity -8.84239101
REMARK  8 active torsions:
REMARK  status: ('A' for Active; 'I' for Inactive)
REMARK    1  A    between atoms: C4_4  and  C5_5 
REMARK    2  A    between atoms: C5_5  and  C6_6 
REMARK    3  A    between atoms: C6_6  and  C7_7 
REMARK    4  A    between atoms: C7_7  and  C9_9 
REMARK    5  A    between atoms: C22_22  and  O1_23 
REMARK    6  A    between atoms: C24_25  and  O2_26 
REMARK    7  A    between atoms: C25_27  and  C27_29 
REMARK    8  A    between atoms: C27_29  and  O4_31 
ROOT
HETATM    1  C9  UNL     1      -4.313   5.687  13.190  1.00  0.00    -0.002 C 
HETATM    2  C10 UNL     1      -5.155   6.328  14.321  1.00  0.00     0.007 C 
HETATM    3  C11 UNL     1      -4.260   7.401  14.983  1.00  0.00     0.015 C 
HETATM    4  C12 UNL     1      -3.063   7.592  14.023  1.00  0.00    -0.005 C 
HETATM    5  C13 UNL     1      -3.525   8.598  12.923  1.00  0.00     0.021 C 
HETATM    6  C14 UNL     1      -1.733   8.150  14.514  1.00  0.00    -0.000 C 
HETATM    7  C15 UNL     1      -0.561   7.817  13.906  1.00  0.00    -0.058 C 
HETATM    8  C16 UNL     1      -0.550   6.800  12.750  1.00  0.00     0.036 C 
HETATM    9  C17 UNL     1      -1.880   6.113  12.372  1.00  0.00     0.015 C 
HETATM   10  C18 UNL     1      -2.858   6.104  13.547  1.00  0.00    -0.028 C 
HETATM   11  C19 UNL     1      -2.274   5.177  14.654  1.00  0.00     0.016 C 
HETATM   12  C20 UNL     1       0.832   8.376  14.355  1.00  0.00     0.011 C 
HETATM   13  C21 UNL     1       1.460   7.290  15.262  1.00  0.00     0.023 C 
HETATM   14  C22 UNL     1       1.784   8.661  13.134  1.00  0.00     0.133 C 
HETATM   15  C23 UNL     1       3.041   9.445  13.503  1.00  0.00     0.065 C 
HETATM   16  C24 UNL     1       2.719  10.746  14.218  1.00  0.00     0.139 C 
HETATM   17  C25 UNL     1       1.882  10.547  15.509  1.00  0.00     0.072 C 
HETATM   18  C26 UNL     1       1.524  11.949  16.057  1.00  0.00     0.030 C 
HETATM   19  C28 UNL     1       0.591   9.745  15.105  1.00  0.00     0.029 C 
HETATM   20  C29 UNL     1      -0.438   9.576  16.228  1.00  0.00     0.090 C 
HETATM   21  C30 UNL     1      -1.753   9.117  15.655  1.00  0.00     0.157 C 
HETATM   22  O5  UNL     1      -2.810   9.522  16.134  1.00  0.00    -0.293 OA
ENDROOT
BRANCH   1  23
HETATM   23  C7  UNL     1      -4.614   4.195  12.856  1.00  0.00    -0.014 C 
HETATM   24  C8  UNL     1      -3.457   3.663  11.987  1.00  0.00     0.010 C 
BRANCH  23  25
HETATM   25  C6  UNL     1      -5.964   3.927  12.146  1.00  0.00     0.008 C 
BRANCH  25  26
HETATM   26  C5  UNL     1      -7.093   3.464  13.084  1.00  0.00     0.028 C 
BRANCH  26  27
HETATM   27  C4  UNL     1      -7.837   4.584  13.755  1.00  0.00    -0.025 C 
HETATM   28  C2  UNL     1      -8.569   5.560  13.183  1.00  0.00    -0.091 C 
HETATM   29  C1  UNL     1      -9.258   6.595  14.035  1.00  0.00     0.042 C 
HETATM   30  C3  UNL     1      -8.771   5.748  11.705  1.00  0.00     0.042 C 
ENDBRANCH  26  27
ENDBRANCH  25  26
ENDBRANCH  23  25
ENDBRANCH   1  23
BRANCH  14  31
HETATM   31  O1  UNL     1       2.234   7.446  12.527  1.00  0.00    -0.394 OA
HETATM   32  H35 UNL     1       2.729   7.681  11.722  1.00  0.00     0.210 HD
ENDBRANCH  14  31
BRANCH  17  33
HETATM   33  C27 UNL     1       2.649   9.871  16.645  1.00  0.00     0.151 C 
HETATM   34  O3  UNL     1       2.210   9.609  17.752  1.00  0.00    -0.649 OA
BRANCH  33  35
HETATM   35  O4  UNL     1       3.943   9.602  16.378  1.00  0.00    -0.776 OA
HETATM   36  H43 UNL     1       4.272   9.217  17.222  1.00  0.00     0.167 HD
ENDBRANCH  33  35
ENDBRANCH  17  33
BRANCH  16  37
HETATM   37  O2  UNL     1       3.925  11.476  14.436  1.00  0.00    -0.394 OA
HETATM   38  H39 UNL     1       4.446  10.973  15.096  1.00  0.00     0.210 HD
ENDBRANCH  16  37
TORSDOF 8
ENDMDL
MODEL 7
REMARK minimizedAffinity -8.83239365
REMARK  8 active torsions:
REMARK  status: ('A' for Active; 'I' for Inactive)
REMARK    1  A    between atoms: C4_4  and  C5_5 
REMARK    2  A    between atoms: C5_5  and  C6_6 
REMARK    3  A    between atoms: C6_6  and  C7_7 
REMARK    4  A    between atoms: C7_7  and  C9_9 
REMARK    5  A    between atoms: C22_22  and  O1_23 
REMARK    6  A    between atoms: C24_25  and  O2_26 
REMARK    7  A    between atoms: C25_27  and  C27_29 
REMARK    8  A    between atoms: C27_29  and  O4_31 
ROOT
HETATM    1  C9  UNL     1      -1.274   6.016  12.124  1.00  0.00    -0.002 C 
HETATM    2  C10 UNL     1      -1.851   7.059  13.111  1.00  0.00     0.007 C 
HETATM    3  C11 UNL     1      -0.740   8.110  13.340  1.00  0.00     0.015 C 
HETATM    4  C12 UNL     1       0.315   7.844  12.241  1.00  0.00    -0.005 C 
HETATM    5  C13 UNL     1      -0.177   8.584  10.958  1.00  0.00     0.021 C 
HETATM    6  C14 UNL     1       1.762   8.290  12.406  1.00  0.00    -0.000 C 
HETATM    7  C15 UNL     1       2.779   7.623  11.794  1.00  0.00    -0.058 C 
HETATM    8  C16 UNL     1       2.490   6.348  10.979  1.00  0.00     0.036 C 
HETATM    9  C17 UNL     1       1.043   5.810  10.958  1.00  0.00     0.015 C 
HETATM   10  C18 UNL     1       0.258   6.271  12.187  1.00  0.00    -0.028 C 
HETATM   11  C19 UNL     1       0.881   5.587  13.441  1.00  0.00     0.016 C 
HETATM   12  C20 UNL     1       4.283   8.048  11.911  1.00  0.00     0.011 C 
HETATM   13  C21 UNL     1       4.898   7.153  13.015  1.00  0.00     0.023 C 
HETATM   14  C22 UNL     1       5.070   7.842  10.563  1.00  0.00     0.133 C 
HETATM   15  C23 UNL     1       6.456   8.482  10.556  1.00  0.00     0.065 C 
HETATM   16  C24 UNL     1       6.410   9.960  10.903  1.00  0.00     0.139 C 
HETATM   17  C25 UNL     1       5.757  10.247  12.281  1.00  0.00     0.072 C 
HETATM   18  C26 UNL     1       5.664  11.783  12.445  1.00  0.00     0.030 C 
HETATM   19  C28 UNL     1       4.330   9.586  12.264  1.00  0.00     0.029 C 
HETATM   20  C29 UNL     1       3.467   9.889  13.494  1.00  0.00     0.090 C 
HETATM   21  C30 UNL     1       2.034   9.514  13.221  1.00  0.00     0.157 C 
HETATM   22  O5  UNL     1       1.120  10.196  13.678  1.00  0.00    -0.293 OA
ENDROOT
BRANCH   1  23
HETATM   23  C7  UNL     1      -1.806   4.557  12.260  1.00  0.00    -0.014 C 
HETATM   24  C8  UNL     1      -1.720   3.890  10.873  1.00  0.00     0.010 C 
BRANCH  23  25
HETATM   25  C6  UNL     1      -3.244   4.418  12.817  1.00  0.00     0.008 C 
BRANCH  25  26
HETATM   26  C5  UNL     1      -4.287   3.968  11.778  1.00  0.00     0.028 C 
BRANCH  26  27
HETATM   27  C4  UNL     1      -5.634   3.640  12.356  1.00  0.00    -0.025 C 
HETATM   28  C2  UNL     1      -6.388   2.543  12.146  1.00  0.00    -0.091 C 
HETATM   29  C1  UNL     1      -7.718   2.389  12.836  1.00  0.00     0.042 C 
HETATM   30  C3  UNL     1      -6.032   1.401  11.235  1.00  0.00     0.042 C 
ENDBRANCH  26  27
ENDBRANCH  25  26
ENDBRANCH  23  25
ENDBRANCH   1  23
BRANCH  14  31
HETATM   31  O1  UNL     1       5.268   6.454  10.281  1.00  0.00    -0.394 OA
HETATM   32  H35 UNL     1       5.663   6.384   9.393  1.00  0.00     0.210 HD
ENDBRANCH  14  31
BRANCH  17  33
HETATM   33  C27 UNL     1       6.594   9.781  13.472  1.00  0.00     0.151 C 
HETATM   34  O3  UNL     1       6.321   9.941  14.650  1.00  0.00    -0.649 OA
BRANCH  33  35
HETATM   35  O4  UNL     1       7.761   9.188  13.151  1.00  0.00    -0.776 OA
HETATM   36  H43 UNL     1       8.168   9.000  14.027  1.00  0.00     0.167 HD
ENDBRANCH  33  35
ENDBRANCH  17  33
BRANCH  16  37
HETATM   37  O2  UNL     1       7.717  10.516  10.773  1.00  0.00    -0.394 OA
HETATM   38  H39 UNL     1       8.263  10.129  11.488  1.00  0.00     0.210 HD
ENDBRANCH  16  37
TORSDOF 8
ENDMDL
MODEL 8
REMARK minimizedAffinity -8.8316431
REMARK  8 active torsions:
REMARK  status: ('A' for Active; 'I' for Inactive)
REMARK    1  A    between atoms: C4_4  and  C5_5 
REMARK    2  A    between atoms: C5_5  and  C6_6 
REMARK    3  A    between atoms: C6_6  and  C7_7 
REMARK    4  A    between atoms: C7_7  and  C9_9 
REMARK    5  A    between atoms: C22_22  and  O1_23 
REMARK    6  A    between atoms: C24_25  and  O2_26 
REMARK    7  A    between atoms: C25_27  and  C27_29 
REMARK    8  A    between atoms: C27_29  and  O4_31 
ROOT
HETATM    1  C9  UNL     1      -5.696   6.639  15.095  1.00  0.00    -0.002 C 
HETATM    2  C10 UNL     1      -5.966   5.310  14.347  1.00  0.00     0.007 C 
HETATM    3  C11 UNL     1      -4.697   5.005  13.518  1.00  0.00     0.015 C 
HETATM    4  C12 UNL     1      -3.611   5.966  14.054  1.00  0.00    -0.005 C 
HETATM    5  C13 UNL     1      -2.996   5.288  15.319  1.00  0.00     0.021 C 
HETATM    6  C14 UNL     1      -2.405   6.354  13.208  1.00  0.00    -0.000 C 
HETATM    7  C15 UNL     1      -1.778   7.550  13.379  1.00  0.00    -0.058 C 
HETATM    8  C16 UNL     1      -2.328   8.575  14.389  1.00  0.00     0.036 C 
HETATM    9  C17 UNL     1      -3.647   8.242  15.119  1.00  0.00     0.015 C 
HETATM   10  C18 UNL     1      -4.490   7.245  14.323  1.00  0.00    -0.028 C 
HETATM   11  C19 UNL     1      -4.967   7.952  13.019  1.00  0.00     0.016 C 
HETATM   12  C20 UNL     1      -0.523   7.992  12.552  1.00  0.00     0.011 C 
HETATM   13  C21 UNL     1      -1.055   8.893  11.410  1.00  0.00     0.023 C 
HETATM   14  C22 UNL     1       0.514   8.797  13.421  1.00  0.00     0.133 C 
HETATM   15  C23 UNL     1       1.857   9.018  12.730  1.00  0.00     0.065 C 
HETATM   16  C24 UNL     1       2.483   7.717  12.259  1.00  0.00     0.139 C 
HETATM   17  C25 UNL     1       1.574   6.912  11.293  1.00  0.00     0.072 C 
HETATM   18  C26 UNL     1       2.277   5.565  10.998  1.00  0.00     0.030 C 
HETATM   19  C28 UNL     1       0.200   6.690  12.027  1.00  0.00     0.029 C 
HETATM   20  C29 UNL     1      -0.786   5.782  11.284  1.00  0.00     0.090 C 
HETATM   21  C30 UNL     1      -1.895   5.361  12.211  1.00  0.00     0.157 C 
HETATM   22  O5  UNL     1      -2.374   4.232  12.130  1.00  0.00    -0.293 OA
ENDROOT
BRANCH   1  23
HETATM   23  C7  UNL     1      -6.935   7.537  15.392  1.00  0.00    -0.014 C 
HETATM   24  C8  UNL     1      -7.438   7.194  16.808  1.00  0.00     0.010 C 
BRANCH  23  25
HETATM   25  C6  UNL     1      -8.103   7.423  14.382  1.00  0.00     0.008 C 
BRANCH  25  26
HETATM   26  C5  UNL     1      -9.497   7.353  15.029  1.00  0.00     0.028 C 
BRANCH  26  27
HETATM   27  C4  UNL     1     -10.342   8.577  14.810  1.00  0.00    -0.025 C 
HETATM   28  C2  UNL     1     -11.245   8.804  13.836  1.00  0.00    -0.091 C 
HETATM   29  C1  UNL     1     -12.010  10.102  13.794  1.00  0.00     0.042 C 
HETATM   30  C3  UNL     1     -11.579   7.857  12.717  1.00  0.00     0.042 C 
ENDBRANCH  26  27
ENDBRANCH  25  26
ENDBRANCH  23  25
ENDBRANCH   1  23
BRANCH  14  31
HETATM   31  O1  UNL     1       0.017  10.096  13.756  1.00  0.00    -0.394 OA
HETATM   32  H35 UNL     1       0.648  10.506  14.375  1.00  0.00     0.210 HD
ENDBRANCH  14  31
BRANCH  17  33
HETATM   33  C27 UNL     1       1.396   7.564   9.922  1.00  0.00     0.151 C 
HETATM   34  O3  UNL     1       1.180   8.745   9.710  1.00  0.00    -0.649 OA
BRANCH  33  35
HETATM   35  O4  UNL     1       1.436   6.713   8.878  1.00  0.00    -0.776 OA
HETATM   36  H43 UNL     1       1.265   7.296   8.104  1.00  0.00     0.167 HD
ENDBRANCH  33  35
ENDBRANCH  17  33
BRANCH  16  37
HETATM   37  O2  UNL     1       3.778   7.982  11.722  1.00  0.00    -0.394 OA
HETATM   38  H39 UNL     1       3.643   8.487  10.893  1.00  0.00     0.210 HD
ENDBRANCH  16  37
TORSDOF 8
ENDMDL
MODEL 9
REMARK minimizedAffinity -8.81699085
REMARK  8 active torsions:
REMARK  status: ('A' for Active; 'I' for Inactive)
REMARK    1  A    between atoms: C4_4  and  C5_5 
REMARK    2  A    between atoms: C5_5  and  C6_6 
REMARK    3  A    between atoms: C6_6  and  C7_7 
REMARK    4  A    between atoms: C7_7  and  C9_9 
REMARK    5  A    between atoms: C22_22  and  O1_23 
REMARK    6  A    between atoms: C24_25  and  O2_26 
REMARK    7  A    between atoms: C25_27  and  C27_29 
REMARK    8  A    between atoms: C27_29  and  O4_31 
ROOT
HETATM    1  C9  UNL     1      -1.280   7.634  13.716  1.00  0.00    -0.002 C 
HETATM    2  C10 UNL     1      -1.129   7.412  15.241  1.00  0.00     0.007 C 
HETATM    3  C11 UNL     1       0.359   7.668  15.578  1.00  0.00     0.015 C 
HETATM    4  C12 UNL     1       0.956   8.350  14.325  1.00  0.00    -0.005 C 
HETATM    5  C13 UNL     1       0.626   9.871  14.441  1.00  0.00     0.021 C 
HETATM    6  C14 UNL     1       2.451   8.308  14.035  1.00  0.00    -0.000 C 
HETATM    7  C15 UNL     1       2.923   8.370  12.759  1.00  0.00    -0.058 C 
HETATM    8  C16 UNL     1       1.943   8.409  11.571  1.00  0.00     0.036 C 
HETATM    9  C17 UNL     1       0.434   8.281  11.868  1.00  0.00     0.015 C 
HETATM   10  C18 UNL     1       0.184   7.567  13.197  1.00  0.00    -0.028 C 
HETATM   11  C19 UNL     1       0.649   6.088  13.044  1.00  0.00     0.016 C 
HETATM   12  C20 UNL     1       4.449   8.351  12.403  1.00  0.00     0.011 C 
HETATM   13  C21 UNL     1       4.784   6.887  12.026  1.00  0.00     0.023 C 
HETATM   14  C22 UNL     1       4.794   9.301  11.196  1.00  0.00     0.133 C 
HETATM   15  C23 UNL     1       6.291   9.511  10.986  1.00  0.00     0.065 C 
HETATM   16  C24 UNL     1       6.984  10.007  12.244  1.00  0.00     0.139 C 
HETATM   17  C25 UNL     1       6.799   9.063  13.460  1.00  0.00     0.072 C 
HETATM   18  C26 UNL     1       7.443   9.748  14.690  1.00  0.00     0.030 C 
HETATM   19  C28 UNL     1       5.252   8.865  13.662  1.00  0.00     0.029 C 
HETATM   20  C29 UNL     1       4.863   8.073  14.916  1.00  0.00     0.090 C 
HETATM   21  C30 UNL     1       3.393   8.244  15.195  1.00  0.00     0.157 C 
HETATM   22  O5  UNL     1       2.988   8.309  16.354  1.00  0.00    -0.293 OA
ENDROOT
BRANCH   1  23
HETATM   23  C7  UNL     1      -2.379   6.797  12.995  1.00  0.00    -0.014 C 
HETATM   24  C8  UNL     1      -3.671   7.638  12.965  1.00  0.00     0.010 C 
BRANCH  23  25
HETATM   25  C6  UNL     1      -2.676   5.408  13.611  1.00  0.00     0.008 C 
BRANCH  25  26
HETATM   26  C5  UNL     1      -3.387   4.430  12.660  1.00  0.00     0.028 C 
BRANCH  26  27
HETATM   27  C4  UNL     1      -4.852   4.247  12.942  1.00  0.00    -0.025 C 
HETATM   28  C2  UNL     1      -5.711   3.380  12.370  1.00  0.00    -0.091 C 
HETATM   29  C1  UNL     1      -7.153   3.339  12.804  1.00  0.00     0.042 C 
HETATM   30  C3  UNL     1      -5.370   2.408  11.275  1.00  0.00     0.042 C 
ENDBRANCH  26  27
ENDBRANCH  25  26
ENDBRANCH  23  25
ENDBRANCH   1  23
BRANCH  14  31
HETATM   31  O1  UNL     1       4.286   8.783   9.962  1.00  0.00    -0.394 OA
HETATM   32  H35 UNL     1       4.435   9.455   9.273  1.00  0.00     0.210 HD
ENDBRANCH  14  31
BRANCH  17  33
HETATM   33  C27 UNL     1       7.538   7.731  13.329  1.00  0.00     0.151 C 
HETATM   34  O3  UNL     1       8.027   7.278  12.308  1.00  0.00    -0.649 OA
BRANCH  33  35
HETATM   35  O4  UNL     1       7.585   6.992  14.455  1.00  0.00    -0.776 OA
HETATM   36  H43 UNL     1       8.051   6.174  14.170  1.00  0.00     0.167 HD
ENDBRANCH  33  35
ENDBRANCH  17  33
BRANCH  16  37
HETATM   37  O2  UNL     1       8.353  10.285  11.950  1.00  0.00    -0.394 OA
HETATM   38  H39 UNL     1       8.785   9.424  11.773  1.00  0.00     0.210 HD
ENDBRANCH  16  37
TORSDOF 8
ENDMDL
