MODEL 1
REMARK minimizedAffinity -9.86577606
REMARK  4 active torsions:
REMARK  status: ('A' for Active; 'I' for Inactive)
REMARK    1  A    between atoms: C4_4  and  C5_5 
REMARK    2  A    between atoms: C5_5  and  C6_7 
REMARK    3  A    between atoms: C6_7  and  C7_8 
REMARK    4  A    between atoms: C7_8  and  C9_10 
ROOT
HETATM    1  C9  UNL     1      -1.609  52.363 -26.154  1.00  0.00    -0.002 C 
HETATM    2  C10 UNL     1      -2.435  52.008 -27.428  1.00  0.00     0.006 C 
HETATM    3  C11 UNL     1      -3.261  50.746 -27.112  1.00  0.00     0.011 C 
HETATM    4  C12 UNL     1      -3.147  50.575 -25.589  1.00  0.00    -0.032 C 
HETATM    5  C13 UNL     1      -4.204  51.544 -24.952  1.00  0.00     0.016 C 
HETATM    6  C14 UNL     1      -3.385  49.130 -25.031  1.00  0.00     0.004 C 
HETATM    7  C15 UNL     1      -4.762  48.559 -25.453  1.00  0.00     0.007 C 
HETATM    8  C16 UNL     1      -5.695  48.030 -24.365  1.00  0.00     0.007 C 
HETATM    9  C17 UNL     1      -5.664  48.883 -23.091  1.00  0.00     0.010 C 
HETATM   10  C18 UNL     1      -6.667  48.417 -21.984  1.00  0.00     0.018 C 
HETATM   11  C19 UNL     1      -6.376  47.004 -21.454  1.00  0.00     0.023 C 
HETATM   12  C20 UNL     1      -8.117  48.467 -22.506  1.00  0.00     0.023 C 
HETATM   13  C21 UNL     1      -6.581  49.381 -20.792  1.00  0.00     0.135 C 
HETATM   14  O2  UNL     1      -7.394  49.350 -19.865  1.00  0.00    -0.297 OA
HETATM   15  C22 UNL     1      -5.481  50.413 -20.801  1.00  0.00     0.080 C 
HETATM   16  C23 UNL     1      -4.165  49.767 -21.199  1.00  0.00     0.018 C 
HETATM   17  C24 UNL     1      -4.241  49.019 -22.526  1.00  0.00    -0.026 A 
HETATM   18  C25 UNL     1      -3.288  47.854 -22.720  1.00  0.00     0.021 A 
HETATM   19  C26 UNL     1      -3.063  49.119 -23.516  1.00  0.00    -0.027 A 
HETATM   20  C27 UNL     1      -1.717  49.767 -23.151  1.00  0.00     0.011 C 
HETATM   21  C28 UNL     1      -1.433  51.112 -23.833  1.00  0.00     0.011 C 
HETATM   22  C29 UNL     1      -1.650  51.025 -25.352  1.00  0.00    -0.032 C 
HETATM   23  C30 UNL     1      -0.587  50.055 -25.953  1.00  0.00     0.016 C 
ENDROOT
BRANCH   1  24
HETATM   24  C7  UNL     1      -0.252  53.035 -26.505  1.00  0.00    -0.007 C 
HETATM   25  C8  UNL     1       0.244  52.681 -27.910  1.00  0.00     0.011 C 
BRANCH  24  26
HETATM   26  C6  UNL     1       0.858  52.725 -25.470  1.00  0.00     0.087 C 
BRANCH  26  27
HETATM   27  C5  UNL     1       0.841  53.618 -24.239  1.00  0.00     0.149 C 
HETATM   28  O1  UNL     1       1.007  54.835 -24.307  1.00  0.00    -0.293 OA
BRANCH  27  29
HETATM   29  C4  UNL     1       0.504  53.020 -22.922  1.00  0.00     0.052 C 
HETATM   30  C2  UNL     1       0.984  53.420 -21.732  1.00  0.00    -0.084 C 
HETATM   31  C1  UNL     1       0.554  52.721 -20.471  1.00  0.00     0.043 C 
HETATM   32  C3  UNL     1       1.921  54.575 -21.515  1.00  0.00     0.043 C 
ENDBRANCH  27  29
ENDBRANCH  26  27
ENDBRANCH  24  26
ENDBRANCH   1  24
TORSDOF 4
ENDMDL
MODEL 2
REMARK minimizedAffinity -9.29684448
REMARK  4 active torsions:
REMARK  status: ('A' for Active; 'I' for Inactive)
REMARK    1  A    between atoms: C4_4  and  C5_5 
REMARK    2  A    between atoms: C5_5  and  C6_7 
REMARK    3  A    between atoms: C6_7  and  C7_8 
REMARK    4  A    between atoms: C7_8  and  C9_10 
ROOT
HETATM    1  C9  UNL     1      -0.435  51.365 -23.884  1.00  0.00    -0.002 C 
HETATM    2  C10 UNL     1       0.299  52.253 -22.833  1.00  0.00     0.006 C 
HETATM    3  C11 UNL     1      -0.537  52.233 -21.538  1.00  0.00     0.011 C 
HETATM    4  C12 UNL     1      -1.556  51.103 -21.749  1.00  0.00    -0.032 C 
HETATM    5  C13 UNL     1      -0.814  49.764 -21.405  1.00  0.00     0.016 C 
HETATM    6  C14 UNL     1      -2.871  51.184 -20.901  1.00  0.00     0.004 C 
HETATM    7  C15 UNL     1      -2.583  51.261 -19.380  1.00  0.00     0.007 C 
HETATM    8  C16 UNL     1      -3.262  50.250 -18.458  1.00  0.00     0.007 C 
HETATM    9  C17 UNL     1      -3.344  48.847 -19.074  1.00  0.00     0.010 C 
HETATM   10  C18 UNL     1      -3.962  47.768 -18.125  1.00  0.00     0.018 C 
HETATM   11  C19 UNL     1      -5.422  48.056 -17.742  1.00  0.00     0.023 C 
HETATM   12  C20 UNL     1      -3.125  47.630 -16.837  1.00  0.00     0.023 C 
HETATM   13  C21 UNL     1      -3.933  46.405 -18.832  1.00  0.00     0.135 C 
HETATM   14  O2  UNL     1      -4.190  45.355 -18.239  1.00  0.00    -0.297 OA
HETATM   15  C22 UNL     1      -3.537  46.376 -20.287  1.00  0.00     0.080 C 
HETATM   16  C23 UNL     1      -4.261  47.476 -21.045  1.00  0.00     0.018 C 
HETATM   17  C24 UNL     1      -4.056  48.860 -20.436  1.00  0.00    -0.026 A 
HETATM   18  C25 UNL     1      -5.157  49.882 -20.650  1.00  0.00     0.021 A 
HETATM   19  C26 UNL     1      -3.840  50.068 -21.369  1.00  0.00    -0.027 A 
HETATM   20  C27 UNL     1      -4.027  49.993 -22.893  1.00  0.00     0.011 C 
HETATM   21  C28 UNL     1      -2.734  50.073 -23.715  1.00  0.00     0.011 C 
HETATM   22  C29 UNL     1      -1.875  51.274 -23.289  1.00  0.00    -0.032 C 
HETATM   23  C30 UNL     1      -2.640  52.586 -23.642  1.00  0.00     0.016 C 
ENDROOT
BRANCH   1  24
HETATM   24  C7  UNL     1      -0.209  51.870 -25.336  1.00  0.00    -0.007 C 
HETATM   25  C8  UNL     1      -0.617  53.333 -25.531  1.00  0.00     0.011 C 
BRANCH  24  26
HETATM   26  C6  UNL     1      -0.917  50.989 -26.396  1.00  0.00     0.087 C 
BRANCH  26  27
HETATM   27  C5  UNL     1      -2.185  51.597 -26.975  1.00  0.00     0.149 C 
HETATM   28  O1  UNL     1      -2.400  52.808 -26.960  1.00  0.00    -0.293 OA
BRANCH  27  29
HETATM   29  C4  UNL     1      -3.149  50.714 -27.681  1.00  0.00     0.052 C 
HETATM   30  C2  UNL     1      -3.364  49.414 -27.416  1.00  0.00    -0.084 C 
HETATM   31  C1  UNL     1      -4.376  48.639 -28.214  1.00  0.00     0.043 C 
HETATM   32  C3  UNL     1      -2.694  48.627 -26.326  1.00  0.00     0.043 C 
ENDBRANCH  27  29
ENDBRANCH  26  27
ENDBRANCH  24  26
ENDBRANCH   1  24
TORSDOF 4
ENDMDL
MODEL 3
REMARK minimizedAffinity -9.22010422
REMARK  4 active torsions:
REMARK  status: ('A' for Active; 'I' for Inactive)
REMARK    1  A    between atoms: C4_4  and  C5_5 
REMARK    2  A    between atoms: C5_5  and  C6_7 
REMARK    3  A    between atoms: C6_7  and  C7_8 
REMARK    4  A    between atoms: C7_8  and  C9_10 
ROOT
HETATM    1  C9  UNL     1      -0.843  49.219 -18.564  1.00  0.00    -0.002 C 
HETATM    2  C10 UNL     1      -1.853  48.032 -18.609  1.00  0.00     0.006 C 
HETATM    3  C11 UNL     1      -2.805  48.275 -19.797  1.00  0.00     0.011 C 
HETATM    4  C12 UNL     1      -2.149  49.409 -20.599  1.00  0.00    -0.032 C 
HETATM    5  C13 UNL     1      -1.047  48.743 -21.494  1.00  0.00     0.016 C 
HETATM    6  C14 UNL     1      -3.100  50.255 -21.514  1.00  0.00     0.004 C 
HETATM    7  C15 UNL     1      -3.878  49.373 -22.523  1.00  0.00     0.007 C 
HETATM    8  C16 UNL     1      -3.808  49.731 -24.006  1.00  0.00     0.007 C 
HETATM    9  C17 UNL     1      -2.414  50.205 -24.437  1.00  0.00     0.010 C 
HETATM   10  C18 UNL     1      -2.286  50.504 -25.967  1.00  0.00     0.018 C 
HETATM   11  C19 UNL     1      -3.196  51.647 -26.445  1.00  0.00     0.023 C 
HETATM   12  C20 UNL     1      -2.591  49.240 -26.798  1.00  0.00     0.023 C 
HETATM   13  C21 UNL     1      -0.837  50.911 -26.278  1.00  0.00     0.135 C 
HETATM   14  O2  UNL     1      -0.422  51.020 -27.434  1.00  0.00    -0.297 OA
HETATM   15  C22 UNL     1       0.093  51.139 -25.113  1.00  0.00     0.080 C 
HETATM   16  C23 UNL     1      -0.596  51.981 -24.054  1.00  0.00     0.018 C 
HETATM   17  C24 UNL     1      -1.930  51.399 -23.598  1.00  0.00    -0.026 A 
HETATM   18  C25 UNL     1      -2.974  52.374 -23.086  1.00  0.00     0.021 A 
HETATM   19  C26 UNL     1      -2.301  51.445 -22.102  1.00  0.00    -0.027 A 
HETATM   20  C27 UNL     1      -1.489  52.237 -21.064  1.00  0.00     0.011 C 
HETATM   21  C28 UNL     1      -0.686  51.383 -20.074  1.00  0.00     0.011 C 
HETATM   22  C29 UNL     1      -1.564  50.299 -19.429  1.00  0.00    -0.032 C 
HETATM   23  C30 UNL     1      -2.649  50.993 -18.550  1.00  0.00     0.016 C 
ENDROOT
BRANCH   1  24
HETATM   24  C7  UNL     1      -0.383  49.542 -17.115  1.00  0.00    -0.007 C 
HETATM   25  C8  UNL     1      -1.171  48.768 -16.053  1.00  0.00     0.011 C 
BRANCH  24  26
HETATM   26  C6  UNL     1      -0.429  51.056 -16.793  1.00  0.00     0.087 C 
BRANCH  26  27
HETATM   27  C5  UNL     1       0.585  51.512 -15.755  1.00  0.00     0.149 C 
HETATM   28  O1  UNL     1       0.392  51.386 -14.547  1.00  0.00    -0.293 OA
BRANCH  27  29
HETATM   29  C4  UNL     1       1.901  52.026 -16.213  1.00  0.00     0.052 C 
HETATM   30  C2  UNL     1       3.075  51.852 -15.583  1.00  0.00    -0.084 C 
HETATM   31  C1  UNL     1       4.336  52.430 -16.164  1.00  0.00     0.043 C 
HETATM   32  C3  UNL     1       3.275  51.066 -14.318  1.00  0.00     0.043 C 
ENDBRANCH  27  29
ENDBRANCH  26  27
ENDBRANCH  24  26
ENDBRANCH   1  24
TORSDOF 4
ENDMDL
MODEL 4
REMARK minimizedAffinity -9.08948517
REMARK  4 active torsions:
REMARK  status: ('A' for Active; 'I' for Inactive)
REMARK    1  A    between atoms: C4_4  and  C5_5 
REMARK    2  A    between atoms: C5_5  and  C6_7 
REMARK    3  A    between atoms: C6_7  and  C7_8 
REMARK    4  A    between atoms: C7_8  and  C9_10 
ROOT
HETATM    1  C9  UNL     1      -2.364  51.582 -22.687  1.00  0.00    -0.002 C 
HETATM    2  C10 UNL     1      -3.445  52.519 -23.306  1.00  0.00     0.006 C 
HETATM    3  C11 UNL     1      -4.789  51.764 -23.278  1.00  0.00     0.011 C 
HETATM    4  C12 UNL     1      -4.536  50.550 -22.372  1.00  0.00    -0.032 C 
HETATM    5  C13 UNL     1      -4.680  51.058 -20.895  1.00  0.00     0.016 C 
HETATM    6  C14 UNL     1      -5.483  49.318 -22.577  1.00  0.00     0.004 C 
HETATM    7  C15 UNL     1      -6.978  49.698 -22.425  1.00  0.00     0.007 C 
HETATM    8  C16 UNL     1      -7.835  48.901 -21.444  1.00  0.00     0.007 C 
HETATM    9  C17 UNL     1      -7.083  48.536 -20.158  1.00  0.00     0.010 C 
HETATM   10  C18 UNL     1      -7.955  47.788 -19.097  1.00  0.00     0.018 C 
HETATM   11  C19 UNL     1      -8.473  46.425 -19.585  1.00  0.00     0.023 C 
HETATM   12  C20 UNL     1      -9.155  48.655 -18.667  1.00  0.00     0.023 C 
HETATM   13  C21 UNL     1      -7.107  47.534 -17.841  1.00  0.00     0.135 C 
HETATM   14  O2  UNL     1      -7.602  47.126 -16.789  1.00  0.00    -0.297 OA
HETATM   15  C22 UNL     1      -5.632  47.838 -17.917  1.00  0.00     0.080 C 
HETATM   16  C23 UNL     1      -5.051  47.282 -19.205  1.00  0.00     0.018 C 
HETATM   17  C24 UNL     1      -5.786  47.765 -20.452  1.00  0.00    -0.026 A 
HETATM   18  C25 UNL     1      -5.763  46.854 -21.666  1.00  0.00     0.021 A 
HETATM   19  C26 UNL     1      -4.973  48.142 -21.707  1.00  0.00    -0.027 A 
HETATM   20  C27 UNL     1      -3.468  47.861 -21.844  1.00  0.00     0.011 C 
HETATM   21  C28 UNL     1      -2.565  49.101 -21.798  1.00  0.00     0.011 C 
HETATM   22  C29 UNL     1      -3.051  50.184 -22.775  1.00  0.00    -0.032 C 
HETATM   23  C30 UNL     1      -2.897  49.647 -24.231  1.00  0.00     0.016 C 
ENDROOT
BRANCH   1  24
HETATM   24  C7  UNL     1      -0.960  51.815 -23.312  1.00  0.00    -0.007 C 
HETATM   25  C8  UNL     1       0.134  52.026 -22.260  1.00  0.00     0.011 C 
BRANCH  24  26
HETATM   26  C6  UNL     1      -0.939  52.988 -24.323  1.00  0.00     0.087 C 
BRANCH  26  27
HETATM   27  C5  UNL     1       0.430  53.290 -24.912  1.00  0.00     0.149 C 
HETATM   28  O1  UNL     1       1.166  54.161 -24.452  1.00  0.00    -0.293 OA
BRANCH  27  29
HETATM   29  C4  UNL     1       0.946  52.432 -26.009  1.00  0.00     0.052 C 
HETATM   30  C2  UNL     1       0.653  52.564 -27.314  1.00  0.00    -0.084 C 
HETATM   31  C1  UNL     1       1.251  51.620 -28.321  1.00  0.00     0.043 C 
HETATM   32  C3  UNL     1      -0.223  53.632 -27.905  1.00  0.00     0.043 C 
ENDBRANCH  27  29
ENDBRANCH  26  27
ENDBRANCH  24  26
ENDBRANCH   1  24
TORSDOF 4
ENDMDL
MODEL 5
REMARK minimizedAffinity -9.05015278
REMARK  4 active torsions:
REMARK  status: ('A' for Active; 'I' for Inactive)
REMARK    1  A    between atoms: C4_4  and  C5_5 
REMARK    2  A    between atoms: C5_5  and  C6_7 
REMARK    3  A    between atoms: C6_7  and  C7_8 
REMARK    4  A    between atoms: C7_8  and  C9_10 
ROOT
HETATM    1  C9  UNL     1      -0.978  50.420 -22.058  1.00  0.00    -0.002 C 
HETATM    2  C10 UNL     1      -0.510  49.364 -21.012  1.00  0.00     0.006 C 
HETATM    3  C11 UNL     1      -1.769  48.674 -20.450  1.00  0.00     0.011 C 
HETATM    4  C12 UNL     1      -2.904  49.108 -21.389  1.00  0.00    -0.032 C 
HETATM    5  C13 UNL     1      -2.830  48.166 -22.642  1.00  0.00     0.016 C 
HETATM    6  C14 UNL     1      -4.356  49.052 -20.801  1.00  0.00     0.004 C 
HETATM    7  C15 UNL     1      -4.717  47.642 -20.268  1.00  0.00     0.007 C 
HETATM    8  C16 UNL     1      -5.995  46.977 -20.776  1.00  0.00     0.007 C 
HETATM    9  C17 UNL     1      -6.246  47.236 -22.267  1.00  0.00     0.010 C 
HETATM   10  C18 UNL     1      -7.504  46.505 -22.840  1.00  0.00     0.018 C 
HETATM   11  C19 UNL     1      -8.822  46.958 -22.191  1.00  0.00     0.023 C 
HETATM   12  C20 UNL     1      -7.367  44.977 -22.681  1.00  0.00     0.023 C 
HETATM   13  C21 UNL     1      -7.611  46.795 -24.345  1.00  0.00     0.135 C 
HETATM   14  O2  UNL     1      -8.403  46.194 -25.073  1.00  0.00    -0.297 OA
HETATM   15  C22 UNL     1      -6.677  47.826 -24.929  1.00  0.00     0.080 C 
HETATM   16  C23 UNL     1      -6.638  49.057 -24.040  1.00  0.00     0.018 C 
HETATM   17  C24 UNL     1      -6.284  48.739 -22.590  1.00  0.00    -0.026 A 
HETATM   18  C25 UNL     1      -6.818  49.678 -21.524  1.00  0.00     0.021 A 
HETATM   19  C26 UNL     1      -5.336  49.681 -21.822  1.00  0.00    -0.027 A 
HETATM   20  C27 UNL     1      -4.887  51.045 -22.371  1.00  0.00     0.011 C 
HETATM   21  C28 UNL     1      -3.415  51.125 -22.798  1.00  0.00     0.011 C 
HETATM   22  C29 UNL     1      -2.483  50.602 -21.693  1.00  0.00    -0.032 C 
HETATM   23  C30 UNL     1      -2.582  51.557 -20.463  1.00  0.00     0.016 C 
ENDROOT
BRANCH   1  24
HETATM   24  C7  UNL     1      -0.023  51.646 -22.119  1.00  0.00    -0.007 C 
HETATM   25  C8  UNL     1      -0.056  52.492 -20.843  1.00  0.00     0.011 C 
BRANCH  24  26
HETATM   26  C6  UNL     1      -0.286  52.552 -23.348  1.00  0.00     0.087 C 
BRANCH  26  27
HETATM   27  C5  UNL     1      -0.192  51.841 -24.688  1.00  0.00     0.149 C 
HETATM   28  O1  UNL     1      -1.181  51.396 -25.268  1.00  0.00    -0.293 OA
BRANCH  27  29
HETATM   29  C4  UNL     1       1.122  51.775 -25.377  1.00  0.00     0.052 C 
HETATM   30  C2  UNL     1       1.311  51.741 -26.708  1.00  0.00    -0.084 C 
HETATM   31  C1  UNL     1       2.705  51.675 -27.270  1.00  0.00     0.043 C 
HETATM   32  C3  UNL     1       0.224  51.805 -27.742  1.00  0.00     0.043 C 
ENDBRANCH  27  29
ENDBRANCH  26  27
ENDBRANCH  24  26
ENDBRANCH   1  24
TORSDOF 4
ENDMDL
MODEL 6
REMARK minimizedAffinity -9.0147295
REMARK  4 active torsions:
REMARK  status: ('A' for Active; 'I' for Inactive)
REMARK    1  A    between atoms: C4_4  and  C5_5 
REMARK    2  A    between atoms: C5_5  and  C6_7 
REMARK    3  A    between atoms: C6_7  and  C7_8 
REMARK    4  A    between atoms: C7_8  and  C9_10 
ROOT
HETATM    1  C9  UNL     1      -3.046  48.590 -19.781  1.00  0.00    -0.002 C 
HETATM    2  C10 UNL     1      -2.743  47.191 -20.399  1.00  0.00     0.006 C 
HETATM    3  C11 UNL     1      -2.818  47.332 -21.932  1.00  0.00     0.011 C 
HETATM    4  C12 UNL     1      -2.847  48.847 -22.185  1.00  0.00    -0.032 C 
HETATM    5  C13 UNL     1      -1.359  49.339 -22.115  1.00  0.00     0.016 C 
HETATM    6  C14 UNL     1      -3.471  49.314 -23.544  1.00  0.00     0.004 C 
HETATM    7  C15 UNL     1      -2.771  48.661 -24.764  1.00  0.00     0.007 C 
HETATM    8  C16 UNL     1      -2.236  49.570 -25.868  1.00  0.00     0.007 C 
HETATM    9  C17 UNL     1      -1.609  50.860 -25.324  1.00  0.00     0.010 C 
HETATM   10  C18 UNL     1      -0.979  51.778 -26.422  1.00  0.00     0.018 C 
HETATM   11  C19 UNL     1      -2.004  52.303 -27.441  1.00  0.00     0.023 C 
HETATM   12  C20 UNL     1       0.142  51.035 -27.177  1.00  0.00     0.023 C 
HETATM   13  C21 UNL     1      -0.338  53.000 -25.747  1.00  0.00     0.135 C 
HETATM   14  O2  UNL     1       0.386  53.784 -26.364  1.00  0.00    -0.297 OA
HETATM   15  C22 UNL     1      -0.586  53.198 -24.273  1.00  0.00     0.080 C 
HETATM   16  C23 UNL     1      -2.059  52.993 -23.961  1.00  0.00     0.018 C 
HETATM   17  C24 UNL     1      -2.593  51.647 -24.442  1.00  0.00    -0.026 A 
HETATM   18  C25 UNL     1      -4.069  51.569 -24.784  1.00  0.00     0.021 A 
HETATM   19  C26 UNL     1      -3.570  50.860 -23.546  1.00  0.00    -0.027 A 
HETATM   20  C27 UNL     1      -4.204  51.454 -22.277  1.00  0.00     0.011 C 
HETATM   21  C28 UNL     1      -3.690  50.869 -20.955  1.00  0.00     0.011 C 
HETATM   22  C29 UNL     1      -3.734  49.333 -20.969  1.00  0.00    -0.032 C 
HETATM   23  C30 UNL     1      -5.224  48.876 -21.041  1.00  0.00     0.016 C 
ENDROOT
BRANCH   1  24
HETATM   24  C7  UNL     1      -3.751  48.480 -18.400  1.00  0.00    -0.007 C 
HETATM   25  C8  UNL     1      -5.103  49.200 -18.361  1.00  0.00     0.011 C 
BRANCH  24  26
HETATM   26  C6  UNL     1      -2.865  48.979 -17.231  1.00  0.00     0.087 C 
BRANCH  26  27
HETATM   27  C5  UNL     1      -2.774  50.492 -17.109  1.00  0.00     0.149 C 
HETATM   28  O1  UNL     1      -3.190  51.098 -16.124  1.00  0.00    -0.293 OA
BRANCH  27  29
HETATM   29  C4  UNL     1      -2.062  51.257 -18.164  1.00  0.00     0.052 C 
HETATM   30  C2  UNL     1      -0.729  51.388 -18.275  1.00  0.00    -0.084 C 
HETATM   31  C1  UNL     1      -0.141  52.196 -19.400  1.00  0.00     0.043 C 
HETATM   32  C3  UNL     1       0.287  50.746 -17.373  1.00  0.00     0.043 C 
ENDBRANCH  27  29
ENDBRANCH  26  27
ENDBRANCH  24  26
ENDBRANCH   1  24
TORSDOF 4
ENDMDL
MODEL 7
REMARK minimizedAffinity -9.00902939
REMARK  4 active torsions:
REMARK  status: ('A' for Active; 'I' for Inactive)
REMARK    1  A    between atoms: C4_4  and  C5_5 
REMARK    2  A    between atoms: C5_5  and  C6_7 
REMARK    3  A    between atoms: C6_7  and  C7_8 
REMARK    4  A    between atoms: C7_8  and  C9_10 
ROOT
HETATM    1  C9  UNL     1      -1.249  50.500 -22.672  1.00  0.00    -0.002 C 
HETATM    2  C10 UNL     1      -0.778  49.573 -21.510  1.00  0.00     0.006 C 
HETATM    3  C11 UNL     1      -2.033  48.930 -20.887  1.00  0.00     0.011 C 
HETATM    4  C12 UNL     1      -3.164  49.240 -21.880  1.00  0.00    -0.032 C 
HETATM    5  C13 UNL     1      -3.062  48.166 -23.020  1.00  0.00     0.016 C 
HETATM    6  C14 UNL     1      -4.620  49.226 -21.303  1.00  0.00     0.004 C 
HETATM    7  C15 UNL     1      -4.967  47.878 -20.621  1.00  0.00     0.007 C 
HETATM    8  C16 UNL     1      -6.229  47.142 -21.065  1.00  0.00     0.007 C 
HETATM    9  C17 UNL     1      -6.467  47.230 -22.577  1.00  0.00     0.010 C 
HETATM   10  C18 UNL     1      -7.708  46.420 -23.078  1.00  0.00     0.018 C 
HETATM   11  C19 UNL     1      -9.040  46.921 -22.495  1.00  0.00     0.023 C 
HETATM   12  C20 UNL     1      -7.551  44.921 -22.749  1.00  0.00     0.023 C 
HETATM   13  C21 UNL     1      -7.802  46.540 -24.606  1.00  0.00     0.135 C 
HETATM   14  O2  UNL     1      -8.577  45.850 -25.271  1.00  0.00    -0.297 OA
HETATM   15  C22 UNL     1      -6.876  47.514 -25.292  1.00  0.00     0.080 C 
HETATM   16  C23 UNL     1      -6.866  48.836 -24.544  1.00  0.00     0.018 C 
HETATM   17  C24 UNL     1      -6.524  48.687 -23.065  1.00  0.00    -0.026 A 
HETATM   18  C25 UNL     1      -7.083  49.729 -22.115  1.00  0.00     0.021 A 
HETATM   19  C26 UNL     1      -5.598  49.723 -22.397  1.00  0.00    -0.027 A 
HETATM   20  C27 UNL     1      -5.163  51.024 -23.090  1.00  0.00     0.011 C 
HETATM   21  C28 UNL     1      -3.687  51.080 -23.508  1.00  0.00     0.011 C 
HETATM   22  C29 UNL     1      -2.761  50.697 -22.343  1.00  0.00    -0.032 C 
HETATM   23  C30 UNL     1      -2.888  51.780 -21.228  1.00  0.00     0.016 C 
ENDROOT
BRANCH   1  24
HETATM   24  C7  UNL     1      -0.312  51.726 -22.859  1.00  0.00    -0.007 C 
HETATM   25  C8  UNL     1       0.035  52.420 -21.538  1.00  0.00     0.011 C 
BRANCH  24  26
HETATM   26  C6  UNL     1      -0.876  52.767 -23.858  1.00  0.00     0.087 C 
BRANCH  26  27
HETATM   27  C5  UNL     1       0.153  53.340 -24.819  1.00  0.00     0.149 C 
HETATM   28  O1  UNL     1       1.073  54.065 -24.443  1.00  0.00    -0.293 OA
BRANCH  27  29
HETATM   29  C4  UNL     1       0.115  52.926 -26.245  1.00  0.00     0.052 C 
HETATM   30  C2  UNL     1       0.975  52.083 -26.842  1.00  0.00    -0.084 C 
HETATM   31  C1  UNL     1       0.816  51.750 -28.300  1.00  0.00     0.043 C 
HETATM   32  C3  UNL     1       2.110  51.372 -26.161  1.00  0.00     0.043 C 
ENDBRANCH  27  29
ENDBRANCH  26  27
ENDBRANCH  24  26
ENDBRANCH   1  24
TORSDOF 4
ENDMDL
MODEL 8
REMARK minimizedAffinity -8.8501482
REMARK  4 active torsions:
REMARK  status: ('A' for Active; 'I' for Inactive)
REMARK    1  A    between atoms: C4_4  and  C5_5 
REMARK    2  A    between atoms: C5_5  and  C6_7 
REMARK    3  A    between atoms: C6_7  and  C7_8 
REMARK    4  A    between atoms: C7_8  and  C9_10 
ROOT
HETATM    1  C9  UNL     1      -6.038  49.480 -23.376  1.00  0.00    -0.002 C 
HETATM    2  C10 UNL     1      -6.901  49.976 -22.176  1.00  0.00     0.006 C 
HETATM    3  C11 UNL     1      -5.950  50.232 -20.990  1.00  0.00     0.011 C 
HETATM    4  C12 UNL     1      -4.542  50.187 -21.602  1.00  0.00    -0.032 C 
HETATM    5  C13 UNL     1      -4.287  51.599 -22.237  1.00  0.00     0.016 C 
HETATM    6  C14 UNL     1      -3.366  49.855 -20.621  1.00  0.00     0.004 C 
HETATM    7  C15 UNL     1      -3.312  50.834 -19.421  1.00  0.00     0.007 C 
HETATM    8  C16 UNL     1      -1.997  51.555 -19.128  1.00  0.00     0.007 C 
HETATM    9  C17 UNL     1      -1.260  51.986 -20.403  1.00  0.00     0.010 C 
HETATM   10  C18 UNL     1       0.051  52.797 -20.140  1.00  0.00     0.018 C 
HETATM   11  C19 UNL     1       1.123  51.996 -19.383  1.00  0.00     0.023 C 
HETATM   12  C20 UNL     1      -0.255  54.090 -19.356  1.00  0.00     0.023 C 
HETATM   13  C21 UNL     1       0.658  53.217 -21.487  1.00  0.00     0.135 C 
HETATM   14  O2  UNL     1       1.590  54.020 -21.563  1.00  0.00    -0.297 OA
HETATM   15  C22 UNL     1       0.049  52.643 -22.741  1.00  0.00     0.080 C 
HETATM   16  C23 UNL     1      -0.172  51.150 -22.577  1.00  0.00     0.018 C 
HETATM   17  C24 UNL     1      -0.998  50.798 -21.343  1.00  0.00    -0.026 A 
HETATM   18  C25 UNL     1      -0.759  49.437 -20.714  1.00  0.00     0.021 A 
HETATM   19  C26 UNL     1      -2.062  49.686 -21.440  1.00  0.00    -0.027 A 
HETATM   20  C27 UNL     1      -2.197  48.763 -22.662  1.00  0.00     0.011 C 
HETATM   21  C28 UNL     1      -3.443  49.002 -23.526  1.00  0.00     0.011 C 
HETATM   22  C29 UNL     1      -4.719  49.035 -22.670  1.00  0.00    -0.032 C 
HETATM   23  C30 UNL     1      -4.942  47.620 -22.053  1.00  0.00     0.016 C 
ENDROOT
BRANCH   1  24
HETATM   24  C7  UNL     1      -6.818  48.496 -24.292  1.00  0.00    -0.007 C 
HETATM   25  C8  UNL     1      -7.340  47.268 -23.540  1.00  0.00     0.011 C 
BRANCH  24  26
HETATM   26  C6  UNL     1      -5.996  48.040 -25.522  1.00  0.00     0.087 C 
BRANCH  26  27
HETATM   27  C5  UNL     1      -6.813  47.362 -26.611  1.00  0.00     0.149 C 
HETATM   28  O1  UNL     1      -7.760  46.619 -26.356  1.00  0.00    -0.293 OA
BRANCH  27  29
HETATM   29  C4  UNL     1      -6.532  47.690 -28.032  1.00  0.00     0.052 C 
HETATM   30  C2  UNL     1      -5.355  48.114 -28.523  1.00  0.00    -0.084 C 
HETATM   31  C1  UNL     1      -5.213  48.409 -29.991  1.00  0.00     0.043 C 
HETATM   32  C3  UNL     1      -4.094  48.292 -27.726  1.00  0.00     0.043 C 
ENDBRANCH  27  29
ENDBRANCH  26  27
ENDBRANCH  24  26
ENDBRANCH   1  24
TORSDOF 4
ENDMDL
MODEL 9
REMARK minimizedAffinity -8.83236217
REMARK  4 active torsions:
REMARK  status: ('A' for Active; 'I' for Inactive)
REMARK    1  A    between atoms: C4_4  and  C5_5 
REMARK    2  A    between atoms: C5_5  and  C6_7 
REMARK    3  A    between atoms: C6_7  and  C7_8 
REMARK    4  A    between atoms: C7_8  and  C9_10 
ROOT
HETATM    1  C9  UNL     1      -2.878  47.996 -19.275  1.00  0.00    -0.002 C 
HETATM    2  C10 UNL     1      -3.061  46.696 -20.115  1.00  0.00     0.006 C 
HETATM    3  C11 UNL     1      -3.233  47.112 -21.589  1.00  0.00     0.011 C 
HETATM    4  C12 UNL     1      -2.837  48.596 -21.625  1.00  0.00    -0.032 C 
HETATM    5  C13 UNL     1      -1.270  48.638 -21.695  1.00  0.00     0.016 C 
HETATM    6  C14 UNL     1      -3.419  49.444 -22.808  1.00  0.00     0.004 C 
HETATM    7  C15 UNL     1      -3.060  48.842 -24.190  1.00  0.00     0.007 C 
HETATM    8  C16 UNL     1      -2.386  49.743 -25.223  1.00  0.00     0.007 C 
HETATM    9  C17 UNL     1      -1.359  50.696 -24.599  1.00  0.00     0.010 C 
HETATM   10  C18 UNL     1      -0.591  51.578 -25.637  1.00  0.00     0.018 C 
HETATM   11  C19 UNL     1      -1.506  52.533 -26.422  1.00  0.00     0.023 C 
HETATM   12  C20 UNL     1       0.185  50.696 -26.635  1.00  0.00     0.023 C 
HETATM   13  C21 UNL     1       0.442  52.440 -24.896  1.00  0.00     0.135 C 
HETATM   14  O2  UNL     1       1.304  53.088 -25.494  1.00  0.00    -0.297 OA
HETATM   15  C22 UNL     1       0.402  52.443 -23.388  1.00  0.00     0.080 C 
HETATM   16  C23 UNL     1      -1.030  52.603 -22.906  1.00  0.00     0.018 C 
HETATM   17  C24 UNL     1      -1.979  51.561 -23.489  1.00  0.00    -0.026 A 
HETATM   18  C25 UNL     1      -3.438  51.954 -23.630  1.00  0.00     0.021 A 
HETATM   19  C26 UNL     1      -3.057  50.933 -22.583  1.00  0.00    -0.027 A 
HETATM   20  C27 UNL     1      -3.367  51.452 -21.169  1.00  0.00     0.011 C 
HETATM   21  C28 UNL     1      -2.928  50.530 -20.024  1.00  0.00     0.011 C 
HETATM   22  C29 UNL     1      -3.424  49.092 -20.242  1.00  0.00    -0.032 C 
HETATM   23  C30 UNL     1      -4.982  49.085 -20.169  1.00  0.00     0.016 C 
ENDROOT
BRANCH   1  24
HETATM   24  C7  UNL     1      -3.452  47.850 -17.838  1.00  0.00    -0.007 C 
HETATM   25  C8  UNL     1      -4.544  46.781 -17.737  1.00  0.00     0.011 C 
BRANCH  24  26
HETATM   26  C6  UNL     1      -3.982  49.188 -17.264  1.00  0.00     0.087 C 
BRANCH  26  27
HETATM   27  C5  UNL     1      -2.949  50.000 -16.501  1.00  0.00     0.149 C 
HETATM   28  O1  UNL     1      -3.098  51.198 -16.264  1.00  0.00    -0.293 OA
BRANCH  27  29
HETATM   29  C4  UNL     1      -1.769  49.306 -15.924  1.00  0.00     0.052 C 
HETATM   30  C2  UNL     1      -0.520  49.336 -16.419  1.00  0.00    -0.084 C 
HETATM   31  C1  UNL     1       0.584  48.582 -15.728  1.00  0.00     0.043 C 
HETATM   32  C3  UNL     1      -0.081  50.115 -17.627  1.00  0.00     0.043 C 
ENDBRANCH  27  29
ENDBRANCH  26  27
ENDBRANCH  24  26
ENDBRANCH   1  24
TORSDOF 4
ENDMDL
