MODEL 1
REMARK minimizedAffinity -9.99672031
REMARK CNNscore 0.477292538
REMARK CNNaffinity 7.27777624
REMARK  11 active torsions:
REMARK  status: ('A' for Active; 'I' for Inactive)
REMARK    1  A    between atoms: C12_13  and  O2_14 
REMARK    2  A    between atoms: C19_21  and  O3_22 
REMARK    3  A    between atoms: C19_21  and  C20_23 
REMARK    4  A    between atoms: C20_23  and  C21_25 
REMARK    5  A    between atoms: C21_25  and  O5_26 
REMARK    6  A    between atoms: O5_26  and  C22_27 
REMARK    7  A    between atoms: C22_27  and  C23_29 
REMARK    8  A    between atoms: C23_29  and  C24_30 
REMARK    9  A    between atoms: C24_30  and  C25_31 
REMARK       I    between atoms: C25_31  and  N1_33 
REMARK   10  A    between atoms: N1_33  and  C26_34 
REMARK   11  A    between atoms: C26_34  and  C27_35 
ROOT
HETATM    1  C1  UNL     1       0.177  51.798 -14.434  1.00  0.00     0.025 C 
HETATM    2  C2  UNL     1       1.171  50.921 -15.228  1.00  0.00     0.004 A 
HETATM    3  C3  UNL     1       1.348  49.640 -14.419  1.00  0.00    -0.009 A 
HETATM    4  C4  UNL     1       2.493  49.232 -13.857  1.00  0.00     0.052 A 
HETATM    5  C5  UNL     1       3.728  50.026 -13.990  1.00  0.00     0.172 A 
HETATM    6  O1  UNL     1       4.778  49.661 -13.477  1.00  0.00    -0.289 OA
HETATM    7  C6  UNL     1       3.649  51.275 -14.775  1.00  0.00     0.058 A 
HETATM    8  C7  UNL     1       2.500  51.685 -15.341  1.00  0.00    -0.064 A 
HETATM    9  C8  UNL     1       2.471  52.932 -16.187  1.00  0.00     0.036 C 
HETATM   10  C9  UNL     1       2.005  52.600 -17.599  1.00  0.00     0.010 C 
HETATM   11  C10 UNL     1       0.657  51.855 -17.613  1.00  0.00    -0.002 C 
HETATM   12  C11 UNL     1       0.706  50.581 -16.697  1.00  0.00     0.035 C 
HETATM   13  C12 UNL     1      -0.590  49.724 -16.818  1.00  0.00     0.124 C 
HETATM   14  C13 UNL     1      -1.009  49.449 -18.280  1.00  0.00     0.045 C 
HETATM   15  C14 UNL     1      -1.077  50.724 -19.148  1.00  0.00     0.001 C 
HETATM   16  C15 UNL     1      -2.260  51.627 -18.704  1.00  0.00     0.019 C 
HETATM   17  C16 UNL     1       0.298  51.421 -19.041  1.00  0.00     0.002 C 
HETATM   18  C17 UNL     1       0.249  52.476 -20.142  1.00  0.00     0.009 C 
HETATM   19  C18 UNL     1      -0.580  51.823 -21.269  1.00  0.00     0.047 C 
HETATM   20  C19 UNL     1      -1.142  50.502 -20.692  1.00  0.00     0.128 C 
ENDROOT
BRANCH  20  21
HETATM   21  O3  UNL     1      -0.227  49.461 -21.077  1.00  0.00    -0.381 OA
HETATM   22  H25 UNL     1      -0.690  48.611 -20.929  1.00  0.00     0.211 HD
ENDBRANCH  20  21
BRANCH  20  23
HETATM   23  C20 UNL     1      -2.524  50.037 -21.189  1.00  0.00     0.185 C 
HETATM   24  O4  UNL     1      -2.956  48.937 -20.820  1.00  0.00    -0.292 OA
BRANCH  23  25
HETATM   25  C21 UNL     1      -3.326  50.949 -22.114  1.00  0.00     0.260 C 
BRANCH  25  26
HETATM   26  O5  UNL     1      -3.076  50.683 -23.494  1.00  0.00    -0.314 OA
BRANCH  26  27
HETATM   27  C22 UNL     1      -3.932  49.779 -24.047  1.00  0.00     0.259 C 
HETATM   28  O6  UNL     1      -5.153  49.834 -23.979  1.00  0.00    -0.265 OA
BRANCH  27  29
HETATM   29  C23 UNL     1      -3.159  48.716 -24.790  1.00  0.00     0.120 C 
BRANCH  29  30
HETATM   30  C24 UNL     1      -3.743  48.498 -26.181  1.00  0.00     0.112 C 
BRANCH  30  31
HETATM   31  C25 UNL     1      -3.261  49.553 -27.158  1.00  0.00     0.218 C 
HETATM   32  O7  UNL     1      -3.574  49.563 -28.344  1.00  0.00    -0.274 OA
HETATM   33  N1  UNL     1      -2.421  50.479 -26.583  1.00  0.00    -0.357 N 
HETATM   34  H32 UNL     1      -2.123  50.350 -25.625  1.00  0.00     0.162 HD
BRANCH  33  35
HETATM   35  C26 UNL     1      -1.821  51.549 -27.347  1.00  0.00     0.162 C 
BRANCH  35  36
HETATM   36  C27 UNL     1      -0.337  51.603 -27.137  1.00  0.00    -0.025 A 
HETATM   37  C28 UNL     1       0.549  51.633 -28.219  1.00  0.00     0.011 A 
HETATM   38  C29 UNL     1       1.921  51.676 -27.988  1.00  0.00     0.018 A 
HETATM   39  C30 UNL     1       2.364  51.684 -26.676  1.00  0.00     0.087 A 
HETATM   40  N2  UNL     1       1.543  51.647 -25.605  1.00  0.00    -0.375 N 
HETATM   41  C31 UNL     1       0.215  51.608 -25.860  1.00  0.00     0.096 A 
ATOM     42  H2  UNL     1       1.906  51.649 -24.652  1.00  0.00     0.164 HD
ENDBRANCH  35  36
ENDBRANCH  33  35
ENDBRANCH  30  31
ENDBRANCH  29  30
ENDBRANCH  27  29
ENDBRANCH  26  27
ENDBRANCH  25  26
ENDBRANCH  23  25
ENDBRANCH  20  23
BRANCH  13  43
HETATM   43  O2  UNL     1      -1.676  50.326 -16.124  1.00  0.00    -0.395 OA
HETATM   44  H14 UNL     1      -2.434  49.718 -16.178  1.00  0.00     0.210 HD
ENDBRANCH  13  43
TORSDOF 11
ENDMDL
MODEL 2
REMARK minimizedAffinity -10.0441408
REMARK CNNscore 0.462788582
REMARK CNNaffinity 7.34710121
REMARK  11 active torsions:
REMARK  status: ('A' for Active; 'I' for Inactive)
REMARK    1  A    between atoms: C12_13  and  O2_14 
REMARK    2  A    between atoms: C19_21  and  O3_22 
REMARK    3  A    between atoms: C19_21  and  C20_23 
REMARK    4  A    between atoms: C20_23  and  C21_25 
REMARK    5  A    between atoms: C21_25  and  O5_26 
REMARK    6  A    between atoms: O5_26  and  C22_27 
REMARK    7  A    between atoms: C22_27  and  C23_29 
REMARK    8  A    between atoms: C23_29  and  C24_30 
REMARK    9  A    between atoms: C24_30  and  C25_31 
REMARK       I    between atoms: C25_31  and  N1_33 
REMARK   10  A    between atoms: N1_33  and  C26_34 
REMARK   11  A    between atoms: C26_34  and  C27_35 
ROOT
HETATM    1  C1  UNL     1      -0.133  49.589 -20.573  1.00  0.00     0.025 C 
HETATM    2  C2  UNL     1      -0.769  50.939 -20.977  1.00  0.00     0.004 A 
HETATM    3  C3  UNL     1       0.102  51.502 -22.095  1.00  0.00    -0.009 A 
HETATM    4  C4  UNL     1       0.811  52.636 -22.026  1.00  0.00     0.052 A 
HETATM    5  C5  UNL     1       0.798  53.466 -20.808  1.00  0.00     0.172 A 
HETATM    6  O1  UNL     1       1.445  54.503 -20.736  1.00  0.00    -0.289 OA
HETATM    7  C6  UNL     1      -0.037  53.001 -19.682  1.00  0.00     0.058 A 
HETATM    8  C7  UNL     1      -0.751  51.863 -19.750  1.00  0.00    -0.064 A 
HETATM    9  C8  UNL     1      -1.640  51.453 -18.604  1.00  0.00     0.036 C 
HETATM   10  C9  UNL     1      -3.084  51.334 -19.074  1.00  0.00     0.010 C 
HETATM   11  C10 UNL     1      -3.231  50.400 -20.290  1.00  0.00    -0.002 C 
HETATM   12  C11 UNL     1      -2.270  50.831 -21.454  1.00  0.00     0.035 C 
HETATM   13  C12 UNL     1      -2.513  50.001 -22.751  1.00  0.00     0.124 C 
HETATM   14  C13 UNL     1      -4.003  49.910 -23.149  1.00  0.00     0.045 C 
HETATM   15  C14 UNL     1      -4.920  49.455 -21.993  1.00  0.00     0.001 C 
HETATM   16  C15 UNL     1      -4.654  47.967 -21.635  1.00  0.00     0.019 C 
HETATM   17  C16 UNL     1      -4.675  50.420 -20.812  1.00  0.00     0.002 C 
HETATM   18  C17 UNL     1      -5.812  50.099 -19.847  1.00  0.00     0.009 C 
HETATM   19  C18 UNL     1      -7.005  49.740 -20.760  1.00  0.00     0.047 C 
HETATM   20  C19 UNL     1      -6.451  49.675 -22.202  1.00  0.00     0.128 C 
ENDROOT
BRANCH  20  21
HETATM   21  O3  UNL     1      -6.685  50.965 -22.793  1.00  0.00    -0.381 OA
HETATM   22  H25 UNL     1      -6.562  50.858 -23.758  1.00  0.00     0.211 HD
ENDBRANCH  20  21
BRANCH  20  23
HETATM   23  C20 UNL     1      -7.092  48.659 -23.168  1.00  0.00     0.185 C 
HETATM   24  O4  UNL     1      -7.680  47.675 -22.700  1.00  0.00    -0.292 OA
BRANCH  23  25
HETATM   25  C21 UNL     1      -6.991  48.900 -24.671  1.00  0.00     0.260 C 
BRANCH  25  26
HETATM   26  O5  UNL     1      -6.973  47.683 -25.419  1.00  0.00    -0.314 OA
BRANCH  26  27
HETATM   27  C22 UNL     1      -6.200  47.734 -26.540  1.00  0.00     0.259 C 
HETATM   28  O6  UNL     1      -6.574  47.436 -27.666  1.00  0.00    -0.265 OA
BRANCH  27  29
HETATM   29  C23 UNL     1      -4.821  48.246 -26.198  1.00  0.00     0.120 C 
BRANCH  29  30
HETATM   30  C24 UNL     1      -3.973  48.388 -27.456  1.00  0.00     0.112 C 
BRANCH  30  31
HETATM   31  C25 UNL     1      -3.535  49.824 -27.672  1.00  0.00     0.218 C 
HETATM   32  O7  UNL     1      -3.425  50.332 -28.783  1.00  0.00    -0.274 OA
HETATM   33  N1  UNL     1      -3.252  50.485 -26.500  1.00  0.00    -0.357 N 
HETATM   34  H32 UNL     1      -3.264  49.974 -25.627  1.00  0.00     0.162 HD
BRANCH  33  35
HETATM   35  C26 UNL     1      -2.783  51.853 -26.483  1.00  0.00     0.162 C 
BRANCH  35  36
HETATM   36  C27 UNL     1      -1.288  51.916 -26.380  1.00  0.00    -0.025 A 
HETATM   37  C28 UNL     1      -0.523  50.758 -26.207  1.00  0.00     0.011 A 
HETATM   38  C29 UNL     1       0.862  50.854 -26.108  1.00  0.00     0.018 A 
HETATM   39  C30 UNL     1       1.439  52.110 -26.182  1.00  0.00     0.087 A 
HETATM   40  N2  UNL     1       0.735  53.252 -26.339  1.00  0.00    -0.375 N 
HETATM   41  C31 UNL     1      -0.609  53.128 -26.434  1.00  0.00     0.096 A 
ATOM     42  H2  UNL     1       1.194  54.162 -26.383  1.00  0.00     0.164 HD
ENDBRANCH  35  36
ENDBRANCH  33  35
ENDBRANCH  30  31
ENDBRANCH  29  30
ENDBRANCH  27  29
ENDBRANCH  26  27
ENDBRANCH  25  26
ENDBRANCH  23  25
ENDBRANCH  20  23
BRANCH  13  43
HETATM   43  O2  UNL     1      -1.976  48.690 -22.635  1.00  0.00    -0.395 OA
HETATM   44  H14 UNL     1      -2.097  48.244 -23.491  1.00  0.00     0.210 HD
ENDBRANCH  13  43
TORSDOF 11
ENDMDL
MODEL 3
REMARK minimizedAffinity -9.78300571
REMARK CNNscore 0.439757228
REMARK CNNaffinity 7.67528915
REMARK  11 active torsions:
REMARK  status: ('A' for Active; 'I' for Inactive)
REMARK    1  A    between atoms: C12_13  and  O2_14 
REMARK    2  A    between atoms: C19_21  and  O3_22 
REMARK    3  A    between atoms: C19_21  and  C20_23 
REMARK    4  A    between atoms: C20_23  and  C21_25 
REMARK    5  A    between atoms: C21_25  and  O5_26 
REMARK    6  A    between atoms: O5_26  and  C22_27 
REMARK    7  A    between atoms: C22_27  and  C23_29 
REMARK    8  A    between atoms: C23_29  and  C24_30 
REMARK    9  A    between atoms: C24_30  and  C25_31 
REMARK       I    between atoms: C25_31  and  N1_33 
REMARK   10  A    between atoms: N1_33  and  C26_34 
REMARK   11  A    between atoms: C26_34  and  C27_35 
ROOT
HETATM    1  C1  UNL     1      -4.292  51.499 -24.350  1.00  0.00     0.025 C 
HETATM    2  C2  UNL     1      -3.567  50.134 -24.399  1.00  0.00     0.004 A 
HETATM    3  C3  UNL     1      -2.424  50.297 -25.396  1.00  0.00    -0.009 A 
HETATM    4  C4  UNL     1      -2.306  49.631 -26.552  1.00  0.00     0.052 A 
HETATM    5  C5  UNL     1      -3.318  48.640 -26.963  1.00  0.00     0.172 A 
HETATM    6  O1  UNL     1      -3.218  48.028 -28.019  1.00  0.00    -0.289 OA
HETATM    7  C6  UNL     1      -4.450  48.408 -26.044  1.00  0.00     0.058 A 
HETATM    8  C7  UNL     1      -4.570  49.076 -24.882  1.00  0.00    -0.064 A 
HETATM    9  C8  UNL     1      -5.705  48.768 -23.940  1.00  0.00     0.036 C 
HETATM   10  C9  UNL     1      -5.163  48.312 -22.591  1.00  0.00     0.010 C 
HETATM   11  C10 UNL     1      -4.163  49.318 -21.991  1.00  0.00    -0.002 C 
HETATM   12  C11 UNL     1      -3.011  49.645 -23.005  1.00  0.00     0.035 C 
HETATM   13  C12 UNL     1      -1.903  50.536 -22.365  1.00  0.00     0.124 C 
HETATM   14  C13 UNL     1      -1.421  50.020 -20.990  1.00  0.00     0.045 C 
HETATM   15  C14 UNL     1      -2.575  49.735 -20.004  1.00  0.00     0.001 C 
HETATM   16  C15 UNL     1      -3.257  51.058 -19.561  1.00  0.00     0.019 C 
HETATM   17  C16 UNL     1      -3.541  48.755 -20.705  1.00  0.00     0.002 C 
HETATM   18  C17 UNL     1      -4.463  48.296 -19.579  1.00  0.00     0.009 C 
HETATM   19  C18 UNL     1      -3.559  48.261 -18.327  1.00  0.00     0.047 C 
HETATM   20  C19 UNL     1      -2.209  48.890 -18.743  1.00  0.00     0.128 C 
ENDROOT
BRANCH  20  21
HETATM   21  O3  UNL     1      -1.343  47.803 -19.116  1.00  0.00    -0.381 OA
HETATM   22  H25 UNL     1      -0.434  48.166 -19.144  1.00  0.00     0.211 HD
ENDBRANCH  20  21
BRANCH  20  23
HETATM   23  C20 UNL     1      -1.433  49.685 -17.675  1.00  0.00     0.185 C 
HETATM   24  O4  UNL     1      -1.834  49.665 -16.504  1.00  0.00    -0.292 OA
BRANCH  23  25
HETATM   25  C21 UNL     1      -0.188  50.465 -18.089  1.00  0.00     0.260 C 
BRANCH  25  26
HETATM   26  O5  UNL     1      -0.390  51.878 -18.046  1.00  0.00    -0.314 OA
BRANCH  26  27
HETATM   27  C22 UNL     1       0.700  52.604 -18.421  1.00  0.00     0.259 C 
HETATM   28  O6  UNL     1       1.778  52.605 -17.840  1.00  0.00    -0.265 OA
BRANCH  27  29
HETATM   29  C23 UNL     1       0.399  53.383 -19.679  1.00  0.00     0.120 C 
BRANCH  29  30
HETATM   30  C24 UNL     1       1.091  52.752 -20.881  1.00  0.00     0.112 C 
BRANCH  30  31
HETATM   31  C25 UNL     1       1.141  53.706 -22.058  1.00  0.00     0.218 C 
HETATM   32  O7  UNL     1       1.697  54.799 -22.014  1.00  0.00    -0.274 OA
HETATM   33  N1  UNL     1       0.478  53.233 -23.167  1.00  0.00    -0.357 N 
HETATM   34  H32 UNL     1      -0.048  52.371 -23.099  1.00  0.00     0.162 HD
BRANCH  33  35
HETATM   35  C26 UNL     1       0.373  54.003 -24.386  1.00  0.00     0.162 C 
BRANCH  35  36
HETATM   36  C27 UNL     1       0.475  53.124 -25.597  1.00  0.00    -0.025 A 
HETATM   37  C28 UNL     1       1.028  51.842 -25.519  1.00  0.00     0.011 A 
HETATM   38  C29 UNL     1       1.113  51.055 -26.664  1.00  0.00     0.018 A 
HETATM   39  C30 UNL     1       0.645  51.581 -27.856  1.00  0.00     0.087 A 
HETATM   40  N2  UNL     1       0.113  52.816 -27.975  1.00  0.00    -0.375 N 
HETATM   41  C31 UNL     1       0.040  53.557 -26.845  1.00  0.00     0.096 A 
ATOM     42  H2  UNL     1      -0.217  53.173 -28.872  1.00  0.00     0.164 HD
ENDBRANCH  35  36
ENDBRANCH  33  35
ENDBRANCH  30  31
ENDBRANCH  29  30
ENDBRANCH  27  29
ENDBRANCH  26  27
ENDBRANCH  25  26
ENDBRANCH  23  25
ENDBRANCH  20  23
BRANCH  13  43
HETATM   43  O2  UNL     1      -2.333  51.885 -22.236  1.00  0.00    -0.395 OA
HETATM   44  H14 UNL     1      -1.583  52.403 -21.895  1.00  0.00     0.210 HD
ENDBRANCH  13  43
TORSDOF 11
ENDMDL
MODEL 4
REMARK minimizedAffinity -7.62407017
REMARK CNNscore 0.423922181
REMARK CNNaffinity 6.83307886
REMARK  11 active torsions:
REMARK  status: ('A' for Active; 'I' for Inactive)
REMARK    1  A    between atoms: C12_13  and  O2_14 
REMARK    2  A    between atoms: C19_21  and  O3_22 
REMARK    3  A    between atoms: C19_21  and  C20_23 
REMARK    4  A    between atoms: C20_23  and  C21_25 
REMARK    5  A    between atoms: C21_25  and  O5_26 
REMARK    6  A    between atoms: O5_26  and  C22_27 
REMARK    7  A    between atoms: C22_27  and  C23_29 
REMARK    8  A    between atoms: C23_29  and  C24_30 
REMARK    9  A    between atoms: C24_30  and  C25_31 
REMARK       I    between atoms: C25_31  and  N1_33 
REMARK   10  A    between atoms: N1_33  and  C26_34 
REMARK   11  A    between atoms: C26_34  and  C27_35 
ROOT
HETATM    1  C1  UNL     1       0.324  51.926 -14.387  1.00  0.00     0.025 C 
HETATM    2  C2  UNL     1       1.258  50.984 -15.180  1.00  0.00     0.004 A 
HETATM    3  C3  UNL     1       1.412  49.726 -14.332  1.00  0.00    -0.009 A 
HETATM    4  C4  UNL     1       2.558  49.293 -13.791  1.00  0.00     0.052 A 
HETATM    5  C5  UNL     1       3.817  50.033 -13.991  1.00  0.00     0.172 A 
HETATM    6  O1  UNL     1       4.870  49.644 -13.498  1.00  0.00    -0.289 OA
HETATM    7  C6  UNL     1       3.760  51.256 -14.817  1.00  0.00     0.058 A 
HETATM    8  C7  UNL     1       2.610  51.691 -15.361  1.00  0.00    -0.064 A 
HETATM    9  C8  UNL     1       2.601  52.908 -16.250  1.00  0.00     0.036 C 
HETATM   10  C9  UNL     1       2.077  52.547 -17.634  1.00  0.00     0.010 C 
HETATM   11  C10 UNL     1       0.703  51.855 -17.579  1.00  0.00    -0.002 C 
HETATM   12  C11 UNL     1       0.733  50.612 -16.621  1.00  0.00     0.035 C 
HETATM   13  C12 UNL     1      -0.599  49.802 -16.671  1.00  0.00     0.124 C 
HETATM   14  C13 UNL     1      -1.075  49.494 -18.108  1.00  0.00     0.045 C 
HETATM   15  C14 UNL     1      -1.122  50.740 -19.019  1.00  0.00     0.001 C 
HETATM   16  C15 UNL     1      -2.255  51.704 -18.570  1.00  0.00     0.019 C 
HETATM   17  C16 UNL     1       0.280  51.386 -18.979  1.00  0.00     0.002 C 
HETATM   18  C17 UNL     1       0.237  52.404 -20.115  1.00  0.00     0.009 C 
HETATM   19  C18 UNL     1      -0.653  51.745 -21.192  1.00  0.00     0.047 C 
HETATM   20  C19 UNL     1      -1.245  50.468 -20.551  1.00  0.00     0.128 C 
ENDROOT
BRANCH  20  21
HETATM   21  O3  UNL     1      -0.384  49.379 -20.926  1.00  0.00    -0.381 OA
HETATM   22  H25 UNL     1      -0.874  48.554 -20.734  1.00  0.00     0.211 HD
ENDBRANCH  20  21
BRANCH  20  23
HETATM   23  C20 UNL     1      -2.660  50.041 -20.987  1.00  0.00     0.185 C 
HETATM   24  O4  UNL     1      -3.352  50.834 -21.639  1.00  0.00    -0.292 OA
BRANCH  23  25
HETATM   25  C21 UNL     1      -3.164  48.650 -20.612  1.00  0.00     0.260 C 
BRANCH  25  26
HETATM   26  O5  UNL     1      -4.482  48.676 -20.063  1.00  0.00    -0.314 OA
BRANCH  26  27
HETATM   27  C22 UNL     1      -5.462  48.383 -20.963  1.00  0.00     0.259 C 
HETATM   28  O6  UNL     1      -6.382  49.130 -21.270  1.00  0.00    -0.265 OA
BRANCH  27  29
HETATM   29  C23 UNL     1      -5.232  47.014 -21.556  1.00  0.00     0.120 C 
BRANCH  29  30
HETATM   30  C24 UNL     1      -6.166  45.989 -20.923  1.00  0.00     0.112 C 
BRANCH  30  31
HETATM   31  C25 UNL     1      -7.399  45.760 -21.775  1.00  0.00     0.218 C 
HETATM   32  O7  UNL     1      -8.501  45.497 -21.305  1.00  0.00    -0.274 OA
HETATM   33  N1  UNL     1      -7.148  45.851 -23.125  1.00  0.00    -0.357 N 
HETATM   34  H32 UNL     1      -6.195  45.967 -23.445  1.00  0.00     0.162 HD
BRANCH  33  35
HETATM   35  C26 UNL     1      -8.179  45.631 -24.114  1.00  0.00     0.162 C 
BRANCH  35  36
HETATM   36  C27 UNL     1      -8.632  46.922 -24.727  1.00  0.00    -0.025 A 
HETATM   37  C28 UNL     1      -9.725  46.969 -25.598  1.00  0.00     0.011 A 
HETATM   38  C29 UNL     1     -10.115  48.184 -26.154  1.00  0.00     0.018 A 
HETATM   39  C30 UNL     1      -9.393  49.317 -25.821  1.00  0.00     0.087 A 
HETATM   40  N2  UNL     1      -8.328  49.314 -24.992  1.00  0.00    -0.375 N 
HETATM   41  C31 UNL     1      -7.973  48.119 -24.464  1.00  0.00     0.096 A 
ATOM     42  H2  UNL     1      -7.816  50.169 -24.773  1.00  0.00     0.164 HD
ENDBRANCH  35  36
ENDBRANCH  33  35
ENDBRANCH  30  31
ENDBRANCH  29  30
ENDBRANCH  27  29
ENDBRANCH  26  27
ENDBRANCH  25  26
ENDBRANCH  23  25
ENDBRANCH  20  23
BRANCH  13  43
HETATM   43  O2  UNL     1      -1.637  50.470 -15.965  1.00  0.00    -0.395 OA
HETATM   44  H14 UNL     1      -2.420  49.891 -15.973  1.00  0.00     0.210 HD
ENDBRANCH  13  43
TORSDOF 11
ENDMDL
MODEL 5
REMARK minimizedAffinity -8.33519554
REMARK CNNscore 0.312274665
REMARK CNNaffinity 6.72324038
REMARK  11 active torsions:
REMARK  status: ('A' for Active; 'I' for Inactive)
REMARK    1  A    between atoms: C12_13  and  O2_14 
REMARK    2  A    between atoms: C19_21  and  O3_22 
REMARK    3  A    between atoms: C19_21  and  C20_23 
REMARK    4  A    between atoms: C20_23  and  C21_25 
REMARK    5  A    between atoms: C21_25  and  O5_26 
REMARK    6  A    between atoms: O5_26  and  C22_27 
REMARK    7  A    between atoms: C22_27  and  C23_29 
REMARK    8  A    between atoms: C23_29  and  C24_30 
REMARK    9  A    between atoms: C24_30  and  C25_31 
REMARK       I    between atoms: C25_31  and  N1_33 
REMARK   10  A    between atoms: N1_33  and  C26_34 
REMARK   11  A    between atoms: C26_34  and  C27_35 
ROOT
HETATM    1  C1  UNL     1       0.271  51.814 -14.350  1.00  0.00     0.025 C 
HETATM    2  C2  UNL     1       1.245  50.912 -15.142  1.00  0.00     0.004 A 
HETATM    3  C3  UNL     1       1.412  49.639 -14.318  1.00  0.00    -0.009 A 
HETATM    4  C4  UNL     1       2.557  49.222 -13.762  1.00  0.00     0.052 A 
HETATM    5  C5  UNL     1       3.801  49.997 -13.919  1.00  0.00     0.172 A 
HETATM    6  O1  UNL     1       4.852  49.623 -13.412  1.00  0.00    -0.289 OA
HETATM    7  C6  UNL     1       3.732  51.236 -14.720  1.00  0.00     0.058 A 
HETATM    8  C7  UNL     1       2.583  51.655 -15.279  1.00  0.00    -0.064 A 
HETATM    9  C8  UNL     1       2.562  52.891 -16.142  1.00  0.00     0.036 C 
HETATM   10  C9  UNL     1       2.077  52.546 -17.545  1.00  0.00     0.010 C 
HETATM   11  C10 UNL     1       0.719  51.820 -17.534  1.00  0.00    -0.002 C 
HETATM   12  C11 UNL     1       0.759  50.558 -16.602  1.00  0.00     0.035 C 
HETATM   13  C12 UNL     1      -0.550  49.718 -16.697  1.00  0.00     0.124 C 
HETATM   14  C13 UNL     1      -0.988  49.429 -18.151  1.00  0.00     0.045 C 
HETATM   15  C14 UNL     1      -1.048  50.693 -19.036  1.00  0.00     0.001 C 
HETATM   16  C15 UNL     1      -2.213  51.619 -18.592  1.00  0.00     0.019 C 
HETATM   17  C16 UNL     1       0.338  51.372 -18.952  1.00  0.00     0.002 C 
HETATM   18  C17 UNL     1       0.293  52.412 -20.067  1.00  0.00     0.009 C 
HETATM   19  C18 UNL     1      -0.558  51.756 -21.177  1.00  0.00     0.047 C 
HETATM   20  C19 UNL     1      -1.132  50.452 -20.576  1.00  0.00     0.128 C 
ENDROOT
BRANCH  20  21
HETATM   21  O3  UNL     1      -0.236  49.392 -20.955  1.00  0.00    -0.381 OA
HETATM   22  H25 UNL     1      -0.710  48.551 -20.791  1.00  0.00     0.211 HD
ENDBRANCH  20  21
BRANCH  20  23
HETATM   23  C20 UNL     1      -2.526  50.000 -21.051  1.00  0.00     0.185 C 
HETATM   24  O4  UNL     1      -3.476  50.049 -20.258  1.00  0.00    -0.292 OA
BRANCH  23  25
HETATM   25  C21 UNL     1      -2.699  49.513 -22.487  1.00  0.00     0.260 C 
BRANCH  25  26
HETATM   26  O5  UNL     1      -2.931  50.584 -23.403  1.00  0.00    -0.314 OA
BRANCH  26  27
HETATM   27  C22 UNL     1      -2.765  50.241 -24.711  1.00  0.00     0.259 C 
HETATM   28  O6  UNL     1      -2.453  51.014 -25.606  1.00  0.00    -0.265 OA
BRANCH  27  29
HETATM   29  C23 UNL     1      -2.987  48.758 -24.891  1.00  0.00     0.120 C 
BRANCH  29  30
HETATM   30  C24 UNL     1      -3.657  48.474 -26.231  1.00  0.00     0.112 C 
BRANCH  30  31
HETATM   31  C25 UNL     1      -5.152  48.277 -26.073  1.00  0.00     0.218 C 
HETATM   32  O7  UNL     1      -5.858  47.774 -26.941  1.00  0.00    -0.274 OA
HETATM   33  N1  UNL     1      -5.636  48.741 -24.872  1.00  0.00    -0.357 N 
HETATM   34  H32 UNL     1      -5.015  49.238 -24.247  1.00  0.00     0.162 HD
BRANCH  33  35
HETATM   35  C26 UNL     1      -7.041  48.682 -24.535  1.00  0.00     0.162 C 
BRANCH  35  36
HETATM   36  C27 UNL     1      -7.289  47.744 -23.392  1.00  0.00    -0.025 A 
HETATM   37  C28 UNL     1      -6.232  47.120 -22.721  1.00  0.00     0.011 A 
HETATM   38  C29 UNL     1      -6.499  46.250 -21.668  1.00  0.00     0.018 A 
HETATM   39  C30 UNL     1      -7.821  46.028 -21.321  1.00  0.00     0.087 A 
HETATM   40  N2  UNL     1      -8.869  46.603 -21.948  1.00  0.00    -0.375 N 
HETATM   41  C31 UNL     1      -8.580  47.446 -22.966  1.00  0.00     0.096 A 
ATOM     42  H2  UNL     1      -9.831  46.412 -21.668  1.00  0.00     0.164 HD
ENDBRANCH  35  36
ENDBRANCH  33  35
ENDBRANCH  30  31
ENDBRANCH  29  30
ENDBRANCH  27  29
ENDBRANCH  26  27
ENDBRANCH  25  26
ENDBRANCH  23  25
ENDBRANCH  20  23
BRANCH  13  43
HETATM   43  O2  UNL     1      -1.620  50.345 -16.001  1.00  0.00    -0.395 OA
HETATM   44  H14 UNL     1      -2.387  49.747 -16.038  1.00  0.00     0.210 HD
ENDBRANCH  13  43
TORSDOF 11
ENDMDL
MODEL 6
REMARK minimizedAffinity -9.15587997
REMARK CNNscore 0.307085603
REMARK CNNaffinity 6.41323519
REMARK  11 active torsions:
REMARK  status: ('A' for Active; 'I' for Inactive)
REMARK    1  A    between atoms: C12_13  and  O2_14 
REMARK    2  A    between atoms: C19_21  and  O3_22 
REMARK    3  A    between atoms: C19_21  and  C20_23 
REMARK    4  A    between atoms: C20_23  and  C21_25 
REMARK    5  A    between atoms: C21_25  and  O5_26 
REMARK    6  A    between atoms: O5_26  and  C22_27 
REMARK    7  A    between atoms: C22_27  and  C23_29 
REMARK    8  A    between atoms: C23_29  and  C24_30 
REMARK    9  A    between atoms: C24_30  and  C25_31 
REMARK       I    between atoms: C25_31  and  N1_33 
REMARK   10  A    between atoms: N1_33  and  C26_34 
REMARK   11  A    between atoms: C26_34  and  C27_35 
ROOT
HETATM    1  C1  UNL     1      -0.084  49.614 -20.575  1.00  0.00     0.025 C 
HETATM    2  C2  UNL     1      -0.684  50.980 -20.981  1.00  0.00     0.004 A 
HETATM    3  C3  UNL     1       0.261  51.564 -22.026  1.00  0.00    -0.009 A 
HETATM    4  C4  UNL     1       0.974  52.689 -21.881  1.00  0.00     0.052 A 
HETATM    5  C5  UNL     1       0.889  53.486 -20.644  1.00  0.00     0.172 A 
HETATM    6  O1  UNL     1       1.538  54.515 -20.503  1.00  0.00    -0.289 OA
HETATM    7  C6  UNL     1      -0.019  52.999 -19.586  1.00  0.00     0.058 A 
HETATM    8  C7  UNL     1      -0.736  51.871 -19.730  1.00  0.00    -0.064 A 
HETATM    9  C8  UNL     1      -1.700  51.438 -18.655  1.00  0.00     0.036 C 
HETATM   10  C9  UNL     1      -3.112  51.345 -19.219  1.00  0.00     0.010 C 
HETATM   11  C10 UNL     1      -3.188  50.446 -20.467  1.00  0.00    -0.002 C 
HETATM   12  C11 UNL     1      -2.152  50.899 -21.555  1.00  0.00     0.035 C 
HETATM   13  C12 UNL     1      -2.318  50.106 -22.887  1.00  0.00     0.124 C 
HETATM   14  C13 UNL     1      -3.781  50.039 -23.382  1.00  0.00     0.045 C 
HETATM   15  C14 UNL     1      -4.772  49.562 -22.299  1.00  0.00     0.001 C 
HETATM   16  C15 UNL     1      -4.541  48.063 -21.965  1.00  0.00     0.019 C 
HETATM   17  C16 UNL     1      -4.596  50.493 -21.078  1.00  0.00     0.002 C 
HETATM   18  C17 UNL     1      -5.795  50.157 -20.197  1.00  0.00     0.009 C 
HETATM   19  C18 UNL     1      -6.930  49.834 -21.193  1.00  0.00     0.047 C 
HETATM   20  C19 UNL     1      -6.285  49.802 -22.598  1.00  0.00     0.128 C 
ENDROOT
BRANCH  20  21
HETATM   21  O3  UNL     1      -6.471  51.110 -23.168  1.00  0.00    -0.381 OA
HETATM   22  H25 UNL     1      -6.288  51.027 -24.126  1.00  0.00     0.211 HD
ENDBRANCH  20  21
BRANCH  20  23
HETATM   23  C20 UNL     1      -6.871  48.819 -23.630  1.00  0.00     0.185 C 
HETATM   24  O4  UNL     1      -6.182  48.491 -24.605  1.00  0.00    -0.292 OA
BRANCH  23  25
HETATM   25  C21 UNL     1      -8.279  48.270 -23.417  1.00  0.00     0.260 C 
BRANCH  25  26
HETATM   26  O5  UNL     1      -8.741  47.505 -24.530  1.00  0.00    -0.314 OA
BRANCH  26  27
HETATM   27  C22 UNL     1      -9.058  48.255 -25.623  1.00  0.00     0.259 C 
HETATM   28  O6  UNL     1      -9.487  49.400 -25.589  1.00  0.00    -0.265 OA
BRANCH  27  29
HETATM   29  C23 UNL     1      -8.768  47.481 -26.887  1.00  0.00     0.120 C 
BRANCH  29  30
HETATM   30  C24 UNL     1      -7.349  47.753 -27.371  1.00  0.00     0.112 C 
BRANCH  30  31
HETATM   31  C25 UNL     1      -7.312  48.015 -28.864  1.00  0.00     0.218 C 
HETATM   32  O7  UNL     1      -6.467  47.531 -29.610  1.00  0.00    -0.274 OA
HETATM   33  N1  UNL     1      -8.305  48.869 -29.288  1.00  0.00    -0.357 N 
HETATM   34  H32 UNL     1      -8.902  49.313 -28.603  1.00  0.00     0.162 HD
BRANCH  33  35
HETATM   35  C26 UNL     1      -8.427  49.279 -30.669  1.00  0.00     0.162 C 
BRANCH  35  36
HETATM   36  C27 UNL     1      -9.060  48.206 -31.503  1.00  0.00    -0.025 A 
HETATM   37  C28 UNL     1     -10.233  47.564 -31.093  1.00  0.00     0.011 A 
HETATM   38  C29 UNL     1     -10.790  46.568 -31.888  1.00  0.00     0.018 A 
HETATM   39  C30 UNL     1     -10.152  46.242 -33.072  1.00  0.00     0.087 A 
HETATM   40  N2  UNL     1      -9.014  46.830 -33.500  1.00  0.00    -0.375 N 
HETATM   41  C31 UNL     1      -8.496  47.797 -32.707  1.00  0.00     0.096 A 
ATOM     42  H2  UNL     1      -8.568  46.560 -34.377  1.00  0.00     0.164 HD
ENDBRANCH  35  36
ENDBRANCH  33  35
ENDBRANCH  30  31
ENDBRANCH  29  30
ENDBRANCH  27  29
ENDBRANCH  26  27
ENDBRANCH  25  26
ENDBRANCH  23  25
ENDBRANCH  20  23
BRANCH  13  43
HETATM   43  O2  UNL     1      -1.800  48.787 -22.773  1.00  0.00    -0.395 OA
HETATM   44  H14 UNL     1      -1.869  48.365 -23.647  1.00  0.00     0.210 HD
ENDBRANCH  13  43
TORSDOF 11
ENDMDL
MODEL 7
REMARK minimizedAffinity -7.56740236
REMARK CNNscore 0.29108575
REMARK CNNaffinity 6.0879817
REMARK  11 active torsions:
REMARK  status: ('A' for Active; 'I' for Inactive)
REMARK    1  A    between atoms: C12_13  and  O2_14 
REMARK    2  A    between atoms: C19_21  and  O3_22 
REMARK    3  A    between atoms: C19_21  and  C20_23 
REMARK    4  A    between atoms: C20_23  and  C21_25 
REMARK    5  A    between atoms: C21_25  and  O5_26 
REMARK    6  A    between atoms: O5_26  and  C22_27 
REMARK    7  A    between atoms: C22_27  and  C23_29 
REMARK    8  A    between atoms: C23_29  and  C24_30 
REMARK    9  A    between atoms: C24_30  and  C25_31 
REMARK       I    between atoms: C25_31  and  N1_33 
REMARK   10  A    between atoms: N1_33  and  C26_34 
REMARK   11  A    between atoms: C26_34  and  C27_35 
ROOT
HETATM    1  C1  UNL     1      -5.962  46.537 -20.292  1.00  0.00     0.025 C 
HETATM    2  C2  UNL     1      -6.860  47.661 -20.858  1.00  0.00     0.004 A 
HETATM    3  C3  UNL     1      -7.347  48.462 -19.655  1.00  0.00    -0.009 A 
HETATM    4  C4  UNL     1      -8.624  48.574 -19.266  1.00  0.00     0.052 A 
HETATM    5  C5  UNL     1      -9.705  47.903 -20.011  1.00  0.00     0.172 A 
HETATM    6  O1  UNL     1     -10.874  47.998 -19.661  1.00  0.00    -0.289 OA
HETATM    7  C6  UNL     1      -9.320  47.120 -21.203  1.00  0.00     0.058 A 
HETATM    8  C7  UNL     1      -8.039  47.008 -21.596  1.00  0.00    -0.064 A 
HETATM    9  C8  UNL     1      -7.690  46.252 -22.853  1.00  0.00     0.036 C 
HETATM   10  C9  UNL     1      -6.977  47.169 -23.838  1.00  0.00     0.010 C 
HETATM   11  C10 UNL     1      -5.751  47.861 -23.215  1.00  0.00    -0.002 C 
HETATM   12  C11 UNL     1      -6.136  48.610 -21.891  1.00  0.00     0.035 C 
HETATM   13  C12 UNL     1      -4.949  49.449 -21.327  1.00  0.00     0.124 C 
HETATM   14  C13 UNL     1      -4.264  50.336 -22.391  1.00  0.00     0.045 C 
HETATM   15  C14 UNL     1      -3.870  49.564 -23.670  1.00  0.00     0.001 C 
HETATM   16  C15 UNL     1      -2.714  48.571 -23.376  1.00  0.00     0.019 C 
HETATM   17  C16 UNL     1      -5.148  48.875 -24.197  1.00  0.00     0.002 C 
HETATM   18  C17 UNL     1      -4.749  48.404 -25.592  1.00  0.00     0.009 C 
HETATM   19  C18 UNL     1      -3.780  49.490 -26.107  1.00  0.00     0.047 C 
HETATM   20  C19 UNL     1      -3.506  50.435 -24.913  1.00  0.00     0.128 C 
ENDROOT
BRANCH  20  21
HETATM   21  O3  UNL     1      -4.431  51.531 -25.033  1.00  0.00    -0.381 OA
HETATM   22  H25 UNL     1      -4.109  52.236 -24.436  1.00  0.00     0.211 HD
ENDBRANCH  20  21
BRANCH  20  23
HETATM   23  C20 UNL     1      -2.112  51.084 -24.822  1.00  0.00     0.185 C 
HETATM   24  O4  UNL     1      -1.142  50.496 -25.320  1.00  0.00    -0.292 OA
BRANCH  23  25
HETATM   25  C21 UNL     1      -1.966  52.436 -24.129  1.00  0.00     0.260 C 
BRANCH  25  26
HETATM   26  O5  UNL     1      -1.515  52.313 -22.780  1.00  0.00    -0.314 OA
BRANCH  26  27
HETATM   27  C22 UNL     1      -0.160  52.343 -22.645  1.00  0.00     0.259 C 
HETATM   28  O6  UNL     1       0.615  52.858 -23.440  1.00  0.00    -0.265 OA
BRANCH  27  29
HETATM   29  C23 UNL     1       0.249  51.679 -21.352  1.00  0.00     0.120 C 
BRANCH  29  30
HETATM   30  C24 UNL     1      -0.729  50.568 -20.985  1.00  0.00     0.112 C 
BRANCH  30  31
HETATM   31  C25 UNL     1      -1.398  50.836 -19.651  1.00  0.00     0.218 C 
HETATM   32  O7  UNL     1      -1.554  51.963 -19.192  1.00  0.00    -0.274 OA
HETATM   33  N1  UNL     1      -1.787  49.687 -19.001  1.00  0.00    -0.357 N 
HETATM   34  H32 UNL     1      -1.533  48.788 -19.389  1.00  0.00     0.162 HD
BRANCH  33  35
HETATM   35  C26 UNL     1      -2.412  49.717 -17.697  1.00  0.00     0.162 C 
BRANCH  35  36
HETATM   36  C27 UNL     1      -1.606  48.954 -16.688  1.00  0.00    -0.025 A 
HETATM   37  C28 UNL     1      -2.223  48.185 -15.698  1.00  0.00     0.011 A 
HETATM   38  C29 UNL     1      -1.445  47.494 -14.773  1.00  0.00     0.018 A 
HETATM   39  C30 UNL     1      -0.068  47.600 -14.868  1.00  0.00     0.087 A 
HETATM   40  N2  UNL     1       0.567  48.339 -15.804  1.00  0.00    -0.375 N 
HETATM   41  C31 UNL     1      -0.215  48.997 -16.690  1.00  0.00     0.096 A 
ATOM     42  H2  UNL     1       1.585  48.398 -15.840  1.00  0.00     0.164 HD
ENDBRANCH  35  36
ENDBRANCH  33  35
ENDBRANCH  30  31
ENDBRANCH  29  30
ENDBRANCH  27  29
ENDBRANCH  26  27
ENDBRANCH  25  26
ENDBRANCH  23  25
ENDBRANCH  20  23
BRANCH  13  43
HETATM   43  O2  UNL     1      -3.974  48.617 -20.711  1.00  0.00    -0.395 OA
HETATM   44  H14 UNL     1      -3.295  49.195 -20.321  1.00  0.00     0.210 HD
ENDBRANCH  13  43
TORSDOF 11
ENDMDL
MODEL 8
REMARK minimizedAffinity -8.38566113
REMARK CNNscore 0.266984522
REMARK CNNaffinity 6.19613886
REMARK  11 active torsions:
REMARK  status: ('A' for Active; 'I' for Inactive)
REMARK    1  A    between atoms: C12_13  and  O2_14 
REMARK    2  A    between atoms: C19_21  and  O3_22 
REMARK    3  A    between atoms: C19_21  and  C20_23 
REMARK    4  A    between atoms: C20_23  and  C21_25 
REMARK    5  A    between atoms: C21_25  and  O5_26 
REMARK    6  A    between atoms: O5_26  and  C22_27 
REMARK    7  A    between atoms: C22_27  and  C23_29 
REMARK    8  A    between atoms: C23_29  and  C24_30 
REMARK    9  A    between atoms: C24_30  and  C25_31 
REMARK       I    between atoms: C25_31  and  N1_33 
REMARK   10  A    between atoms: N1_33  and  C26_34 
REMARK   11  A    between atoms: C26_34  and  C27_35 
ROOT
HETATM    1  C1  UNL     1      -0.357  49.401 -20.449  1.00  0.00     0.025 C 
HETATM    2  C2  UNL     1      -0.905  50.783 -20.872  1.00  0.00     0.004 A 
HETATM    3  C3  UNL     1       0.087  51.341 -21.887  1.00  0.00    -0.009 A 
HETATM    4  C4  UNL     1       0.826  52.445 -21.721  1.00  0.00     0.052 A 
HETATM    5  C5  UNL     1       0.727  53.244 -20.486  1.00  0.00     0.172 A 
HETATM    6  O1  UNL     1       1.400  54.255 -20.325  1.00  0.00    -0.289 OA
HETATM    7  C6  UNL     1      -0.226  52.784 -19.456  1.00  0.00     0.058 A 
HETATM    8  C7  UNL     1      -0.970  51.675 -19.623  1.00  0.00    -0.064 A 
HETATM    9  C8  UNL     1      -1.977  51.270 -18.577  1.00  0.00     0.036 C 
HETATM   10  C9  UNL     1      -3.374  51.217 -19.183  1.00  0.00     0.010 C 
HETATM   11  C10 UNL     1      -3.438  50.320 -20.433  1.00  0.00    -0.002 C 
HETATM   12  C11 UNL     1      -2.357  50.743 -21.489  1.00  0.00     0.035 C 
HETATM   13  C12 UNL     1      -2.506  49.955 -22.826  1.00  0.00     0.124 C 
HETATM   14  C13 UNL     1      -3.954  49.930 -23.364  1.00  0.00     0.045 C 
HETATM   15  C14 UNL     1      -4.991  49.481 -22.312  1.00  0.00     0.001 C 
HETATM   16  C15 UNL     1      -4.812  47.976 -21.973  1.00  0.00     0.019 C 
HETATM   17  C16 UNL     1      -4.825  50.407 -21.086  1.00  0.00     0.002 C 
HETATM   18  C17 UNL     1      -6.058  50.105 -20.241  1.00  0.00     0.009 C 
HETATM   19  C18 UNL     1      -7.172  49.813 -21.271  1.00  0.00     0.047 C 
HETATM   20  C19 UNL     1      -6.487  49.763 -22.656  1.00  0.00     0.128 C 
ENDROOT
BRANCH  20  21
HETATM   21  O3  UNL     1      -6.619  51.076 -23.230  1.00  0.00    -0.381 OA
HETATM   22  H25 UNL     1      -6.409  50.988 -24.183  1.00  0.00     0.211 HD
ENDBRANCH  20  21
BRANCH  20  23
HETATM   23  C20 UNL     1      -7.069  48.797 -23.706  1.00  0.00     0.185 C 
HETATM   24  O4  UNL     1      -8.298  48.711 -23.827  1.00  0.00    -0.292 OA
BRANCH  23  25
HETATM   25  C21 UNL     1      -6.114  47.980 -24.573  1.00  0.00     0.260 C 
BRANCH  25  26
HETATM   26  O5  UNL     1      -6.509  47.956 -25.945  1.00  0.00    -0.314 OA
BRANCH  26  27
HETATM   27  C22 UNL     1      -5.469  48.043 -26.821  1.00  0.00     0.259 C 
HETATM   28  O6  UNL     1      -4.327  48.372 -26.527  1.00  0.00    -0.265 OA
BRANCH  27  29
HETATM   29  C23 UNL     1      -5.919  47.640 -28.205  1.00  0.00     0.120 C 
BRANCH  29  30
HETATM   30  C24 UNL     1      -6.877  46.457 -28.136  1.00  0.00     0.112 C 
BRANCH  30  31
HETATM   31  C25 UNL     1      -8.252  46.824 -28.658  1.00  0.00     0.218 C 
HETATM   32  O7  UNL     1      -8.717  46.374 -29.700  1.00  0.00    -0.274 OA
HETATM   33  N1  UNL     1      -8.911  47.730 -27.858  1.00  0.00    -0.357 N 
HETATM   34  H32 UNL     1      -8.426  48.138 -27.070  1.00  0.00     0.162 HD
BRANCH  33  35
HETATM   35  C26 UNL     1     -10.221  48.240 -28.194  1.00  0.00     0.162 C 
BRANCH  35  36
HETATM   36  C27 UNL     1     -11.266  47.722 -27.252  1.00  0.00    -0.025 A 
HETATM   37  C28 UNL     1     -12.623  47.743 -27.589  1.00  0.00     0.011 A 
HETATM   38  C29 UNL     1     -13.567  47.259 -26.689  1.00  0.00     0.018 A 
HETATM   39  C30 UNL     1     -13.122  46.771 -25.472  1.00  0.00     0.087 A 
HETATM   40  N2  UNL     1     -11.823  46.741 -25.105  1.00  0.00    -0.375 N 
HETATM   41  C31 UNL     1     -10.927  47.215 -26.001  1.00  0.00     0.096 A 
ATOM     42  H2  UNL     1     -11.532  46.378 -24.197  1.00  0.00     0.164 HD
ENDBRANCH  35  36
ENDBRANCH  33  35
ENDBRANCH  30  31
ENDBRANCH  29  30
ENDBRANCH  27  29
ENDBRANCH  26  27
ENDBRANCH  25  26
ENDBRANCH  23  25
ENDBRANCH  20  23
BRANCH  13  43
HETATM   43  O2  UNL     1      -2.028  48.622 -22.698  1.00  0.00    -0.395 OA
HETATM   44  H14 UNL     1      -2.084  48.203 -23.574  1.00  0.00     0.210 HD
ENDBRANCH  13  43
TORSDOF 11
ENDMDL
MODEL 9
REMARK minimizedAffinity -8.38349056
REMARK CNNscore 0.257677406
REMARK CNNaffinity 6.58196974
REMARK  11 active torsions:
REMARK  status: ('A' for Active; 'I' for Inactive)
REMARK    1  A    between atoms: C12_13  and  O2_14 
REMARK    2  A    between atoms: C19_21  and  O3_22 
REMARK    3  A    between atoms: C19_21  and  C20_23 
REMARK    4  A    between atoms: C20_23  and  C21_25 
REMARK    5  A    between atoms: C21_25  and  O5_26 
REMARK    6  A    between atoms: O5_26  and  C22_27 
REMARK    7  A    between atoms: C22_27  and  C23_29 
REMARK    8  A    between atoms: C23_29  and  C24_30 
REMARK    9  A    between atoms: C24_30  and  C25_31 
REMARK       I    between atoms: C25_31  and  N1_33 
REMARK   10  A    between atoms: N1_33  and  C26_34 
REMARK   11  A    between atoms: C26_34  and  C27_35 
ROOT
HETATM    1  C1  UNL     1      -1.913  52.972 -24.762  1.00  0.00     0.025 C 
HETATM    2  C2  UNL     1      -0.935  51.781 -24.897  1.00  0.00     0.004 A 
HETATM    3  C3  UNL     1       0.466  52.383 -24.907  1.00  0.00    -0.009 A 
HETATM    4  C4  UNL     1       1.326  52.322 -25.932  1.00  0.00     0.052 A 
HETATM    5  C5  UNL     1       0.966  51.632 -27.184  1.00  0.00     0.172 A 
HETATM    6  O1  UNL     1       1.746  51.573 -28.127  1.00  0.00    -0.289 OA
HETATM    7  C6  UNL     1      -0.370  51.005 -27.251  1.00  0.00     0.058 A 
HETATM    8  C7  UNL     1      -1.234  51.064 -26.222  1.00  0.00    -0.064 A 
HETATM    9  C8  UNL     1      -2.564  50.359 -26.303  1.00  0.00     0.036 C 
HETATM   10  C9  UNL     1      -2.686  49.335 -25.182  1.00  0.00     0.010 C 
HETATM   11  C10 UNL     1      -2.436  49.951 -23.794  1.00  0.00    -0.002 C 
HETATM   12  C11 UNL     1      -1.061  50.706 -23.749  1.00  0.00     0.035 C 
HETATM   13  C12 UNL     1      -0.712  51.201 -22.312  1.00  0.00     0.124 C 
HETATM   14  C13 UNL     1      -0.882  50.111 -21.230  1.00  0.00     0.045 C 
HETATM   15  C14 UNL     1      -2.255  49.406 -21.280  1.00  0.00     0.001 C 
HETATM   16  C15 UNL     1      -3.387  50.379 -20.850  1.00  0.00     0.019 C 
HETATM   17  C16 UNL     1      -2.433  48.859 -22.714  1.00  0.00     0.002 C 
HETATM   18  C17 UNL     1      -3.642  47.935 -22.595  1.00  0.00     0.009 C 
HETATM   19  C18 UNL     1      -3.529  47.328 -21.180  1.00  0.00     0.047 C 
HETATM   20  C19 UNL     1      -2.375  48.077 -20.472  1.00  0.00     0.128 C 
ENDROOT
BRANCH  20  21
HETATM   21  O3  UNL     1      -1.191  47.281 -20.657  1.00  0.00    -0.381 OA
HETATM   22  H25 UNL     1      -0.526  47.615 -20.021  1.00  0.00     0.211 HD
ENDBRANCH  20  21
BRANCH  20  23
HETATM   23  C20 UNL     1      -2.491  48.291 -18.950  1.00  0.00     0.185 C 
HETATM   24  O4  UNL     1      -3.559  48.019 -18.386  1.00  0.00    -0.292 OA
BRANCH  23  25
HETATM   25  C21 UNL     1      -1.285  48.823 -18.182  1.00  0.00     0.260 C 
BRANCH  25  26
HETATM   26  O5  UNL     1      -1.430  50.196 -17.820  1.00  0.00    -0.314 OA
BRANCH  26  27
HETATM   27  C22 UNL     1      -0.248  50.843 -17.616  1.00  0.00     0.259 C 
HETATM   28  O6  UNL     1       0.119  51.843 -18.217  1.00  0.00    -0.265 OA
BRANCH  27  29
HETATM   29  C23 UNL     1       0.530  50.167 -16.513  1.00  0.00     0.120 C 
BRANCH  29  30
HETATM   30  C24 UNL     1       1.334  51.189 -15.718  1.00  0.00     0.112 C 
BRANCH  30  31
HETATM   31  C25 UNL     1       0.867  51.265 -14.277  1.00  0.00     0.218 C 
HETATM   32  O7  UNL     1      -0.010  50.541 -13.817  1.00  0.00    -0.274 OA
HETATM   33  N1  UNL     1       1.507  52.242 -13.551  1.00  0.00    -0.357 N 
HETATM   34  H32 UNL     1       2.145  52.872 -14.022  1.00  0.00     0.162 HD
BRANCH  33  35
HETATM   35  C26 UNL     1       1.185  52.506 -12.167  1.00  0.00     0.162 C 
BRANCH  35  36
HETATM   36  C27 UNL     1       2.414  52.490 -11.308  1.00  0.00    -0.025 A 
HETATM   37  C28 UNL     1       2.900  53.659 -10.713  1.00  0.00     0.011 A 
HETATM   38  C29 UNL     1       4.047  53.609  -9.927  1.00  0.00     0.018 A 
HETATM   39  C30 UNL     1       4.676  52.387  -9.763  1.00  0.00     0.087 A 
HETATM   40  N2  UNL     1       4.245  51.238 -10.327  1.00  0.00    -0.375 N 
HETATM   41  C31 UNL     1       3.126  51.316 -11.084  1.00  0.00     0.096 A 
ATOM     42  H2  UNL     1       4.738  50.356 -10.189  1.00  0.00     0.164 HD
ENDBRANCH  35  36
ENDBRANCH  33  35
ENDBRANCH  30  31
ENDBRANCH  29  30
ENDBRANCH  27  29
ENDBRANCH  26  27
ENDBRANCH  25  26
ENDBRANCH  23  25
ENDBRANCH  20  23
BRANCH  13  43
HETATM   43  O2  UNL     1      -1.484  52.341 -21.956  1.00  0.00    -0.395 OA
HETATM   44  H14 UNL     1      -1.179  52.644 -21.083  1.00  0.00     0.210 HD
ENDBRANCH  13  43
TORSDOF 11
ENDMDL
