MODEL 1
REMARK minimizedAffinity -9.18723965
REMARK CNNscore 0.678711772
REMARK CNNaffinity 7.18898439
REMARK  6 active torsions:
REMARK  status: ('A' for Active; 'I' for Inactive)
REMARK    1  A    between atoms: C2_2  and  C3_3 
REMARK    2  A    between atoms: C2_2  and  C4_5 
REMARK    3  A    between atoms: C3_3  and  O1_4 
REMARK    4  A    between atoms: C4_5  and  C6_7 
REMARK    5  A    between atoms: C7_8  and  C8_9 
REMARK    6  A    between atoms: C8_9  and  C10_11 
ROOT
HETATM    1  C10 UNL     1      -2.111   5.012  11.842  1.00  0.00     0.002 C 
HETATM    2  C11 UNL     1      -2.619   3.568  11.594  1.00  0.00     0.007 C 
HETATM    3  C12 UNL     1      -4.056   3.511  12.135  1.00  0.00     0.010 C 
HETATM    4  C13 UNL     1      -4.392   4.963  12.481  1.00  0.00     0.023 C 
HETATM    5  C14 UNL     1      -5.564   5.301  13.366  1.00  0.00    -0.070 C 
HETATM    6  C15 UNL     1      -6.514   4.417  13.708  1.00  0.00     0.004 C 
HETATM    7  C16 UNL     1      -7.739   4.821  14.344  1.00  0.00     0.004 C 
HETATM    8  C17 UNL     1      -7.917   6.046  14.866  1.00  0.00    -0.071 C 
HETATM    9  C18 UNL     1      -9.210   6.406  15.562  1.00  0.00     0.035 C 
HETATM   10  C19 UNL     1      -9.713   7.790  15.170  1.00  0.00     0.004 C 
HETATM   11  C20 UNL     1      -8.633   8.847  15.368  1.00  0.00     0.001 C 
HETATM   12  C21 UNL     1      -7.388   8.506  14.550  1.00  0.00     0.014 C 
HETATM   13  C22 UNL     1      -6.794   7.096  14.842  1.00  0.00    -0.013 C 
HETATM   14  C23 UNL     1      -6.166   7.084  16.259  1.00  0.00     0.021 C 
HETATM   15  C24 UNL     1      -5.712   6.786  13.710  1.00  0.00     0.027 C 
HETATM   16  C25 UNL     1      -4.348   7.487  13.973  1.00  0.00     0.011 C 
HETATM   17  C26 UNL     1      -3.211   7.072  13.026  1.00  0.00     0.011 C 
HETATM   18  C27 UNL     1      -3.042   5.541  12.977  1.00  0.00    -0.032 C 
HETATM   19  C28 UNL     1      -2.650   5.000  14.369  1.00  0.00     0.016 C 
ENDROOT
BRANCH   1  20
HETATM   20  C8  UNL     1      -0.562   5.139  11.913  1.00  0.00     0.008 C 
HETATM   21  C9  UNL     1       0.088   4.914  13.283  1.00  0.00     0.014 C 
BRANCH  20  22
HETATM   22  C7  UNL     1      -0.083   6.389  11.193  1.00  0.00    -0.026 C 
HETATM   23  C6  UNL     1       0.855   6.472  10.233  1.00  0.00    -0.026 C 
BRANCH  23  24
HETATM   24  C4  UNL     1       1.326   7.728   9.515  1.00  0.00     0.009 C 
HETATM   25  C5  UNL     1       0.230   8.369   8.648  1.00  0.00     0.014 C 
BRANCH  24  26
HETATM   26  C2  UNL     1       2.631   7.454   8.704  1.00  0.00     0.012 C 
HETATM   27  C1  UNL     1       3.081   8.694   7.912  1.00  0.00     0.012 C 
BRANCH  26  28
HETATM   28  C3  UNL     1       2.507   6.256   7.745  1.00  0.00     0.168 C 
BRANCH  28  29
HETATM   29  O1  UNL     1       3.294   5.154   8.171  1.00  0.00    -0.400 OA
HETATM   30  H7  UNL     1       2.898   4.804   8.987  1.00  0.00     0.209 HD
ENDBRANCH  28  29
ENDBRANCH  26  28
ENDBRANCH  24  26
ENDBRANCH  23  24
ENDBRANCH  20  22
ENDBRANCH   1  20
TORSDOF 6
ENDMDL
MODEL 2
REMARK minimizedAffinity -6.92811298
REMARK CNNscore 0.621292233
REMARK CNNaffinity 6.52214289
REMARK  6 active torsions:
REMARK  status: ('A' for Active; 'I' for Inactive)
REMARK    1  A    between atoms: C2_2  and  C3_3 
REMARK    2  A    between atoms: C2_2  and  C4_5 
REMARK    3  A    between atoms: C3_3  and  O1_4 
REMARK    4  A    between atoms: C4_5  and  C6_7 
REMARK    5  A    between atoms: C7_8  and  C8_9 
REMARK    6  A    between atoms: C8_9  and  C10_11 
ROOT
HETATM    1  C10 UNL     1      -1.178   9.462  15.615  1.00  0.00     0.002 C 
HETATM    2  C11 UNL     1       0.165   9.688  16.360  1.00  0.00     0.007 C 
HETATM    3  C12 UNL     1       1.280   9.487  15.321  1.00  0.00     0.010 C 
HETATM    4  C13 UNL     1       0.541   9.358  13.988  1.00  0.00     0.023 C 
HETATM    5  C14 UNL     1       1.229   8.798  12.769  1.00  0.00    -0.070 C 
HETATM    6  C15 UNL     1       2.554   8.605  12.689  1.00  0.00     0.004 C 
HETATM    7  C16 UNL     1       3.208   8.303  11.443  1.00  0.00     0.004 C 
HETATM    8  C17 UNL     1       2.533   7.948  10.336  1.00  0.00    -0.071 C 
HETATM    9  C18 UNL     1       3.271   7.601   9.064  1.00  0.00     0.035 C 
HETATM   10  C19 UNL     1       2.624   8.220   7.831  1.00  0.00     0.004 C 
HETATM   11  C20 UNL     1       1.141   7.876   7.755  1.00  0.00     0.001 C 
HETATM   12  C21 UNL     1       0.411   8.354   9.009  1.00  0.00     0.014 C 
HETATM   13  C22 UNL     1       1.002   7.809  10.343  1.00  0.00    -0.013 C 
HETATM   14  C23 UNL     1       0.710   6.291  10.454  1.00  0.00     0.021 C 
HETATM   15  C24 UNL     1       0.334   8.632  11.537  1.00  0.00     0.027 C 
HETATM   16  C25 UNL     1      -1.096   8.128  11.889  1.00  0.00     0.011 C 
HETATM   17  C26 UNL     1      -1.710   8.749  13.152  1.00  0.00     0.011 C 
HETATM   18  C27 UNL     1      -0.769   8.621  14.365  1.00  0.00    -0.032 C 
HETATM   19  C28 UNL     1      -0.526   7.134  14.702  1.00  0.00     0.016 C 
ENDROOT
BRANCH   1  20
HETATM   20  C8  UNL     1      -2.358   9.051  16.542  1.00  0.00     0.008 C 
HETATM   21  C9  UNL     1      -3.688   8.711  15.858  1.00  0.00     0.014 C 
BRANCH  20  22
HETATM   22  C7  UNL     1      -2.487  10.005  17.717  1.00  0.00    -0.026 C 
HETATM   23  C6  UNL     1      -2.940  11.271  17.697  1.00  0.00    -0.026 C 
BRANCH  23  24
HETATM   24  C4  UNL     1      -3.070  12.220  18.880  1.00  0.00     0.009 C 
HETATM   25  C5  UNL     1      -4.494  12.772  19.052  1.00  0.00     0.014 C 
BRANCH  24  26
HETATM   26  C2  UNL     1      -2.004  13.357  18.805  1.00  0.00     0.012 C 
HETATM   27  C1  UNL     1      -0.618  12.871  19.264  1.00  0.00     0.012 C 
BRANCH  26  28
HETATM   28  C3  UNL     1      -2.396  14.608  19.612  1.00  0.00     0.168 C 
BRANCH  28  29
HETATM   29  O1  UNL     1      -1.510  15.691  19.372  1.00  0.00    -0.400 OA
HETATM   30  H7  UNL     1      -1.646  15.988  18.456  1.00  0.00     0.209 HD
ENDBRANCH  28  29
ENDBRANCH  26  28
ENDBRANCH  24  26
ENDBRANCH  23  24
ENDBRANCH  20  22
ENDBRANCH   1  20
TORSDOF 6
ENDMDL
MODEL 3
REMARK minimizedAffinity -7.40239239
REMARK CNNscore 0.476626337
REMARK CNNaffinity 7.02350998
REMARK  6 active torsions:
REMARK  status: ('A' for Active; 'I' for Inactive)
REMARK    1  A    between atoms: C2_2  and  C3_3 
REMARK    2  A    between atoms: C2_2  and  C4_5 
REMARK    3  A    between atoms: C3_3  and  O1_4 
REMARK    4  A    between atoms: C4_5  and  C6_7 
REMARK    5  A    between atoms: C7_8  and  C8_9 
REMARK    6  A    between atoms: C8_9  and  C10_11 
ROOT
HETATM    1  C10 UNL     1      -4.513   7.543  14.856  1.00  0.00     0.002 C 
HETATM    2  C11 UNL     1      -4.274   6.276  15.718  1.00  0.00     0.007 C 
HETATM    3  C12 UNL     1      -2.843   5.804  15.415  1.00  0.00     0.010 C 
HETATM    4  C13 UNL     1      -2.246   6.921  14.558  1.00  0.00     0.023 C 
HETATM    5  C14 UNL     1      -0.991   6.699  13.754  1.00  0.00    -0.070 C 
HETATM    6  C15 UNL     1      -0.192   5.631  13.907  1.00  0.00     0.004 C 
HETATM    7  C16 UNL     1       1.115   5.564  13.308  1.00  0.00     0.004 C 
HETATM    8  C17 UNL     1       1.526   6.426  12.363  1.00  0.00    -0.071 C 
HETATM    9  C18 UNL     1       2.894   6.285  11.737  1.00  0.00     0.035 C 
HETATM   10  C19 UNL     1       3.608   7.624  11.596  1.00  0.00     0.004 C 
HETATM   11  C20 UNL     1       2.738   8.640  10.868  1.00  0.00     0.001 C 
HETATM   12  C21 UNL     1       1.414   8.842  11.604  1.00  0.00     0.014 C 
HETATM   13  C22 UNL     1       0.601   7.534  11.835  1.00  0.00    -0.013 C 
HETATM   14  C23 UNL     1       0.051   7.023  10.479  1.00  0.00     0.021 C 
HETATM   15  C24 UNL     1      -0.573   7.873  12.863  1.00  0.00     0.027 C 
HETATM   16  C25 UNL     1      -1.781   8.581  12.185  1.00  0.00     0.011 C 
HETATM   17  C26 UNL     1      -3.017   8.755  13.081  1.00  0.00     0.011 C 
HETATM   18  C27 UNL     1      -3.450   7.421  13.720  1.00  0.00    -0.032 C 
HETATM   19  C28 UNL     1      -3.860   6.411  12.626  1.00  0.00     0.016 C 
ENDROOT
BRANCH   1  20
HETATM   20  C8  UNL     1      -6.012   7.839  14.561  1.00  0.00     0.008 C 
HETATM   21  C9  UNL     1      -6.922   8.071  15.774  1.00  0.00     0.014 C 
BRANCH  20  22
HETATM   22  C7  UNL     1      -6.571   6.863  13.540  1.00  0.00    -0.026 C 
HETATM   23  C6  UNL     1      -6.664   5.526  13.652  1.00  0.00    -0.026 C 
BRANCH  23  24
HETATM   24  C4  UNL     1      -7.229   4.555  12.624  1.00  0.00     0.009 C 
HETATM   25  C5  UNL     1      -8.730   4.286  12.818  1.00  0.00     0.014 C 
BRANCH  24  26
HETATM   26  C2  UNL     1      -6.396   3.236  12.583  1.00  0.00     0.012 C 
HETATM   27  C1  UNL     1      -5.364   3.249  11.442  1.00  0.00     0.012 C 
BRANCH  26  28
HETATM   28  C3  UNL     1      -7.268   1.974  12.465  1.00  0.00     0.168 C 
BRANCH  28  29
HETATM   29  O1  UNL     1      -6.721   1.037  11.548  1.00  0.00    -0.400 OA
HETATM   30  H7  UNL     1      -5.903   0.684  11.937  1.00  0.00     0.209 HD
ENDBRANCH  28  29
ENDBRANCH  26  28
ENDBRANCH  24  26
ENDBRANCH  23  24
ENDBRANCH  20  22
ENDBRANCH   1  20
TORSDOF 6
ENDMDL
MODEL 4
REMARK minimizedAffinity -6.83994532
REMARK CNNscore 0.451981515
REMARK CNNaffinity 5.15859795
REMARK  6 active torsions:
REMARK  status: ('A' for Active; 'I' for Inactive)
REMARK    1  A    between atoms: C2_2  and  C3_3 
REMARK    2  A    between atoms: C2_2  and  C4_5 
REMARK    3  A    between atoms: C3_3  and  O1_4 
REMARK    4  A    between atoms: C4_5  and  C6_7 
REMARK    5  A    between atoms: C7_8  and  C8_9 
REMARK    6  A    between atoms: C8_9  and  C10_11 
ROOT
HETATM    1  C10 UNL     1      -3.844  -9.925   5.234  1.00  0.00     0.002 C 
HETATM    2  C11 UNL     1      -2.535 -10.078   4.416  1.00  0.00     0.007 C 
HETATM    3  C12 UNL     1      -2.947 -10.129   2.936  1.00  0.00     0.010 C 
HETATM    4  C13 UNL     1      -4.441  -9.798   2.945  1.00  0.00     0.023 C 
HETATM    5  C14 UNL     1      -5.309 -10.089   1.747  1.00  0.00    -0.070 C 
HETATM    6  C15 UNL     1      -4.821 -10.418   0.541  1.00  0.00     0.004 C 
HETATM    7  C16 UNL     1      -5.651 -10.450  -0.635  1.00  0.00     0.004 C 
HETATM    8  C17 UNL     1      -6.993 -10.406  -0.578  1.00  0.00    -0.071 C 
HETATM    9  C18 UNL     1      -7.818 -10.485  -1.842  1.00  0.00     0.035 C 
HETATM   10  C19 UNL     1      -8.963  -9.479  -1.850  1.00  0.00     0.004 C 
HETATM   11  C20 UNL     1      -9.814  -9.601  -0.591  1.00  0.00     0.001 C 
HETATM   12  C21 UNL     1      -8.960  -9.393   0.659  1.00  0.00     0.014 C 
HETATM   13  C22 UNL     1      -7.735 -10.348   0.766  1.00  0.00    -0.013 C 
HETATM   14  C23 UNL     1      -8.228 -11.790   1.045  1.00  0.00     0.021 C 
HETATM   15  C24 UNL     1      -6.801  -9.802   1.941  1.00  0.00     0.027 C 
HETATM   16  C25 UNL     1      -7.317 -10.200   3.354  1.00  0.00     0.011 C 
HETATM   17  C26 UNL     1      -6.360  -9.872   4.510  1.00  0.00     0.011 C 
HETATM   18  C27 UNL     1      -4.950 -10.440   4.260  1.00  0.00    -0.032 C 
HETATM   19  C28 UNL     1      -4.999 -11.981   4.178  1.00  0.00     0.016 C 
ENDROOT
BRANCH   1  20
HETATM   20  C8  UNL     1      -3.737 -10.420   6.705  1.00  0.00     0.008 C 
HETATM   21  C9  UNL     1      -3.612 -11.934   6.917  1.00  0.00     0.014 C 
BRANCH  20  22
HETATM   22  C7  UNL     1      -4.781  -9.752   7.583  1.00  0.00    -0.026 C 
HETATM   23  C6  UNL     1      -5.361 -10.251   8.689  1.00  0.00    -0.026 C 
BRANCH  23  24
HETATM   24  C4  UNL     1      -6.405  -9.573   9.565  1.00  0.00     0.009 C 
HETATM   25  C5  UNL     1      -7.168  -8.458   8.833  1.00  0.00     0.014 C 
BRANCH  24  26
HETATM   26  C2  UNL     1      -5.774  -9.072  10.902  1.00  0.00     0.012 C 
HETATM   27  C1  UNL     1      -4.317  -9.542  11.056  1.00  0.00     0.012 C 
BRANCH  26  28
HETATM   28  C3  UNL     1      -6.578  -9.494  12.145  1.00  0.00     0.168 C 
BRANCH  28  29
HETATM   29  O1  UNL     1      -6.322  -8.643  13.253  1.00  0.00    -0.400 OA
HETATM   30  H7  UNL     1      -6.701  -7.770  13.052  1.00  0.00     0.209 HD
ENDBRANCH  28  29
ENDBRANCH  26  28
ENDBRANCH  24  26
ENDBRANCH  23  24
ENDBRANCH  20  22
ENDBRANCH   1  20
TORSDOF 6
ENDMDL
MODEL 5
REMARK minimizedAffinity -7.85886765
REMARK CNNscore 0.425438434
REMARK CNNaffinity 6.64361048
REMARK  6 active torsions:
REMARK  status: ('A' for Active; 'I' for Inactive)
REMARK    1  A    between atoms: C2_2  and  C3_3 
REMARK    2  A    between atoms: C2_2  and  C4_5 
REMARK    3  A    between atoms: C3_3  and  O1_4 
REMARK    4  A    between atoms: C4_5  and  C6_7 
REMARK    5  A    between atoms: C7_8  and  C8_9 
REMARK    6  A    between atoms: C8_9  and  C10_11 
ROOT
HETATM    1  C10 UNL     1      -1.479   9.708  15.373  1.00  0.00     0.002 C 
HETATM    2  C11 UNL     1      -0.181   9.950  16.188  1.00  0.00     0.007 C 
HETATM    3  C12 UNL     1       0.991   9.702  15.227  1.00  0.00     0.010 C 
HETATM    4  C13 UNL     1       0.333   9.530  13.857  1.00  0.00     0.023 C 
HETATM    5  C14 UNL     1       1.086   8.919  12.703  1.00  0.00    -0.070 C 
HETATM    6  C15 UNL     1       2.412   8.711  12.710  1.00  0.00     0.004 C 
HETATM    7  C16 UNL     1       3.135   8.358  11.517  1.00  0.00     0.004 C 
HETATM    8  C17 UNL     1       2.524   7.967  10.386  1.00  0.00    -0.071 C 
HETATM    9  C18 UNL     1       3.333   7.568   9.174  1.00  0.00     0.035 C 
HETATM   10  C19 UNL     1       2.767   8.146   7.882  1.00  0.00     0.004 C 
HETATM   11  C20 UNL     1       1.288   7.812   7.730  1.00  0.00     0.001 C 
HETATM   12  C21 UNL     1       0.490   8.342   8.920  1.00  0.00     0.014 C 
HETATM   13  C22 UNL     1       0.994   7.842  10.306  1.00  0.00    -0.013 C 
HETATM   14  C23 UNL     1       0.679   6.332  10.455  1.00  0.00     0.021 C 
HETATM   15  C24 UNL     1       0.264   8.715  11.427  1.00  0.00     0.027 C 
HETATM   16  C25 UNL     1      -1.189   8.236  11.710  1.00  0.00     0.011 C 
HETATM   17  C26 UNL     1      -1.871   8.909  12.911  1.00  0.00     0.011 C 
HETATM   18  C27 UNL     1      -1.005   8.818  14.182  1.00  0.00    -0.032 C 
HETATM   19  C28 UNL     1      -0.799   7.342  14.586  1.00  0.00     0.016 C 
ENDROOT
BRANCH   1  20
HETATM   20  C8  UNL     1      -2.717   9.341  16.242  1.00  0.00     0.008 C 
HETATM   21  C9  UNL     1      -2.606   9.603  17.749  1.00  0.00     0.014 C 
BRANCH  20  22
HETATM   22  C7  UNL     1      -3.244   7.962  15.885  1.00  0.00    -0.026 C 
HETATM   23  C6  UNL     1      -4.396   7.663  15.259  1.00  0.00    -0.026 C 
BRANCH  23  24
HETATM   24  C4  UNL     1      -4.916   6.277  14.903  1.00  0.00     0.009 C 
HETATM   25  C5  UNL     1      -4.325   5.736  13.591  1.00  0.00     0.014 C 
BRANCH  24  26
HETATM   26  C2  UNL     1      -6.476   6.247  14.902  1.00  0.00     0.012 C 
HETATM   27  C1  UNL     1      -7.047   6.232  16.330  1.00  0.00     0.012 C 
BRANCH  26  28
HETATM   28  C3  UNL     1      -7.057   5.061  14.110  1.00  0.00     0.168 C 
BRANCH  28  29
HETATM   29  O1  UNL     1      -8.474   5.120  14.035  1.00  0.00    -0.400 OA
HETATM   30  H7  UNL     1      -8.711   5.877  13.472  1.00  0.00     0.209 HD
ENDBRANCH  28  29
ENDBRANCH  26  28
ENDBRANCH  24  26
ENDBRANCH  23  24
ENDBRANCH  20  22
ENDBRANCH   1  20
TORSDOF 6
ENDMDL
MODEL 6
REMARK minimizedAffinity -8.32411289
REMARK CNNscore 0.41174534
REMARK CNNaffinity 6.91537333
REMARK  6 active torsions:
REMARK  status: ('A' for Active; 'I' for Inactive)
REMARK    1  A    between atoms: C2_2  and  C3_3 
REMARK    2  A    between atoms: C2_2  and  C4_5 
REMARK    3  A    between atoms: C3_3  and  O1_4 
REMARK    4  A    between atoms: C4_5  and  C6_7 
REMARK    5  A    between atoms: C7_8  and  C8_9 
REMARK    6  A    between atoms: C8_9  and  C10_11 
ROOT
HETATM    1  C10 UNL     1      -3.025   7.839  15.176  1.00  0.00     0.002 C 
HETATM    2  C11 UNL     1      -3.227   6.337  15.510  1.00  0.00     0.007 C 
HETATM    3  C12 UNL     1      -2.161   5.566  14.715  1.00  0.00     0.010 C 
HETATM    4  C13 UNL     1      -1.265   6.655  14.121  1.00  0.00     0.023 C 
HETATM    5  C14 UNL     1      -0.316   6.350  12.990  1.00  0.00    -0.070 C 
HETATM    6  C15 UNL     1      -0.013   5.105  12.592  1.00  0.00     0.004 C 
HETATM    7  C16 UNL     1       1.070   4.837  11.684  1.00  0.00     0.004 C 
HETATM    8  C17 UNL     1       1.684   5.804  10.980  1.00  0.00    -0.071 C 
HETATM    9  C18 UNL     1       2.789   5.462  10.007  1.00  0.00     0.035 C 
HETATM   10  C19 UNL     1       3.967   6.424  10.108  1.00  0.00     0.004 C 
HETATM   11  C20 UNL     1       3.510   7.872   9.983  1.00  0.00     0.001 C 
HETATM   12  C21 UNL     1       2.483   8.208  11.063  1.00  0.00     0.014 C 
HETATM   13  C22 UNL     1       1.239   7.271  11.081  1.00  0.00    -0.013 C 
HETATM   14  C23 UNL     1       0.371   7.544   9.826  1.00  0.00     0.021 C 
HETATM   15  C24 UNL     1       0.437   7.561  12.431  1.00  0.00     0.027 C 
HETATM   16  C25 UNL     1      -0.445   8.839  12.345  1.00  0.00     0.011 C 
HETATM   17  C26 UNL     1      -1.386   9.060  13.539  1.00  0.00     0.011 C 
HETATM   18  C27 UNL     1      -2.248   7.815  13.823  1.00  0.00    -0.032 C 
HETATM   19  C28 UNL     1      -3.163   7.510  12.616  1.00  0.00     0.016 C 
ENDROOT
BRANCH   1  20
HETATM   20  C8  UNL     1      -4.294   8.714  15.388  1.00  0.00     0.008 C 
HETATM   21  C9  UNL     1      -4.214   9.797  16.471  1.00  0.00     0.014 C 
BRANCH  20  22
HETATM   22  C7  UNL     1      -5.544   7.854  15.459  1.00  0.00    -0.026 C 
HETATM   23  C6  UNL     1      -6.205   7.285  14.436  1.00  0.00    -0.026 C 
BRANCH  23  24
HETATM   24  C4  UNL     1      -7.456   6.421  14.516  1.00  0.00     0.009 C 
HETATM   25  C5  UNL     1      -7.553   5.628  15.829  1.00  0.00     0.014 C 
BRANCH  24  26
HETATM   26  C2  UNL     1      -7.582   5.499  13.263  1.00  0.00     0.012 C 
HETATM   27  C1  UNL     1      -8.859   5.800  12.460  1.00  0.00     0.012 C 
BRANCH  26  28
HETATM   28  C3  UNL     1      -7.541   4.000  13.609  1.00  0.00     0.168 C 
BRANCH  28  29
HETATM   29  O1  UNL     1      -8.702   3.320  13.153  1.00  0.00    -0.400 OA
HETATM   30  H7  UNL     1      -8.675   3.306  12.182  1.00  0.00     0.209 HD
ENDBRANCH  28  29
ENDBRANCH  26  28
ENDBRANCH  24  26
ENDBRANCH  23  24
ENDBRANCH  20  22
ENDBRANCH   1  20
TORSDOF 6
ENDMDL
MODEL 7
REMARK minimizedAffinity -9.07585812
REMARK CNNscore 0.400732368
REMARK CNNaffinity 6.85537195
REMARK  6 active torsions:
REMARK  status: ('A' for Active; 'I' for Inactive)
REMARK    1  A    between atoms: C2_2  and  C3_3 
REMARK    2  A    between atoms: C2_2  and  C4_5 
REMARK    3  A    between atoms: C3_3  and  O1_4 
REMARK    4  A    between atoms: C4_5  and  C6_7 
REMARK    5  A    between atoms: C7_8  and  C8_9 
REMARK    6  A    between atoms: C8_9  and  C10_11 
ROOT
HETATM    1  C10 UNL     1      -2.031   5.904  12.799  1.00  0.00     0.002 C 
HETATM    2  C11 UNL     1      -2.458   4.609  12.059  1.00  0.00     0.007 C 
HETATM    3  C12 UNL     1      -3.984   4.506  12.204  1.00  0.00     0.010 C 
HETATM    4  C13 UNL     1      -4.399   5.835  12.838  1.00  0.00     0.023 C 
HETATM    5  C14 UNL     1      -5.755   6.005  13.474  1.00  0.00    -0.070 C 
HETATM    6  C15 UNL     1      -6.757   5.125  13.328  1.00  0.00     0.004 C 
HETATM    7  C16 UNL     1      -8.103   5.427  13.738  1.00  0.00     0.004 C 
HETATM    8  C17 UNL     1      -8.407   6.482  14.512  1.00  0.00    -0.071 C 
HETATM    9  C18 UNL     1      -9.833   6.730  14.949  1.00  0.00     0.035 C 
HETATM   10  C19 UNL     1     -10.227   8.198  14.835  1.00  0.00     0.004 C 
HETATM   11  C20 UNL     1      -9.233   9.094  15.562  1.00  0.00     0.001 C 
HETATM   12  C21 UNL     1      -7.823   8.900  15.005  1.00  0.00     0.014 C 
HETATM   13  C22 UNL     1      -7.316   7.427  15.040  1.00  0.00    -0.013 C 
HETATM   14  C23 UNL     1      -7.058   7.006  16.509  1.00  0.00     0.021 C 
HETATM   15  C24 UNL     1      -5.987   7.355  14.159  1.00  0.00     0.027 C 
HETATM   16  C25 UNL     1      -4.732   7.874  14.919  1.00  0.00     0.011 C 
HETATM   17  C26 UNL     1      -3.396   7.649  14.196  1.00  0.00     0.011 C 
HETATM   18  C27 UNL     1      -3.215   6.177  13.778  1.00  0.00    -0.032 C 
HETATM   19  C28 UNL     1      -3.179   5.266  15.026  1.00  0.00     0.016 C 
ENDROOT
BRANCH   1  20
HETATM   20  C8  UNL     1      -0.548   5.908  13.270  1.00  0.00     0.008 C 
HETATM   21  C9  UNL     1      -0.157   6.961  14.314  1.00  0.00     0.014 C 
BRANCH  20  22
HETATM   22  C7  UNL     1       0.400   5.822  12.086  1.00  0.00    -0.026 C 
HETATM   23  C6  UNL     1       0.443   6.630  11.012  1.00  0.00    -0.026 C 
BRANCH  23  24
HETATM   24  C4  UNL     1       1.399   6.539   9.830  1.00  0.00     0.009 C 
HETATM   25  C5  UNL     1       2.795   6.036  10.229  1.00  0.00     0.014 C 
BRANCH  24  26
HETATM   26  C2  UNL     1       1.462   7.893   9.055  1.00  0.00     0.012 C 
HETATM   27  C1  UNL     1       0.057   8.459   8.783  1.00  0.00     0.012 C 
BRANCH  26  28
HETATM   28  C3  UNL     1       2.236   7.794   7.729  1.00  0.00     0.168 C 
BRANCH  28  29
HETATM   29  O1  UNL     1       3.062   8.929   7.513  1.00  0.00    -0.400 OA
HETATM   30  H7  UNL     1       3.778   8.904   8.170  1.00  0.00     0.209 HD
ENDBRANCH  28  29
ENDBRANCH  26  28
ENDBRANCH  24  26
ENDBRANCH  23  24
ENDBRANCH  20  22
ENDBRANCH   1  20
TORSDOF 6
ENDMDL
MODEL 8
REMARK minimizedAffinity -7.21267891
REMARK CNNscore 0.391670376
REMARK CNNaffinity 6.26285028
REMARK  6 active torsions:
REMARK  status: ('A' for Active; 'I' for Inactive)
REMARK    1  A    between atoms: C2_2  and  C3_3 
REMARK    2  A    between atoms: C2_2  and  C4_5 
REMARK    3  A    between atoms: C3_3  and  O1_4 
REMARK    4  A    between atoms: C4_5  and  C6_7 
REMARK    5  A    between atoms: C7_8  and  C8_9 
REMARK    6  A    between atoms: C8_9  and  C10_11 
ROOT
HETATM    1  C10 UNL     1      -2.485   9.654  16.984  1.00  0.00     0.002 C 
HETATM    2  C11 UNL     1      -3.677  10.207  16.159  1.00  0.00     0.007 C 
HETATM    3  C12 UNL     1      -3.371   9.895  14.685  1.00  0.00     0.010 C 
HETATM    4  C13 UNL     1      -2.130   9.002  14.733  1.00  0.00     0.023 C 
HETATM    5  C14 UNL     1      -1.294   8.765  13.501  1.00  0.00    -0.070 C 
HETATM    6  C15 UNL     1      -1.688   9.100  12.263  1.00  0.00     0.004 C 
HETATM    7  C16 UNL     1      -0.987   8.646  11.091  1.00  0.00     0.004 C 
HETATM    8  C17 UNL     1       0.230   8.079  11.146  1.00  0.00    -0.071 C 
HETATM    9  C18 UNL     1       0.939   7.658   9.880  1.00  0.00     0.035 C 
HETATM   10  C19 UNL     1       1.595   6.288  10.011  1.00  0.00     0.004 C 
HETATM   11  C20 UNL     1       2.502   6.225  11.234  1.00  0.00     0.001 C 
HETATM   12  C21 UNL     1       1.715   6.539  12.506  1.00  0.00     0.014 C 
HETATM   13  C22 UNL     1       0.972   7.907  12.481  1.00  0.00    -0.013 C 
HETATM   14  C23 UNL     1       2.009   9.057  12.546  1.00  0.00     0.021 C 
HETATM   15  C24 UNL     1      -0.026   7.936  13.727  1.00  0.00     0.027 C 
HETATM   16  C25 UNL     1       0.692   8.277  15.065  1.00  0.00     0.011 C 
HETATM   17  C26 UNL     1      -0.243   8.510  16.262  1.00  0.00     0.011 C 
HETATM   18  C27 UNL     1      -1.329   9.555  15.940  1.00  0.00    -0.032 C 
HETATM   19  C28 UNL     1      -0.683  10.924  15.635  1.00  0.00     0.016 C 
ENDROOT
BRANCH   1  20
HETATM   20  C8  UNL     1      -2.297  10.338  18.368  1.00  0.00     0.008 C 
HETATM   21  C9  UNL     1      -3.389  11.322  18.807  1.00  0.00     0.014 C 
BRANCH  20  22
HETATM   22  C7  UNL     1      -0.882  10.867  18.527  1.00  0.00    -0.026 C 
HETATM   23  C6  UNL     1      -0.182  11.003  19.668  1.00  0.00    -0.026 C 
BRANCH  23  24
HETATM   24  C4  UNL     1       1.238  11.531  19.818  1.00  0.00     0.009 C 
HETATM   25  C5  UNL     1       2.134  11.187  18.618  1.00  0.00     0.014 C 
BRANCH  24  26
HETATM   26  C2  UNL     1       1.866  11.072  21.171  1.00  0.00     0.012 C 
HETATM   27  C1  UNL     1       2.684  12.196  21.830  1.00  0.00     0.012 C 
BRANCH  26  28
HETATM   28  C3  UNL     1       2.746   9.816  21.034  1.00  0.00     0.168 C 
BRANCH  28  29
HETATM   29  O1  UNL     1       2.163   8.690  21.672  1.00  0.00    -0.400 OA
HETATM   30  H7  UNL     1       1.370   8.439  21.168  1.00  0.00     0.209 HD
ENDBRANCH  28  29
ENDBRANCH  26  28
ENDBRANCH  24  26
ENDBRANCH  23  24
ENDBRANCH  20  22
ENDBRANCH   1  20
TORSDOF 6
ENDMDL
MODEL 9
REMARK minimizedAffinity -6.90074253
REMARK CNNscore 0.3125045
REMARK CNNaffinity 6.22780609
REMARK  6 active torsions:
REMARK  status: ('A' for Active; 'I' for Inactive)
REMARK    1  A    between atoms: C2_2  and  C3_3 
REMARK    2  A    between atoms: C2_2  and  C4_5 
REMARK    3  A    between atoms: C3_3  and  O1_4 
REMARK    4  A    between atoms: C4_5  and  C6_7 
REMARK    5  A    between atoms: C7_8  and  C8_9 
REMARK    6  A    between atoms: C8_9  and  C10_11 
ROOT
HETATM    1  C10 UNL     1      -3.267   7.733  15.445  1.00  0.00     0.002 C 
HETATM    2  C11 UNL     1      -3.670   6.235  15.422  1.00  0.00     0.007 C 
HETATM    3  C12 UNL     1      -2.696   5.535  14.462  1.00  0.00     0.010 C 
HETATM    4  C13 UNL     1      -1.652   6.602  14.130  1.00  0.00     0.023 C 
HETATM    5  C14 UNL     1      -0.725   6.445  12.952  1.00  0.00    -0.070 C 
HETATM    6  C15 UNL     1      -0.578   5.297  12.273  1.00  0.00     0.004 C 
HETATM    7  C16 UNL     1       0.482   5.106  11.318  1.00  0.00     0.004 C 
HETATM    8  C17 UNL     1       1.232   6.119  10.854  1.00  0.00    -0.071 C 
HETATM    9  C18 UNL     1       2.306   5.869   9.820  1.00  0.00     0.035 C 
HETATM   10  C19 UNL     1       3.597   6.617  10.132  1.00  0.00     0.004 C 
HETATM   11  C20 UNL     1       3.336   8.102  10.351  1.00  0.00     0.001 C 
HETATM   12  C21 UNL     1       2.336   8.312  11.488  1.00  0.00     0.014 C 
HETATM   13  C22 UNL     1       0.981   7.569  11.296  1.00  0.00    -0.013 C 
HETATM   14  C23 UNL     1       0.185   8.237  10.146  1.00  0.00     0.021 C 
HETATM   15  C24 UNL     1       0.193   7.642  12.684  1.00  0.00     0.027 C 
HETATM   16  C25 UNL     1      -0.513   9.010  12.903  1.00  0.00     0.011 C 
HETATM   17  C26 UNL     1      -1.445   9.071  14.124  1.00  0.00     0.011 C 
HETATM   18  C27 UNL     1      -2.468   7.920  14.117  1.00  0.00    -0.032 C 
HETATM   19  C28 UNL     1      -3.387   8.026  12.880  1.00  0.00     0.016 C 
ENDROOT
BRANCH   1  20
HETATM   20  C8  UNL     1      -4.415   8.695  15.865  1.00  0.00     0.008 C 
HETATM   21  C9  UNL     1      -5.637   8.758  14.940  1.00  0.00     0.014 C 
BRANCH  20  22
HETATM   22  C7  UNL     1      -3.869  10.053  16.270  1.00  0.00    -0.026 C 
HETATM   23  C6  UNL     1      -3.412  10.424  17.479  1.00  0.00    -0.026 C 
BRANCH  23  24
HETATM   24  C4  UNL     1      -2.862  11.788  17.875  1.00  0.00     0.009 C 
HETATM   25  C5  UNL     1      -1.629  11.693  18.787  1.00  0.00     0.014 C 
BRANCH  24  26
HETATM   26  C2  UNL     1      -3.981  12.685  18.492  1.00  0.00     0.012 C 
HETATM   27  C1  UNL     1      -4.893  13.284  17.407  1.00  0.00     0.012 C 
BRANCH  26  28
HETATM   28  C3  UNL     1      -3.429  13.818  19.375  1.00  0.00     0.168 C 
BRANCH  28  29
HETATM   29  O1  UNL     1      -4.001  15.074  19.041  1.00  0.00    -0.400 OA
HETATM   30  H7  UNL     1      -4.938  15.052  19.300  1.00  0.00     0.209 HD
ENDBRANCH  28  29
ENDBRANCH  26  28
ENDBRANCH  24  26
ENDBRANCH  23  24
ENDBRANCH  20  22
ENDBRANCH   1  20
TORSDOF 6
ENDMDL
