MODEL 1
REMARK minimizedAffinity -9.22763348
REMARK  9 active torsions:
REMARK  status: ('A' for Active; 'I' for Inactive)
REMARK    1  A    between atoms: C2_2  and  C3_3 
REMARK    2  A    between atoms: C2_2  and  C9_12 
REMARK    3  A    between atoms: C3_3  and  C4_4 
REMARK    4  A    between atoms: C4_4  and  C5_5 
REMARK    5  A    between atoms: C5_5  and  O1_6 
REMARK    6  A    between atoms: C5_5  and  C6_7 
REMARK    7  A    between atoms: C6_7  and  O2_9 
REMARK    8  A    between atoms: C6_7  and  C8_10 
REMARK    9  A    between atoms: C8_10  and  O3_11 
ROOT
HETATM    1  C9  UNL     1      -2.163   5.792  13.292  1.00  0.00    -0.002 C 
HETATM    2  C10 UNL     1      -2.272   5.273  11.832  1.00  0.00     0.007 C 
HETATM    3  C11 UNL     1      -0.903   5.518  11.160  1.00  0.00     0.015 C 
HETATM    4  C12 UNL     1       0.074   5.784  12.326  1.00  0.00    -0.005 C 
HETATM    5  C13 UNL     1       0.486   4.388  12.889  1.00  0.00     0.021 C 
HETATM    6  C14 UNL     1       1.407   6.492  12.103  1.00  0.00    -0.000 C 
HETATM    7  C15 UNL     1       1.979   7.253  13.076  1.00  0.00    -0.060 C 
HETATM    8  C16 UNL     1       1.246   7.514  14.397  1.00  0.00     0.036 C 
HETATM    9  C17 UNL     1      -0.117   6.825  14.603  1.00  0.00     0.015 C 
HETATM   10  C18 UNL     1      -0.857   6.650  13.270  1.00  0.00    -0.028 C 
HETATM   11  C19 UNL     1      -1.154   8.065  12.690  1.00  0.00     0.016 C 
HETATM   12  C20 UNL     1       3.355   7.949  12.883  1.00  0.00    -0.014 C 
HETATM   13  C21 UNL     1       3.048   9.336  12.279  1.00  0.00     0.020 C 
HETATM   14  C22 UNL     1       4.111   8.136  14.228  1.00  0.00     0.021 C 
HETATM   15  C23 UNL     1       5.536   8.642  14.051  1.00  0.00     0.080 C 
HETATM   16  C24 UNL     1       6.301   7.634  13.241  1.00  0.00     0.135 C 
HETATM   17  O4  UNL     1       7.310   7.103  13.698  1.00  0.00    -0.297 OA
HETATM   18  C25 UNL     1       5.757   7.318  11.841  1.00  0.00     0.018 C 
HETATM   19  C26 UNL     1       6.490   6.054  11.321  1.00  0.00     0.023 C 
HETATM   20  C27 UNL     1       6.126   8.467  10.895  1.00  0.00     0.023 C 
HETATM   21  C28 UNL     1       4.222   7.009  11.965  1.00  0.00     0.020 C 
HETATM   22  C29 UNL     1       3.520   6.818  10.617  1.00  0.00     0.090 C 
HETATM   23  C30 UNL     1       2.117   6.286  10.791  1.00  0.00     0.157 C 
HETATM   24  O5  UNL     1       1.569   5.713   9.853  1.00  0.00    -0.293 OA
ENDROOT
BRANCH   1  25
HETATM   25  C2  UNL     1      -3.522   6.300  13.874  1.00  0.00    -0.014 C 
HETATM   26  C1  UNL     1      -3.729   6.124  15.381  1.00  0.00     0.010 C 
BRANCH  25  27
HETATM   27  C3  UNL     1      -4.718   5.738  13.071  1.00  0.00     0.007 C 
BRANCH  27  28
HETATM   28  C4  UNL     1      -4.978   4.222  13.228  1.00  0.00     0.035 C 
BRANCH  28  29
HETATM   29  C5  UNL     1      -5.839   3.602  12.117  1.00  0.00     0.154 C 
BRANCH  29  30
HETATM   30  O1  UNL     1      -7.042   3.073  12.699  1.00  0.00    -0.392 OA
HETATM   31  H10 UNL     1      -7.460   2.566  11.971  1.00  0.00     0.210 HD
ENDBRANCH  29  30
BRANCH  29  32
HETATM   32  C6  UNL     1      -5.162   2.466  11.299  1.00  0.00     0.101 C 
HETATM   33  C7  UNL     1      -6.017   1.189  11.210  1.00  0.00     0.051 C 
BRANCH  32  34
HETATM   34  O2  UNL     1      -5.049   2.971   9.947  1.00  0.00    -0.385 OA
HETATM   35  H14 UNL     1      -4.535   2.297   9.449  1.00  0.00     0.210 HD
ENDBRANCH  32  34
BRANCH  32  36
HETATM   36  C8  UNL     1      -3.740   2.160  11.807  1.00  0.00     0.204 C 
BRANCH  36  37
HETATM   37  O3  UNL     1      -3.325   0.866  11.356  1.00  0.00    -0.398 OA
HETATM   38  H17 UNL     1      -3.471   0.236  12.089  1.00  0.00     0.209 HD
ENDBRANCH  36  37
ENDBRANCH  32  36
ENDBRANCH  29  32
ENDBRANCH  28  29
ENDBRANCH  27  28
ENDBRANCH  25  27
ENDBRANCH   1  25
TORSDOF 9
ENDMDL
MODEL 2
REMARK minimizedAffinity -9.18373489
REMARK  9 active torsions:
REMARK  status: ('A' for Active; 'I' for Inactive)
REMARK    1  A    between atoms: C2_2  and  C3_3 
REMARK    2  A    between atoms: C2_2  and  C9_12 
REMARK    3  A    between atoms: C3_3  and  C4_4 
REMARK    4  A    between atoms: C4_4  and  C5_5 
REMARK    5  A    between atoms: C5_5  and  O1_6 
REMARK    6  A    between atoms: C5_5  and  C6_7 
REMARK    7  A    between atoms: C6_7  and  O2_9 
REMARK    8  A    between atoms: C6_7  and  C8_10 
REMARK    9  A    between atoms: C8_10  and  O3_11 
ROOT
HETATM    1  C9  UNL     1      -2.530   4.658  12.885  1.00  0.00    -0.002 C 
HETATM    2  C10 UNL     1      -1.512   5.030  11.772  1.00  0.00     0.007 C 
HETATM    3  C11 UNL     1      -0.880   6.381  12.169  1.00  0.00     0.015 C 
HETATM    4  C12 UNL     1      -1.223   6.562  13.663  1.00  0.00    -0.005 C 
HETATM    5  C13 UNL     1      -0.179   5.722  14.465  1.00  0.00     0.021 C 
HETATM    6  C14 UNL     1      -1.176   7.932  14.333  1.00  0.00    -0.000 C 
HETATM    7  C15 UNL     1      -1.995   8.242  15.375  1.00  0.00    -0.060 C 
HETATM    8  C16 UNL     1      -3.072   7.257  15.844  1.00  0.00     0.036 C 
HETATM    9  C17 UNL     1      -3.139   5.887  15.141  1.00  0.00     0.015 C 
HETATM   10  C18 UNL     1      -2.703   5.996  13.673  1.00  0.00    -0.028 C 
HETATM   11  C19 UNL     1      -3.709   6.928  12.935  1.00  0.00     0.016 C 
HETATM   12  C20 UNL     1      -1.933   9.617  16.097  1.00  0.00    -0.014 C 
HETATM   13  C21 UNL     1      -2.911  10.539  15.336  1.00  0.00     0.020 C 
HETATM   14  C22 UNL     1      -2.379   9.520  17.583  1.00  0.00     0.021 C 
HETATM   15  C23 UNL     1      -2.152  10.807  18.364  1.00  0.00     0.080 C 
HETATM   16  C24 UNL     1      -0.682  11.117  18.353  1.00  0.00     0.135 C 
HETATM   17  O4  UNL     1      -0.057  11.213  19.406  1.00  0.00    -0.297 OA
HETATM   18  C25 UNL     1      -0.025  11.301  16.978  1.00  0.00     0.018 C 
HETATM   19  C26 UNL     1       1.513  11.293  17.182  1.00  0.00     0.023 C 
HETATM   20  C27 UNL     1      -0.395  12.685  16.434  1.00  0.00     0.023 C 
HETATM   21  C28 UNL     1      -0.431  10.086  16.070  1.00  0.00     0.020 C 
HETATM   22  C29 UNL     1       0.040  10.216  14.618  1.00  0.00     0.090 C 
HETATM   23  C30 UNL     1      -0.156   8.929  13.852  1.00  0.00     0.157 C 
HETATM   24  O5  UNL     1       0.504   8.726  12.836  1.00  0.00    -0.293 OA
ENDROOT
BRANCH   1  25
HETATM   25  C2  UNL     1      -3.728   3.797  12.369  1.00  0.00    -0.014 C 
HETATM   26  C1  UNL     1      -3.885   3.684  10.851  1.00  0.00     0.010 C 
BRANCH  25  27
HETATM   27  C3  UNL     1      -5.054   4.225  13.043  1.00  0.00     0.007 C 
BRANCH  27  28
HETATM   28  C4  UNL     1      -6.303   3.407  12.644  1.00  0.00     0.035 C 
BRANCH  28  29
HETATM   29  C5  UNL     1      -7.532   3.641  13.536  1.00  0.00     0.154 C 
BRANCH  29  30
HETATM   30  O1  UNL     1      -8.666   2.982  12.949  1.00  0.00    -0.392 OA
HETATM   31  H10 UNL     1      -9.430   3.298  13.478  1.00  0.00     0.210 HD
ENDBRANCH  29  30
BRANCH  29  32
HETATM   32  C6  UNL     1      -7.914   5.130  13.774  1.00  0.00     0.101 C 
HETATM   33  C7  UNL     1      -7.262   6.093  12.766  1.00  0.00     0.051 C 
BRANCH  32  34
HETATM   34  O2  UNL     1      -9.341   5.210  13.542  1.00  0.00    -0.385 OA
HETATM   35  H14 UNL     1      -9.604   6.125  13.785  1.00  0.00     0.210 HD
ENDBRANCH  32  34
BRANCH  32  36
HETATM   36  C8  UNL     1      -7.649   5.567  15.227  1.00  0.00     0.204 C 
BRANCH  36  37
HETATM   37  O3  UNL     1      -8.176   4.594  16.136  1.00  0.00    -0.398 OA
HETATM   38  H17 UNL     1      -9.045   4.918  16.445  1.00  0.00     0.209 HD
ENDBRANCH  36  37
ENDBRANCH  32  36
ENDBRANCH  29  32
ENDBRANCH  28  29
ENDBRANCH  27  28
ENDBRANCH  25  27
ENDBRANCH   1  25
TORSDOF 9
ENDMDL
MODEL 3
REMARK minimizedAffinity -9.15820312
REMARK  9 active torsions:
REMARK  status: ('A' for Active; 'I' for Inactive)
REMARK    1  A    between atoms: C2_2  and  C3_3 
REMARK    2  A    between atoms: C2_2  and  C9_12 
REMARK    3  A    between atoms: C3_3  and  C4_4 
REMARK    4  A    between atoms: C4_4  and  C5_5 
REMARK    5  A    between atoms: C5_5  and  O1_6 
REMARK    6  A    between atoms: C5_5  and  C6_7 
REMARK    7  A    between atoms: C6_7  and  O2_9 
REMARK    8  A    between atoms: C6_7  and  C8_10 
REMARK    9  A    between atoms: C8_10  and  O3_11 
ROOT
HETATM    1  C9  UNL     1      -2.290   5.409  13.209  1.00  0.00    -0.002 C 
HETATM    2  C10 UNL     1      -2.377   4.930  11.734  1.00  0.00     0.007 C 
HETATM    3  C11 UNL     1      -1.024   5.262  11.068  1.00  0.00     0.015 C 
HETATM    4  C12 UNL     1      -0.058   5.540  12.240  1.00  0.00    -0.005 C 
HETATM    5  C13 UNL     1       0.424   4.149  12.760  1.00  0.00     0.021 C 
HETATM    6  C14 UNL     1       1.238   6.319  12.038  1.00  0.00    -0.000 C 
HETATM    7  C15 UNL     1       1.774   7.078  13.033  1.00  0.00    -0.060 C 
HETATM    8  C16 UNL     1       1.033   7.262  14.362  1.00  0.00     0.036 C 
HETATM    9  C17 UNL     1      -0.294   6.500  14.549  1.00  0.00     0.015 C 
HETATM   10  C18 UNL     1      -1.028   6.330  13.212  1.00  0.00    -0.028 C 
HETATM   11  C19 UNL     1      -1.396   7.746  12.676  1.00  0.00     0.016 C 
HETATM   12  C20 UNL     1       3.114   7.845  12.860  1.00  0.00    -0.014 C 
HETATM   13  C21 UNL     1       2.738   9.234  12.299  1.00  0.00     0.020 C 
HETATM   14  C22 UNL     1       3.864   8.029  14.209  1.00  0.00     0.021 C 
HETATM   15  C23 UNL     1       5.262   8.609  14.047  1.00  0.00     0.080 C 
HETATM   16  C24 UNL     1       6.073   7.666  13.205  1.00  0.00     0.135 C 
HETATM   17  O4  UNL     1       7.108   7.171  13.644  1.00  0.00    -0.297 OA
HETATM   18  C25 UNL     1       5.542   7.366  11.797  1.00  0.00     0.018 C 
HETATM   19  C26 UNL     1       6.335   6.155  11.237  1.00  0.00     0.023 C 
HETATM   20  C27 UNL     1       5.851   8.559  10.886  1.00  0.00     0.023 C 
HETATM   21  C28 UNL     1       4.024   6.978  11.913  1.00  0.00     0.020 C 
HETATM   22  C29 UNL     1       3.329   6.794  10.561  1.00  0.00     0.090 C 
HETATM   23  C30 UNL     1       1.954   6.189  10.720  1.00  0.00     0.157 C 
HETATM   24  O5  UNL     1       1.432   5.619   9.765  1.00  0.00    -0.293 OA
ENDROOT
BRANCH   1  25
HETATM   25  C2  UNL     1      -3.670   5.831  13.808  1.00  0.00    -0.014 C 
HETATM   26  C1  UNL     1      -3.710   6.097  15.315  1.00  0.00     0.010 C 
BRANCH  25  27
HETATM   27  C3  UNL     1      -4.788   4.852  13.378  1.00  0.00     0.007 C 
BRANCH  27  28
HETATM   28  C4  UNL     1      -6.201   5.464  13.246  1.00  0.00     0.035 C 
BRANCH  28  29
HETATM   29  C5  UNL     1      -7.233   4.910  14.241  1.00  0.00     0.154 C 
BRANCH  29  30
HETATM   30  O1  UNL     1      -8.231   4.173  13.516  1.00  0.00    -0.392 OA
HETATM   31  H10 UNL     1      -8.926   3.986  14.183  1.00  0.00     0.210 HD
ENDBRANCH  29  30
BRANCH  29  32
HETATM   32  C6  UNL     1      -7.962   5.973  15.112  1.00  0.00     0.101 C 
HETATM   33  C7  UNL     1      -9.078   6.716  14.357  1.00  0.00     0.051 C 
BRANCH  32  34
HETATM   34  O2  UNL     1      -8.615   5.231  16.170  1.00  0.00    -0.385 OA
HETATM   35  H14 UNL     1      -8.996   5.903  16.777  1.00  0.00     0.210 HD
ENDBRANCH  32  34
BRANCH  32  36
HETATM   36  C8  UNL     1      -6.972   6.954  15.769  1.00  0.00     0.204 C 
BRANCH  36  37
HETATM   37  O3  UNL     1      -7.254   7.073  17.168  1.00  0.00    -0.398 OA
HETATM   38  H17 UNL     1      -7.783   7.886  17.295  1.00  0.00     0.209 HD
ENDBRANCH  36  37
ENDBRANCH  32  36
ENDBRANCH  29  32
ENDBRANCH  28  29
ENDBRANCH  27  28
ENDBRANCH  25  27
ENDBRANCH   1  25
TORSDOF 9
ENDMDL
MODEL 4
REMARK minimizedAffinity -9.14092445
REMARK  9 active torsions:
REMARK  status: ('A' for Active; 'I' for Inactive)
REMARK    1  A    between atoms: C2_2  and  C3_3 
REMARK    2  A    between atoms: C2_2  and  C9_12 
REMARK    3  A    between atoms: C3_3  and  C4_4 
REMARK    4  A    between atoms: C4_4  and  C5_5 
REMARK    5  A    between atoms: C5_5  and  O1_6 
REMARK    6  A    between atoms: C5_5  and  C6_7 
REMARK    7  A    between atoms: C6_7  and  O2_9 
REMARK    8  A    between atoms: C6_7  and  C8_10 
REMARK    9  A    between atoms: C8_10  and  O3_11 
ROOT
HETATM    1  C9  UNL     1      -3.336   3.779  12.385  1.00  0.00    -0.002 C 
HETATM    2  C10 UNL     1      -2.959   3.780  10.878  1.00  0.00     0.007 C 
HETATM    3  C11 UNL     1      -1.761   4.740  10.711  1.00  0.00     0.015 C 
HETATM    4  C12 UNL     1      -1.214   4.952  12.139  1.00  0.00    -0.005 C 
HETATM    5  C13 UNL     1      -0.312   3.718  12.458  1.00  0.00     0.021 C 
HETATM    6  C14 UNL     1      -0.330   6.146  12.485  1.00  0.00    -0.000 C 
HETATM    7  C15 UNL     1      -0.331   6.694  13.731  1.00  0.00    -0.060 C 
HETATM    8  C16 UNL     1      -1.306   6.195  14.804  1.00  0.00     0.036 C 
HETATM    9  C17 UNL     1      -2.223   5.011  14.438  1.00  0.00     0.015 C 
HETATM   10  C18 UNL     1      -2.576   5.025  12.944  1.00  0.00    -0.028 C 
HETATM   11  C19 UNL     1      -3.383   6.323  12.647  1.00  0.00     0.016 C 
HETATM   12  C20 UNL     1       0.592   7.883  14.115  1.00  0.00    -0.014 C 
HETATM   13  C21 UNL     1      -0.207   9.163  13.787  1.00  0.00     0.020 C 
HETATM   14  C22 UNL     1       0.951   7.883  15.627  1.00  0.00     0.021 C 
HETATM   15  C23 UNL     1       2.001   8.923  15.996  1.00  0.00     0.080 C 
HETATM   16  C24 UNL     1       3.259   8.620  15.233  1.00  0.00     0.135 C 
HETATM   17  O4  UNL     1       4.310   8.395  15.829  1.00  0.00    -0.297 OA
HETATM   18  C25 UNL     1       3.153   8.609  13.702  1.00  0.00     0.018 C 
HETATM   19  C26 UNL     1       4.453   7.975  13.141  1.00  0.00     0.023 C 
HETATM   20  C27 UNL     1       3.110  10.056  13.198  1.00  0.00     0.023 C 
HETATM   21  C28 UNL     1       1.926   7.714  13.298  1.00  0.00     0.020 C 
HETATM   22  C29 UNL     1       1.617   7.733  11.798  1.00  0.00     0.090 C 
HETATM   23  C30 UNL     1       0.599   6.680  11.427  1.00  0.00     0.157 C 
HETATM   24  O5  UNL     1       0.531   6.292  10.264  1.00  0.00    -0.293 OA
ENDROOT
BRANCH   1  25
HETATM   25  C2  UNL     1      -4.851   3.502  12.646  1.00  0.00    -0.014 C 
HETATM   26  C1  UNL     1      -5.667   2.986  11.458  1.00  0.00     0.010 C 
BRANCH  25  27
HETATM   27  C3  UNL     1      -5.535   4.719  13.314  1.00  0.00     0.007 C 
BRANCH  27  28
HETATM   28  C4  UNL     1      -6.993   4.499  13.776  1.00  0.00     0.035 C 
BRANCH  28  29
HETATM   29  C5  UNL     1      -7.343   5.154  15.121  1.00  0.00     0.154 C 
BRANCH  29  30
HETATM   30  O1  UNL     1      -7.949   4.169  15.975  1.00  0.00    -0.392 OA
HETATM   31  H10 UNL     1      -8.281   4.685  16.740  1.00  0.00     0.210 HD
ENDBRANCH  29  30
BRANCH  29  32
HETATM   32  C6  UNL     1      -8.302   6.375  15.042  1.00  0.00     0.101 C 
HETATM   33  C7  UNL     1      -9.040   6.483  13.695  1.00  0.00     0.051 C 
BRANCH  32  34
HETATM   34  O2  UNL     1      -9.322   6.137  16.042  1.00  0.00    -0.385 OA
HETATM   35  H14 UNL     1      -9.875   6.950  16.064  1.00  0.00     0.210 HD
ENDBRANCH  32  34
BRANCH  32  36
HETATM   36  C8  UNL     1      -7.588   7.692  15.403  1.00  0.00     0.204 C 
BRANCH  36  37
HETATM   37  O3  UNL     1      -6.680   7.476  16.488  1.00  0.00    -0.398 OA
HETATM   38  H17 UNL     1      -7.126   7.766  17.309  1.00  0.00     0.209 HD
ENDBRANCH  36  37
ENDBRANCH  32  36
ENDBRANCH  29  32
ENDBRANCH  28  29
ENDBRANCH  27  28
ENDBRANCH  25  27
ENDBRANCH   1  25
TORSDOF 9
ENDMDL
MODEL 5
REMARK minimizedAffinity -8.92253304
REMARK  9 active torsions:
REMARK  status: ('A' for Active; 'I' for Inactive)
REMARK    1  A    between atoms: C2_2  and  C3_3 
REMARK    2  A    between atoms: C2_2  and  C9_12 
REMARK    3  A    between atoms: C3_3  and  C4_4 
REMARK    4  A    between atoms: C4_4  and  C5_5 
REMARK    5  A    between atoms: C5_5  and  O1_6 
REMARK    6  A    between atoms: C5_5  and  C6_7 
REMARK    7  A    between atoms: C6_7  and  O2_9 
REMARK    8  A    between atoms: C6_7  and  C8_10 
REMARK    9  A    between atoms: C8_10  and  O3_11 
ROOT
HETATM    1  C9  UNL     1      -6.611   7.264  14.601  1.00  0.00    -0.002 C 
HETATM    2  C10 UNL     1      -6.302   8.666  15.195  1.00  0.00     0.007 C 
HETATM    3  C11 UNL     1      -4.804   8.946  14.941  1.00  0.00     0.015 C 
HETATM    4  C12 UNL     1      -4.379   7.917  13.872  1.00  0.00    -0.005 C 
HETATM    5  C13 UNL     1      -4.825   8.497  12.493  1.00  0.00     0.021 C 
HETATM    6  C14 UNL     1      -2.914   7.553  13.654  1.00  0.00    -0.000 C 
HETATM    7  C15 UNL     1      -2.546   6.317  13.217  1.00  0.00    -0.060 C 
HETATM    8  C16 UNL     1      -3.590   5.210  13.033  1.00  0.00     0.036 C 
HETATM    9  C17 UNL     1      -5.066   5.573  13.289  1.00  0.00     0.015 C 
HETATM   10  C18 UNL     1      -5.191   6.653  14.372  1.00  0.00    -0.028 C 
HETATM   11  C19 UNL     1      -4.636   6.069  15.705  1.00  0.00     0.016 C 
HETATM   12  C20 UNL     1      -1.062   5.940  12.950  1.00  0.00    -0.014 C 
HETATM   13  C21 UNL     1      -0.516   5.393  14.286  1.00  0.00     0.020 C 
HETATM   14  C22 UNL     1      -0.924   4.843  11.858  1.00  0.00     0.021 C 
HETATM   15  C23 UNL     1       0.519   4.587  11.442  1.00  0.00     0.080 C 
HETATM   16  C24 UNL     1       1.083   5.860  10.876  1.00  0.00     0.135 C 
HETATM   17  O4  UNL     1       1.511   5.895   9.726  1.00  0.00    -0.297 OA
HETATM   18  C25 UNL     1       1.090   7.083  11.803  1.00  0.00     0.018 C 
HETATM   19  C26 UNL     1       1.407   8.332  10.939  1.00  0.00     0.023 C 
HETATM   20  C27 UNL     1       2.237   6.936  12.809  1.00  0.00     0.023 C 
HETATM   21  C28 UNL     1      -0.343   7.239  12.428  1.00  0.00     0.020 C 
HETATM   22  C29 UNL     1      -0.437   8.340  13.488  1.00  0.00     0.090 C 
HETATM   23  C30 UNL     1      -1.871   8.615  13.878  1.00  0.00     0.157 C 
HETATM   24  O5  UNL     1      -2.159   9.693  14.392  1.00  0.00    -0.293 OA
ENDROOT
BRANCH   1  25
HETATM   25  C2  UNL     1      -7.765   6.516  15.343  1.00  0.00    -0.014 C 
HETATM   26  C1  UNL     1      -7.452   5.106  15.850  1.00  0.00     0.010 C 
BRANCH  25  27
HETATM   27  C3  UNL     1      -9.070   6.540  14.512  1.00  0.00     0.007 C 
BRANCH  27  28
HETATM   28  C4  UNL     1      -9.858   7.869  14.540  1.00  0.00     0.035 C 
BRANCH  28  29
HETATM   29  C5  UNL     1     -11.364   7.714  14.807  1.00  0.00     0.154 C 
BRANCH  29  30
HETATM   30  O1  UNL     1     -11.705   6.319  14.758  1.00  0.00    -0.392 OA
HETATM   31  H10 UNL     1     -12.685   6.310  14.781  1.00  0.00     0.210 HD
ENDBRANCH  29  30
BRANCH  29  32
HETATM   32  C6  UNL     1     -12.300   8.472  13.823  1.00  0.00     0.101 C 
HETATM   33  C7  UNL     1     -13.056   7.536  12.862  1.00  0.00     0.051 C 
BRANCH  32  34
HETATM   34  O2  UNL     1     -13.308   9.102  14.649  1.00  0.00    -0.385 OA
HETATM   35  H14 UNL     1     -13.844   9.660  14.043  1.00  0.00     0.210 HD
ENDBRANCH  32  34
BRANCH  32  36
HETATM   36  C8  UNL     1     -11.555   9.583  13.060  1.00  0.00     0.204 C 
BRANCH  36  37
HETATM   37  O3  UNL     1     -11.916   9.555  11.675  1.00  0.00    -0.398 OA
HETATM   38  H17 UNL     1     -11.211   9.076  11.195  1.00  0.00     0.209 HD
ENDBRANCH  36  37
ENDBRANCH  32  36
ENDBRANCH  29  32
ENDBRANCH  28  29
ENDBRANCH  27  28
ENDBRANCH  25  27
ENDBRANCH   1  25
TORSDOF 9
ENDMDL
MODEL 6
REMARK minimizedAffinity -8.75756741
REMARK  9 active torsions:
REMARK  status: ('A' for Active; 'I' for Inactive)
REMARK    1  A    between atoms: C2_2  and  C3_3 
REMARK    2  A    between atoms: C2_2  and  C9_12 
REMARK    3  A    between atoms: C3_3  and  C4_4 
REMARK    4  A    between atoms: C4_4  and  C5_5 
REMARK    5  A    between atoms: C5_5  and  O1_6 
REMARK    6  A    between atoms: C5_5  and  C6_7 
REMARK    7  A    between atoms: C6_7  and  O2_9 
REMARK    8  A    between atoms: C6_7  and  C8_10 
REMARK    9  A    between atoms: C8_10  and  O3_11 
ROOT
HETATM    1  C9  UNL     1      -5.734   4.716  13.641  1.00  0.00    -0.002 C 
HETATM    2  C10 UNL     1      -5.162   4.227  12.281  1.00  0.00     0.007 C 
HETATM    3  C11 UNL     1      -3.785   4.904  12.099  1.00  0.00     0.015 C 
HETATM    4  C12 UNL     1      -3.408   5.430  13.500  1.00  0.00    -0.005 C 
HETATM    5  C13 UNL     1      -2.820   4.217  14.289  1.00  0.00     0.021 C 
HETATM    6  C14 UNL     1      -2.360   6.523  13.686  1.00  0.00    -0.000 C 
HETATM    7  C15 UNL     1      -2.423   7.399  14.726  1.00  0.00    -0.060 C 
HETATM    8  C16 UNL     1      -3.615   7.384  15.690  1.00  0.00     0.036 C 
HETATM    9  C17 UNL     1      -4.689   6.300  15.477  1.00  0.00     0.015 C 
HETATM   10  C18 UNL     1      -4.825   5.938  13.991  1.00  0.00    -0.028 C 
HETATM   11  C19 UNL     1      -5.310   7.205  13.226  1.00  0.00     0.016 C 
HETATM   12  C20 UNL     1      -1.343   8.493  14.955  1.00  0.00    -0.014 C 
HETATM   13  C21 UNL     1      -1.820   9.731  14.166  1.00  0.00     0.020 C 
HETATM   14  C22 UNL     1      -1.201   8.872  16.456  1.00  0.00     0.021 C 
HETATM   15  C23 UNL     1      -0.027   9.801  16.734  1.00  0.00     0.080 C 
HETATM   16  C24 UNL     1       1.238   9.102  16.323  1.00  0.00     0.135 C 
HETATM   17  O4  UNL     1       2.132   8.900  17.140  1.00  0.00    -0.297 OA
HETATM   18  C25 UNL     1       1.342   8.669  14.854  1.00  0.00     0.018 C 
HETATM   19  C26 UNL     1       2.555   7.710  14.727  1.00  0.00     0.023 C 
HETATM   20  C27 UNL     1       1.656   9.900  13.996  1.00  0.00     0.023 C 
HETATM   21  C28 UNL     1       0.029   7.895  14.473  1.00  0.00     0.020 C 
HETATM   22  C29 UNL     1      -0.062   7.529  12.988  1.00  0.00     0.090 C 
HETATM   23  C30 UNL     1      -1.208   6.583  12.718  1.00  0.00     0.157 C 
HETATM   24  O5  UNL     1      -1.193   5.893  11.702  1.00  0.00    -0.293 OA
ENDROOT
BRANCH   1  25
HETATM   25  C2  UNL     1      -7.295   4.761  13.678  1.00  0.00    -0.014 C 
HETATM   26  C1  UNL     1      -8.028   3.572  13.051  1.00  0.00     0.010 C 
BRANCH  25  27
HETATM   27  C3  UNL     1      -7.829   6.105  13.130  1.00  0.00     0.007 C 
BRANCH  27  28
HETATM   28  C4  UNL     1      -9.357   6.312  13.231  1.00  0.00     0.035 C 
BRANCH  28  29
HETATM   29  C5  UNL     1      -9.802   7.262  14.354  1.00  0.00     0.154 C 
BRANCH  29  30
HETATM   30  O1  UNL     1      -9.755   6.557  15.606  1.00  0.00    -0.392 OA
HETATM   31  H10 UNL     1     -10.191   7.165  16.241  1.00  0.00     0.210 HD
ENDBRANCH  29  30
BRANCH  29  32
HETATM   32  C6  UNL     1     -11.225   7.866  14.196  1.00  0.00     0.101 C 
HETATM   33  C7  UNL     1     -12.115   7.078  13.218  1.00  0.00     0.051 C 
BRANCH  32  34
HETATM   34  O2  UNL     1     -11.849   7.743  15.497  1.00  0.00    -0.385 OA
HETATM   35  H14 UNL     1     -12.711   8.210  15.429  1.00  0.00     0.210 HD
ENDBRANCH  32  34
BRANCH  32  36
HETATM   36  C8  UNL     1     -11.179   9.363  13.837  1.00  0.00     0.204 C 
BRANCH  36  37
HETATM   37  O3  UNL     1     -11.508   9.547  12.456  1.00  0.00    -0.398 OA
HETATM   38  H17 UNL     1     -10.670   9.642  11.962  1.00  0.00     0.209 HD
ENDBRANCH  36  37
ENDBRANCH  32  36
ENDBRANCH  29  32
ENDBRANCH  28  29
ENDBRANCH  27  28
ENDBRANCH  25  27
ENDBRANCH   1  25
TORSDOF 9
ENDMDL
MODEL 7
REMARK minimizedAffinity -8.7230854
REMARK  9 active torsions:
REMARK  status: ('A' for Active; 'I' for Inactive)
REMARK    1  A    between atoms: C2_2  and  C3_3 
REMARK    2  A    between atoms: C2_2  and  C9_12 
REMARK    3  A    between atoms: C3_3  and  C4_4 
REMARK    4  A    between atoms: C4_4  and  C5_5 
REMARK    5  A    between atoms: C5_5  and  O1_6 
REMARK    6  A    between atoms: C5_5  and  C6_7 
REMARK    7  A    between atoms: C6_7  and  O2_9 
REMARK    8  A    between atoms: C6_7  and  C8_10 
REMARK    9  A    between atoms: C8_10  and  O3_11 
ROOT
HETATM    1  C9  UNL     1      -1.871   6.055  12.404  1.00  0.00    -0.002 C 
HETATM    2  C10 UNL     1      -2.643   6.951  13.411  1.00  0.00     0.007 C 
HETATM    3  C11 UNL     1      -1.660   8.040  13.895  1.00  0.00     0.015 C 
HETATM    4  C12 UNL     1      -0.497   8.010  12.881  1.00  0.00    -0.005 C 
HETATM    5  C13 UNL     1      -0.964   8.839  11.643  1.00  0.00     0.021 C 
HETATM    6  C14 UNL     1       0.869   8.601  13.217  1.00  0.00    -0.000 C 
HETATM    7  C15 UNL     1       2.013   8.099  12.676  1.00  0.00    -0.060 C 
HETATM    8  C16 UNL     1       1.976   6.849  11.789  1.00  0.00     0.036 C 
HETATM    9  C17 UNL     1       0.596   6.235  11.481  1.00  0.00     0.015 C 
HETATM   10  C18 UNL     1      -0.378   6.448  12.648  1.00  0.00    -0.028 C 
HETATM   11  C19 UNL     1       0.180   5.694  13.891  1.00  0.00     0.016 C 
HETATM   12  C20 UNL     1       3.409   8.712  12.973  1.00  0.00    -0.014 C 
HETATM   13  C21 UNL     1       3.937   7.978  14.225  1.00  0.00     0.020 C 
HETATM   14  C22 UNL     1       4.407   8.497  11.801  1.00  0.00     0.021 C 
HETATM   15  C23 UNL     1       5.720   9.246  11.983  1.00  0.00     0.080 C 
HETATM   16  C24 UNL     1       5.422  10.717  12.058  1.00  0.00     0.135 C 
HETATM   17  O4  UNL     1       5.919  11.495  11.248  1.00  0.00    -0.297 OA
HETATM   18  C25 UNL     1       4.481  11.174  13.180  1.00  0.00     0.018 C 
HETATM   19  C26 UNL     1       4.066  12.640  12.884  1.00  0.00     0.023 C 
HETATM   20  C27 UNL     1       5.258  11.191  14.502  1.00  0.00     0.023 C 
HETATM   21  C28 UNL     1       3.203  10.261  13.157  1.00  0.00     0.020 C 
HETATM   22  C29 UNL     1       2.242  10.518  14.322  1.00  0.00     0.090 C 
HETATM   23  C30 UNL     1       0.927   9.799  14.126  1.00  0.00     0.157 C 
HETATM   24  O5  UNL     1      -0.069  10.192  14.728  1.00  0.00    -0.293 OA
ENDROOT
BRANCH   1  25
HETATM   25  C2  UNL     1      -2.381   4.578  12.368  1.00  0.00    -0.014 C 
HETATM   26  C1  UNL     1      -1.551   3.587  11.549  1.00  0.00     0.010 C 
BRANCH  25  27
HETATM   27  C3  UNL     1      -3.878   4.514  11.983  1.00  0.00     0.007 C 
BRANCH  27  28
HETATM   28  C4  UNL     1      -4.876   4.575  13.161  1.00  0.00     0.035 C 
BRANCH  28  29
HETATM   29  C5  UNL     1      -6.175   3.783  12.941  1.00  0.00     0.154 C 
BRANCH  29  30
HETATM   30  O1  UNL     1      -6.340   3.541  11.535  1.00  0.00    -0.392 OA
HETATM   31  H10 UNL     1      -7.247   3.176  11.458  1.00  0.00     0.210 HD
ENDBRANCH  29  30
BRANCH  29  32
HETATM   32  C6  UNL     1      -7.471   4.462  13.466  1.00  0.00     0.101 C 
HETATM   33  C7  UNL     1      -8.035   5.522  12.503  1.00  0.00     0.051 C 
BRANCH  32  34
HETATM   34  O2  UNL     1      -8.464   3.410  13.534  1.00  0.00    -0.385 OA
HETATM   35  H14 UNL     1      -9.256   3.812  13.956  1.00  0.00     0.210 HD
ENDBRANCH  32  34
BRANCH  32  36
HETATM   36  C8  UNL     1      -7.289   5.029  14.887  1.00  0.00     0.204 C 
BRANCH  36  37
HETATM   37  O3  UNL     1      -7.950   4.188  15.840  1.00  0.00    -0.398 OA
HETATM   38  H17 UNL     1      -8.816   4.594  16.042  1.00  0.00     0.209 HD
ENDBRANCH  36  37
ENDBRANCH  32  36
ENDBRANCH  29  32
ENDBRANCH  28  29
ENDBRANCH  27  28
ENDBRANCH  25  27
ENDBRANCH   1  25
TORSDOF 9
ENDMDL
MODEL 8
REMARK minimizedAffinity -8.61520195
REMARK  9 active torsions:
REMARK  status: ('A' for Active; 'I' for Inactive)
REMARK    1  A    between atoms: C2_2  and  C3_3 
REMARK    2  A    between atoms: C2_2  and  C9_12 
REMARK    3  A    between atoms: C3_3  and  C4_4 
REMARK    4  A    between atoms: C4_4  and  C5_5 
REMARK    5  A    between atoms: C5_5  and  O1_6 
REMARK    6  A    between atoms: C5_5  and  C6_7 
REMARK    7  A    between atoms: C6_7  and  O2_9 
REMARK    8  A    between atoms: C6_7  and  C8_10 
REMARK    9  A    between atoms: C8_10  and  O3_11 
ROOT
HETATM    1  C9  UNL     1      -1.876   7.043  13.398  1.00  0.00    -0.002 C 
HETATM    2  C10 UNL     1      -1.585   6.704  14.886  1.00  0.00     0.007 C 
HETATM    3  C11 UNL     1      -0.073   6.918  15.113  1.00  0.00     0.015 C 
HETATM    4  C12 UNL     1       0.401   7.752  13.903  1.00  0.00    -0.005 C 
HETATM    5  C13 UNL     1       0.039   9.238  14.217  1.00  0.00     0.021 C 
HETATM    6  C14 UNL     1       1.872   7.814  13.504  1.00  0.00    -0.000 C 
HETATM    7  C15 UNL     1       2.250   7.992  12.208  1.00  0.00    -0.060 C 
HETATM    8  C16 UNL     1       1.205   8.027  11.087  1.00  0.00     0.036 C 
HETATM    9  C17 UNL     1      -0.278   7.928  11.492  1.00  0.00     0.015 C 
HETATM   10  C18 UNL     1      -0.453   7.073  12.754  1.00  0.00    -0.028 C 
HETATM   11  C19 UNL     1       0.020   5.625  12.429  1.00  0.00     0.016 C 
HETATM   12  C20 UNL     1       3.742   8.099  11.787  1.00  0.00    -0.014 C 
HETATM   13  C21 UNL     1       4.205   6.655  11.498  1.00  0.00     0.020 C 
HETATM   14  C22 UNL     1       3.929   8.958  10.506  1.00  0.00     0.021 C 
HETATM   15  C23 UNL     1       5.390   9.237  10.177  1.00  0.00     0.080 C 
HETATM   16  C24 UNL     1       5.999   9.995  11.322  1.00  0.00     0.135 C 
HETATM   17  O4  UNL     1       6.492  11.105  11.142  1.00  0.00    -0.297 OA
HETATM   18  C25 UNL     1       5.967   9.313  12.696  1.00  0.00     0.018 C 
HETATM   19  C26 UNL     1       6.347  10.374  13.762  1.00  0.00     0.023 C 
HETATM   20  C27 UNL     1       7.054   8.233  12.738  1.00  0.00     0.023 C 
HETATM   21  C28 UNL     1       4.504   8.811  12.966  1.00  0.00     0.020 C 
HETATM   22  C29 UNL     1       4.362   7.981  14.245  1.00  0.00     0.090 C 
HETATM   23  C30 UNL     1       2.912   7.731  14.589  1.00  0.00     0.157 C 
HETATM   24  O5  UNL     1       2.608   7.444  15.744  1.00  0.00    -0.293 OA
ENDROOT
BRANCH   1  25
HETATM   25  C2  UNL     1      -3.079   6.243  12.802  1.00  0.00    -0.014 C 
HETATM   26  C1  UNL     1      -4.479   6.716  13.199  1.00  0.00     0.010 C 
BRANCH  25  27
HETATM   27  C3  UNL     1      -2.909   4.723  13.036  1.00  0.00     0.007 C 
BRANCH  27  28
HETATM   28  C4  UNL     1      -3.017   3.834  11.777  1.00  0.00     0.035 C 
BRANCH  28  29
HETATM   29  C5  UNL     1      -3.855   2.560  11.964  1.00  0.00     0.154 C 
BRANCH  29  30
HETATM   30  O1  UNL     1      -3.152   1.450  11.380  1.00  0.00    -0.392 OA
HETATM   31  H10 UNL     1      -3.802   0.716  11.398  1.00  0.00     0.210 HD
ENDBRANCH  29  30
BRANCH  29  32
HETATM   32  C6  UNL     1      -5.282   2.599  11.349  1.00  0.00     0.101 C 
HETATM   33  C7  UNL     1      -6.218   3.600  12.051  1.00  0.00     0.051 C 
BRANCH  32  34
HETATM   34  O2  UNL     1      -5.113   3.086   9.996  1.00  0.00    -0.385 OA
HETATM   35  H14 UNL     1      -5.997   3.021   9.573  1.00  0.00     0.210 HD
ENDBRANCH  32  34
BRANCH  32  36
HETATM   36  C8  UNL     1      -5.913   1.196  11.268  1.00  0.00     0.204 C 
BRANCH  36  37
HETATM   37  O3  UNL     1      -7.143   1.167  12.002  1.00  0.00    -0.398 OA
HETATM   38  H17 UNL     1      -6.955   0.777  12.879  1.00  0.00     0.209 HD
ENDBRANCH  36  37
ENDBRANCH  32  36
ENDBRANCH  29  32
ENDBRANCH  28  29
ENDBRANCH  27  28
ENDBRANCH  25  27
ENDBRANCH   1  25
TORSDOF 9
ENDMDL
MODEL 9
REMARK minimizedAffinity -8.61088657
REMARK  9 active torsions:
REMARK  status: ('A' for Active; 'I' for Inactive)
REMARK    1  A    between atoms: C2_2  and  C3_3 
REMARK    2  A    between atoms: C2_2  and  C9_12 
REMARK    3  A    between atoms: C3_3  and  C4_4 
REMARK    4  A    between atoms: C4_4  and  C5_5 
REMARK    5  A    between atoms: C5_5  and  O1_6 
REMARK    6  A    between atoms: C5_5  and  C6_7 
REMARK    7  A    between atoms: C6_7  and  O2_9 
REMARK    8  A    between atoms: C6_7  and  C8_10 
REMARK    9  A    between atoms: C8_10  and  O3_11 
ROOT
HETATM    1  C9  UNL     1      -2.769   8.453  14.521  1.00  0.00    -0.002 C 
HETATM    2  C10 UNL     1      -2.218   8.192  15.950  1.00  0.00     0.007 C 
HETATM    3  C11 UNL     1      -0.694   7.980  15.816  1.00  0.00     0.015 C 
HETATM    4  C12 UNL     1      -0.335   8.518  14.414  1.00  0.00    -0.005 C 
HETATM    5  C13 UNL     1      -0.211  10.069  14.550  1.00  0.00     0.021 C 
HETATM    6  C14 UNL     1       0.956   8.113  13.711  1.00  0.00    -0.000 C 
HETATM    7  C15 UNL     1       1.035   8.045  12.353  1.00  0.00    -0.060 C 
HETATM    8  C16 UNL     1      -0.208   8.271  11.485  1.00  0.00     0.036 C 
HETATM    9  C17 UNL     1      -1.519   8.646  12.203  1.00  0.00     0.015 C 
HETATM   10  C18 UNL     1      -1.591   8.006  13.597  1.00  0.00    -0.028 C 
HETATM   11  C19 UNL     1      -1.605   6.459  13.420  1.00  0.00     0.016 C 
HETATM   12  C20 UNL     1       2.352   7.674  11.617  1.00  0.00    -0.014 C 
HETATM   13  C21 UNL     1       2.340   6.137  11.477  1.00  0.00     0.020 C 
HETATM   14  C22 UNL     1       2.433   8.312  10.203  1.00  0.00     0.021 C 
HETATM   15  C23 UNL     1       3.787   8.122   9.533  1.00  0.00     0.080 C 
HETATM   16  C24 UNL     1       4.836   8.780  10.386  1.00  0.00     0.135 C 
HETATM   17  O4  UNL     1       5.538   9.677   9.927  1.00  0.00    -0.297 OA
HETATM   18  C25 UNL     1       4.969   8.274  11.828  1.00  0.00     0.018 C 
HETATM   19  C26 UNL     1       5.861   9.280  12.603  1.00  0.00     0.023 C 
HETATM   20  C27 UNL     1       5.715   6.935  11.817  1.00  0.00     0.023 C 
HETATM   21  C28 UNL     1       3.539   8.247  12.477  1.00  0.00     0.020 C 
HETATM   22  C29 UNL     1       3.508   7.623  13.876  1.00  0.00     0.090 C 
HETATM   23  C30 UNL     1       2.174   7.839  14.552  1.00  0.00     0.157 C 
HETATM   24  O5  UNL     1       2.101   7.767  15.776  1.00  0.00    -0.293 OA
ENDROOT
BRANCH   1  25
HETATM   25  C2  UNL     1      -4.247   7.981  14.329  1.00  0.00    -0.014 C 
HETATM   26  C1  UNL     1      -4.880   8.256  12.963  1.00  0.00     0.010 C 
BRANCH  25  27
HETATM   27  C3  UNL     1      -5.148   8.485  15.480  1.00  0.00     0.007 C 
BRANCH  27  28
HETATM   28  C4  UNL     1      -6.660   8.552  15.168  1.00  0.00     0.035 C 
BRANCH  28  29
HETATM   29  C5  UNL     1      -7.521   7.552  15.956  1.00  0.00     0.154 C 
BRANCH  29  30
HETATM   30  O1  UNL     1      -6.668   6.781  16.818  1.00  0.00    -0.392 OA
HETATM   31  H10 UNL     1      -7.252   6.074  17.166  1.00  0.00     0.210 HD
ENDBRANCH  29  30
BRANCH  29  32
HETATM   32  C6  UNL     1      -8.353   6.560  15.095  1.00  0.00     0.101 C 
HETATM   33  C7  UNL     1      -7.520   5.845  14.016  1.00  0.00     0.051 C 
BRANCH  32  34
HETATM   34  O2  UNL     1      -8.801   5.530  16.008  1.00  0.00    -0.385 OA
HETATM   35  H14 UNL     1      -9.407   4.954  15.490  1.00  0.00     0.210 HD
ENDBRANCH  32  34
BRANCH  32  36
HETATM   36  C8  UNL     1      -9.603   7.230  14.493  1.00  0.00     0.204 C 
BRANCH  36  37
HETATM   37  O3  UNL     1     -10.784   6.723  15.124  1.00  0.00    -0.398 OA
HETATM   38  H17 UNL     1     -11.159   6.034  14.540  1.00  0.00     0.209 HD
ENDBRANCH  36  37
ENDBRANCH  32  36
ENDBRANCH  29  32
ENDBRANCH  28  29
ENDBRANCH  27  28
ENDBRANCH  25  27
ENDBRANCH   1  25
TORSDOF 9
ENDMDL
