MODEL 1
REMARK minimizedAffinity -8.11453247
REMARK CNNscore 0.766182065
REMARK CNNaffinity 6.35269213
REMARK  8 active torsions:
REMARK  status: ('A' for Active; 'I' for Inactive)
REMARK    1  A    between atoms: C3_3  and  C4_4 
REMARK    2  A    between atoms: C4_4  and  O1_5 
REMARK    3  A    between atoms: C6_9  and  C7_10 
REMARK    4  A    between atoms: C7_10  and  O4_12 
REMARK    5  A    between atoms: C7_10  and  C9_13 
REMARK    6  A    between atoms: C9_13  and  O5_14 
REMARK    7  A    between atoms: C12_17  and  O6_18 
REMARK    8  A    between atoms: C27_34  and  O8_35 
ROOT
HETATM    1  C9  UNL     1      -4.186 -10.328   7.328  1.00  0.00     0.101 C 
HETATM    2  C10 UNL     1      -3.433  -9.057   6.764  1.00  0.00     0.045 C 
HETATM    3  C11 UNL     1      -2.802  -9.419   5.412  1.00  0.00     0.045 C 
HETATM    4  C12 UNL     1      -3.710 -10.520   4.890  1.00  0.00     0.100 C 
HETATM    5  C13 UNL     1      -3.902 -11.410   6.171  1.00  0.00     0.024 C 
HETATM    6  C14 UNL     1      -2.619 -12.215   6.578  1.00  0.00     0.022 C 
HETATM    7  C15 UNL     1      -4.982 -12.443   5.814  1.00  0.00     0.016 C 
HETATM    8  C16 UNL     1      -4.603 -13.284   4.573  1.00  0.00     0.010 C 
HETATM    9  C17 UNL     1      -4.268 -12.438   3.309  1.00  0.00     0.043 C 
HETATM   10  C18 UNL     1      -3.870 -13.291   2.038  1.00  0.00     0.046 C 
HETATM   11  C19 UNL     1      -2.938 -14.475   2.365  1.00  0.00     0.029 C 
HETATM   12  C20 UNL     1      -5.173 -13.891   1.438  1.00  0.00     0.140 C 
HETATM   13  O7  UNL     1      -5.973 -14.547   2.110  1.00  0.00    -0.297 OA
HETATM   14  C21 UNL     1      -5.453 -13.661  -0.036  1.00  0.00     0.080 C 
HETATM   15  C22 UNL     1      -4.197 -13.953  -0.837  1.00  0.00     0.012 C 
HETATM   16  C23 UNL     1      -3.028 -13.060  -0.421  1.00  0.00     0.035 C 
HETATM   17  C24 UNL     1      -3.236 -12.420   0.936  1.00  0.00    -0.067 C 
HETATM   18  C25 UNL     1      -2.939 -11.119   1.106  1.00  0.00    -0.020 C 
HETATM   19  C26 UNL     1      -3.127 -10.371   2.391  1.00  0.00     0.069 C 
HETATM   20  C27 UNL     1      -3.233 -11.304   3.624  1.00  0.00     0.098 C 
ENDROOT
BRANCH   1  21
HETATM   21  C7  UNL     1      -5.682  -9.958   7.743  1.00  0.00     0.113 C 
HETATM   22  C8  UNL     1      -6.092  -8.589   7.132  1.00  0.00     0.052 C 
BRANCH  21  23
HETATM   23  C6  UNL     1      -6.010  -9.938   9.279  1.00  0.00     0.173 C 
HETATM   24  O3  UNL     1      -6.937 -11.035   9.520  1.00  0.00    -0.309 OA
HETATM   25  C5  UNL     1      -7.495 -11.216  10.742  1.00  0.00     0.292 C 
HETATM   26  C3  UNL     1      -7.374 -10.094  11.715  1.00  0.00     0.042 C 
HETATM   27  O2  UNL     1      -8.110 -12.243  10.999  1.00  0.00    -0.260 OA
HETATM   28  C2  UNL     1      -7.019  -8.864  11.279  1.00  0.00    -0.067 C 
HETATM   29  C1  UNL     1      -6.992  -7.622  12.128  1.00  0.00     0.044 C 
HETATM   30  C28 UNL     1      -6.603  -8.652   9.843  1.00  0.00     0.070 C 
BRANCH  26  31
HETATM   31  C4  UNL     1      -7.791 -10.429  13.119  1.00  0.00     0.209 C 
BRANCH  31  32
HETATM   32  O1  UNL     1      -7.079  -9.609  14.041  1.00  0.00    -0.396 OA
HETATM   33  H6  UNL     1      -7.220  -8.683  13.787  1.00  0.00     0.209 HD
ENDBRANCH  31  32
ENDBRANCH  26  31
ENDBRANCH  21  23
BRANCH  21  34
HETATM   34  O4  UNL     1      -6.573 -10.933   7.156  1.00  0.00    -0.384 OA
HETATM   35  H11 UNL     1      -7.472 -10.715   7.482  1.00  0.00     0.210 HD
ENDBRANCH  21  34
ENDBRANCH   1  21
BRANCH   1  36
HETATM   36  O5  UNL     1      -3.489 -10.632   8.553  1.00  0.00    -0.386 OA
HETATM   37  H12 UNL     1      -3.474 -11.587   8.705  1.00  0.00     0.210 HD
ENDBRANCH   1  36
BRANCH   4  38
HETATM   38  O6  UNL     1      -4.939  -9.884   4.483  1.00  0.00    -0.386 OA
HETATM   39  H17 UNL     1      -5.493  -9.646   5.256  1.00  0.00     0.210 HD
ENDBRANCH   4  38
BRANCH  20  40
HETATM   40  O8  UNL     1      -1.937 -11.880   3.843  1.00  0.00    -0.386 OA
HETATM   41  H38 UNL     1      -1.265 -11.197   3.678  1.00  0.00     0.210 HD
ENDBRANCH  20  40
TORSDOF 8
ENDMDL
MODEL 2
REMARK minimizedAffinity -9.05559731
REMARK CNNscore 0.719271958
REMARK CNNaffinity 6.10986948
REMARK  8 active torsions:
REMARK  status: ('A' for Active; 'I' for Inactive)
REMARK    1  A    between atoms: C3_3  and  C4_4 
REMARK    2  A    between atoms: C4_4  and  O1_5 
REMARK    3  A    between atoms: C6_9  and  C7_10 
REMARK    4  A    between atoms: C7_10  and  O4_12 
REMARK    5  A    between atoms: C7_10  and  C9_13 
REMARK    6  A    between atoms: C9_13  and  O5_14 
REMARK    7  A    between atoms: C12_17  and  O6_18 
REMARK    8  A    between atoms: C27_34  and  O8_35 
ROOT
HETATM    1  C9  UNL     1       1.188   9.266  15.864  1.00  0.00     0.101 C 
HETATM    2  C10 UNL     1       2.616   8.681  16.214  1.00  0.00     0.045 C 
HETATM    3  C11 UNL     1       3.037   7.711  15.100  1.00  0.00     0.045 C 
HETATM    4  C12 UNL     1       2.299   8.242  13.881  1.00  0.00     0.100 C 
HETATM    5  C13 UNL     1       0.870   8.523  14.471  1.00  0.00     0.024 C 
HETATM    6  C14 UNL     1       0.056   7.223  14.801  1.00  0.00     0.022 C 
HETATM    7  C15 UNL     1       0.094   9.268  13.373  1.00  0.00     0.016 C 
HETATM    8  C16 UNL     1       0.032   8.466  12.053  1.00  0.00     0.010 C 
HETATM    9  C17 UNL     1       1.423   8.043  11.498  1.00  0.00     0.043 C 
HETATM   10  C18 UNL     1       1.366   7.214  10.152  1.00  0.00     0.046 C 
HETATM   11  C19 UNL     1       0.246   6.155  10.134  1.00  0.00     0.029 C 
HETATM   12  C20 UNL     1       1.073   8.206   8.991  1.00  0.00     0.140 C 
HETATM   13  O7  UNL     1       0.114   8.983   9.009  1.00  0.00    -0.297 OA
HETATM   14  C21 UNL     1       2.003   8.200   7.793  1.00  0.00     0.080 C 
HETATM   15  C22 UNL     1       2.245   6.767   7.352  1.00  0.00     0.012 C 
HETATM   16  C23 UNL     1       2.875   5.922   8.459  1.00  0.00     0.035 C 
HETATM   17  C24 UNL     1       2.717   6.545   9.830  1.00  0.00    -0.067 C 
HETATM   18  C25 UNL     1       3.766   6.562  10.672  1.00  0.00    -0.020 C 
HETATM   19  C26 UNL     1       3.740   7.173  12.042  1.00  0.00     0.069 C 
HETATM   20  C27 UNL     1       2.304   7.353  12.595  1.00  0.00     0.098 C 
ENDROOT
BRANCH   1  21
HETATM   21  C7  UNL     1       1.195  10.859  15.951  1.00  0.00     0.113 C 
HETATM   22  C8  UNL     1       2.174  11.455  14.900  1.00  0.00     0.052 C 
BRANCH  21  23
HETATM   23  C6  UNL     1       1.517  11.494  17.351  1.00  0.00     0.173 C 
HETATM   24  O3  UNL     1       1.960  10.403  18.208  1.00  0.00    -0.309 OA
HETATM   25  C5  UNL     1       2.212  10.613  19.523  1.00  0.00     0.292 C 
HETATM   26  C3  UNL     1       1.725  11.893  20.110  1.00  0.00     0.042 C 
HETATM   27  O2  UNL     1       2.772   9.755  20.194  1.00  0.00    -0.260 OA
HETATM   28  C2  UNL     1       0.810  12.631  19.443  1.00  0.00    -0.067 C 
HETATM   29  C1  UNL     1       0.138  13.866  19.981  1.00  0.00     0.044 C 
HETATM   30  C28 UNL     1       0.387  12.245  18.045  1.00  0.00     0.070 C 
BRANCH  26  31
HETATM   31  C4  UNL     1       2.233  12.185  21.494  1.00  0.00     0.209 C 
BRANCH  31  32
HETATM   32  O1  UNL     1       3.442  12.936  21.415  1.00  0.00    -0.396 OA
HETATM   33  H6  UNL     1       3.269  13.721  20.872  1.00  0.00     0.209 HD
ENDBRANCH  31  32
ENDBRANCH  26  31
ENDBRANCH  21  23
BRANCH  21  34
HETATM   34  O4  UNL     1      -0.117  11.341  15.584  1.00  0.00    -0.384 OA
HETATM   35  H11 UNL     1      -0.096  12.314  15.710  1.00  0.00     0.210 HD
ENDBRANCH  21  34
ENDBRANCH   1  21
BRANCH   1  36
HETATM   36  O5  UNL     1       0.349   8.804  16.941  1.00  0.00    -0.386 OA
HETATM   37  H12 UNL     1      -0.547   8.629  16.621  1.00  0.00     0.210 HD
ENDBRANCH   1  36
BRANCH   4  38
HETATM   38  O6  UNL     1       2.971   9.456  13.487  1.00  0.00    -0.386 OA
HETATM   39  H17 UNL     1       2.745  10.201  14.083  1.00  0.00     0.210 HD
ENDBRANCH   4  38
BRANCH  20  40
HETATM   40  O8  UNL     1       1.784   6.046  12.882  1.00  0.00    -0.386 OA
HETATM   41  H38 UNL     1       2.497   5.507  13.262  1.00  0.00     0.210 HD
ENDBRANCH  20  40
TORSDOF 8
ENDMDL
MODEL 3
REMARK minimizedAffinity -9.37757874
REMARK CNNscore 0.666483939
REMARK CNNaffinity 5.81407881
REMARK  8 active torsions:
REMARK  status: ('A' for Active; 'I' for Inactive)
REMARK    1  A    between atoms: C3_3  and  C4_4 
REMARK    2  A    between atoms: C4_4  and  O1_5 
REMARK    3  A    between atoms: C6_9  and  C7_10 
REMARK    4  A    between atoms: C7_10  and  O4_12 
REMARK    5  A    between atoms: C7_10  and  C9_13 
REMARK    6  A    between atoms: C9_13  and  O5_14 
REMARK    7  A    between atoms: C12_17  and  O6_18 
REMARK    8  A    between atoms: C27_34  and  O8_35 
ROOT
HETATM    1  C9  UNL     1      -2.520   7.704  14.220  1.00  0.00     0.101 C 
HETATM    2  C10 UNL     1      -1.289   7.145  15.043  1.00  0.00     0.045 C 
HETATM    3  C11 UNL     1      -0.708   8.285  15.893  1.00  0.00     0.045 C 
HETATM    4  C12 UNL     1      -1.907   9.191  16.123  1.00  0.00     0.100 C 
HETATM    5  C13 UNL     1      -2.548   9.243  14.690  1.00  0.00     0.024 C 
HETATM    6  C14 UNL     1      -1.711  10.072  13.654  1.00  0.00     0.022 C 
HETATM    7  C15 UNL     1      -3.896   9.963  14.851  1.00  0.00     0.016 C 
HETATM    8  C16 UNL     1      -3.739  11.371  15.470  1.00  0.00     0.010 C 
HETATM    9  C17 UNL     1      -2.984  11.387  16.832  1.00  0.00     0.043 C 
HETATM   10  C18 UNL     1      -2.811  12.826  17.467  1.00  0.00     0.046 C 
HETATM   11  C19 UNL     1      -2.431  13.906  16.435  1.00  0.00     0.029 C 
HETATM   12  C20 UNL     1      -4.175  13.245  18.082  1.00  0.00     0.140 C 
HETATM   13  O7  UNL     1      -5.227  13.230  17.437  1.00  0.00    -0.297 OA
HETATM   14  C21 UNL     1      -4.198  13.696  19.531  1.00  0.00     0.080 C 
HETATM   15  C22 UNL     1      -3.070  14.686  19.766  1.00  0.00     0.012 C 
HETATM   16  C23 UNL     1      -1.699  14.078  19.469  1.00  0.00     0.035 C 
HETATM   17  C24 UNL     1      -1.787  12.827  18.619  1.00  0.00    -0.067 C 
HETATM   18  C25 UNL     1      -1.041  11.755  18.942  1.00  0.00    -0.020 C 
HETATM   19  C26 UNL     1      -1.062  10.456  18.194  1.00  0.00     0.069 C 
HETATM   20  C27 UNL     1      -1.636  10.592  16.761  1.00  0.00     0.098 C 
ENDROOT
BRANCH   1  21
HETATM   21  C7  UNL     1      -3.800   6.771  14.416  1.00  0.00     0.113 C 
HETATM   22  C8  UNL     1      -3.733   6.042  15.788  1.00  0.00     0.052 C 
BRANCH  21  23
HETATM   23  C6  UNL     1      -4.083   5.707  13.297  1.00  0.00     0.173 C 
HETATM   24  O3  UNL     1      -5.468   5.290  13.462  1.00  0.00    -0.309 OA
HETATM   25  C5  UNL     1      -5.987   4.291  12.707  1.00  0.00     0.292 C 
HETATM   26  C3  UNL     1      -5.023   3.447  11.946  1.00  0.00     0.042 C 
HETATM   27  O2  UNL     1      -7.192   4.077  12.701  1.00  0.00    -0.260 OA
HETATM   28  C2  UNL     1      -3.709   3.480  12.262  1.00  0.00    -0.067 C 
HETATM   29  C1  UNL     1      -2.656   2.583  11.668  1.00  0.00     0.044 C 
HETATM   30  C28 UNL     1      -3.190   4.471  13.275  1.00  0.00     0.070 C 
BRANCH  26  31
HETATM   31  C4  UNL     1      -5.652   2.518  10.945  1.00  0.00     0.209 C 
BRANCH  31  32
HETATM   32  O1  UNL     1      -5.406   2.996   9.625  1.00  0.00    -0.396 OA
HETATM   33  H6  UNL     1      -4.448   3.111   9.524  1.00  0.00     0.209 HD
ENDBRANCH  31  32
ENDBRANCH  26  31
ENDBRANCH  21  23
BRANCH  21  34
HETATM   34  O4  UNL     1      -4.972   7.613  14.476  1.00  0.00    -0.384 OA
HETATM   35  H11 UNL     1      -5.742   7.007  14.532  1.00  0.00     0.210 HD
ENDBRANCH  21  34
ENDBRANCH   1  21
BRANCH   1  36
HETATM   36  O5  UNL     1      -2.115   7.553  12.844  1.00  0.00    -0.386 OA
HETATM   37  H12 UNL     1      -2.476   8.270  12.305  1.00  0.00     0.210 HD
ENDBRANCH   1  36
BRANCH   4  38
HETATM   38  O6  UNL     1      -2.758   8.517  17.073  1.00  0.00    -0.386 OA
HETATM   39  H17 UNL     1      -3.256   7.785  16.652  1.00  0.00     0.210 HD
ENDBRANCH   4  38
BRANCH  20  40
HETATM   40  O8  UNL     1      -0.681  11.327  15.981  1.00  0.00    -0.386 OA
HETATM   41  H38 UNL     1       0.212  11.036  16.232  1.00  0.00     0.210 HD
ENDBRANCH  20  40
TORSDOF 8
ENDMDL
MODEL 4
REMARK minimizedAffinity -7.78440285
REMARK CNNscore 0.664026976
REMARK CNNaffinity 6.14983749
REMARK  8 active torsions:
REMARK  status: ('A' for Active; 'I' for Inactive)
REMARK    1  A    between atoms: C3_3  and  C4_4 
REMARK    2  A    between atoms: C4_4  and  O1_5 
REMARK    3  A    between atoms: C6_9  and  C7_10 
REMARK    4  A    between atoms: C7_10  and  O4_12 
REMARK    5  A    between atoms: C7_10  and  C9_13 
REMARK    6  A    between atoms: C9_13  and  O5_14 
REMARK    7  A    between atoms: C12_17  and  O6_18 
REMARK    8  A    between atoms: C27_34  and  O8_35 
ROOT
HETATM    1  C9  UNL     1      -6.041  -9.911   5.667  1.00  0.00     0.101 C 
HETATM    2  C10 UNL     1      -7.090 -11.063   5.940  1.00  0.00     0.045 C 
HETATM    3  C11 UNL     1      -7.121 -11.999   4.722  1.00  0.00     0.045 C 
HETATM    4  C12 UNL     1      -5.725 -11.854   4.138  1.00  0.00     0.100 C 
HETATM    5  C13 UNL     1      -5.515 -10.298   4.196  1.00  0.00     0.024 C 
HETATM    6  C14 UNL     1      -6.383  -9.505   3.157  1.00  0.00     0.022 C 
HETATM    7  C15 UNL     1      -4.043 -10.052   3.826  1.00  0.00     0.016 C 
HETATM    8  C16 UNL     1      -3.680 -10.639   2.443  1.00  0.00     0.010 C 
HETATM    9  C17 UNL     1      -3.999 -12.155   2.289  1.00  0.00     0.043 C 
HETATM   10  C18 UNL     1      -3.639 -12.759   0.873  1.00  0.00     0.046 C 
HETATM   11  C19 UNL     1      -4.021 -11.834  -0.300  1.00  0.00     0.029 C 
HETATM   12  C20 UNL     1      -2.099 -12.956   0.814  1.00  0.00     0.140 C 
HETATM   13  O7  UNL     1      -1.303 -12.046   1.061  1.00  0.00    -0.297 OA
HETATM   14  C21 UNL     1      -1.566 -14.324   0.428  1.00  0.00     0.080 C 
HETATM   15  C22 UNL     1      -2.313 -14.826  -0.795  1.00  0.00     0.012 C 
HETATM   16  C23 UNL     1      -3.816 -14.944  -0.544  1.00  0.00     0.035 C 
HETATM   17  C24 UNL     1      -4.271 -14.150   0.663  1.00  0.00    -0.067 C 
HETATM   18  C25 UNL     1      -5.132 -14.706   1.534  1.00  0.00    -0.020 C 
HETATM   19  C26 UNL     1      -5.632 -14.030   2.775  1.00  0.00     0.069 C 
HETATM   20  C27 UNL     1      -5.464 -12.490   2.734  1.00  0.00     0.098 C 
ENDROOT
BRANCH   1  21
HETATM   21  C7  UNL     1      -5.019  -9.779   6.886  1.00  0.00     0.113 C 
HETATM   22  C8  UNL     1      -4.288 -11.129   7.129  1.00  0.00     0.052 C 
BRANCH  21  23
HETATM   23  C6  UNL     1      -5.605  -9.273   8.253  1.00  0.00     0.173 C 
HETATM   24  O3  UNL     1      -4.650  -9.662   9.281  1.00  0.00    -0.309 OA
HETATM   25  C5  UNL     1      -4.924  -9.461  10.594  1.00  0.00     0.292 C 
HETATM   26  C3  UNL     1      -6.333  -9.129  10.948  1.00  0.00     0.042 C 
HETATM   27  O2  UNL     1      -4.050  -9.599  11.440  1.00  0.00    -0.260 OA
HETATM   28  C2  UNL     1      -7.319  -9.345  10.049  1.00  0.00    -0.067 C 
HETATM   29  C1  UNL     1      -8.790  -9.182  10.325  1.00  0.00     0.044 C 
HETATM   30  C28 UNL     1      -6.989  -9.780   8.641  1.00  0.00     0.070 C 
BRANCH  26  31
HETATM   31  C4  UNL     1      -6.536  -8.681  12.368  1.00  0.00     0.209 C 
BRANCH  31  32
HETATM   32  O1  UNL     1      -6.354  -7.271  12.459  1.00  0.00    -0.396 OA
HETATM   33  H6  UNL     1      -6.945  -6.852  11.814  1.00  0.00     0.209 HD
ENDBRANCH  31  32
ENDBRANCH  26  31
ENDBRANCH  21  23
BRANCH  21  34
HETATM   34  O4  UNL     1      -3.989  -8.835   6.516  1.00  0.00    -0.384 OA
HETATM   35  H11 UNL     1      -3.418  -8.729   7.308  1.00  0.00     0.210 HD
ENDBRANCH  21  34
ENDBRANCH   1  21
BRANCH   1  36
HETATM   36  O5  UNL     1      -6.836  -8.708   5.672  1.00  0.00    -0.386 OA
HETATM   37  H12 UNL     1      -6.478  -8.064   5.045  1.00  0.00     0.210 HD
ENDBRANCH   1  36
BRANCH   4  38
HETATM   38  O6  UNL     1      -4.830 -12.554   5.028  1.00  0.00    -0.386 OA
HETATM   39  H17 UNL     1      -4.660 -12.039   5.844  1.00  0.00     0.210 HD
ENDBRANCH   4  38
BRANCH  20  40
HETATM   40  O8  UNL     1      -6.393 -11.979   1.767  1.00  0.00    -0.386 OA
HETATM   41  H38 UNL     1      -7.223 -12.479   1.843  1.00  0.00     0.210 HD
ENDBRANCH  20  40
TORSDOF 8
ENDMDL
MODEL 5
REMARK minimizedAffinity -9.84449959
REMARK CNNscore 0.662893951
REMARK CNNaffinity 6.57777929
REMARK  8 active torsions:
REMARK  status: ('A' for Active; 'I' for Inactive)
REMARK    1  A    between atoms: C3_3  and  C4_4 
REMARK    2  A    between atoms: C4_4  and  O1_5 
REMARK    3  A    between atoms: C6_9  and  C7_10 
REMARK    4  A    between atoms: C7_10  and  O4_12 
REMARK    5  A    between atoms: C7_10  and  C9_13 
REMARK    6  A    between atoms: C9_13  and  O5_14 
REMARK    7  A    between atoms: C12_17  and  O6_18 
REMARK    8  A    between atoms: C27_34  and  O8_35 
ROOT
HETATM    1  C9  UNL     1      -5.938   6.567  15.290  1.00  0.00     0.101 C 
HETATM    2  C10 UNL     1      -5.970   8.136  15.489  1.00  0.00     0.045 C 
HETATM    3  C11 UNL     1      -4.574   8.699  15.182  1.00  0.00     0.045 C 
HETATM    4  C12 UNL     1      -4.006   7.695  14.192  1.00  0.00     0.100 C 
HETATM    5  C13 UNL     1      -4.406   6.329  14.857  1.00  0.00     0.024 C 
HETATM    6  C14 UNL     1      -3.591   5.998  16.156  1.00  0.00     0.022 C 
HETATM    7  C15 UNL     1      -4.067   5.238  13.829  1.00  0.00     0.016 C 
HETATM    8  C16 UNL     1      -2.579   5.269  13.410  1.00  0.00     0.010 C 
HETATM    9  C17 UNL     1      -2.097   6.648  12.870  1.00  0.00     0.043 C 
HETATM   10  C18 UNL     1      -0.573   6.689  12.448  1.00  0.00     0.046 C 
HETATM   11  C19 UNL     1       0.354   5.954  13.437  1.00  0.00     0.029 C 
HETATM   12  C20 UNL     1      -0.437   5.971  11.076  1.00  0.00     0.140 C 
HETATM   13  O7  UNL     1      -0.863   4.829  10.880  1.00  0.00    -0.297 OA
HETATM   14  C21 UNL     1       0.258   6.709   9.948  1.00  0.00     0.080 C 
HETATM   15  C22 UNL     1       1.545   7.325  10.468  1.00  0.00     0.012 C 
HETATM   16  C23 UNL     1       1.293   8.310  11.610  1.00  0.00     0.035 C 
HETATM   17  C24 UNL     1      -0.072   8.132  12.243  1.00  0.00    -0.067 C 
HETATM   18  C25 UNL     1      -0.815   9.217  12.525  1.00  0.00    -0.020 C 
HETATM   19  C26 UNL     1      -2.188   9.166  13.127  1.00  0.00     0.069 C 
HETATM   20  C27 UNL     1      -2.490   7.820  13.833  1.00  0.00     0.098 C 
ENDROOT
BRANCH   1  21
HETATM   21  C7  UNL     1      -7.131   6.095  14.341  1.00  0.00     0.113 C 
HETATM   22  C8  UNL     1      -6.848   6.505  12.868  1.00  0.00     0.052 C 
BRANCH  21  23
HETATM   23  C6  UNL     1      -8.577   6.575  14.725  1.00  0.00     0.173 C 
HETATM   24  O3  UNL     1      -9.328   6.664  13.480  1.00  0.00    -0.309 OA
HETATM   25  C5  UNL     1     -10.590   7.158  13.466  1.00  0.00     0.292 C 
HETATM   26  C3  UNL     1     -11.048   7.881  14.686  1.00  0.00     0.042 C 
HETATM   27  O2  UNL     1     -11.290   7.048  12.468  1.00  0.00    -0.260 OA
HETATM   28  C2  UNL     1     -10.142   8.294  15.600  1.00  0.00    -0.067 C 
HETATM   29  C1  UNL     1     -10.453   9.147  16.801  1.00  0.00     0.044 C 
HETATM   30  C28 UNL     1      -8.690   7.900  15.471  1.00  0.00     0.070 C 
BRANCH  26  31
HETATM   31  C4  UNL     1     -12.517   8.196  14.718  1.00  0.00     0.209 C 
BRANCH  31  32
HETATM   32  O1  UNL     1     -13.199   7.232  15.515  1.00  0.00    -0.396 OA
HETATM   33  H6  UNL     1     -12.771   7.209  16.385  1.00  0.00     0.209 HD
ENDBRANCH  31  32
ENDBRANCH  26  31
ENDBRANCH  21  23
BRANCH  21  34
HETATM   34  O4  UNL     1      -7.173   4.651  14.346  1.00  0.00    -0.384 OA
HETATM   35  H11 UNL     1      -7.954   4.398  13.807  1.00  0.00     0.210 HD
ENDBRANCH  21  34
ENDBRANCH   1  21
BRANCH   1  36
HETATM   36  O5  UNL     1      -6.230   6.043  16.600  1.00  0.00    -0.386 OA
HETATM   37  H12 UNL     1      -5.756   5.213  16.746  1.00  0.00     0.210 HD
ENDBRANCH   1  36
BRANCH   4  38
HETATM   38  O6  UNL     1      -4.695   7.911  12.942  1.00  0.00    -0.386 OA
HETATM   39  H17 UNL     1      -5.602   7.539  12.964  1.00  0.00     0.210 HD
ENDBRANCH   4  38
BRANCH  20  40
HETATM   40  O8  UNL     1      -1.683   7.764  15.018  1.00  0.00    -0.386 OA
HETATM   41  H38 UNL     1      -1.664   8.648  15.421  1.00  0.00     0.210 HD
ENDBRANCH  20  40
TORSDOF 8
ENDMDL
MODEL 6
REMARK minimizedAffinity -9.20815563
REMARK CNNscore 0.631209493
REMARK CNNaffinity 6.14616585
REMARK  8 active torsions:
REMARK  status: ('A' for Active; 'I' for Inactive)
REMARK    1  A    between atoms: C3_3  and  C4_4 
REMARK    2  A    between atoms: C4_4  and  O1_5 
REMARK    3  A    between atoms: C6_9  and  C7_10 
REMARK    4  A    between atoms: C7_10  and  O4_12 
REMARK    5  A    between atoms: C7_10  and  C9_13 
REMARK    6  A    between atoms: C9_13  and  O5_14 
REMARK    7  A    between atoms: C12_17  and  O6_18 
REMARK    8  A    between atoms: C27_34  and  O8_35 
ROOT
HETATM    1  C9  UNL     1      -0.410   7.459  13.435  1.00  0.00     0.101 C 
HETATM    2  C10 UNL     1      -1.065   8.282  12.254  1.00  0.00     0.045 C 
HETATM    3  C11 UNL     1      -2.042   9.306  12.850  1.00  0.00     0.045 C 
HETATM    4  C12 UNL     1      -1.465   9.572  14.231  1.00  0.00     0.100 C 
HETATM    5  C13 UNL     1      -1.122   8.119  14.719  1.00  0.00     0.024 C 
HETATM    6  C14 UNL     1      -2.385   7.253  15.059  1.00  0.00     0.022 C 
HETATM    7  C15 UNL     1      -0.330   8.283  16.026  1.00  0.00     0.016 C 
HETATM    8  C16 UNL     1      -1.114   9.086  17.090  1.00  0.00     0.010 C 
HETATM    9  C17 UNL     1      -1.597  10.484  16.605  1.00  0.00     0.043 C 
HETATM   10  C18 UNL     1      -2.408  11.307  17.686  1.00  0.00     0.046 C 
HETATM   11  C19 UNL     1      -3.413  10.448  18.479  1.00  0.00     0.029 C 
HETATM   12  C20 UNL     1      -1.391  11.882  18.712  1.00  0.00     0.140 C 
HETATM   13  O7  UNL     1      -0.570  11.173  19.300  1.00  0.00    -0.297 OA
HETATM   14  C21 UNL     1      -1.428  13.371  18.998  1.00  0.00     0.080 C 
HETATM   15  C22 UNL     1      -2.867  13.803  19.226  1.00  0.00     0.012 C 
HETATM   16  C23 UNL     1      -3.752  13.520  18.013  1.00  0.00     0.035 C 
HETATM   17  C24 UNL     1      -3.136  12.514  17.062  1.00  0.00    -0.067 C 
HETATM   18  C25 UNL     1      -3.178  12.745  15.738  1.00  0.00    -0.020 C 
HETATM   19  C26 UNL     1      -2.581  11.838  14.704  1.00  0.00     0.069 C 
HETATM   20  C27 UNL     1      -2.339  10.400  15.228  1.00  0.00     0.098 C 
ENDROOT
BRANCH   1  21
HETATM   21  C7  UNL     1       1.180   7.452  13.303  1.00  0.00     0.113 C 
HETATM   22  C8  UNL     1       1.792   8.668  14.055  1.00  0.00     0.052 C 
BRANCH  21  23
HETATM   23  C6  UNL     1       1.773   7.413  11.849  1.00  0.00     0.173 C 
HETATM   24  O3  UNL     1       0.828   8.122  10.997  1.00  0.00    -0.309 OA
HETATM   25  C5  UNL     1       1.005   8.168   9.654  1.00  0.00     0.292 C 
HETATM   26  C3  UNL     1       1.999   7.225   9.069  1.00  0.00     0.042 C 
HETATM   27  O2  UNL     1       0.334   8.924   8.964  1.00  0.00    -0.260 OA
HETATM   28  C2  UNL     1       2.440   6.176   9.800  1.00  0.00    -0.067 C 
HETATM   29  C1  UNL     1       3.333   5.080   9.286  1.00  0.00     0.044 C 
HETATM   30  C28 UNL     1       2.047   6.037  11.252  1.00  0.00     0.070 C 
BRANCH  26  31
HETATM   31  C4  UNL     1       2.334   7.477   7.626  1.00  0.00     0.209 C 
BRANCH  31  32
HETATM   32  O1  UNL     1       2.926   8.766   7.487  1.00  0.00    -0.396 OA
HETATM   33  H6  UNL     1       3.683   8.812   8.092  1.00  0.00     0.209 HD
ENDBRANCH  31  32
ENDBRANCH  26  31
ENDBRANCH  21  23
BRANCH  21  34
HETATM   34  O4  UNL     1       1.688   6.278  13.976  1.00  0.00    -0.384 OA
HETATM   35  H11 UNL     1       2.657   6.272  13.820  1.00  0.00     0.210 HD
ENDBRANCH  21  34
ENDBRANCH   1  21
BRANCH   1  36
HETATM   36  O5  UNL     1      -0.843   6.105  13.198  1.00  0.00    -0.386 OA
HETATM   37  H12 UNL     1      -0.972   5.639  14.036  1.00  0.00     0.210 HD
ENDBRANCH   1  36
BRANCH   4  38
HETATM   38  O6  UNL     1      -0.279  10.371  14.036  1.00  0.00    -0.386 OA
HETATM   39  H17 UNL     1       0.469   9.829  13.709  1.00  0.00     0.210 HD
ENDBRANCH   4  38
BRANCH  20  40
HETATM   40  O8  UNL     1      -3.623   9.784  15.407  1.00  0.00    -0.386 OA
HETATM   41  H38 UNL     1      -4.199  10.052  14.672  1.00  0.00     0.210 HD
ENDBRANCH  20  40
TORSDOF 8
ENDMDL
MODEL 7
REMARK minimizedAffinity -9.49130344
REMARK CNNscore 0.604586482
REMARK CNNaffinity 6.49970579
REMARK  8 active torsions:
REMARK  status: ('A' for Active; 'I' for Inactive)
REMARK    1  A    between atoms: C3_3  and  C4_4 
REMARK    2  A    between atoms: C4_4  and  O1_5 
REMARK    3  A    between atoms: C6_9  and  C7_10 
REMARK    4  A    between atoms: C7_10  and  O4_12 
REMARK    5  A    between atoms: C7_10  and  C9_13 
REMARK    6  A    between atoms: C9_13  and  O5_14 
REMARK    7  A    between atoms: C12_17  and  O6_18 
REMARK    8  A    between atoms: C27_34  and  O8_35 
ROOT
HETATM    1  C9  UNL     1       0.491   8.399  14.053  1.00  0.00     0.101 C 
HETATM    2  C10 UNL     1       0.429   8.453  15.633  1.00  0.00     0.045 C 
HETATM    3  C11 UNL     1      -1.021   8.208  16.077  1.00  0.00     0.045 C 
HETATM    4  C12 UNL     1      -1.589   7.361  14.950  1.00  0.00     0.100 C 
HETATM    5  C13 UNL     1      -1.049   8.113  13.681  1.00  0.00     0.024 C 
HETATM    6  C14 UNL     1      -1.741   9.497  13.424  1.00  0.00     0.022 C 
HETATM    7  C15 UNL     1      -1.386   7.216  12.478  1.00  0.00     0.016 C 
HETATM    8  C16 UNL     1      -2.899   6.916  12.377  1.00  0.00     0.010 C 
HETATM    9  C17 UNL     1      -3.513   6.294  13.666  1.00  0.00     0.043 C 
HETATM   10  C18 UNL     1      -5.063   5.993  13.572  1.00  0.00     0.046 C 
HETATM   11  C19 UNL     1      -5.862   7.114  12.878  1.00  0.00     0.029 C 
HETATM   12  C20 UNL     1      -5.250   4.707  12.720  1.00  0.00     0.140 C 
HETATM   13  O7  UNL     1      -4.762   4.580  11.594  1.00  0.00    -0.297 OA
HETATM   14  C21 UNL     1      -6.075   3.575  13.304  1.00  0.00     0.080 C 
HETATM   15  C22 UNL     1      -7.360   4.139  13.885  1.00  0.00     0.012 C 
HETATM   16  C23 UNL     1      -7.093   5.163  14.987  1.00  0.00     0.035 C 
HETATM   17  C24 UNL     1      -5.677   5.699  14.955  1.00  0.00    -0.067 C 
HETATM   18  C25 UNL     1      -4.991   5.823  16.106  1.00  0.00    -0.020 C 
HETATM   19  C26 UNL     1      -3.578   6.316  16.198  1.00  0.00     0.069 C 
HETATM   20  C27 UNL     1      -3.133   7.114  14.946  1.00  0.00     0.098 C 
ENDROOT
BRANCH   1  21
HETATM   21  C7  UNL     1       1.641   7.405  13.568  1.00  0.00     0.113 C 
HETATM   22  C8  UNL     1       3.040   7.964  13.954  1.00  0.00     0.052 C 
BRANCH  21  23
HETATM   23  C6  UNL     1       1.658   7.025  12.044  1.00  0.00     0.173 C 
HETATM   24  O3  UNL     1       3.002   6.550  11.750  1.00  0.00    -0.309 OA
HETATM   25  C5  UNL     1       3.367   6.245  10.480  1.00  0.00     0.292 C 
HETATM   26  C3  UNL     1       2.465   6.705   9.387  1.00  0.00     0.042 C 
HETATM   27  O2  UNL     1       4.420   5.661  10.259  1.00  0.00    -0.260 OA
HETATM   28  C2  UNL     1       1.528   7.645   9.642  1.00  0.00    -0.067 C 
HETATM   29  C1  UNL     1       0.648   8.291   8.605  1.00  0.00     0.044 C 
HETATM   30  C28 UNL     1       1.289   8.124  11.054  1.00  0.00     0.070 C 
BRANCH  26  31
HETATM   31  C4  UNL     1       2.781   6.141   8.030  1.00  0.00     0.209 C 
BRANCH  31  32
HETATM   32  O1  UNL     1       3.044   4.744   8.139  1.00  0.00    -0.396 OA
HETATM   33  H6  UNL     1       2.285   4.332   8.581  1.00  0.00     0.209 HD
ENDBRANCH  31  32
ENDBRANCH  26  31
ENDBRANCH  21  23
BRANCH  21  34
HETATM   34  O4  UNL     1       1.502   6.161  14.290  1.00  0.00    -0.384 OA
HETATM   35  H11 UNL     1       2.181   5.554  13.923  1.00  0.00     0.210 HD
ENDBRANCH  21  34
ENDBRANCH   1  21
BRANCH   1  36
HETATM   36  O5  UNL     1       0.914   9.724  13.675  1.00  0.00    -0.386 OA
HETATM   37  H12 UNL     1       0.510   9.981  12.834  1.00  0.00     0.210 HD
ENDBRANCH   1  36
BRANCH   4  38
HETATM   38  O6  UNL     1      -1.011   6.047  15.089  1.00  0.00    -0.386 OA
HETATM   39  H17 UNL     1      -0.081   6.029  14.778  1.00  0.00     0.210 HD
ENDBRANCH   4  38
BRANCH  20  40
HETATM   40  O8  UNL     1      -3.845   8.360  14.953  1.00  0.00    -0.386 OA
HETATM   41  H38 UNL     1      -3.895   8.682  15.868  1.00  0.00     0.210 HD
ENDBRANCH  20  40
TORSDOF 8
ENDMDL
MODEL 8
REMARK minimizedAffinity -9.80357552
REMARK CNNscore 0.515558183
REMARK CNNaffinity 6.68327665
REMARK  8 active torsions:
REMARK  status: ('A' for Active; 'I' for Inactive)
REMARK    1  A    between atoms: C3_3  and  C4_4 
REMARK    2  A    between atoms: C4_4  and  O1_5 
REMARK    3  A    between atoms: C6_9  and  C7_10 
REMARK    4  A    between atoms: C7_10  and  O4_12 
REMARK    5  A    between atoms: C7_10  and  C9_13 
REMARK    6  A    between atoms: C9_13  and  O5_14 
REMARK    7  A    between atoms: C12_17  and  O6_18 
REMARK    8  A    between atoms: C27_34  and  O8_35 
ROOT
HETATM    1  C9  UNL     1      -2.672   7.504  15.224  1.00  0.00     0.101 C 
HETATM    2  C10 UNL     1      -3.333   8.743  14.496  1.00  0.00     0.045 C 
HETATM    3  C11 UNL     1      -2.355   9.271  13.436  1.00  0.00     0.045 C 
HETATM    4  C12 UNL     1      -1.549   8.036  13.064  1.00  0.00     0.100 C 
HETATM    5  C13 UNL     1      -1.250   7.413  14.475  1.00  0.00     0.024 C 
HETATM    6  C14 UNL     1      -0.214   8.232  15.321  1.00  0.00     0.022 C 
HETATM    7  C15 UNL     1      -0.620   6.037  14.208  1.00  0.00     0.016 C 
HETATM    8  C16 UNL     1       0.651   6.134  13.333  1.00  0.00     0.010 C 
HETATM    9  C17 UNL     1       0.437   6.869  11.978  1.00  0.00     0.043 C 
HETATM   10  C18 UNL     1       1.736   6.981  11.082  1.00  0.00     0.046 C 
HETATM   11  C19 UNL     1       3.003   7.334  11.885  1.00  0.00     0.029 C 
HETATM   12  C20 UNL     1       1.985   5.594  10.426  1.00  0.00     0.140 C 
HETATM   13  O7  UNL     1       2.056   4.552  11.083  1.00  0.00    -0.297 OA
HETATM   14  C21 UNL     1       2.156   5.535   8.919  1.00  0.00     0.080 C 
HETATM   15  C22 UNL     1       3.121   6.623   8.481  1.00  0.00     0.012 C 
HETATM   16  C23 UNL     1       2.627   8.019   8.859  1.00  0.00     0.035 C 
HETATM   17  C24 UNL     1       1.556   7.988   9.929  1.00  0.00    -0.067 C 
HETATM   18  C25 UNL     1       0.468   8.770   9.798  1.00  0.00    -0.020 C 
HETATM   19  C26 UNL     1      -0.668   8.807  10.776  1.00  0.00     0.069 C 
HETATM   20  C27 UNL     1      -0.284   8.247  12.170  1.00  0.00     0.098 C 
ENDROOT
BRANCH   1  21
HETATM   21  C7  UNL     1      -3.668   6.257  15.231  1.00  0.00     0.113 C 
HETATM   22  C8  UNL     1      -3.060   5.073  14.428  1.00  0.00     0.052 C 
BRANCH  21  23
HETATM   23  C6  UNL     1      -5.130   6.512  14.717  1.00  0.00     0.173 C 
HETATM   24  O3  UNL     1      -5.946   6.761  15.897  1.00  0.00    -0.309 OA
HETATM   25  C5  UNL     1      -7.290   6.911  15.792  1.00  0.00     0.292 C 
HETATM   26  C3  UNL     1      -7.917   6.506  14.503  1.00  0.00     0.042 C 
HETATM   27  O2  UNL     1      -7.947   7.316  16.742  1.00  0.00    -0.260 OA
HETATM   28  C2  UNL     1      -7.226   5.735  13.633  1.00  0.00    -0.067 C 
HETATM   29  C1  UNL     1      -7.786   5.147  12.366  1.00  0.00     0.044 C 
HETATM   30  C28 UNL     1      -5.775   5.406  13.890  1.00  0.00     0.070 C 
BRANCH  26  31
HETATM   31  C4  UNL     1      -9.356   6.911  14.347  1.00  0.00     0.209 C 
BRANCH  31  32
HETATM   32  O1  UNL     1     -10.129   6.358  15.409  1.00  0.00    -0.396 OA
HETATM   33  H6  UNL     1      -9.721   6.628  16.246  1.00  0.00     0.209 HD
ENDBRANCH  31  32
ENDBRANCH  26  31
ENDBRANCH  21  23
BRANCH  21  34
HETATM   34  O4  UNL     1      -3.797   5.785  16.591  1.00  0.00    -0.384 OA
HETATM   35  H11 UNL     1      -4.462   5.063  16.568  1.00  0.00     0.210 HD
ENDBRANCH  21  34
ENDBRANCH   1  21
BRANCH   1  36
HETATM   36  O5  UNL     1      -2.548   7.932  16.595  1.00  0.00    -0.386 OA
HETATM   37  H12 UNL     1      -1.755   7.552  16.998  1.00  0.00     0.210 HD
ENDBRANCH   1  36
BRANCH   4  38
HETATM   38  O6  UNL     1      -2.418   7.198  12.274  1.00  0.00    -0.386 OA
HETATM   39  H17 UNL     1      -3.075   6.733  12.835  1.00  0.00     0.210 HD
ENDBRANCH   4  38
BRANCH  20  40
HETATM   40  O8  UNL     1       0.616   9.184  12.779  1.00  0.00    -0.386 OA
HETATM   41  H38 UNL     1       0.313  10.084  12.569  1.00  0.00     0.210 HD
ENDBRANCH  20  40
TORSDOF 8
ENDMDL
MODEL 9
REMARK minimizedAffinity -7.9436717
REMARK CNNscore 0.511530221
REMARK CNNaffinity 5.37326431
REMARK  8 active torsions:
REMARK  status: ('A' for Active; 'I' for Inactive)
REMARK    1  A    between atoms: C3_3  and  C4_4 
REMARK    2  A    between atoms: C4_4  and  O1_5 
REMARK    3  A    between atoms: C6_9  and  C7_10 
REMARK    4  A    between atoms: C7_10  and  O4_12 
REMARK    5  A    between atoms: C7_10  and  C9_13 
REMARK    6  A    between atoms: C9_13  and  O5_14 
REMARK    7  A    between atoms: C12_17  and  O6_18 
REMARK    8  A    between atoms: C27_34  and  O8_35 
ROOT
HETATM    1  C9  UNL     1       1.592  11.716  17.471  1.00  0.00     0.101 C 
HETATM    2  C10 UNL     1       0.409  12.754  17.636  1.00  0.00     0.045 C 
HETATM    3  C11 UNL     1      -0.704  12.395  16.642  1.00  0.00     0.045 C 
HETATM    4  C12 UNL     1      -0.532  10.895  16.456  1.00  0.00     0.100 C 
HETATM    5  C13 UNL     1       1.026  10.770  16.297  1.00  0.00     0.024 C 
HETATM    6  C14 UNL     1       1.568  11.328  14.935  1.00  0.00     0.022 C 
HETATM    7  C15 UNL     1       1.338   9.265  16.318  1.00  0.00     0.016 C 
HETATM    8  C16 UNL     1       0.576   8.494  15.216  1.00  0.00     0.010 C 
HETATM    9  C17 UNL     1      -0.968   8.697  15.247  1.00  0.00     0.043 C 
HETATM   10  C18 UNL     1      -1.753   7.918  14.116  1.00  0.00     0.046 C 
HETATM   11  C19 UNL     1      -1.060   7.976  12.740  1.00  0.00     0.029 C 
HETATM   12  C20 UNL     1      -1.822   6.420  14.527  1.00  0.00     0.140 C 
HETATM   13  O7  UNL     1      -0.819   5.766  14.823  1.00  0.00    -0.297 OA
HETATM   14  C21 UNL     1      -3.182   5.747  14.551  1.00  0.00     0.080 C 
HETATM   15  C22 UNL     1      -3.933   6.086  13.275  1.00  0.00     0.012 C 
HETATM   16  C23 UNL     1      -4.140   7.592  13.111  1.00  0.00     0.035 C 
HETATM   17  C24 UNL     1      -3.209   8.407  13.984  1.00  0.00    -0.067 C 
HETATM   18  C25 UNL     1      -3.694   9.463  14.662  1.00  0.00    -0.020 C 
HETATM   19  C26 UNL     1      -2.878  10.327  15.576  1.00  0.00     0.069 C 
HETATM   20  C27 UNL     1      -1.355  10.214  15.315  1.00  0.00     0.098 C 
ENDROOT
BRANCH   1  21
HETATM   21  C7  UNL     1       2.001  11.098  18.884  1.00  0.00     0.113 C 
HETATM   22  C8  UNL     1       0.818  11.209  19.887  1.00  0.00     0.052 C 
BRANCH  21  23
HETATM   23  C6  UNL     1       3.292  11.677  19.567  1.00  0.00     0.173 C 
HETATM   24  O3  UNL     1       4.427  11.048  18.906  1.00  0.00    -0.309 OA
HETATM   25  C5  UNL     1       5.691  11.263  19.347  1.00  0.00     0.292 C 
HETATM   26  C3  UNL     1       5.843  11.894  20.688  1.00  0.00     0.042 C 
HETATM   27  O2  UNL     1       6.652  10.902  18.679  1.00  0.00    -0.260 OA
HETATM   28  C2  UNL     1       4.788  11.937  21.532  1.00  0.00    -0.067 C 
HETATM   29  C1  UNL     1       4.841  12.421  22.956  1.00  0.00     0.044 C 
HETATM   30  C28 UNL     1       3.422  11.486  21.073  1.00  0.00     0.070 C 
BRANCH  26  31
HETATM   31  C4  UNL     1       7.242  12.329  21.025  1.00  0.00     0.209 C 
BRANCH  31  32
HETATM   32  O1  UNL     1       7.416  13.701  20.680  1.00  0.00    -0.396 OA
HETATM   33  H6  UNL     1       6.717  14.209  21.121  1.00  0.00     0.209 HD
ENDBRANCH  31  32
ENDBRANCH  26  31
ENDBRANCH  21  23
BRANCH  21  34
HETATM   34  O4  UNL     1       2.239   9.683  18.712  1.00  0.00    -0.384 OA
HETATM   35  H11 UNL     1       2.549   9.350  19.581  1.00  0.00     0.210 HD
ENDBRANCH  21  34
ENDBRANCH   1  21
BRANCH   1  36
HETATM   36  O5  UNL     1       2.707  12.523  17.043  1.00  0.00    -0.386 OA
HETATM   37  H12 UNL     1       3.274  12.023  16.438  1.00  0.00     0.210 HD
ENDBRANCH   1  36
BRANCH   4  38
HETATM   38  O6  UNL     1      -1.004  10.272  17.669  1.00  0.00    -0.386 OA
HETATM   39  H17 UNL     1      -0.355  10.366  18.397  1.00  0.00     0.210 HD
ENDBRANCH   4  38
BRANCH  20  40
HETATM   40  O8  UNL     1      -1.085  10.840  14.053  1.00  0.00    -0.386 OA
HETATM   41  H38 UNL     1      -1.636  11.637  13.980  1.00  0.00     0.210 HD
ENDBRANCH  20  40
TORSDOF 8
ENDMDL
