MODEL 1
REMARK minimizedAffinity -8.14372826
REMARK CNNscore 0.523666263
REMARK CNNaffinity 7.53294134
REMARK  6 active torsions:
REMARK  status: ('A' for Active; 'I' for Inactive)
REMARK    1  A    between atoms: C2_2  and  C4_4 
REMARK    2  A    between atoms: C4_4  and  O1_5 
REMARK    3  A    between atoms: C4_4  and  C5_6 
REMARK    4  A    between atoms: C5_6  and  C6_7 
REMARK    5  A    between atoms: C6_7  and  C7_8 
REMARK    6  A    between atoms: C7_8  and  C9_10 
ROOT
HETATM    1  C9  UNL     1       0.261   6.901  12.599  1.00  0.00    -0.001 C 
HETATM    2  C10 UNL     1       0.538   5.678  13.520  1.00  0.00     0.007 C 
HETATM    3  C11 UNL     1      -0.699   5.478  14.412  1.00  0.00     0.024 C 
HETATM    4  C12 UNL     1      -1.731   6.423  13.841  1.00  0.00     0.092 C 
HETATM    5  C13 UNL     1      -2.533   5.767  12.684  1.00  0.00     0.272 C 
HETATM    6  O2  UNL     1      -2.179   4.863  11.948  1.00  0.00    -0.264 OA
HETATM    7  O3  UNL     1      -3.768   6.386  12.602  1.00  0.00    -0.305 OA
HETATM    8  C14 UNL     1      -3.851   7.399  13.632  1.00  0.00     0.113 C 
HETATM    9  C15 UNL     1      -3.248   8.703  13.018  1.00  0.00     0.043 C 
HETATM   10  C16 UNL     1      -1.838   8.497  12.395  1.00  0.00     0.014 C 
HETATM   11  C17 UNL     1      -0.912   7.649  13.308  1.00  0.00    -0.020 C 
HETATM   12  C18 UNL     1      -0.391   8.565  14.438  1.00  0.00     0.017 C 
HETATM   13  C19 UNL     1      -2.891   6.855  14.649  1.00  0.00     0.137 A 
HETATM   14  O4  UNL     1      -2.748   7.451  15.925  1.00  0.00    -0.364 OA
HETATM   15  C20 UNL     1      -3.352   6.143  15.903  1.00  0.00     0.162 A 
HETATM   16  C21 UNL     1      -4.812   6.109  16.244  1.00  0.00     0.042 C 
HETATM   17  C22 UNL     1      -5.660   6.182  14.955  1.00  0.00     0.014 C 
HETATM   18  C23 UNL     1      -7.176   5.831  15.130  1.00  0.00     0.018 C 
HETATM   19  C24 UNL     1      -7.329   4.390  15.668  1.00  0.00     0.023 C 
HETATM   20  C25 UNL     1      -7.954   6.774  16.057  1.00  0.00     0.023 C 
HETATM   21  C26 UNL     1      -7.857   5.864  13.751  1.00  0.00     0.135 C 
HETATM   22  O5  UNL     1      -9.024   5.501  13.594  1.00  0.00    -0.297 OA
HETATM   23  C27 UNL     1      -7.038   6.344  12.576  1.00  0.00     0.080 C 
HETATM   24  C28 UNL     1      -6.338   7.642  12.953  1.00  0.00     0.020 C 
HETATM   25  C29 UNL     1      -5.341   7.508  14.147  1.00  0.00    -0.004 C 
HETATM   26  C30 UNL     1      -5.485   8.795  15.002  1.00  0.00     0.019 C 
ENDROOT
BRANCH   1  27
HETATM   27  C7  UNL     1       1.559   7.614  12.112  1.00  0.00    -0.014 C 
HETATM   28  C8  UNL     1       2.174   8.655  13.057  1.00  0.00     0.010 C 
BRANCH  27  29
HETATM   29  C6  UNL     1       1.387   8.191  10.691  1.00  0.00     0.007 C 
BRANCH  29  30
HETATM   30  C5  UNL     1       2.626   8.124   9.780  1.00  0.00     0.036 C 
BRANCH  30  31
HETATM   31  C4  UNL     1       2.336   8.330   8.285  1.00  0.00     0.146 C 
BRANCH  31  32
HETATM   32  C2  UNL     1       2.272   7.028   7.511  1.00  0.00    -0.065 C 
HETATM   33  C1  UNL     1       2.756   5.885   8.029  1.00  0.00     0.016 C 
HETATM   34  C3  UNL     1       1.643   7.038   6.144  1.00  0.00     0.045 C 
ENDBRANCH  31  32
BRANCH  31  35
HETATM   35  O1  UNL     1       3.320   9.173   7.695  1.00  0.00    -0.391 OA
HETATM   36  H7  UNL     1       4.192   8.814   7.920  1.00  0.00     0.210 HD
ENDBRANCH  31  35
ENDBRANCH  30  31
ENDBRANCH  29  30
ENDBRANCH  27  29
ENDBRANCH   1  27
TORSDOF 6
ENDMDL
MODEL 2
REMARK minimizedAffinity -7.23603535
REMARK CNNscore 0.402540028
REMARK CNNaffinity 6.4485364
REMARK  6 active torsions:
REMARK  status: ('A' for Active; 'I' for Inactive)
REMARK    1  A    between atoms: C2_2  and  C4_4 
REMARK    2  A    between atoms: C4_4  and  O1_5 
REMARK    3  A    between atoms: C4_4  and  C5_6 
REMARK    4  A    between atoms: C5_6  and  C6_7 
REMARK    5  A    between atoms: C6_7  and  C7_8 
REMARK    6  A    between atoms: C7_8  and  C9_10 
ROOT
HETATM    1  C9  UNL     1      -3.480  12.604  16.766  1.00  0.00    -0.001 C 
HETATM    2  C10 UNL     1      -2.155  13.283  17.217  1.00  0.00     0.007 C 
HETATM    3  C11 UNL     1      -0.994  12.370  16.783  1.00  0.00     0.024 C 
HETATM    4  C12 UNL     1      -1.646  11.324  15.909  1.00  0.00     0.092 C 
HETATM    5  C13 UNL     1      -1.750  11.793  14.432  1.00  0.00     0.272 C 
HETATM    6  O2  UNL     1      -1.796  12.936  14.012  1.00  0.00    -0.264 OA
HETATM    7  O3  UNL     1      -1.787  10.674  13.619  1.00  0.00    -0.305 OA
HETATM    8  C14 UNL     1      -1.700   9.491  14.450  1.00  0.00     0.113 C 
HETATM    9  C15 UNL     1      -3.164   9.137  14.867  1.00  0.00     0.043 C 
HETATM   10  C16 UNL     1      -3.937  10.336  15.487  1.00  0.00     0.014 C 
HETATM   11  C17 UNL     1      -3.076  11.117  16.516  1.00  0.00    -0.020 C 
HETATM   12  C18 UNL     1      -3.062  10.311  17.833  1.00  0.00     0.017 C 
HETATM   13  C19 UNL     1      -0.976  10.033  15.647  1.00  0.00     0.137 A 
HETATM   14  O4  UNL     1      -0.528   9.184  16.687  1.00  0.00    -0.364 OA
HETATM   15  C20 UNL     1       0.501   9.791  15.881  1.00  0.00     0.162 A 
HETATM   16  C21 UNL     1       1.250   8.848  14.987  1.00  0.00     0.042 C 
HETATM   17  C22 UNL     1       0.602   8.817  13.586  1.00  0.00     0.014 C 
HETATM   18  C23 UNL     1       1.460   8.136  12.466  1.00  0.00     0.018 C 
HETATM   19  C24 UNL     1       2.807   8.876  12.305  1.00  0.00     0.023 C 
HETATM   20  C25 UNL     1       1.755   6.647  12.695  1.00  0.00     0.023 C 
HETATM   21  C26 UNL     1       0.720   8.264  11.124  1.00  0.00     0.135 C 
HETATM   22  O5  UNL     1       1.239   7.921  10.061  1.00  0.00    -0.297 OA
HETATM   23  C27 UNL     1      -0.674   8.847  11.145  1.00  0.00     0.080 C 
HETATM   24  C28 UNL     1      -1.484   8.163  12.237  1.00  0.00     0.020 C 
HETATM   25  C29 UNL     1      -0.913   8.361  13.677  1.00  0.00    -0.004 C 
HETATM   26  C30 UNL     1      -1.102   7.015  14.426  1.00  0.00     0.019 C 
ENDROOT
BRANCH   1  27
HETATM   27  C7  UNL     1      -4.711  13.023  17.627  1.00  0.00    -0.014 C 
HETATM   28  C8  UNL     1      -5.762  13.909  16.948  1.00  0.00     0.010 C 
BRANCH  27  29
HETATM   29  C6  UNL     1      -4.274  13.621  18.981  1.00  0.00     0.007 C 
BRANCH  29  30
HETATM   30  C5  UNL     1      -4.987  13.065  20.227  1.00  0.00     0.036 C 
BRANCH  30  31
HETATM   31  C4  UNL     1      -6.190  13.895  20.702  1.00  0.00     0.146 C 
BRANCH  31  32
HETATM   32  C2  UNL     1      -6.306  13.953  22.213  1.00  0.00    -0.065 C 
HETATM   33  C1  UNL     1      -5.554  14.801  22.938  1.00  0.00     0.016 C 
HETATM   34  C3  UNL     1      -7.295  13.042  22.890  1.00  0.00     0.045 C 
ENDBRANCH  31  32
BRANCH  31  35
HETATM   35  O1  UNL     1      -7.401  13.376  20.163  1.00  0.00    -0.391 OA
HETATM   36  H7  UNL     1      -7.429  12.426  20.356  1.00  0.00     0.210 HD
ENDBRANCH  31  35
ENDBRANCH  30  31
ENDBRANCH  29  30
ENDBRANCH  27  29
ENDBRANCH   1  27
TORSDOF 6
ENDMDL
MODEL 3
REMARK minimizedAffinity -8.80405426
REMARK CNNscore 0.355495244
REMARK CNNaffinity 6.8086648
REMARK  6 active torsions:
REMARK  status: ('A' for Active; 'I' for Inactive)
REMARK    1  A    between atoms: C2_2  and  C4_4 
REMARK    2  A    between atoms: C4_4  and  O1_5 
REMARK    3  A    between atoms: C4_4  and  C5_6 
REMARK    4  A    between atoms: C5_6  and  C6_7 
REMARK    5  A    between atoms: C6_7  and  C7_8 
REMARK    6  A    between atoms: C7_8  and  C9_10 
ROOT
HETATM    1  C9  UNL     1      -5.372   7.434  14.601  1.00  0.00    -0.001 C 
HETATM    2  C10 UNL     1      -5.035   8.740  15.377  1.00  0.00     0.007 C 
HETATM    3  C11 UNL     1      -3.506   8.911  15.358  1.00  0.00     0.024 C 
HETATM    4  C12 UNL     1      -3.021   7.850  14.397  1.00  0.00     0.092 C 
HETATM    5  C13 UNL     1      -3.036   8.355  12.929  1.00  0.00     0.272 C 
HETATM    6  O2  UNL     1      -3.738   9.226  12.445  1.00  0.00    -0.264 OA
HETATM    7  O3  UNL     1      -2.096   7.639  12.210  1.00  0.00    -0.305 OA
HETATM    8  C14 UNL     1      -1.443   6.702  13.100  1.00  0.00     0.113 C 
HETATM    9  C15 UNL     1      -2.316   5.406  13.091  1.00  0.00     0.043 C 
HETATM   10  C16 UNL     1      -3.820   5.672  13.385  1.00  0.00     0.014 C 
HETATM   11  C17 UNL     1      -4.019   6.654  14.571  1.00  0.00    -0.020 C 
HETATM   12  C18 UNL     1      -3.797   5.867  15.881  1.00  0.00     0.017 C 
HETATM   13  C19 UNL     1      -1.616   7.392  14.421  1.00  0.00     0.137 A 
HETATM   14  O4  UNL     1      -0.996   6.905  15.596  1.00  0.00    -0.364 OA
HETATM   15  C20 UNL     1      -0.495   8.158  15.090  1.00  0.00     0.162 A 
HETATM   16  C21 UNL     1       0.888   8.106  14.514  1.00  0.00     0.042 C 
HETATM   17  C22 UNL     1       0.820   7.873  12.989  1.00  0.00     0.014 C 
HETATM   18  C23 UNL     1       2.157   8.120  12.212  1.00  0.00     0.018 C 
HETATM   19  C24 UNL     1       2.622   9.581  12.407  1.00  0.00     0.023 C 
HETATM   20  C25 UNL     1       3.313   7.191  12.607  1.00  0.00     0.023 C 
HETATM   21  C26 UNL     1       1.901   7.933  10.707  1.00  0.00     0.135 C 
HETATM   22  O5  UNL     1       2.762   8.193   9.865  1.00  0.00    -0.297 OA
HETATM   23  C27 UNL     1       0.540   7.430  10.285  1.00  0.00     0.080 C 
HETATM   24  C28 UNL     1       0.170   6.221  11.132  1.00  0.00     0.020 C 
HETATM   25  C29 UNL     1       0.063   6.519  12.661  1.00  0.00    -0.004 C 
HETATM   26  C30 UNL     1       0.657   5.292  13.402  1.00  0.00     0.019 C 
ENDROOT
BRANCH   1  27
HETATM   27  C7  UNL     1      -6.722   6.788  15.038  1.00  0.00    -0.014 C 
HETATM   28  C8  UNL     1      -7.211   7.098  16.458  1.00  0.00     0.010 C 
BRANCH  27  29
HETATM   29  C6  UNL     1      -6.733   5.268  14.768  1.00  0.00     0.007 C 
BRANCH  29  30
HETATM   30  C5  UNL     1      -7.226   4.833  13.376  1.00  0.00     0.036 C 
BRANCH  30  31
HETATM   31  C4  UNL     1      -7.353   3.313  13.186  1.00  0.00     0.146 C 
BRANCH  31  32
HETATM   32  C2  UNL     1      -6.431   2.774  12.111  1.00  0.00    -0.065 C 
HETATM   33  C1  UNL     1      -5.531   3.567  11.502  1.00  0.00     0.016 C 
HETATM   34  C3  UNL     1      -6.536   1.319  11.742  1.00  0.00     0.045 C 
ENDBRANCH  31  32
BRANCH  31  35
HETATM   35  O1  UNL     1      -8.695   2.958  12.869  1.00  0.00    -0.391 OA
HETATM   36  H7  UNL     1      -8.980   3.511  12.125  1.00  0.00     0.210 HD
ENDBRANCH  31  35
ENDBRANCH  30  31
ENDBRANCH  29  30
ENDBRANCH  27  29
ENDBRANCH   1  27
TORSDOF 6
ENDMDL
MODEL 4
REMARK minimizedAffinity -6.94860506
REMARK CNNscore 0.303344041
REMARK CNNaffinity 6.56283569
REMARK  6 active torsions:
REMARK  status: ('A' for Active; 'I' for Inactive)
REMARK    1  A    between atoms: C2_2  and  C4_4 
REMARK    2  A    between atoms: C4_4  and  O1_5 
REMARK    3  A    between atoms: C4_4  and  C5_6 
REMARK    4  A    between atoms: C5_6  and  C6_7 
REMARK    5  A    between atoms: C6_7  and  C7_8 
REMARK    6  A    between atoms: C7_8  and  C9_10 
ROOT
HETATM    1  C9  UNL     1      -9.700   7.879  14.688  1.00  0.00    -0.001 C 
HETATM    2  C10 UNL     1     -10.763   6.745  14.616  1.00  0.00     0.007 C 
HETATM    3  C11 UNL     1     -12.146   7.392  14.807  1.00  0.00     0.024 C 
HETATM    4  C12 UNL     1     -11.876   8.878  14.756  1.00  0.00     0.092 C 
HETATM    5  C13 UNL     1     -11.893   9.415  13.299  1.00  0.00     0.272 C 
HETATM    6  O2  UNL     1     -11.662   8.800  12.272  1.00  0.00    -0.264 OA
HETATM    7  O3  UNL     1     -12.222  10.758  13.331  1.00  0.00    -0.305 OA
HETATM    8  C14 UNL     1     -12.441  11.152  14.707  1.00  0.00     0.113 C 
HETATM    9  C15 UNL     1     -11.045  11.564  15.274  1.00  0.00     0.043 C 
HETATM   10  C16 UNL     1      -9.945  10.487  15.053  1.00  0.00     0.014 C 
HETATM   11  C17 UNL     1     -10.452   9.057  15.385  1.00  0.00    -0.020 C 
HETATM   12  C18 UNL     1     -10.445   8.896  16.921  1.00  0.00     0.017 C 
HETATM   13  C19 UNL     1     -12.844   9.843  15.320  1.00  0.00     0.137 A 
HETATM   14  O4  UNL     1     -13.306   9.763  16.655  1.00  0.00    -0.364 OA
HETATM   15  C20 UNL     1     -14.285   9.501  15.632  1.00  0.00     0.162 A 
HETATM   16  C21 UNL     1     -15.347  10.549  15.481  1.00  0.00     0.042 C 
HETATM   17  C22 UNL     1     -14.937  11.568  14.396  1.00  0.00     0.014 C 
HETATM   18  C23 UNL     1     -16.080  12.520  13.905  1.00  0.00     0.018 C 
HETATM   19  C24 UNL     1     -17.242  11.693  13.309  1.00  0.00     0.023 C 
HETATM   20  C25 UNL     1     -16.655  13.447  14.985  1.00  0.00     0.023 C 
HETATM   21  C26 UNL     1     -15.538  13.406  12.770  1.00  0.00     0.135 C 
HETATM   22  O5  UNL     1     -16.272  14.157  12.125  1.00  0.00    -0.297 OA
HETATM   23  C27 UNL     1     -14.063  13.315  12.454  1.00  0.00     0.080 C 
HETATM   24  C28 UNL     1     -13.269  13.411  13.749  1.00  0.00     0.020 C 
HETATM   25  C29 UNL     1     -13.563  12.263  14.766  1.00  0.00    -0.004 C 
HETATM   26  C30 UNL     1     -13.562  12.902  16.180  1.00  0.00     0.019 C 
ENDROOT
BRANCH   1  27
HETATM   27  C7  UNL     1      -8.293   7.378  15.137  1.00  0.00    -0.014 C 
HETATM   28  C8  UNL     1      -7.078   8.085  14.525  1.00  0.00     0.010 C 
BRANCH  27  29
HETATM   29  C6  UNL     1      -8.170   5.845  14.996  1.00  0.00     0.007 C 
BRANCH  29  30
HETATM   30  C5  UNL     1      -7.609   5.333  13.657  1.00  0.00     0.036 C 
BRANCH  30  31
HETATM   31  C4  UNL     1      -7.360   3.818  13.604  1.00  0.00     0.146 C 
BRANCH  31  32
HETATM   32  C2  UNL     1      -6.200   3.443  12.701  1.00  0.00    -0.065 C 
HETATM   33  C1  UNL     1      -6.304   2.435  11.816  1.00  0.00     0.016 C 
HETATM   34  C3  UNL     1      -4.925   4.234  12.809  1.00  0.00     0.045 C 
ENDBRANCH  31  32
BRANCH  31  35
HETATM   35  O1  UNL     1      -8.529   3.132  13.168  1.00  0.00    -0.391 OA
HETATM   36  H7  UNL     1      -8.828   3.550  12.346  1.00  0.00     0.210 HD
ENDBRANCH  31  35
ENDBRANCH  30  31
ENDBRANCH  29  30
ENDBRANCH  27  29
ENDBRANCH   1  27
TORSDOF 6
ENDMDL
MODEL 5
REMARK minimizedAffinity -6.7975769
REMARK CNNscore 0.260621846
REMARK CNNaffinity 6.49954367
REMARK  6 active torsions:
REMARK  status: ('A' for Active; 'I' for Inactive)
REMARK    1  A    between atoms: C2_2  and  C4_4 
REMARK    2  A    between atoms: C4_4  and  O1_5 
REMARK    3  A    between atoms: C4_4  and  C5_6 
REMARK    4  A    between atoms: C5_6  and  C6_7 
REMARK    5  A    between atoms: C6_7  and  C7_8 
REMARK    6  A    between atoms: C7_8  and  C9_10 
ROOT
HETATM    1  C9  UNL     1     -11.845   7.100  13.621  1.00  0.00    -0.001 C 
HETATM    2  C10 UNL     1     -12.754   6.094  14.385  1.00  0.00     0.007 C 
HETATM    3  C11 UNL     1     -13.985   6.869  14.886  1.00  0.00     0.024 C 
HETATM    4  C12 UNL     1     -13.876   8.221  14.218  1.00  0.00     0.092 C 
HETATM    5  C13 UNL     1     -14.525   8.219  12.807  1.00  0.00     0.272 C 
HETATM    6  O2  UNL     1     -14.684   7.270  12.059  1.00  0.00    -0.264 OA
HETATM    7  O3  UNL     1     -14.916   9.510  12.504  1.00  0.00    -0.305 OA
HETATM    8  C14 UNL     1     -14.586  10.372  13.619  1.00  0.00     0.113 C 
HETATM    9  C15 UNL     1     -13.117  10.849  13.388  1.00  0.00     0.043 C 
HETATM   10  C16 UNL     1     -12.122   9.682  13.126  1.00  0.00     0.014 C 
HETATM   11  C17 UNL     1     -12.337   8.499  14.108  1.00  0.00    -0.020 C 
HETATM   12  C18 UNL     1     -11.694   8.881  15.460  1.00  0.00     0.017 C 
HETATM   13  C19 UNL     1     -14.602   9.391  14.755  1.00  0.00     0.137 A 
HETATM   14  O4  UNL     1     -14.474   9.814  16.099  1.00  0.00    -0.364 OA
HETATM   15  C20 UNL     1     -15.761   9.288  15.723  1.00  0.00     0.162 A 
HETATM   16  C21 UNL     1     -16.870  10.295  15.665  1.00  0.00     0.042 C 
HETATM   17  C22 UNL     1     -17.018  10.840  14.228  1.00  0.00     0.014 C 
HETATM   18  C23 UNL     1     -18.332  11.647  13.949  1.00  0.00     0.018 C 
HETATM   19  C24 UNL     1     -19.567  10.753  14.204  1.00  0.00     0.023 C 
HETATM   20  C25 UNL     1     -18.488  12.930  14.776  1.00  0.00     0.023 C 
HETATM   21  C26 UNL     1     -18.368  12.041  12.463  1.00  0.00     0.135 C 
HETATM   22  O5  UNL     1     -19.357  12.574  11.956  1.00  0.00    -0.297 OA
HETATM   23  C27 UNL     1     -17.147  11.735  11.627  1.00  0.00     0.080 C 
HETATM   24  C28 UNL     1     -15.905  12.214  12.365  1.00  0.00     0.020 C 
HETATM   25  C29 UNL     1     -15.670  11.515  13.741  1.00  0.00    -0.004 C 
HETATM   26  C30 UNL     1     -15.144  12.603  14.715  1.00  0.00     0.019 C 
ENDROOT
BRANCH   1  27
HETATM   27  C7  UNL     1     -10.343   6.681  13.601  1.00  0.00    -0.014 C 
HETATM   28  C8  UNL     1      -9.397   7.452  14.530  1.00  0.00     0.010 C 
BRANCH  27  29
HETATM   29  C6  UNL     1      -9.789   6.636  12.160  1.00  0.00     0.007 C 
BRANCH  29  30
HETATM   30  C5  UNL     1      -8.673   5.609  11.898  1.00  0.00     0.036 C 
BRANCH  30  31
HETATM   31  C4  UNL     1      -8.269   4.773  13.123  1.00  0.00     0.146 C 
BRANCH  31  32
HETATM   32  C2  UNL     1      -6.767   4.678  13.303  1.00  0.00    -0.065 C 
HETATM   33  C1  UNL     1      -6.065   3.656  12.781  1.00  0.00     0.016 C 
HETATM   34  C3  UNL     1      -6.070   5.766  14.075  1.00  0.00     0.045 C 
ENDBRANCH  31  32
BRANCH  31  35
HETATM   35  O1  UNL     1      -8.810   3.459  13.033  1.00  0.00    -0.391 OA
HETATM   36  H7  UNL     1      -8.570   3.098  12.166  1.00  0.00     0.210 HD
ENDBRANCH  31  35
ENDBRANCH  30  31
ENDBRANCH  29  30
ENDBRANCH  27  29
ENDBRANCH   1  27
TORSDOF 6
ENDMDL
MODEL 6
REMARK minimizedAffinity -6.59845448
REMARK CNNscore 0.246015772
REMARK CNNaffinity 5.38945007
REMARK  6 active torsions:
REMARK  status: ('A' for Active; 'I' for Inactive)
REMARK    1  A    between atoms: C2_2  and  C4_4 
REMARK    2  A    between atoms: C4_4  and  O1_5 
REMARK    3  A    between atoms: C4_4  and  C5_6 
REMARK    4  A    between atoms: C5_6  and  C6_7 
REMARK    5  A    between atoms: C6_7  and  C7_8 
REMARK    6  A    between atoms: C7_8  and  C9_10 
ROOT
HETATM    1  C9  UNL     1       8.025  14.617  22.893  1.00  0.00    -0.001 C 
HETATM    2  C10 UNL     1       7.621  15.076  21.462  1.00  0.00     0.007 C 
HETATM    3  C11 UNL     1       7.688  16.613  21.431  1.00  0.00     0.024 C 
HETATM    4  C12 UNL     1       8.336  16.988  22.744  1.00  0.00     0.092 C 
HETATM    5  C13 UNL     1       9.886  16.978  22.643  1.00  0.00     0.272 C 
HETATM    6  O2  UNL     1      10.581  16.337  21.874  1.00  0.00    -0.264 OA
HETATM    7  O3  UNL     1      10.392  17.841  23.598  1.00  0.00    -0.305 OA
HETATM    8  C14 UNL     1       9.288  18.437  24.320  1.00  0.00     0.113 C 
HETATM    9  C15 UNL     1       8.952  17.463  25.495  1.00  0.00     0.043 C 
HETATM   10  C16 UNL     1       8.736  15.993  25.036  1.00  0.00     0.014 C 
HETATM   11  C17 UNL     1       7.851  15.901  23.765  1.00  0.00    -0.020 C 
HETATM   12  C18 UNL     1       6.380  16.091  24.195  1.00  0.00     0.017 C 
HETATM   13  C19 UNL     1       8.195  18.351  23.296  1.00  0.00     0.137 A 
HETATM   14  O4  UNL     1       6.934  18.959  23.507  1.00  0.00    -0.364 OA
HETATM   15  C20 UNL     1       7.753  19.547  22.478  1.00  0.00     0.162 A 
HETATM   16  C21 UNL     1       8.299  20.907  22.794  1.00  0.00     0.042 C 
HETATM   17  C22 UNL     1       9.708  20.783  23.413  1.00  0.00     0.014 C 
HETATM   18  C23 UNL     1      10.525  22.117  23.492  1.00  0.00     0.018 C 
HETATM   19  C24 UNL     1      10.723  22.703  22.075  1.00  0.00     0.023 C 
HETATM   20  C25 UNL     1       9.901  23.204  24.378  1.00  0.00     0.023 C 
HETATM   21  C26 UNL     1      11.927  21.811  24.046  1.00  0.00     0.135 C 
HETATM   22  O5  UNL     1      12.810  22.669  24.089  1.00  0.00    -0.297 OA
HETATM   23  C27 UNL     1      12.199  20.404  24.525  1.00  0.00     0.080 C 
HETATM   24  C28 UNL     1      11.062  19.958  25.434  1.00  0.00     0.020 C 
HETATM   25  C29 UNL     1       9.666  19.913  24.737  1.00  0.00    -0.004 C 
HETATM   26  C30 UNL     1       8.628  20.424  25.772  1.00  0.00     0.019 C 
ENDROOT
BRANCH   1  27
HETATM   27  C7  UNL     1       7.431  13.230  23.287  1.00  0.00    -0.014 C 
HETATM   28  C8  UNL     1       8.368  12.020  23.184  1.00  0.00     0.010 C 
BRANCH  27  29
HETATM   29  C6  UNL     1       6.098  12.960  22.555  1.00  0.00     0.007 C 
BRANCH  29  30
HETATM   30  C5  UNL     1       5.477  11.569  22.774  1.00  0.00     0.036 C 
BRANCH  30  31
HETATM   31  C4  UNL     1       4.331  11.218  21.812  1.00  0.00     0.146 C 
BRANCH  31  32
HETATM   32  C2  UNL     1       3.316  10.273  22.424  1.00  0.00    -0.065 C 
HETATM   33  C1  UNL     1       3.308  10.018  23.744  1.00  0.00     0.016 C 
HETATM   34  C3  UNL     1       2.303   9.628  21.517  1.00  0.00     0.045 C 
ENDBRANCH  31  32
BRANCH  31  35
HETATM   35  O1  UNL     1       4.841  10.641  20.614  1.00  0.00    -0.391 OA
HETATM   36  H7  UNL     1       5.432   9.914  20.864  1.00  0.00     0.210 HD
ENDBRANCH  31  35
ENDBRANCH  30  31
ENDBRANCH  29  30
ENDBRANCH  27  29
ENDBRANCH   1  27
TORSDOF 6
ENDMDL
MODEL 7
REMARK minimizedAffinity -9.47142982
REMARK CNNscore 0.233579099
REMARK CNNaffinity 6.825212
REMARK  6 active torsions:
REMARK  status: ('A' for Active; 'I' for Inactive)
REMARK    1  A    between atoms: C2_2  and  C4_4 
REMARK    2  A    between atoms: C4_4  and  O1_5 
REMARK    3  A    between atoms: C4_4  and  C5_6 
REMARK    4  A    between atoms: C5_6  and  C6_7 
REMARK    5  A    between atoms: C6_7  and  C7_8 
REMARK    6  A    between atoms: C7_8  and  C9_10 
ROOT
HETATM    1  C9  UNL     1       1.114   7.687  11.898  1.00  0.00    -0.001 C 
HETATM    2  C10 UNL     1       0.557   6.992  10.621  1.00  0.00     0.007 C 
HETATM    3  C11 UNL     1      -0.815   6.395  10.980  1.00  0.00     0.024 C 
HETATM    4  C12 UNL     1      -1.117   6.944  12.355  1.00  0.00     0.092 C 
HETATM    5  C13 UNL     1      -1.807   8.333  12.280  1.00  0.00     0.272 C 
HETATM    6  O2  UNL     1      -1.733   9.158  11.386  1.00  0.00    -0.264 OA
HETATM    7  O3  UNL     1      -2.555   8.512  13.431  1.00  0.00    -0.305 OA
HETATM    8  C14 UNL     1      -2.423   7.334  14.261  1.00  0.00     0.113 C 
HETATM    9  C15 UNL     1      -1.156   7.558  15.147  1.00  0.00     0.043 C 
HETATM   10  C16 UNL     1       0.109   7.946  14.329  1.00  0.00     0.014 C 
HETATM   11  C17 UNL     1       0.277   7.067  13.061  1.00  0.00    -0.020 C 
HETATM   12  C18 UNL     1       0.854   5.703  13.501  1.00  0.00     0.017 C 
HETATM   13  C19 UNL     1      -2.112   6.289  13.230  1.00  0.00     0.137 A 
HETATM   14  O4  UNL     1      -2.041   4.916  13.566  1.00  0.00    -0.364 OA
HETATM   15  C20 UNL     1      -3.149   5.305  12.731  1.00  0.00     0.162 A 
HETATM   16  C21 UNL     1      -4.495   5.247  13.389  1.00  0.00     0.042 C 
HETATM   17  C22 UNL     1      -4.857   6.626  13.981  1.00  0.00     0.014 C 
HETATM   18  C23 UNL     1      -6.354   6.801  14.407  1.00  0.00     0.018 C 
HETATM   19  C24 UNL     1      -7.281   6.595  13.186  1.00  0.00     0.023 C 
HETATM   20  C25 UNL     1      -6.820   5.861  15.527  1.00  0.00     0.023 C 
HETATM   21  C26 UNL     1      -6.570   8.245  14.889  1.00  0.00     0.135 C 
HETATM   22  O5  UNL     1      -7.691   8.679  15.161  1.00  0.00    -0.297 OA
HETATM   23  C27 UNL     1      -5.354   9.135  15.003  1.00  0.00     0.080 C 
HETATM   24  C28 UNL     1      -4.259   8.389  15.752  1.00  0.00     0.020 C 
HETATM   25  C29 UNL     1      -3.774   7.085  15.042  1.00  0.00    -0.004 C 
HETATM   26  C30 UNL     1      -3.524   6.032  16.155  1.00  0.00     0.019 C 
ENDROOT
BRANCH   1  27
HETATM   27  C7  UNL     1       2.670   7.781  11.919  1.00  0.00    -0.014 C 
HETATM   28  C8  UNL     1       3.279   9.180  12.068  1.00  0.00     0.010 C 
BRANCH  27  29
HETATM   29  C6  UNL     1       3.297   7.030  10.724  1.00  0.00     0.007 C 
BRANCH  29  30
HETATM   30  C5  UNL     1       3.856   7.910   9.592  1.00  0.00     0.036 C 
BRANCH  30  31
HETATM   31  C4  UNL     1       2.858   8.218   8.465  1.00  0.00     0.146 C 
BRANCH  31  32
HETATM   32  C2  UNL     1       2.499   6.995   7.643  1.00  0.00    -0.065 C 
HETATM   33  C1  UNL     1       2.876   5.763   8.027  1.00  0.00     0.016 C 
HETATM   34  C3  UNL     1       1.697   7.190   6.385  1.00  0.00     0.045 C 
ENDBRANCH  31  32
BRANCH  31  35
HETATM   35  O1  UNL     1       3.374   9.224   7.600  1.00  0.00    -0.391 OA
HETATM   36  H7  UNL     1       4.263   8.952   7.326  1.00  0.00     0.210 HD
ENDBRANCH  31  35
ENDBRANCH  30  31
ENDBRANCH  29  30
ENDBRANCH  27  29
ENDBRANCH   1  27
TORSDOF 6
ENDMDL
MODEL 8
REMARK minimizedAffinity -9.17939472
REMARK CNNscore 0.187370509
REMARK CNNaffinity 6.66631842
REMARK  6 active torsions:
REMARK  status: ('A' for Active; 'I' for Inactive)
REMARK    1  A    between atoms: C2_2  and  C4_4 
REMARK    2  A    between atoms: C4_4  and  O1_5 
REMARK    3  A    between atoms: C4_4  and  C5_6 
REMARK    4  A    between atoms: C5_6  and  C6_7 
REMARK    5  A    between atoms: C6_7  and  C7_8 
REMARK    6  A    between atoms: C7_8  and  C9_10 
ROOT
HETATM    1  C9  UNL     1      -5.651   6.263  14.799  1.00  0.00    -0.001 C 
HETATM    2  C10 UNL     1      -6.276   7.118  13.658  1.00  0.00     0.007 C 
HETATM    3  C11 UNL     1      -5.119   7.757  12.870  1.00  0.00     0.024 C 
HETATM    4  C12 UNL     1      -3.878   7.088  13.415  1.00  0.00     0.092 C 
HETATM    5  C13 UNL     1      -3.570   5.758  12.674  1.00  0.00     0.272 C 
HETATM    6  O2  UNL     1      -4.353   5.027  12.093  1.00  0.00    -0.264 OA
HETATM    7  O3  UNL     1      -2.213   5.507  12.774  1.00  0.00    -0.305 OA
HETATM    8  C14 UNL     1      -1.593   6.583  13.516  1.00  0.00     0.113 C 
HETATM    9  C15 UNL     1      -1.692   6.193  15.026  1.00  0.00     0.043 C 
HETATM   10  C16 UNL     1      -3.134   5.816  15.472  1.00  0.00     0.014 C 
HETATM   11  C17 UNL     1      -4.194   6.809  14.925  1.00  0.00    -0.020 C 
HETATM   12  C18 UNL     1      -4.147   8.083  15.797  1.00  0.00     0.017 C 
HETATM   13  C19 UNL     1      -2.548   7.708  13.244  1.00  0.00     0.137 A 
HETATM   14  O4  UNL     1      -2.268   9.032  13.658  1.00  0.00    -0.364 OA
HETATM   15  C20 UNL     1      -2.253   8.799  12.237  1.00  0.00     0.162 A 
HETATM   16  C21 UNL     1      -0.901   8.870  11.592  1.00  0.00     0.042 C 
HETATM   17  C22 UNL     1      -0.273   7.461  11.518  1.00  0.00     0.014 C 
HETATM   18  C23 UNL     1       0.980   7.334  10.587  1.00  0.00     0.018 C 
HETATM   19  C24 UNL     1       0.606   7.720   9.138  1.00  0.00     0.023 C 
HETATM   20  C25 UNL     1       2.188   8.179  11.013  1.00  0.00     0.023 C 
HETATM   21  C26 UNL     1       1.428   5.863  10.553  1.00  0.00     0.135 C 
HETATM   22  O5  UNL     1       2.317   5.472   9.794  1.00  0.00    -0.297 OA
HETATM   23  C27 UNL     1       0.726   4.895  11.476  1.00  0.00     0.080 C 
HETATM   24  C28 UNL     1       0.667   5.493  12.875  1.00  0.00     0.020 C 
HETATM   25  C29 UNL     1      -0.133   6.831  12.965  1.00  0.00    -0.004 C 
HETATM   26  C30 UNL     1       0.631   7.746  13.959  1.00  0.00     0.019 C 
ENDROOT
BRANCH   1  27
HETATM   27  C7  UNL     1      -6.603   6.074  16.019  1.00  0.00    -0.014 C 
HETATM   28  C8  UNL     1      -7.630   4.939  15.929  1.00  0.00     0.010 C 
BRANCH  27  29
HETATM   29  C6  UNL     1      -7.281   7.404  16.416  1.00  0.00     0.007 C 
BRANCH  29  30
HETATM   30  C5  UNL     1      -8.818   7.428  16.334  1.00  0.00     0.036 C 
BRANCH  30  31
HETATM   31  C4  UNL     1      -9.402   8.637  15.587  1.00  0.00     0.146 C 
BRANCH  31  32
HETATM   32  C2  UNL     1     -10.271   8.240  14.409  1.00  0.00    -0.065 C 
HETATM   33  C1  UNL     1     -10.231   6.995  13.902  1.00  0.00     0.016 C 
HETATM   34  C3  UNL     1     -11.194   9.273  13.822  1.00  0.00     0.045 C 
ENDBRANCH  31  32
BRANCH  31  35
HETATM   35  O1  UNL     1      -8.361   9.493  15.128  1.00  0.00    -0.391 OA
HETATM   36  H7  UNL     1      -7.725   8.950  14.638  1.00  0.00     0.210 HD
ENDBRANCH  31  35
ENDBRANCH  30  31
ENDBRANCH  29  30
ENDBRANCH  27  29
ENDBRANCH   1  27
TORSDOF 6
ENDMDL
MODEL 9
REMARK minimizedAffinity -6.69157314
REMARK CNNscore 0.1778173
REMARK CNNaffinity 5.62827826
REMARK  6 active torsions:
REMARK  status: ('A' for Active; 'I' for Inactive)
REMARK    1  A    between atoms: C2_2  and  C4_4 
REMARK    2  A    between atoms: C4_4  and  O1_5 
REMARK    3  A    between atoms: C4_4  and  C5_6 
REMARK    4  A    between atoms: C5_6  and  C6_7 
REMARK    5  A    between atoms: C6_7  and  C7_8 
REMARK    6  A    between atoms: C7_8  and  C9_10 
ROOT
HETATM    1  C9  UNL     1     -11.589  10.330  22.831  1.00  0.00    -0.001 C 
HETATM    2  C10 UNL     1     -11.149  10.504  24.313  1.00  0.00     0.007 C 
HETATM    3  C11 UNL     1     -11.959   9.505  25.159  1.00  0.00     0.024 C 
HETATM    4  C12 UNL     1     -12.664   8.637  24.142  1.00  0.00     0.092 C 
HETATM    5  C13 UNL     1     -11.777   7.445  23.690  1.00  0.00     0.272 C 
HETATM    6  O2  UNL     1     -10.560   7.375  23.692  1.00  0.00    -0.264 OA
HETATM    7  O3  UNL     1     -12.604   6.421  23.263  1.00  0.00    -0.305 OA
HETATM    8  C14 UNL     1     -13.981   6.842  23.411  1.00  0.00     0.113 C 
HETATM    9  C15 UNL     1     -14.359   7.589  22.092  1.00  0.00     0.043 C 
HETATM   10  C16 UNL     1     -13.353   8.712  21.708  1.00  0.00     0.014 C 
HETATM   11  C17 UNL     1     -12.959   9.585  22.929  1.00  0.00    -0.020 C 
HETATM   12  C18 UNL     1     -14.115  10.572  23.201  1.00  0.00     0.017 C 
HETATM   13  C19 UNL     1     -13.857   7.849  24.517  1.00  0.00     0.137 A 
HETATM   14  O4  UNL     1     -14.997   8.436  25.114  1.00  0.00    -0.364 OA
HETATM   15  C20 UNL     1     -14.240   7.536  25.948  1.00  0.00     0.162 A 
HETATM   16  C21 UNL     1     -14.920   6.239  26.268  1.00  0.00     0.042 C 
HETATM   17  C22 UNL     1     -14.502   5.155  25.251  1.00  0.00     0.014 C 
HETATM   18  C23 UNL     1     -14.872   3.685  25.648  1.00  0.00     0.018 C 
HETATM   19  C24 UNL     1     -14.194   3.310  26.985  1.00  0.00     0.023 C 
HETATM   20  C25 UNL     1     -16.376   3.411  25.778  1.00  0.00     0.023 C 
HETATM   21  C26 UNL     1     -14.313   2.726  24.583  1.00  0.00     0.135 C 
HETATM   22  O5  UNL     1     -14.358   1.503  24.723  1.00  0.00    -0.297 OA
HETATM   23  C27 UNL     1     -13.683   3.336  23.351  1.00  0.00     0.080 C 
HETATM   24  C28 UNL     1     -14.611   4.407  22.796  1.00  0.00     0.020 C 
HETATM   25  C29 UNL     1     -14.878   5.593  23.775  1.00  0.00    -0.004 C 
HETATM   26  C30 UNL     1     -16.371   5.984  23.615  1.00  0.00     0.019 C 
ENDROOT
BRANCH   1  27
HETATM   27  C7  UNL     1     -11.373  11.612  21.970  1.00  0.00    -0.014 C 
HETATM   28  C8  UNL     1     -12.015  11.627  20.577  1.00  0.00     0.010 C 
BRANCH  27  29
HETATM   29  C6  UNL     1      -9.879  11.995  21.894  1.00  0.00     0.007 C 
BRANCH  29  30
HETATM   30  C5  UNL     1      -9.541  13.461  22.216  1.00  0.00     0.036 C 
BRANCH  30  31
HETATM   31  C4  UNL     1      -8.644  13.658  23.449  1.00  0.00     0.146 C 
BRANCH  31  32
HETATM   32  C2  UNL     1      -7.250  14.137  23.093  1.00  0.00    -0.065 C 
HETATM   33  C1  UNL     1      -6.835  15.375  23.415  1.00  0.00     0.016 C 
HETATM   34  C3  UNL     1      -6.329  13.187  22.375  1.00  0.00     0.045 C 
ENDBRANCH  31  32
BRANCH  31  35
HETATM   35  O1  UNL     1      -8.544  12.449  24.193  1.00  0.00    -0.391 OA
HETATM   36  H7  UNL     1      -8.286  11.743  23.580  1.00  0.00     0.210 HD
ENDBRANCH  31  35
ENDBRANCH  30  31
ENDBRANCH  29  30
ENDBRANCH  27  29
ENDBRANCH   1  27
TORSDOF 6
ENDMDL
