MODEL 1
REMARK minimizedAffinity -6.60210848
REMARK CNNscore 0.602487445
REMARK CNNaffinity 6.84047174
REMARK  10 active torsions:
REMARK  status: ('A' for Active; 'I' for Inactive)
REMARK    1  A    between atoms: C2_2  and  C3_4 
REMARK    2  A    between atoms: C10_12  and  O3_13 
REMARK    3  A    between atoms: C13_16  and  C14_17 
REMARK    4  A    between atoms: C14_17  and  C16_19 
REMARK    5  A    between atoms: C16_19  and  C17_20 
REMARK    6  A    between atoms: C17_20  and  C18_21 
REMARK    7  A    between atoms: C26_29  and  C27_30 
REMARK    8  A    between atoms: C27_30  and  C28_31 
REMARK    9  A    between atoms: C28_31  and  C29_32 
REMARK   10  A    between atoms: C29_32  and  O4_33 
ROOT
HETATM    1  C3  UNL     1      -3.774  50.102 -10.866  1.00  0.00     0.151 A 
HETATM    2  O2  UNL     1      -4.511  51.093 -10.119  1.00  0.00    -0.360 OA
HETATM    3  C4  UNL     1      -3.591  50.297  -9.381  1.00  0.00     0.166 A 
HETATM    4  C5  UNL     1      -2.320  50.911  -8.927  1.00  0.00     0.041 C 
HETATM    5  C6  UNL     1      -1.868  52.156  -9.726  1.00  0.00     0.006 C 
HETATM    6  C7  UNL     1      -2.132  52.093 -11.306  1.00  0.00    -0.030 C 
HETATM    7  C8  UNL     1      -3.198  53.158 -11.716  1.00  0.00     0.016 C 
HETATM    8  C9  UNL     1      -0.839  52.454 -12.121  1.00  0.00     0.042 C 
HETATM    9  C10 UNL     1       0.074  53.597 -11.616  1.00  0.00     0.128 C 
HETATM   10  C11 UNL     1       0.027  53.874 -10.094  1.00  0.00    -0.006 C 
HETATM   11  C12 UNL     1      -0.958  55.063  -9.835  1.00  0.00     0.019 C 
HETATM   12  C13 UNL     1       1.373  54.234  -9.358  1.00  0.00     0.001 C 
HETATM   13  C22 UNL     1       1.069  53.835  -7.881  1.00  0.00     0.007 C 
HETATM   14  C23 UNL     1      -0.200  52.967  -7.882  1.00  0.00     0.011 C 
HETATM   15  C24 UNL     1      -0.395  52.551  -9.353  1.00  0.00    -0.029 C 
HETATM   16  C25 UNL     1       0.568  51.339  -9.591  1.00  0.00     0.016 C 
HETATM   17  C26 UNL     1      -2.635  50.635 -11.747  1.00  0.00     0.039 C 
ENDROOT
BRANCH  12  18
HETATM   18  C14 UNL     1       1.959  55.679  -9.466  1.00  0.00    -0.013 C 
HETATM   19  C15 UNL     1       2.909  55.835 -10.659  1.00  0.00     0.010 C 
BRANCH  18  20
HETATM   20  C16 UNL     1       2.694  56.060  -8.149  1.00  0.00     0.008 C 
BRANCH  20  21
HETATM   21  C17 UNL     1       3.888  57.002  -8.352  1.00  0.00     0.028 C 
BRANCH  21  22
HETATM   22  C18 UNL     1       5.078  56.545  -7.552  1.00  0.00    -0.025 C 
HETATM   23  C19 UNL     1       6.094  55.759  -7.960  1.00  0.00    -0.091 C 
HETATM   24  C20 UNL     1       6.211  55.130  -9.321  1.00  0.00     0.042 C 
HETATM   25  C21 UNL     1       7.226  55.424  -7.025  1.00  0.00     0.042 C 
ENDBRANCH  21  22
ENDBRANCH  20  21
ENDBRANCH  18  20
ENDBRANCH  12  18
BRANCH   9  26
HETATM   26  O3  UNL     1       1.404  53.272 -12.027  1.00  0.00    -0.395 OA
HETATM   27  H14 UNL     1       1.412  53.237 -13.000  1.00  0.00     0.210 HD
ENDBRANCH   9  26
BRANCH  17  28
HETATM   28  C27 UNL     1      -2.994  50.540 -13.260  1.00  0.00     0.011 C 
BRANCH  28  29
HETATM   29  C28 UNL     1      -2.101  49.656 -14.141  1.00  0.00     0.027 C 
BRANCH  29  30
HETATM   30  C29 UNL     1      -2.565  49.526 -15.586  1.00  0.00     0.164 C 
BRANCH  30  31
HETATM   31  O4  UNL     1      -3.643  50.427 -15.799  1.00  0.00    -0.401 OA
HETATM   32  H48 UNL     1      -4.004  50.239 -16.682  1.00  0.00     0.209 HD
ENDBRANCH  30  31
ENDBRANCH  29  30
ENDBRANCH  28  29
ENDBRANCH  17  28
BRANCH   1  33
HETATM   33  C2  UNL     1      -4.550  48.881 -11.230  1.00  0.00     0.160 C 
HETATM   34  C1  UNL     1      -3.766  47.618 -11.438  1.00  0.00     0.094 C 
HETATM   35  O1  UNL     1      -5.764  48.955 -11.385  1.00  0.00    -0.295 OA
ENDBRANCH   1  33
TORSDOF 10
ENDMDL
MODEL 2
REMARK minimizedAffinity -8.69125938
REMARK CNNscore 0.529679537
REMARK CNNaffinity 7.46312141
REMARK  10 active torsions:
REMARK  status: ('A' for Active; 'I' for Inactive)
REMARK    1  A    between atoms: C2_2  and  C3_4 
REMARK    2  A    between atoms: C10_12  and  O3_13 
REMARK    3  A    between atoms: C13_16  and  C14_17 
REMARK    4  A    between atoms: C14_17  and  C16_19 
REMARK    5  A    between atoms: C16_19  and  C17_20 
REMARK    6  A    between atoms: C17_20  and  C18_21 
REMARK    7  A    between atoms: C26_29  and  C27_30 
REMARK    8  A    between atoms: C27_30  and  C28_31 
REMARK    9  A    between atoms: C28_31  and  C29_32 
REMARK   10  A    between atoms: C29_32  and  O4_33 
ROOT
HETATM    1  C3  UNL     1      -2.504  50.003 -17.917  1.00  0.00     0.151 A 
HETATM    2  O2  UNL     1      -2.665  48.586 -18.138  1.00  0.00    -0.360 OA
HETATM    3  C4  UNL     1      -3.843  49.379 -18.227  1.00  0.00     0.166 A 
HETATM    4  C5  UNL     1      -4.425  49.647 -19.564  1.00  0.00     0.041 C 
HETATM    5  C6  UNL     1      -3.441  49.505 -20.750  1.00  0.00     0.006 C 
HETATM    6  C7  UNL     1      -1.952  50.033 -20.476  1.00  0.00    -0.030 C 
HETATM    7  C8  UNL     1      -0.948  48.837 -20.488  1.00  0.00     0.016 C 
HETATM    8  C9  UNL     1      -1.467  51.004 -21.610  1.00  0.00     0.042 C 
HETATM    9  C10 UNL     1      -1.829  50.683 -23.080  1.00  0.00     0.128 C 
HETATM   10  C11 UNL     1      -3.111  49.842 -23.290  1.00  0.00    -0.006 C 
HETATM   11  C12 UNL     1      -2.698  48.343 -23.467  1.00  0.00     0.019 C 
HETATM   12  C13 UNL     1      -4.048  50.198 -24.505  1.00  0.00     0.001 C 
HETATM   13  C22 UNL     1      -5.426  49.626 -24.050  1.00  0.00     0.007 C 
HETATM   14  C23 UNL     1      -5.335  49.329 -22.545  1.00  0.00     0.011 C 
HETATM   15  C24 UNL     1      -4.075  50.076 -22.068  1.00  0.00    -0.029 C 
HETATM   16  C25 UNL     1      -4.508  51.566 -21.860  1.00  0.00     0.016 C 
HETATM   17  C26 UNL     1      -1.862  50.793 -19.066  1.00  0.00     0.039 C 
ENDROOT
BRANCH  12  18
HETATM   18  C14 UNL     1      -3.668  49.731 -25.948  1.00  0.00    -0.013 C 
HETATM   19  C15 UNL     1      -4.415  48.458 -26.364  1.00  0.00     0.010 C 
BRANCH  18  20
HETATM   20  C16 UNL     1      -2.133  49.502 -26.051  1.00  0.00     0.008 C 
BRANCH  20  21
HETATM   21  C17 UNL     1      -1.400  50.559 -26.886  1.00  0.00     0.028 C 
BRANCH  21  22
HETATM   22  C18 UNL     1       0.035  50.693 -26.450  1.00  0.00    -0.025 C 
HETATM   23  C19 UNL     1       1.020  51.385 -27.055  1.00  0.00    -0.091 C 
HETATM   24  C20 UNL     1       0.882  52.141 -28.347  1.00  0.00     0.042 C 
HETATM   25  C21 UNL     1       2.402  51.431 -26.456  1.00  0.00     0.042 C 
ENDBRANCH  21  22
ENDBRANCH  20  21
ENDBRANCH  18  20
ENDBRANCH  12  18
BRANCH   9  26
HETATM   26  O3  UNL     1      -1.934  51.937 -23.759  1.00  0.00    -0.395 OA
HETATM   27  H14 UNL     1      -1.064  52.372 -23.712  1.00  0.00     0.210 HD
ENDBRANCH   9  26
BRANCH  17  28
HETATM   28  C27 UNL     1      -0.417  51.249 -18.704  1.00  0.00     0.011 C 
BRANCH  28  29
HETATM   29  C28 UNL     1      -0.065  52.724 -18.942  1.00  0.00     0.027 C 
BRANCH  29  30
HETATM   30  C29 UNL     1       1.183  52.950 -19.785  1.00  0.00     0.164 C 
BRANCH  30  31
HETATM   31  O4  UNL     1       1.338  54.347 -20.002  1.00  0.00    -0.401 OA
HETATM   32  H48 UNL     1       2.061  54.459 -20.642  1.00  0.00     0.209 HD
ENDBRANCH  30  31
ENDBRANCH  29  30
ENDBRANCH  28  29
ENDBRANCH  17  28
BRANCH   1  33
HETATM   33  C2  UNL     1      -2.333  50.403 -16.490  1.00  0.00     0.160 C 
HETATM   34  C1  UNL     1      -1.380  49.586 -15.667  1.00  0.00     0.094 C 
HETATM   35  O1  UNL     1      -2.988  51.335 -16.037  1.00  0.00    -0.295 OA
ENDBRANCH   1  33
TORSDOF 10
ENDMDL
MODEL 3
REMARK minimizedAffinity -8.34173393
REMARK CNNscore 0.482287198
REMARK CNNaffinity 7.01061296
REMARK  10 active torsions:
REMARK  status: ('A' for Active; 'I' for Inactive)
REMARK    1  A    between atoms: C2_2  and  C3_4 
REMARK    2  A    between atoms: C10_12  and  O3_13 
REMARK    3  A    between atoms: C13_16  and  C14_17 
REMARK    4  A    between atoms: C14_17  and  C16_19 
REMARK    5  A    between atoms: C16_19  and  C17_20 
REMARK    6  A    between atoms: C17_20  and  C18_21 
REMARK    7  A    between atoms: C26_29  and  C27_30 
REMARK    8  A    between atoms: C27_30  and  C28_31 
REMARK    9  A    between atoms: C28_31  and  C29_32 
REMARK   10  A    between atoms: C29_32  and  O4_33 
ROOT
HETATM    1  C3  UNL     1      -0.934  51.614 -19.341  1.00  0.00     0.151 A 
HETATM    2  O2  UNL     1      -1.343  50.356 -18.764  1.00  0.00    -0.360 OA
HETATM    3  C4  UNL     1      -2.316  51.394 -18.775  1.00  0.00     0.166 A 
HETATM    4  C5  UNL     1      -3.440  51.308 -19.738  1.00  0.00     0.041 C 
HETATM    5  C6  UNL     1      -3.181  50.414 -20.974  1.00  0.00     0.006 C 
HETATM    6  C7  UNL     1      -1.698  50.489 -21.578  1.00  0.00    -0.030 C 
HETATM    7  C8  UNL     1      -0.969  49.122 -21.385  1.00  0.00     0.016 C 
HETATM    8  C9  UNL     1      -1.719  50.741 -23.128  1.00  0.00     0.042 C 
HETATM    9  C10 UNL     1      -2.784  50.024 -23.992  1.00  0.00     0.128 C 
HETATM   10  C11 UNL     1      -4.092  49.634 -23.263  1.00  0.00    -0.006 C 
HETATM   11  C12 UNL     1      -3.990  48.134 -22.827  1.00  0.00     0.019 C 
HETATM   12  C13 UNL     1      -5.455  49.787 -24.038  1.00  0.00     0.001 C 
HETATM   13  C22 UNL     1      -6.492  49.915 -22.880  1.00  0.00     0.007 C 
HETATM   14  C23 UNL     1      -5.714  50.199 -21.585  1.00  0.00     0.011 C 
HETATM   15  C24 UNL     1      -4.306  50.615 -22.050  1.00  0.00    -0.029 C 
HETATM   16  C25 UNL     1      -4.411  52.126 -22.449  1.00  0.00     0.016 C 
HETATM   17  C26 UNL     1      -0.848  51.653 -20.873  1.00  0.00     0.039 C 
ENDROOT
BRANCH  12  18
HETATM   18  C14 UNL     1      -5.880  48.711 -25.089  1.00  0.00    -0.013 C 
HETATM   19  C15 UNL     1      -6.616  47.529 -24.448  1.00  0.00     0.010 C 
BRANCH  18  20
HETATM   20  C16 UNL     1      -4.634  48.200 -25.868  1.00  0.00     0.008 C 
BRANCH  20  21
HETATM   21  C17 UNL     1      -4.745  48.352 -27.391  1.00  0.00     0.028 C 
BRANCH  21  22
HETATM   22  C18 UNL     1      -5.954  47.629 -27.920  1.00  0.00    -0.025 C 
HETATM   23  C19 UNL     1      -6.199  47.248 -29.189  1.00  0.00    -0.091 C 
HETATM   24  C20 UNL     1      -5.302  47.523 -30.365  1.00  0.00     0.042 C 
HETATM   25  C21 UNL     1      -7.461  46.502 -29.536  1.00  0.00     0.042 C 
ENDBRANCH  21  22
ENDBRANCH  20  21
ENDBRANCH  18  20
ENDBRANCH  12  18
BRANCH   9  26
HETATM   26  O3  UNL     1      -3.063  50.886 -25.098  1.00  0.00    -0.395 OA
HETATM   27  H14 UNL     1      -2.237  50.996 -25.602  1.00  0.00     0.210 HD
ENDBRANCH   9  26
BRANCH  17  28
HETATM   28  C27 UNL     1       0.632  51.714 -21.358  1.00  0.00     0.011 C 
BRANCH  28  29
HETATM   29  C28 UNL     1       1.036  52.904 -22.238  1.00  0.00     0.027 C 
BRANCH  29  30
HETATM   30  C29 UNL     1       1.344  54.184 -21.472  1.00  0.00     0.164 C 
BRANCH  30  31
HETATM   31  O4  UNL     1       2.084  55.053 -22.319  1.00  0.00    -0.401 OA
HETATM   32  H48 UNL     1       2.377  55.803 -21.774  1.00  0.00     0.209 HD
ENDBRANCH  30  31
ENDBRANCH  29  30
ENDBRANCH  28  29
ENDBRANCH  17  28
BRANCH   1  33
HETATM   33  C2  UNL     1      -0.047  52.446 -18.478  1.00  0.00     0.160 C 
HETATM   34  C1  UNL     1       0.759  51.723 -17.439  1.00  0.00     0.094 C 
HETATM   35  O1  UNL     1      -0.035  53.665 -18.613  1.00  0.00    -0.295 OA
ENDBRANCH   1  33
TORSDOF 10
ENDMDL
MODEL 4
REMARK minimizedAffinity -6.48474121
REMARK CNNscore 0.414750725
REMARK CNNaffinity 5.8401475
REMARK  10 active torsions:
REMARK  status: ('A' for Active; 'I' for Inactive)
REMARK    1  A    between atoms: C2_2  and  C3_4 
REMARK    2  A    between atoms: C10_12  and  O3_13 
REMARK    3  A    between atoms: C13_16  and  C14_17 
REMARK    4  A    between atoms: C14_17  and  C16_19 
REMARK    5  A    between atoms: C16_19  and  C17_20 
REMARK    6  A    between atoms: C17_20  and  C18_21 
REMARK    7  A    between atoms: C26_29  and  C27_30 
REMARK    8  A    between atoms: C27_30  and  C28_31 
REMARK    9  A    between atoms: C28_31  and  C29_32 
REMARK   10  A    between atoms: C29_32  and  O4_33 
ROOT
HETATM    1  C3  UNL     1     -15.949  45.044 -26.058  1.00  0.00     0.151 A 
HETATM    2  O2  UNL     1     -15.321  43.760 -25.855  1.00  0.00    -0.360 OA
HETATM    3  C4  UNL     1     -15.637  44.105 -27.198  1.00  0.00     0.166 A 
HETATM    4  C5  UNL     1     -14.537  44.490 -28.115  1.00  0.00     0.041 C 
HETATM    5  C6  UNL     1     -13.249  44.993 -27.422  1.00  0.00     0.006 C 
HETATM    6  C7  UNL     1     -13.477  45.904 -26.123  1.00  0.00    -0.030 C 
HETATM    7  C8  UNL     1     -12.963  45.162 -24.849  1.00  0.00     0.016 C 
HETATM    8  C9  UNL     1     -12.648  47.235 -26.200  1.00  0.00     0.042 C 
HETATM    9  C10 UNL     1     -11.211  47.194 -26.774  1.00  0.00     0.128 C 
HETATM   10  C11 UNL     1     -10.919  46.052 -27.777  1.00  0.00    -0.006 C 
HETATM   11  C12 UNL     1     -10.232  44.876 -27.004  1.00  0.00     0.019 C 
HETATM   12  C13 UNL     1     -10.008  46.366 -29.023  1.00  0.00     0.001 C 
HETATM   13  C22 UNL     1     -10.438  45.268 -30.044  1.00  0.00     0.007 C 
HETATM   14  C23 UNL     1     -11.751  44.648 -29.538  1.00  0.00     0.011 C 
HETATM   15  C24 UNL     1     -12.268  45.630 -28.469  1.00  0.00    -0.029 C 
HETATM   16  C25 UNL     1     -12.984  46.783 -29.251  1.00  0.00     0.016 C 
HETATM   17  C26 UNL     1     -15.029  46.268 -25.941  1.00  0.00     0.039 C 
ENDROOT
BRANCH  12  18
HETATM   18  C14 UNL     1      -8.455  46.435 -28.857  1.00  0.00    -0.013 C 
HETATM   19  C15 UNL     1      -7.875  45.147 -28.261  1.00  0.00     0.010 C 
BRANCH  18  20
HETATM   20  C16 UNL     1      -8.063  47.652 -27.972  1.00  0.00     0.008 C 
BRANCH  20  21
HETATM   21  C17 UNL     1      -6.977  47.345 -26.933  1.00  0.00     0.028 C 
BRANCH  21  22
HETATM   22  C18 UNL     1      -5.631  47.834 -27.397  1.00  0.00    -0.025 C 
HETATM   23  C19 UNL     1      -4.618  48.302 -26.641  1.00  0.00    -0.091 C 
HETATM   24  C20 UNL     1      -4.657  48.474 -25.148  1.00  0.00     0.042 C 
HETATM   25  C21 UNL     1      -3.320  48.725 -27.278  1.00  0.00     0.042 C 
ENDBRANCH  21  22
ENDBRANCH  20  21
ENDBRANCH  18  20
ENDBRANCH  12  18
BRANCH   9  26
HETATM   26  O3  UNL     1     -10.975  48.468 -27.380  1.00  0.00    -0.395 OA
HETATM   27  H14 UNL     1     -11.041  49.143 -26.682  1.00  0.00     0.210 HD
ENDBRANCH   9  26
BRANCH  17  28
HETATM   28  C27 UNL     1     -15.323  47.077 -24.642  1.00  0.00     0.011 C 
BRANCH  28  29
HETATM   29  C28 UNL     1     -15.056  46.379 -23.302  1.00  0.00     0.027 C 
BRANCH  29  30
HETATM   30  C29 UNL     1     -15.185  47.279 -22.081  1.00  0.00     0.164 C 
BRANCH  30  31
HETATM   31  O4  UNL     1     -13.894  47.765 -21.737  1.00  0.00    -0.401 OA
HETATM   32  H48 UNL     1     -13.979  48.230 -20.887  1.00  0.00     0.209 HD
ENDBRANCH  30  31
ENDBRANCH  29  30
ENDBRANCH  28  29
ENDBRANCH  17  28
BRANCH   1  33
HETATM   33  C2  UNL     1     -17.394  45.104 -25.694  1.00  0.00     0.160 C 
HETATM   34  C1  UNL     1     -17.825  44.309 -24.497  1.00  0.00     0.094 C 
HETATM   35  O1  UNL     1     -18.170  45.750 -26.390  1.00  0.00    -0.295 OA
ENDBRANCH   1  33
TORSDOF 10
ENDMDL
MODEL 5
REMARK minimizedAffinity -6.42066193
REMARK CNNscore 0.374230683
REMARK CNNaffinity 6.5657115
REMARK  10 active torsions:
REMARK  status: ('A' for Active; 'I' for Inactive)
REMARK    1  A    between atoms: C2_2  and  C3_4 
REMARK    2  A    between atoms: C10_12  and  O3_13 
REMARK    3  A    between atoms: C13_16  and  C14_17 
REMARK    4  A    between atoms: C14_17  and  C16_19 
REMARK    5  A    between atoms: C16_19  and  C17_20 
REMARK    6  A    between atoms: C17_20  and  C18_21 
REMARK    7  A    between atoms: C26_29  and  C27_30 
REMARK    8  A    between atoms: C27_30  and  C28_31 
REMARK    9  A    between atoms: C28_31  and  C29_32 
REMARK   10  A    between atoms: C29_32  and  O4_33 
ROOT
HETATM    1  C3  UNL     1       2.313  56.261  -7.316  1.00  0.00     0.151 A 
HETATM    2  O2  UNL     1       2.239  55.132  -6.420  1.00  0.00    -0.360 OA
HETATM    3  C4  UNL     1       1.036  55.864  -6.617  1.00  0.00     0.166 A 
HETATM    4  C5  UNL     1      -0.036  55.265  -7.448  1.00  0.00     0.041 C 
HETATM    5  C6  UNL     1       0.432  54.176  -8.441  1.00  0.00     0.006 C 
HETATM    6  C7  UNL     1       1.844  54.451  -9.148  1.00  0.00    -0.030 C 
HETATM    7  C8  UNL     1       2.896  53.397  -8.676  1.00  0.00     0.016 C 
HETATM    8  C9  UNL     1       1.750  54.285 -10.707  1.00  0.00     0.042 C 
HETATM    9  C10 UNL     1       0.895  53.135 -11.290  1.00  0.00     0.128 C 
HETATM   10  C11 UNL     1      -0.267  52.639 -10.397  1.00  0.00    -0.006 C 
HETATM   11  C12 UNL     1       0.213  51.372  -9.615  1.00  0.00     0.019 C 
HETATM   12  C13 UNL     1      -1.630  52.254 -11.089  1.00  0.00     0.001 C 
HETATM   13  C22 UNL     1      -2.658  52.418  -9.927  1.00  0.00     0.007 C 
HETATM   14  C23 UNL     1      -1.969  53.203  -8.800  1.00  0.00     0.011 C 
HETATM   15  C24 UNL     1      -0.714  53.816  -9.451  1.00  0.00    -0.029 C 
HETATM   16  C25 UNL     1      -1.200  55.102 -10.201  1.00  0.00     0.016 C 
HETATM   17  C26 UNL     1       2.378  55.926  -8.813  1.00  0.00     0.039 C 
ENDROOT
BRANCH  12  18
HETATM   18  C14 UNL     1      -1.776  50.875 -11.810  1.00  0.00    -0.013 C 
HETATM   19  C15 UNL     1      -0.962  49.771 -11.127  1.00  0.00     0.010 C 
BRANCH  18  20
HETATM   20  C16 UNL     1      -1.351  51.001 -13.301  1.00  0.00     0.008 C 
BRANCH  20  21
HETATM   21  C17 UNL     1      -0.111  50.176 -13.668  1.00  0.00     0.028 C 
BRANCH  21  22
HETATM   22  C18 UNL     1       0.876  51.002 -14.448  1.00  0.00    -0.025 C 
HETATM   23  C19 UNL     1       1.048  51.040 -15.784  1.00  0.00    -0.091 C 
HETATM   24  C20 UNL     1       0.292  50.204 -16.780  1.00  0.00     0.042 C 
HETATM   25  C21 UNL     1       2.074  51.956 -16.399  1.00  0.00     0.042 C 
ENDBRANCH  21  22
ENDBRANCH  20  21
ENDBRANCH  18  20
ENDBRANCH  12  18
BRANCH   9  26
HETATM   26  O3  UNL     1       0.401  53.591 -12.552  1.00  0.00    -0.395 OA
HETATM   27  H14 UNL     1       1.168  53.766 -13.124  1.00  0.00     0.210 HD
ENDBRANCH   9  26
BRANCH  17  28
HETATM   28  C27 UNL     1       3.791  56.218  -9.401  1.00  0.00     0.011 C 
BRANCH  28  29
HETATM   29  C28 UNL     1       4.984  55.501  -8.752  1.00  0.00     0.027 C 
BRANCH  29  30
HETATM   30  C29 UNL     1       5.943  54.849  -9.738  1.00  0.00     0.164 C 
BRANCH  30  31
HETATM   31  O4  UNL     1       7.275  55.086  -9.301  1.00  0.00    -0.401 OA
HETATM   32  H48 UNL     1       7.868  54.774 -10.006  1.00  0.00     0.209 HD
ENDBRANCH  30  31
ENDBRANCH  29  30
ENDBRANCH  28  29
ENDBRANCH  17  28
BRANCH   1  33
HETATM   33  C2  UNL     1       2.968  57.475  -6.749  1.00  0.00     0.160 C 
HETATM   34  C1  UNL     1       4.013  57.252  -5.696  1.00  0.00     0.094 C 
HETATM   35  O1  UNL     1       2.612  58.588  -7.121  1.00  0.00    -0.295 OA
ENDBRANCH   1  33
TORSDOF 10
ENDMDL
MODEL 6
REMARK minimizedAffinity -7.04484272
REMARK CNNscore 0.329105586
REMARK CNNaffinity 6.14727163
REMARK  10 active torsions:
REMARK  status: ('A' for Active; 'I' for Inactive)
REMARK    1  A    between atoms: C2_2  and  C3_4 
REMARK    2  A    between atoms: C10_12  and  O3_13 
REMARK    3  A    between atoms: C13_16  and  C14_17 
REMARK    4  A    between atoms: C14_17  and  C16_19 
REMARK    5  A    between atoms: C16_19  and  C17_20 
REMARK    6  A    between atoms: C17_20  and  C18_21 
REMARK    7  A    between atoms: C26_29  and  C27_30 
REMARK    8  A    between atoms: C27_30  and  C28_31 
REMARK    9  A    between atoms: C28_31  and  C29_32 
REMARK   10  A    between atoms: C29_32  and  O4_33 
ROOT
HETATM    1  C3  UNL     1      -6.314  47.121 -31.732  1.00  0.00     0.151 A 
HETATM    2  O2  UNL     1      -7.239  47.606 -32.728  1.00  0.00    -0.360 OA
HETATM    3  C4  UNL     1      -7.273  46.209 -32.459  1.00  0.00     0.166 A 
HETATM    4  C5  UNL     1      -8.410  45.659 -31.682  1.00  0.00     0.041 C 
HETATM    5  C6  UNL     1      -9.157  46.683 -30.796  1.00  0.00     0.006 C 
HETATM    6  C7  UNL     1      -8.231  47.773 -30.072  1.00  0.00    -0.030 C 
HETATM    7  C8  UNL     1      -8.529  49.195 -30.643  1.00  0.00     0.016 C 
HETATM    8  C9  UNL     1      -8.539  47.862 -28.535  1.00  0.00     0.042 C 
HETATM    9  C10 UNL     1     -10.008  47.773 -28.056  1.00  0.00     0.128 C 
HETATM   10  C11 UNL     1     -10.974  47.001 -28.986  1.00  0.00    -0.006 C 
HETATM   11  C12 UNL     1     -11.732  48.035 -29.884  1.00  0.00     0.019 C 
HETATM   12  C13 UNL     1     -12.074  46.085 -28.327  1.00  0.00     0.001 C 
HETATM   13  C22 UNL     1     -12.392  45.065 -29.464  1.00  0.00     0.007 C 
HETATM   14  C23 UNL     1     -11.278  45.177 -30.517  1.00  0.00     0.011 C 
HETATM   15  C24 UNL     1     -10.145  45.953 -29.818  1.00  0.00    -0.029 C 
HETATM   16  C25 UNL     1      -9.372  44.902 -28.951  1.00  0.00     0.016 C 
HETATM   17  C26 UNL     1      -6.676  47.430 -30.272  1.00  0.00     0.039 C 
ENDROOT
BRANCH  12  18
HETATM   18  C14 UNL     1     -13.371  46.725 -27.735  1.00  0.00    -0.013 C 
HETATM   19  C15 UNL     1     -13.313  46.853 -26.209  1.00  0.00     0.010 C 
BRANCH  18  20
HETATM   20  C16 UNL     1     -14.618  45.894 -28.150  1.00  0.00     0.008 C 
BRANCH  20  21
HETATM   21  C17 UNL     1     -15.190  45.023 -27.024  1.00  0.00     0.028 C 
BRANCH  21  22
HETATM   22  C18 UNL     1     -16.690  44.936 -27.117  1.00  0.00    -0.025 C 
HETATM   23  C19 UNL     1     -17.423  44.088 -27.864  1.00  0.00    -0.091 C 
HETATM   24  C20 UNL     1     -16.865  43.064 -28.814  1.00  0.00     0.042 C 
HETATM   25  C21 UNL     1     -18.928  44.125 -27.810  1.00  0.00     0.042 C 
ENDBRANCH  21  22
ENDBRANCH  20  21
ENDBRANCH  18  20
ENDBRANCH  12  18
BRANCH   9  26
HETATM   26  O3  UNL     1      -9.980  47.179 -26.755  1.00  0.00    -0.395 OA
HETATM   27  H14 UNL     1      -9.469  47.768 -26.173  1.00  0.00     0.210 HD
ENDBRANCH   9  26
BRANCH  17  28
HETATM   28  C27 UNL     1      -5.726  48.506 -29.666  1.00  0.00     0.011 C 
BRANCH  28  29
HETATM   29  C28 UNL     1      -4.817  48.071 -28.509  1.00  0.00     0.027 C 
BRANCH  29  30
HETATM   30  C29 UNL     1      -3.985  49.191 -27.900  1.00  0.00     0.164 C 
BRANCH  30  31
HETATM   31  O4  UNL     1      -3.606  50.090 -28.935  1.00  0.00    -0.401 OA
HETATM   32  H48 UNL     1      -2.976  50.721 -28.549  1.00  0.00     0.209 HD
ENDBRANCH  30  31
ENDBRANCH  29  30
ENDBRANCH  28  29
ENDBRANCH  17  28
BRANCH   1  33
HETATM   33  C2  UNL     1      -4.899  47.006 -32.187  1.00  0.00     0.160 C 
HETATM   34  C1  UNL     1      -4.217  45.689 -31.956  1.00  0.00     0.094 C 
HETATM   35  O1  UNL     1      -4.339  47.977 -32.685  1.00  0.00    -0.295 OA
ENDBRANCH   1  33
TORSDOF 10
ENDMDL
MODEL 7
REMARK minimizedAffinity -6.6760931
REMARK CNNscore 0.302143037
REMARK CNNaffinity 6.35302782
REMARK  10 active torsions:
REMARK  status: ('A' for Active; 'I' for Inactive)
REMARK    1  A    between atoms: C2_2  and  C3_4 
REMARK    2  A    between atoms: C10_12  and  O3_13 
REMARK    3  A    between atoms: C13_16  and  C14_17 
REMARK    4  A    between atoms: C14_17  and  C16_19 
REMARK    5  A    between atoms: C16_19  and  C17_20 
REMARK    6  A    between atoms: C17_20  and  C18_21 
REMARK    7  A    between atoms: C26_29  and  C27_30 
REMARK    8  A    between atoms: C27_30  and  C28_31 
REMARK    9  A    between atoms: C28_31  and  C29_32 
REMARK   10  A    between atoms: C29_32  and  O4_33 
ROOT
HETATM    1  C3  UNL     1      -7.823  47.691 -27.246  1.00  0.00     0.151 A 
HETATM    2  O2  UNL     1      -7.226  46.410 -26.953  1.00  0.00    -0.360 OA
HETATM    3  C4  UNL     1      -6.367  47.396 -27.514  1.00  0.00     0.166 A 
HETATM    4  C5  UNL     1      -5.367  48.053 -26.639  1.00  0.00     0.041 C 
HETATM    5  C6  UNL     1      -5.689  48.012 -25.126  1.00  0.00     0.006 C 
HETATM    6  C7  UNL     1      -7.235  48.197 -24.746  1.00  0.00    -0.030 C 
HETATM    7  C8  UNL     1      -7.798  46.879 -24.127  1.00  0.00     0.016 C 
HETATM    8  C9  UNL     1      -7.429  49.298 -23.644  1.00  0.00     0.042 C 
HETATM    9  C10 UNL     1      -6.413  49.383 -22.478  1.00  0.00     0.128 C 
HETATM   10  C11 UNL     1      -4.994  48.846 -22.782  1.00  0.00    -0.006 C 
HETATM   11  C12 UNL     1      -4.895  47.376 -22.253  1.00  0.00     0.019 C 
HETATM   12  C13 UNL     1      -3.758  49.623 -22.188  1.00  0.00     0.001 C 
HETATM   13  C22 UNL     1      -2.604  49.212 -23.153  1.00  0.00     0.007 C 
HETATM   14  C23 UNL     1      -3.240  48.574 -24.398  1.00  0.00     0.011 C 
HETATM   15  C24 UNL     1      -4.729  48.964 -24.329  1.00  0.00    -0.029 C 
HETATM   16  C25 UNL     1      -4.821  50.422 -24.893  1.00  0.00     0.016 C 
HETATM   17  C26 UNL     1      -8.101  48.595 -26.037  1.00  0.00     0.039 C 
ENDROOT
BRANCH  12  18
HETATM   18  C14 UNL     1      -3.363  49.431 -20.688  1.00  0.00    -0.013 C 
HETATM   19  C15 UNL     1      -3.562  50.710 -19.865  1.00  0.00     0.010 C 
BRANCH  18  20
HETATM   20  C16 UNL     1      -1.888  48.954 -20.578  1.00  0.00     0.008 C 
BRANCH  20  21
HETATM   21  C17 UNL     1      -0.885  49.855 -21.310  1.00  0.00     0.028 C 
BRANCH  21  22
HETATM   22  C18 UNL     1      -0.220  50.811 -20.357  1.00  0.00    -0.025 C 
HETATM   23  C19 UNL     1       0.159  52.083 -20.593  1.00  0.00    -0.091 C 
HETATM   24  C20 UNL     1       0.027  52.796 -21.911  1.00  0.00     0.042 C 
HETATM   25  C21 UNL     1       0.790  52.909 -19.503  1.00  0.00     0.042 C 
ENDBRANCH  21  22
ENDBRANCH  20  21
ENDBRANCH  18  20
ENDBRANCH  12  18
BRANCH   9  26
HETATM   26  O3  UNL     1      -6.358  50.756 -22.082  1.00  0.00    -0.395 OA
HETATM   27  H14 UNL     1      -7.246  51.011 -21.776  1.00  0.00     0.210 HD
ENDBRANCH   9  26
BRANCH  17  28
HETATM   28  C27 UNL     1      -9.628  48.700 -25.744  1.00  0.00     0.011 C 
BRANCH  28  29
HETATM   29  C28 UNL     1     -10.398  47.388 -25.544  1.00  0.00     0.027 C 
BRANCH  29  30
HETATM   30  C29 UNL     1     -11.868  47.450 -25.937  1.00  0.00     0.164 C 
BRANCH  30  31
HETATM   31  O4  UNL     1     -11.965  47.352 -27.352  1.00  0.00    -0.401 OA
HETATM   32  H48 UNL     1     -12.893  47.521 -27.588  1.00  0.00     0.209 HD
ENDBRANCH  30  31
ENDBRANCH  29  30
ENDBRANCH  28  29
ENDBRANCH  17  28
BRANCH   1  33
HETATM   33  C2  UNL     1      -8.674  47.726 -28.471  1.00  0.00     0.160 C 
HETATM   34  C1  UNL     1      -8.639  48.986 -29.285  1.00  0.00     0.094 C 
HETATM   35  O1  UNL     1      -9.388  46.767 -28.743  1.00  0.00    -0.295 OA
ENDBRANCH   1  33
TORSDOF 10
ENDMDL
MODEL 8
REMARK minimizedAffinity -7.44439936
REMARK CNNscore 0.283959538
REMARK CNNaffinity 6.41940165
REMARK  10 active torsions:
REMARK  status: ('A' for Active; 'I' for Inactive)
REMARK    1  A    between atoms: C2_2  and  C3_4 
REMARK    2  A    between atoms: C10_12  and  O3_13 
REMARK    3  A    between atoms: C13_16  and  C14_17 
REMARK    4  A    between atoms: C14_17  and  C16_19 
REMARK    5  A    between atoms: C16_19  and  C17_20 
REMARK    6  A    between atoms: C17_20  and  C18_21 
REMARK    7  A    between atoms: C26_29  and  C27_30 
REMARK    8  A    between atoms: C27_30  and  C28_31 
REMARK    9  A    between atoms: C28_31  and  C29_32 
REMARK   10  A    between atoms: C29_32  and  O4_33 
ROOT
HETATM    1  C3  UNL     1      -6.361  47.399 -20.470  1.00  0.00     0.151 A 
HETATM    2  O2  UNL     1      -5.471  46.543 -21.216  1.00  0.00    -0.360 OA
HETATM    3  C4  UNL     1      -6.090  47.599 -21.941  1.00  0.00     0.166 A 
HETATM    4  C5  UNL     1      -5.273  48.774 -22.329  1.00  0.00     0.041 C 
HETATM    5  C6  UNL     1      -4.001  49.000 -21.479  1.00  0.00     0.006 C 
HETATM    6  C7  UNL     1      -4.157  48.697 -19.912  1.00  0.00    -0.030 C 
HETATM    7  C8  UNL     1      -3.284  47.466 -19.513  1.00  0.00     0.016 C 
HETATM    8  C9  UNL     1      -3.629  49.891 -19.039  1.00  0.00     0.042 C 
HETATM    9  C10 UNL     1      -2.342  50.631 -19.477  1.00  0.00     0.128 C 
HETATM   10  C11 UNL     1      -2.025  50.592 -20.991  1.00  0.00    -0.006 C 
HETATM   11  C12 UNL     1      -0.994  49.443 -21.253  1.00  0.00     0.019 C 
HETATM   12  C13 UNL     1      -1.437  51.889 -21.665  1.00  0.00     0.001 C 
HETATM   13  C22 UNL     1      -1.827  51.699 -23.163  1.00  0.00     0.007 C 
HETATM   14  C23 UNL     1      -2.880  50.581 -23.234  1.00  0.00     0.011 C 
HETATM   15  C24 UNL     1      -3.371  50.405 -21.785  1.00  0.00    -0.029 C 
HETATM   16  C25 UNL     1      -4.427  51.536 -21.545  1.00  0.00     0.016 C 
HETATM   17  C26 UNL     1      -5.690  48.412 -19.532  1.00  0.00     0.039 C 
ENDROOT
BRANCH  12  18
HETATM   18  C14 UNL     1       0.077  52.239 -21.494  1.00  0.00    -0.013 C 
HETATM   19  C15 UNL     1       0.371  52.916 -20.151  1.00  0.00     0.010 C 
BRANCH  18  20
HETATM   20  C16 UNL     1       0.553  53.150 -22.662  1.00  0.00     0.008 C 
BRANCH  20  21
HETATM   21  C17 UNL     1       0.093  52.679 -24.047  1.00  0.00     0.028 C 
BRANCH  21  22
HETATM   22  C18 UNL     1       1.271  52.373 -24.933  1.00  0.00    -0.025 C 
HETATM   23  C19 UNL     1       1.294  51.603 -26.039  1.00  0.00    -0.091 C 
HETATM   24  C20 UNL     1       0.121  50.841 -26.590  1.00  0.00     0.042 C 
HETATM   25  C21 UNL     1       2.568  51.430 -26.824  1.00  0.00     0.042 C 
ENDBRANCH  21  22
ENDBRANCH  20  21
ENDBRANCH  18  20
ENDBRANCH  12  18
BRANCH   9  26
HETATM   26  O3  UNL     1      -2.472  51.981 -19.025  1.00  0.00    -0.395 OA
HETATM   27  H14 UNL     1      -2.538  51.962 -18.054  1.00  0.00     0.210 HD
ENDBRANCH   9  26
BRANCH  17  28
HETATM   28  C27 UNL     1      -5.890  48.023 -18.037  1.00  0.00     0.011 C 
BRANCH  28  29
HETATM   29  C28 UNL     1      -5.544  46.583 -17.632  1.00  0.00     0.027 C 
BRANCH  29  30
HETATM   30  C29 UNL     1      -4.839  46.454 -16.288  1.00  0.00     0.164 C 
BRANCH  30  31
HETATM   31  O4  UNL     1      -4.183  47.682 -16.000  1.00  0.00    -0.401 OA
HETATM   32  H48 UNL     1      -3.639  47.537 -15.207  1.00  0.00     0.209 HD
ENDBRANCH  30  31
ENDBRANCH  29  30
ENDBRANCH  28  29
ENDBRANCH  17  28
BRANCH   1  33
HETATM   33  C2  UNL     1      -7.699  46.811 -20.170  1.00  0.00     0.160 C 
HETATM   34  C1  UNL     1      -8.844  47.771 -20.027  1.00  0.00     0.094 C 
HETATM   35  O1  UNL     1      -7.810  45.600 -20.013  1.00  0.00    -0.295 OA
ENDBRANCH   1  33
TORSDOF 10
ENDMDL
MODEL 9
REMARK minimizedAffinity -8.08958149
REMARK CNNscore 0.274644732
REMARK CNNaffinity 6.54062128
REMARK  10 active torsions:
REMARK  status: ('A' for Active; 'I' for Inactive)
REMARK    1  A    between atoms: C2_2  and  C3_4 
REMARK    2  A    between atoms: C10_12  and  O3_13 
REMARK    3  A    between atoms: C13_16  and  C14_17 
REMARK    4  A    between atoms: C14_17  and  C16_19 
REMARK    5  A    between atoms: C16_19  and  C17_20 
REMARK    6  A    between atoms: C17_20  and  C18_21 
REMARK    7  A    between atoms: C26_29  and  C27_30 
REMARK    8  A    between atoms: C27_30  and  C28_31 
REMARK    9  A    between atoms: C28_31  and  C29_32 
REMARK   10  A    between atoms: C29_32  and  O4_33 
ROOT
HETATM    1  C3  UNL     1      -0.392  51.478 -25.703  1.00  0.00     0.151 A 
HETATM    2  O2  UNL     1      -1.509  51.836 -26.544  1.00  0.00    -0.360 OA
HETATM    3  C4  UNL     1      -1.222  50.448 -26.430  1.00  0.00     0.166 A 
HETATM    4  C5  UNL     1      -2.121  49.598 -25.612  1.00  0.00     0.041 C 
HETATM    5  C6  UNL     1      -2.952  50.353 -24.548  1.00  0.00     0.006 C 
HETATM    6  C7  UNL     1      -2.191  51.551 -23.802  1.00  0.00    -0.030 C 
HETATM    7  C8  UNL     1      -2.841  52.919 -24.180  1.00  0.00     0.016 C 
HETATM    8  C9  UNL     1      -2.326  51.435 -22.242  1.00  0.00     0.042 C 
HETATM    9  C10 UNL     1      -3.678  50.989 -21.635  1.00  0.00     0.128 C 
HETATM   10  C11 UNL     1      -4.568  50.110 -22.546  1.00  0.00    -0.006 C 
HETATM   11  C12 UNL     1      -5.623  51.030 -23.246  1.00  0.00     0.019 C 
HETATM   12  C13 UNL     1      -5.369  48.923 -21.889  1.00  0.00     0.001 C 
HETATM   13  C22 UNL     1      -5.603  47.963 -23.096  1.00  0.00     0.007 C 
HETATM   14  C23 UNL     1      -4.669  48.405 -24.234  1.00  0.00     0.011 C 
HETATM   15  C24 UNL     1      -3.646  49.344 -23.566  1.00  0.00    -0.029 C 
HETATM   16  C25 UNL     1      -2.575  48.414 -22.900  1.00  0.00     0.016 C 
HETATM   17  C26 UNL     1      -0.634  51.572 -24.190  1.00  0.00     0.039 C 
ENDROOT
BRANCH  12  18
HETATM   18  C14 UNL     1      -6.690  49.213 -21.106  1.00  0.00    -0.013 C 
HETATM   19  C15 UNL     1      -6.556  48.919 -19.608  1.00  0.00     0.010 C 
BRANCH  18  20
HETATM   20  C16 UNL     1      -7.862  48.384 -21.706  1.00  0.00     0.008 C 
BRANCH  20  21
HETATM   21  C17 UNL     1      -8.354  47.251 -20.797  1.00  0.00     0.028 C 
BRANCH  21  22
HETATM   22  C18 UNL     1      -9.820  47.399 -20.492  1.00  0.00    -0.025 C 
HETATM   23  C19 UNL     1     -10.385  47.891 -19.371  1.00  0.00    -0.091 C 
HETATM   24  C20 UNL     1      -9.634  48.356 -18.154  1.00  0.00     0.042 C 
HETATM   25  C21 UNL     1     -11.883  47.992 -19.249  1.00  0.00     0.042 C 
ENDBRANCH  21  22
ENDBRANCH  20  21
ENDBRANCH  18  20
ENDBRANCH  12  18
BRANCH   9  26
HETATM   26  O3  UNL     1      -3.374  50.303 -20.417  1.00  0.00    -0.395 OA
HETATM   27  H14 UNL     1      -2.930  50.936 -19.825  1.00  0.00     0.210 HD
ENDBRANCH   9  26
BRANCH  17  28
HETATM   28  C27 UNL     1       0.139  52.771 -23.563  1.00  0.00     0.011 C 
BRANCH  28  29
HETATM   29  C28 UNL     1       0.863  52.524 -22.233  1.00  0.00     0.027 C 
BRANCH  29  30
HETATM   30  C29 UNL     1       1.014  53.758 -21.354  1.00  0.00     0.164 C 
BRANCH  30  31
HETATM   31  O4  UNL     1       1.917  54.657 -21.985  1.00  0.00    -0.401 OA
HETATM   32  H48 UNL     1       2.096  55.374 -21.353  1.00  0.00     0.209 HD
ENDBRANCH  30  31
ENDBRANCH  29  30
ENDBRANCH  28  29
ENDBRANCH  17  28
BRANCH   1  33
HETATM   33  C2  UNL     1       0.953  51.713 -26.304  1.00  0.00     0.160 C 
HETATM   34  C1  UNL     1       0.984  52.225 -27.714  1.00  0.00     0.094 C 
HETATM   35  O1  UNL     1       1.962  51.450 -25.660  1.00  0.00    -0.295 OA
ENDBRANCH   1  33
TORSDOF 10
ENDMDL
