MODEL 1
REMARK minimizedAffinity -7.92661619
REMARK CNNscore 0.607022166
REMARK CNNaffinity 7.0494175
REMARK  9 active torsions:
REMARK  status: ('A' for Active; 'I' for Inactive)
REMARK    1  A    between atoms: C4_4  and  C5_5 
REMARK    2  A    between atoms: C7_7  and  O1_9 
REMARK    3  A    between atoms: C20_21  and  O2_22 
REMARK    4  A    between atoms: O2_22  and  C21_23 
REMARK    5  A    between atoms: C22_25  and  C23_26 
REMARK    6  A    between atoms: C23_26  and  O4_27 
REMARK    7  A    between atoms: C24_28  and  O5_29 
REMARK    8  A    between atoms: C25_30  and  O6_31 
REMARK    9  A    between atoms: C26_32  and  O7_33 
ROOT
HETATM    1  C5  UNL     1       0.910  16.882  11.200  1.00  0.00     0.147 C 
HETATM    2  C6  UNL     1       2.364  16.380  11.032  1.00  0.00     0.074 C 
HETATM    3  C7  UNL     1       3.064  16.948   9.777  1.00  0.00     0.064 C 
HETATM    4  C8  UNL     1       4.419  16.263   9.582  1.00  0.00     0.046 C 
HETATM    5  C9  UNL     1       2.104  16.729   8.597  1.00  0.00     0.058 C 
HETATM    6  C10 UNL     1       0.782  17.461   8.933  1.00  0.00     0.131 C 
HETATM    7  C11 UNL     1      -0.014  17.557   7.615  1.00  0.00     0.042 C 
HETATM    8  C12 UNL     1       0.897  16.892   6.544  1.00  0.00    -0.029 C 
HETATM    9  C13 UNL     1       0.461  15.389   6.554  1.00  0.00     0.016 C 
HETATM   10  C14 UNL     1       0.835  17.503   5.112  1.00  0.00     0.014 C 
HETATM   11  C15 UNL     1      -0.564  17.499   4.473  1.00  0.00     0.034 C 
HETATM   12  C16 UNL     1      -0.825  16.400   3.484  1.00  0.00    -0.022 C 
HETATM   13  C17 UNL     1       0.071  15.502   3.036  1.00  0.00    -0.059 C 
HETATM   14  C18 UNL     1       1.539  15.567   3.474  1.00  0.00     0.057 C 
HETATM   15  C19 UNL     1       2.476  15.144   2.352  1.00  0.00     0.024 C 
HETATM   16  C20 UNL     1       2.128  14.674   1.140  1.00  0.00     0.116 C 
HETATM   17  C27 UNL     1       0.665  14.513   0.848  1.00  0.00     0.194 C 
HETATM   18  O8  UNL     1       0.293  14.425  -0.328  1.00  0.00    -0.289 OA
HETATM   19  C28 UNL     1      -0.293  14.381   2.042  1.00  0.00     0.044 C 
HETATM   20  C29 UNL     1      -1.738  14.464   1.504  1.00  0.00     0.028 C 
HETATM   21  C30 UNL     1      -0.119  12.991   2.679  1.00  0.00     0.028 C 
HETATM   22  C31 UNL     1       1.945  16.942   4.135  1.00  0.00     0.032 C 
HETATM   23  C32 UNL     1       2.168  18.023   3.034  1.00  0.00     0.025 C 
HETATM   24  C33 UNL     1       3.311  16.746   4.860  1.00  0.00     0.137 C 
HETATM   25  O9  UNL     1       4.380  16.836   4.246  1.00  0.00    -0.297 OA
HETATM   26  C34 UNL     1       3.352  16.346   6.333  1.00  0.00     0.089 C 
HETATM   27  C35 UNL     1       2.343  17.160   7.137  1.00  0.00    -0.021 C 
HETATM   28  C36 UNL     1       2.811  18.649   7.084  1.00  0.00     0.017 C 
HETATM   29  O10 UNL     1       0.148  16.741   9.981  1.00  0.00    -0.376 OA
ENDROOT
BRANCH  16  30
HETATM   30  O2  UNL     1       2.972  14.320   0.121  1.00  0.00    -0.314 OA
BRANCH  30  31
HETATM   31  C21 UNL     1       4.145  15.076  -0.173  1.00  0.00     0.298 C 
HETATM   32  O3  UNL     1       4.312  15.203  -1.591  1.00  0.00    -0.348 OA
HETATM   33  C22 UNL     1       4.403  13.958  -2.306  1.00  0.00     0.179 C 
HETATM   34  C24 UNL     1       5.060  12.830  -1.489  1.00  0.00     0.180 C 
HETATM   35  C25 UNL     1       6.064  13.456  -0.524  1.00  0.00     0.183 C 
HETATM   36  C26 UNL     1       5.352  14.356   0.483  1.00  0.00     0.205 C 
BRANCH  33  37
HETATM   37  C23 UNL     1       3.030  13.539  -2.856  1.00  0.00     0.198 C 
BRANCH  37  38
HETATM   38  O4  UNL     1       3.011  12.177  -3.272  1.00  0.00    -0.398 OA
HETATM   39  H32 UNL     1       3.592  11.664  -2.688  1.00  0.00     0.209 HD
ENDBRANCH  37  38
ENDBRANCH  33  37
BRANCH  34  40
HETATM   40  O5  UNL     1       5.758  11.914  -2.339  1.00  0.00    -0.390 OA
HETATM   41  H34 UNL     1       5.105  11.289  -2.702  1.00  0.00     0.210 HD
ENDBRANCH  34  40
BRANCH  35  42
HETATM   42  O6  UNL     1       6.783  12.439   0.188  1.00  0.00    -0.390 OA
HETATM   43  H36 UNL     1       7.177  11.877  -0.512  1.00  0.00     0.210 HD
ENDBRANCH  35  42
BRANCH  36  44
HETATM   44  O7  UNL     1       6.307  15.296   1.003  1.00  0.00    -0.388 OA
HETATM   45  H38 UNL     1       7.043  14.749   1.340  1.00  0.00     0.210 HD
ENDBRANCH  36  44
ENDBRANCH  30  31
ENDBRANCH  16  30
BRANCH   3  46
HETATM   46  O1  UNL     1       3.306  18.338   9.996  1.00  0.00    -0.390 OA
HETATM   47  H14 UNL     1       3.968  18.426  10.705  1.00  0.00     0.210 HD
ENDBRANCH   3  46
BRANCH   1  48
HETATM   48  C4  UNL     1       0.198  16.070  12.248  1.00  0.00     0.007 C 
HETATM   49  C2  UNL     1      -1.014  16.289  12.802  1.00  0.00    -0.089 C 
HETATM   50  C1  UNL     1      -1.550  15.344  13.847  1.00  0.00     0.042 C 
HETATM   51  C3  UNL     1      -1.931  17.432  12.474  1.00  0.00     0.042 C 
ENDBRANCH   1  48
TORSDOF 9
ENDMDL
MODEL 2
REMARK minimizedAffinity -8.50424576
REMARK CNNscore 0.422709435
REMARK CNNaffinity 6.56310987
REMARK  9 active torsions:
REMARK  status: ('A' for Active; 'I' for Inactive)
REMARK    1  A    between atoms: C4_4  and  C5_5 
REMARK    2  A    between atoms: C7_7  and  O1_9 
REMARK    3  A    between atoms: C20_21  and  O2_22 
REMARK    4  A    between atoms: O2_22  and  C21_23 
REMARK    5  A    between atoms: C22_25  and  C23_26 
REMARK    6  A    between atoms: C23_26  and  O4_27 
REMARK    7  A    between atoms: C24_28  and  O5_29 
REMARK    8  A    between atoms: C25_30  and  O6_31 
REMARK    9  A    between atoms: C26_32  and  O7_33 
ROOT
HETATM    1  C5  UNL     1      -3.158   4.502  13.145  1.00  0.00     0.147 C 
HETATM    2  C6  UNL     1      -2.186   5.105  12.103  1.00  0.00     0.074 C 
HETATM    3  C7  UNL     1      -1.071   5.967  12.738  1.00  0.00     0.064 C 
HETATM    4  C8  UNL     1      -0.272   6.675  11.640  1.00  0.00     0.046 C 
HETATM    5  C9  UNL     1      -1.762   6.944  13.702  1.00  0.00     0.058 C 
HETATM    6  C10 UNL     1      -2.535   6.099  14.742  1.00  0.00     0.131 C 
HETATM    7  C11 UNL     1      -2.899   7.052  15.900  1.00  0.00     0.042 C 
HETATM    8  C12 UNL     1      -2.294   8.427  15.496  1.00  0.00    -0.029 C 
HETATM    9  C13 UNL     1      -3.449   9.136  14.713  1.00  0.00     0.016 C 
HETATM   10  C14 UNL     1      -1.756   9.311  16.660  1.00  0.00     0.014 C 
HETATM   11  C15 UNL     1      -2.799   9.659  17.736  1.00  0.00     0.034 C 
HETATM   12  C16 UNL     1      -3.410  11.026  17.632  1.00  0.00    -0.022 C 
HETATM   13  C17 UNL     1      -3.057  11.994  16.767  1.00  0.00    -0.059 C 
HETATM   14  C18 UNL     1      -1.887  11.794  15.796  1.00  0.00     0.057 C 
HETATM   15  C19 UNL     1      -1.123  13.090  15.567  1.00  0.00     0.024 C 
HETATM   16  C20 UNL     1      -1.433  14.308  16.046  1.00  0.00     0.116 C 
HETATM   17  C27 UNL     1      -2.676  14.435  16.876  1.00  0.00     0.194 C 
HETATM   18  O8  UNL     1      -2.812  15.422  17.609  1.00  0.00    -0.289 OA
HETATM   19  C28 UNL     1      -3.763  13.363  16.707  1.00  0.00     0.044 C 
HETATM   20  C29 UNL     1      -4.818  13.574  17.815  1.00  0.00     0.028 C 
HETATM   21  C30 UNL     1      -4.470  13.567  15.356  1.00  0.00     0.028 C 
HETATM   22  C31 UNL     1      -0.949  10.580  16.172  1.00  0.00     0.032 C 
HETATM   23  C32 UNL     1       0.011  10.982  17.333  1.00  0.00     0.025 C 
HETATM   24  C33 UNL     1      -0.054  10.258  14.936  1.00  0.00     0.137 C 
HETATM   25  O9  UNL     1       0.994  10.879  14.726  1.00  0.00    -0.297 OA
HETATM   26  C34 UNL     1      -0.507   9.227  13.904  1.00  0.00     0.089 C 
HETATM   27  C35 UNL     1      -1.064   7.988  14.596  1.00  0.00    -0.021 C 
HETATM   28  C36 UNL     1       0.118   7.327  15.374  1.00  0.00     0.017 C 
HETATM   29  O10 UNL     1      -3.636   5.498  14.075  1.00  0.00    -0.376 OA
ENDROOT
BRANCH  16  30
HETATM   30  O2  UNL     1      -0.730  15.469  15.862  1.00  0.00    -0.314 OA
BRANCH  30  31
HETATM   31  C21 UNL     1      -1.390  16.722  15.690  1.00  0.00     0.298 C 
HETATM   32  O3  UNL     1      -1.776  16.896  14.320  1.00  0.00    -0.348 OA
HETATM   33  C22 UNL     1      -0.696  16.837  13.373  1.00  0.00     0.179 C 
HETATM   34  C24 UNL     1       0.639  17.360  13.934  1.00  0.00     0.180 C 
HETATM   35  C25 UNL     1       0.336  18.435  14.975  1.00  0.00     0.183 C 
HETATM   36  C26 UNL     1      -0.422  17.839  16.158  1.00  0.00     0.205 C 
BRANCH  33  37
HETATM   37  C23 UNL     1      -0.554  15.421  12.790  1.00  0.00     0.198 C 
BRANCH  37  38
HETATM   38  O4  UNL     1      -1.817  14.801  12.569  1.00  0.00    -0.398 OA
HETATM   39  H32 UNL     1      -2.457  15.482  12.308  1.00  0.00     0.209 HD
ENDBRANCH  37  38
ENDBRANCH  33  37
BRANCH  34  40
HETATM   40  O5  UNL     1       1.441  17.943  12.901  1.00  0.00    -0.390 OA
HETATM   41  H34 UNL     1       1.903  17.219  12.440  1.00  0.00     0.210 HD
ENDBRANCH  34  40
BRANCH  35  42
HETATM   42  O6  UNL     1       1.549  19.034  15.452  1.00  0.00    -0.390 OA
HETATM   43  H36 UNL     1       2.001  19.356  14.645  1.00  0.00     0.210 HD
ENDBRANCH  35  42
BRANCH  36  44
HETATM   44  O7  UNL     1      -1.125  18.900  16.825  1.00  0.00    -0.388 OA
HETATM   45  H38 UNL     1      -0.442  19.569  17.028  1.00  0.00     0.210 HD
ENDBRANCH  36  44
ENDBRANCH  30  31
ENDBRANCH  16  30
BRANCH   3  46
HETATM   46  O1  UNL     1      -0.179   5.097  13.435  1.00  0.00    -0.390 OA
HETATM   47  H14 UNL     1       0.285   4.545  12.779  1.00  0.00     0.210 HD
ENDBRANCH   3  46
BRANCH   1  48
HETATM   48  C4  UNL     1      -4.371   3.937  12.457  1.00  0.00     0.007 C 
HETATM   49  C2  UNL     1      -4.509   2.745  11.838  1.00  0.00    -0.089 C 
HETATM   50  C1  UNL     1      -5.824   2.368  11.205  1.00  0.00     0.042 C 
HETATM   51  C3  UNL     1      -3.437   1.701  11.704  1.00  0.00     0.042 C 
ENDBRANCH   1  48
TORSDOF 9
ENDMDL
MODEL 3
REMARK minimizedAffinity -8.14988327
REMARK CNNscore 0.421082795
REMARK CNNaffinity 6.64180994
REMARK  9 active torsions:
REMARK  status: ('A' for Active; 'I' for Inactive)
REMARK    1  A    between atoms: C4_4  and  C5_5 
REMARK    2  A    between atoms: C7_7  and  O1_9 
REMARK    3  A    between atoms: C20_21  and  O2_22 
REMARK    4  A    between atoms: O2_22  and  C21_23 
REMARK    5  A    between atoms: C22_25  and  C23_26 
REMARK    6  A    between atoms: C23_26  and  O4_27 
REMARK    7  A    between atoms: C24_28  and  O5_29 
REMARK    8  A    between atoms: C25_30  and  O6_31 
REMARK    9  A    between atoms: C26_32  and  O7_33 
ROOT
HETATM    1  C5  UNL     1      -3.163   4.517  13.171  1.00  0.00     0.147 C 
HETATM    2  C6  UNL     1      -2.145   5.060  12.140  1.00  0.00     0.074 C 
HETATM    3  C7  UNL     1      -1.021   5.906  12.781  1.00  0.00     0.064 C 
HETATM    4  C8  UNL     1      -0.172   6.557  11.686  1.00  0.00     0.046 C 
HETATM    5  C9  UNL     1      -1.707   6.931  13.698  1.00  0.00     0.058 C 
HETATM    6  C10 UNL     1      -2.534   6.140  14.739  1.00  0.00     0.131 C 
HETATM    7  C11 UNL     1      -2.899   7.137  15.859  1.00  0.00     0.042 C 
HETATM    8  C12 UNL     1      -2.240   8.480  15.434  1.00  0.00    -0.029 C 
HETATM    9  C13 UNL     1      -3.351   9.201  14.600  1.00  0.00     0.016 C 
HETATM   10  C14 UNL     1      -1.707   9.381  16.587  1.00  0.00     0.014 C 
HETATM   11  C15 UNL     1      -2.766   9.792  17.623  1.00  0.00     0.034 C 
HETATM   12  C16 UNL     1      -3.331  11.173  17.464  1.00  0.00    -0.022 C 
HETATM   13  C17 UNL     1      -2.925  12.104  16.583  1.00  0.00    -0.059 C 
HETATM   14  C18 UNL     1      -1.736  11.841  15.650  1.00  0.00     0.057 C 
HETATM   15  C19 UNL     1      -0.926  13.105  15.406  1.00  0.00     0.024 C 
HETATM   16  C20 UNL     1      -1.210  14.346  15.842  1.00  0.00     0.116 C 
HETATM   17  C27 UNL     1      -2.471  14.535  16.633  1.00  0.00     0.194 C 
HETATM   18  O8  UNL     1      -2.595  15.547  17.334  1.00  0.00    -0.289 OA
HETATM   19  C28 UNL     1      -3.586  13.492  16.465  1.00  0.00     0.044 C 
HETATM   20  C29 UNL     1      -4.663  13.767  17.536  1.00  0.00     0.028 C 
HETATM   21  C30 UNL     1      -4.250  13.679  15.089  1.00  0.00     0.028 C 
HETATM   22  C31 UNL     1      -0.847  10.611  16.085  1.00  0.00     0.032 C 
HETATM   23  C32 UNL     1       0.094  11.016  17.261  1.00  0.00     0.025 C 
HETATM   24  C33 UNL     1       0.070  10.226  14.884  1.00  0.00     0.137 C 
HETATM   25  O9  UNL     1       1.142  10.808  14.686  1.00  0.00    -0.297 OA
HETATM   26  C34 UNL     1      -0.387   9.180  13.870  1.00  0.00     0.089 C 
HETATM   27  C35 UNL     1      -1.001   7.978  14.581  1.00  0.00    -0.021 C 
HETATM   28  C36 UNL     1       0.139   7.304  15.409  1.00  0.00     0.017 C 
HETATM   29  O10 UNL     1      -3.635   5.554  14.059  1.00  0.00    -0.376 OA
ENDROOT
BRANCH  16  30
HETATM   30  O2  UNL     1      -0.467  15.479  15.645  1.00  0.00    -0.314 OA
BRANCH  30  31
HETATM   31  C21 UNL     1      -0.756  16.387  14.583  1.00  0.00     0.298 C 
HETATM   32  O3  UNL     1       0.022  16.059  13.424  1.00  0.00    -0.348 OA
HETATM   33  C22 UNL     1       1.446  16.062  13.627  1.00  0.00     0.179 C 
HETATM   34  C24 UNL     1       1.911  17.087  14.679  1.00  0.00     0.180 C 
HETATM   35  C25 UNL     1       0.942  18.267  14.663  1.00  0.00     0.183 C 
HETATM   36  C26 UNL     1      -0.455  17.822  15.087  1.00  0.00     0.205 C 
BRANCH  33  37
HETATM   37  C23 UNL     1       1.959  14.648  13.943  1.00  0.00     0.198 C 
BRANCH  37  38
HETATM   38  O4  UNL     1       2.480  13.995  12.790  1.00  0.00    -0.398 OA
HETATM   39  H32 UNL     1       2.900  14.659  12.218  1.00  0.00     0.209 HD
ENDBRANCH  37  38
ENDBRANCH  33  37
BRANCH  34  40
HETATM   40  O5  UNL     1       3.224  17.574  14.382  1.00  0.00    -0.390 OA
HETATM   41  H34 UNL     1       3.865  16.921  14.715  1.00  0.00     0.210 HD
ENDBRANCH  34  40
BRANCH  35  42
HETATM   42  O6  UNL     1       1.390  19.302  15.550  1.00  0.00    -0.390 OA
HETATM   43  H36 UNL     1       2.300  19.509  15.250  1.00  0.00     0.210 HD
ENDBRANCH  35  42
BRANCH  36  44
HETATM   44  O7  UNL     1      -1.406  18.770  14.575  1.00  0.00    -0.388 OA
HETATM   45  H38 UNL     1      -1.099  19.638  14.902  1.00  0.00     0.210 HD
ENDBRANCH  36  44
ENDBRANCH  30  31
ENDBRANCH  16  30
BRANCH   3  46
HETATM   46  O1  UNL     1      -0.176   5.030  13.526  1.00  0.00    -0.390 OA
HETATM   47  H14 UNL     1       0.287   4.445  12.899  1.00  0.00     0.210 HD
ENDBRANCH   3  46
BRANCH   1  48
HETATM   48  C4  UNL     1      -4.375   3.971  12.465  1.00  0.00     0.007 C 
HETATM   49  C2  UNL     1      -4.522   2.778  11.849  1.00  0.00    -0.089 C 
HETATM   50  C1  UNL     1      -5.834   2.421  11.197  1.00  0.00     0.042 C 
HETATM   51  C3  UNL     1      -3.467   1.717  11.735  1.00  0.00     0.042 C 
ENDBRANCH   1  48
TORSDOF 9
ENDMDL
MODEL 4
REMARK minimizedAffinity -7.76970434
REMARK CNNscore 0.358374745
REMARK CNNaffinity 6.4369235
REMARK  9 active torsions:
REMARK  status: ('A' for Active; 'I' for Inactive)
REMARK    1  A    between atoms: C4_4  and  C5_5 
REMARK    2  A    between atoms: C7_7  and  O1_9 
REMARK    3  A    between atoms: C20_21  and  O2_22 
REMARK    4  A    between atoms: O2_22  and  C21_23 
REMARK    5  A    between atoms: C22_25  and  C23_26 
REMARK    6  A    between atoms: C23_26  and  O4_27 
REMARK    7  A    between atoms: C24_28  and  O5_29 
REMARK    8  A    between atoms: C25_30  and  O6_31 
REMARK    9  A    between atoms: C26_32  and  O7_33 
ROOT
HETATM    1  C5  UNL     1      -3.077   4.576  13.115  1.00  0.00     0.147 C 
HETATM    2  C6  UNL     1      -2.021   5.136  12.134  1.00  0.00     0.074 C 
HETATM    3  C7  UNL     1      -0.925   5.975  12.831  1.00  0.00     0.064 C 
HETATM    4  C8  UNL     1      -0.035   6.644  11.781  1.00  0.00     0.046 C 
HETATM    5  C9  UNL     1      -1.650   6.984  13.736  1.00  0.00     0.058 C 
HETATM    6  C10 UNL     1      -2.515   6.176  14.732  1.00  0.00     0.131 C 
HETATM    7  C11 UNL     1      -2.926   7.154  15.851  1.00  0.00     0.042 C 
HETATM    8  C12 UNL     1      -2.255   8.505  15.473  1.00  0.00    -0.029 C 
HETATM    9  C13 UNL     1      -3.334   9.237  14.607  1.00  0.00     0.016 C 
HETATM   10  C14 UNL     1      -1.770   9.390  16.660  1.00  0.00     0.014 C 
HETATM   11  C15 UNL     1      -2.871   9.782  17.660  1.00  0.00     0.034 C 
HETATM   12  C16 UNL     1      -3.433  11.165  17.500  1.00  0.00    -0.022 C 
HETATM   13  C17 UNL     1      -2.995  12.110  16.649  1.00  0.00    -0.059 C 
HETATM   14  C18 UNL     1      -1.769  11.863  15.760  1.00  0.00     0.057 C 
HETATM   15  C19 UNL     1      -0.954  13.133  15.567  1.00  0.00     0.024 C 
HETATM   16  C20 UNL     1      -1.259  14.367  16.011  1.00  0.00     0.116 C 
HETATM   17  C27 UNL     1      -2.550  14.541  16.755  1.00  0.00     0.194 C 
HETATM   18  O8  UNL     1      -2.705  15.541  17.465  1.00  0.00    -0.289 OA
HETATM   19  C28 UNL     1      -3.655  13.498  16.526  1.00  0.00     0.044 C 
HETATM   20  C29 UNL     1      -4.774  13.754  17.558  1.00  0.00     0.028 C 
HETATM   21  C30 UNL     1      -4.264  13.704  15.128  1.00  0.00     0.028 C 
HETATM   22  C31 UNL     1      -0.895  10.628  16.211  1.00  0.00     0.032 C 
HETATM   23  C32 UNL     1      -0.002  11.018  17.429  1.00  0.00     0.025 C 
HETATM   24  C33 UNL     1       0.070  10.264  15.042  1.00  0.00     0.137 C 
HETATM   25  O9  UNL     1       1.147  10.852  14.895  1.00  0.00    -0.297 OA
HETATM   26  C34 UNL     1      -0.343   9.233  13.994  1.00  0.00     0.089 C 
HETATM   27  C35 UNL     1      -0.982   8.019  14.662  1.00  0.00    -0.021 C 
HETATM   28  C36 UNL     1       0.127   7.335  15.524  1.00  0.00     0.017 C 
HETATM   29  O10 UNL     1      -3.587   5.597  13.999  1.00  0.00    -0.376 OA
ENDROOT
BRANCH  16  30
HETATM   30  O2  UNL     1      -0.511  15.504  15.861  1.00  0.00    -0.314 OA
BRANCH  30  31
HETATM   31  C21 UNL     1       0.914  15.459  15.810  1.00  0.00     0.298 C 
HETATM   32  O3  UNL     1       1.474  16.312  16.817  1.00  0.00    -0.348 OA
HETATM   33  C22 UNL     1       1.077  17.692  16.734  1.00  0.00     0.179 C 
HETATM   34  C24 UNL     1       0.815  18.167  15.293  1.00  0.00     0.180 C 
HETATM   35  C25 UNL     1       1.715  17.371  14.351  1.00  0.00     0.183 C 
HETATM   36  C26 UNL     1       1.354  15.889  14.387  1.00  0.00     0.205 C 
BRANCH  33  37
HETATM   37  C23 UNL     1      -0.121  17.975  17.655  1.00  0.00     0.198 C 
BRANCH  37  38
HETATM   38  O4  UNL     1      -0.358  16.910  18.570  1.00  0.00    -0.398 OA
HETATM   39  H32 UNL     1       0.493  16.516  18.819  1.00  0.00     0.209 HD
ENDBRANCH  37  38
ENDBRANCH  33  37
BRANCH  34  40
HETATM   40  O5  UNL     1       1.119  19.558  15.143  1.00  0.00    -0.390 OA
HETATM   41  H34 UNL     1       0.352  20.066  15.465  1.00  0.00     0.210 HD
ENDBRANCH  34  40
BRANCH  35  42
HETATM   42  O6  UNL     1       1.590  17.850  13.005  1.00  0.00    -0.390 OA
HETATM   43  H36 UNL     1       1.793  18.807  13.061  1.00  0.00     0.210 HD
ENDBRANCH  35  42
BRANCH  36  44
HETATM   44  O7  UNL     1       2.492  15.135  13.937  1.00  0.00    -0.388 OA
HETATM   45  H38 UNL     1       2.719  15.515  13.066  1.00  0.00     0.210 HD
ENDBRANCH  36  44
ENDBRANCH  30  31
ENDBRANCH  16  30
BRANCH   3  46
HETATM   46  O1  UNL     1      -0.108   5.089  13.596  1.00  0.00    -0.390 OA
HETATM   47  H14 UNL     1       0.382   4.515  12.979  1.00  0.00     0.210 HD
ENDBRANCH   3  46
BRANCH   1  48
HETATM   48  C4  UNL     1      -4.258   4.037  12.354  1.00  0.00     0.007 C 
HETATM   49  C2  UNL     1      -4.397   2.833  11.759  1.00  0.00    -0.089 C 
HETATM   50  C1  UNL     1      -5.677   2.487  11.041  1.00  0.00     0.042 C 
HETATM   51  C3  UNL     1      -3.361   1.746  11.732  1.00  0.00     0.042 C 
ENDBRANCH   1  48
TORSDOF 9
ENDMDL
MODEL 5
REMARK minimizedAffinity -11.247983
REMARK CNNscore 0.352730274
REMARK CNNaffinity 7.69824982
REMARK  9 active torsions:
REMARK  status: ('A' for Active; 'I' for Inactive)
REMARK    1  A    between atoms: C4_4  and  C5_5 
REMARK    2  A    between atoms: C7_7  and  O1_9 
REMARK    3  A    between atoms: C20_21  and  O2_22 
REMARK    4  A    between atoms: O2_22  and  C21_23 
REMARK    5  A    between atoms: C22_25  and  C23_26 
REMARK    6  A    between atoms: C23_26  and  O4_27 
REMARK    7  A    between atoms: C24_28  and  O5_29 
REMARK    8  A    between atoms: C25_30  and  O6_31 
REMARK    9  A    between atoms: C26_32  and  O7_33 
ROOT
HETATM    1  C5  UNL     1     -10.192   7.408  14.750  1.00  0.00     0.147 C 
HETATM    2  C6  UNL     1     -10.085   6.993  13.264  1.00  0.00     0.074 C 
HETATM    3  C7  UNL     1      -8.964   5.962  12.998  1.00  0.00     0.064 C 
HETATM    4  C8  UNL     1      -8.800   5.748  11.492  1.00  0.00     0.046 C 
HETATM    5  C9  UNL     1      -7.693   6.508  13.670  1.00  0.00     0.058 C 
HETATM    6  C10 UNL     1      -8.004   6.686  15.175  1.00  0.00     0.131 C 
HETATM    7  C11 UNL     1      -6.646   6.863  15.886  1.00  0.00     0.042 C 
HETATM    8  C12 UNL     1      -5.582   6.754  14.756  1.00  0.00    -0.029 C 
HETATM    9  C13 UNL     1      -5.384   8.231  14.277  1.00  0.00     0.016 C 
HETATM   10  C14 UNL     1      -4.230   6.087  15.146  1.00  0.00     0.014 C 
HETATM   11  C15 UNL     1      -3.485   6.775  16.303  1.00  0.00     0.034 C 
HETATM   12  C16 UNL     1      -2.359   7.683  15.903  1.00  0.00    -0.022 C 
HETATM   13  C17 UNL     1      -1.883   7.862  14.657  1.00  0.00    -0.059 C 
HETATM   14  C18 UNL     1      -2.442   7.057  13.477  1.00  0.00     0.057 C 
HETATM   15  C19 UNL     1      -1.357   6.729  12.462  1.00  0.00     0.024 C 
HETATM   16  C20 UNL     1      -0.076   7.138  12.484  1.00  0.00     0.116 C 
HETATM   17  C27 UNL     1       0.349   8.038  13.606  1.00  0.00     0.194 C 
HETATM   18  O8  UNL     1       1.553   8.152  13.863  1.00  0.00    -0.289 OA
HETATM   19  C28 UNL     1      -0.741   8.844  14.330  1.00  0.00     0.044 C 
HETATM   20  C29 UNL     1      -0.102   9.501  15.572  1.00  0.00     0.028 C 
HETATM   21  C30 UNL     1      -1.226   9.978  13.410  1.00  0.00     0.028 C 
HETATM   22  C31 UNL     1      -3.287   5.796  13.911  1.00  0.00     0.032 C 
HETATM   23  C32 UNL     1      -2.339   4.631  14.328  1.00  0.00     0.025 C 
HETATM   24  C33 UNL     1      -4.092   5.302  12.670  1.00  0.00     0.137 C 
HETATM   25  O9  UNL     1      -3.579   4.551  11.833  1.00  0.00    -0.297 OA
HETATM   26  C34 UNL     1      -5.508   5.815  12.415  1.00  0.00     0.089 C 
HETATM   27  C35 UNL     1      -6.316   5.817  13.709  1.00  0.00    -0.021 C 
HETATM   28  C36 UNL     1      -6.473   4.328  14.153  1.00  0.00     0.017 C 
HETATM   29  O10 UNL     1      -8.909   7.775  15.301  1.00  0.00    -0.376 OA
ENDROOT
BRANCH  16  30
HETATM   30  O2  UNL     1       0.907   6.819  11.585  1.00  0.00    -0.314 OA
BRANCH  30  31
HETATM   31  C21 UNL     1       2.133   7.546  11.530  1.00  0.00     0.298 C 
HETATM   32  O3  UNL     1       2.142   8.420  10.393  1.00  0.00    -0.348 OA
HETATM   33  C22 UNL     1       1.963   7.768   9.124  1.00  0.00     0.179 C 
HETATM   34  C24 UNL     1       2.544   6.342   9.082  1.00  0.00     0.180 C 
HETATM   35  C25 UNL     1       3.739   6.280  10.031  1.00  0.00     0.183 C 
HETATM   36  C26 UNL     1       3.294   6.520  11.472  1.00  0.00     0.205 C 
BRANCH  33  37
HETATM   37  C23 UNL     1       0.487   7.794   8.696  1.00  0.00     0.198 C 
BRANCH  37  38
HETATM   38  O4  UNL     1      -0.093   9.086   8.847  1.00  0.00    -0.398 OA
HETATM   39  H32 UNL     1       0.585   9.756   8.662  1.00  0.00     0.209 HD
ENDBRANCH  37  38
ENDBRANCH  33  37
BRANCH  34  40
HETATM   40  O5  UNL     1       2.994   6.005   7.766  1.00  0.00    -0.390 OA
HETATM   41  H34 UNL     1       2.218   5.718   7.251  1.00  0.00     0.210 HD
ENDBRANCH  34  40
BRANCH  35  42
HETATM   42  O6  UNL     1       4.385   5.002   9.950  1.00  0.00    -0.390 OA
HETATM   43  H36 UNL     1       4.605   4.895   9.001  1.00  0.00     0.210 HD
ENDBRANCH  35  42
BRANCH  36  44
HETATM   44  O7  UNL     1       4.431   6.967  12.228  1.00  0.00    -0.388 OA
HETATM   45  H38 UNL     1       5.116   6.285  12.083  1.00  0.00     0.210 HD
ENDBRANCH  36  44
ENDBRANCH  30  31
ENDBRANCH  16  30
BRANCH   3  46
HETATM   46  O1  UNL     1      -9.359   4.718  13.576  1.00  0.00    -0.390 OA
HETATM   47  H14 UNL     1     -10.125   4.378  13.077  1.00  0.00     0.210 HD
ENDBRANCH   3  46
BRANCH   1  48
HETATM   48  C4  UNL     1     -11.080   8.615  14.889  1.00  0.00     0.007 C 
HETATM   49  C2  UNL     1     -11.776   9.262  13.929  1.00  0.00    -0.089 C 
HETATM   50  C1  UNL     1     -12.615  10.464  14.282  1.00  0.00     0.042 C 
HETATM   51  C3  UNL     1     -11.803   8.896  12.473  1.00  0.00     0.042 C 
ENDBRANCH   1  48
TORSDOF 9
ENDMDL
MODEL 6
REMARK minimizedAffinity -7.42012167
REMARK CNNscore 0.351950556
REMARK CNNaffinity 6.26374626
REMARK  9 active torsions:
REMARK  status: ('A' for Active; 'I' for Inactive)
REMARK    1  A    between atoms: C4_4  and  C5_5 
REMARK    2  A    between atoms: C7_7  and  O1_9 
REMARK    3  A    between atoms: C20_21  and  O2_22 
REMARK    4  A    between atoms: O2_22  and  C21_23 
REMARK    5  A    between atoms: C22_25  and  C23_26 
REMARK    6  A    between atoms: C23_26  and  O4_27 
REMARK    7  A    between atoms: C24_28  and  O5_29 
REMARK    8  A    between atoms: C25_30  and  O6_31 
REMARK    9  A    between atoms: C26_32  and  O7_33 
ROOT
HETATM    1  C5  UNL     1      -5.999  15.610  22.108  1.00  0.00     0.147 C 
HETATM    2  C6  UNL     1      -4.524  15.903  22.471  1.00  0.00     0.074 C 
HETATM    3  C7  UNL     1      -3.646  16.225  21.241  1.00  0.00     0.064 C 
HETATM    4  C8  UNL     1      -2.176  16.315  21.660  1.00  0.00     0.046 C 
HETATM    5  C9  UNL     1      -3.909  15.118  20.207  1.00  0.00     0.058 C 
HETATM    6  C10 UNL     1      -5.423  15.134  19.887  1.00  0.00     0.131 C 
HETATM    7  C11 UNL     1      -5.609  14.302  18.602  1.00  0.00     0.042 C 
HETATM    8  C12 UNL     1      -4.175  13.850  18.202  1.00  0.00    -0.029 C 
HETATM    9  C13 UNL     1      -3.998  12.471  18.921  1.00  0.00     0.016 C 
HETATM   10  C14 UNL     1      -3.885  13.748  16.676  1.00  0.00     0.014 C 
HETATM   11  C15 UNL     1      -4.811  12.787  15.909  1.00  0.00     0.034 C 
HETATM   12  C16 UNL     1      -4.240  11.432  15.611  1.00  0.00    -0.022 C 
HETATM   13  C17 UNL     1      -2.980  11.027  15.852  1.00  0.00    -0.059 C 
HETATM   14  C18 UNL     1      -1.938  11.994  16.429  1.00  0.00     0.057 C 
HETATM   15  C19 UNL     1      -0.552  11.722  15.866  1.00  0.00     0.024 C 
HETATM   16  C20 UNL     1      -0.194  10.723  15.039  1.00  0.00     0.116 C 
HETATM   17  C27 UNL     1      -1.254   9.740  14.635  1.00  0.00     0.194 C 
HETATM   18  O8  UNL     1      -1.071   9.037  13.634  1.00  0.00    -0.289 OA
HETATM   19  C28 UNL     1      -2.485   9.600  15.543  1.00  0.00     0.044 C 
HETATM   20  C29 UNL     1      -3.521   8.721  14.810  1.00  0.00     0.028 C 
HETATM   21  C30 UNL     1      -2.082   8.858  16.830  1.00  0.00     0.028 C 
HETATM   22  C31 UNL     1      -2.359  13.512  16.334  1.00  0.00     0.032 C 
HETATM   23  C32 UNL     1      -2.131  14.044  14.886  1.00  0.00     0.025 C 
HETATM   24  C33 UNL     1      -1.422  14.335  17.271  1.00  0.00     0.137 C 
HETATM   25  O9  UNL     1      -0.311  14.718  16.887  1.00  0.00    -0.297 OA
HETATM   26  C34 UNL     1      -1.823  14.604  18.720  1.00  0.00     0.089 C 
HETATM   27  C35 UNL     1      -3.288  15.021  18.800  1.00  0.00    -0.021 C 
HETATM   28  C36 UNL     1      -3.416  16.389  18.058  1.00  0.00     0.017 C 
HETATM   29  O10 UNL     1      -6.109  14.651  21.034  1.00  0.00    -0.376 OA
ENDROOT
BRANCH  16  30
HETATM   30  O2  UNL     1       1.048  10.495  14.510  1.00  0.00    -0.314 OA
BRANCH  30  31
HETATM   31  C21 UNL     1       2.155  10.135  15.335  1.00  0.00     0.298 C 
HETATM   32  O3  UNL     1       3.199   9.556  14.540  1.00  0.00    -0.348 OA
HETATM   33  C22 UNL     1       2.816   8.391  13.789  1.00  0.00     0.179 C 
HETATM   34  C24 UNL     1       1.732   7.545  14.483  1.00  0.00     0.180 C 
HETATM   35  C25 UNL     1       1.893   7.701  15.994  1.00  0.00     0.183 C 
HETATM   36  C26 UNL     1       1.644   9.147  16.415  1.00  0.00     0.205 C 
BRANCH  33  37
HETATM   37  C23 UNL     1       2.410   8.771  12.355  1.00  0.00     0.198 C 
BRANCH  37  38
HETATM   38  O4  UNL     1       2.001   7.638  11.595  1.00  0.00    -0.398 OA
HETATM   39  H32 UNL     1       1.553   7.011  12.185  1.00  0.00     0.209 HD
ENDBRANCH  37  38
ENDBRANCH  33  37
BRANCH  34  40
HETATM   40  O5  UNL     1       1.867   6.159  14.154  1.00  0.00    -0.390 OA
HETATM   41  H34 UNL     1       1.443   6.017  13.288  1.00  0.00     0.210 HD
ENDBRANCH  34  40
BRANCH  35  42
HETATM   42  O6  UNL     1       0.976   6.847  16.692  1.00  0.00    -0.390 OA
HETATM   43  H36 UNL     1       1.160   5.949  16.346  1.00  0.00     0.210 HD
ENDBRANCH  35  42
BRANCH  36  44
HETATM   44  O7  UNL     1       2.290   9.367  17.679  1.00  0.00    -0.388 OA
HETATM   45  H38 UNL     1       1.942   8.668  18.267  1.00  0.00     0.210 HD
ENDBRANCH  36  44
ENDBRANCH  30  31
ENDBRANCH  16  30
BRANCH   3  46
HETATM   46  O1  UNL     1      -4.035  17.504  20.740  1.00  0.00    -0.390 OA
HETATM   47  H14 UNL     1      -3.789  18.179  21.398  1.00  0.00     0.210 HD
ENDBRANCH   3  46
BRANCH   1  48
HETATM   48  C4  UNL     1      -6.717  15.017  23.290  1.00  0.00     0.007 C 
HETATM   49  C2  UNL     1      -7.684  15.572  24.052  1.00  0.00    -0.089 C 
HETATM   50  C1  UNL     1      -8.278  14.799  25.202  1.00  0.00     0.042 C 
HETATM   51  C3  UNL     1      -8.259  16.947  23.870  1.00  0.00     0.042 C 
ENDBRANCH   1  48
TORSDOF 9
ENDMDL
MODEL 7
REMARK minimizedAffinity -9.94144154
REMARK CNNscore 0.341229796
REMARK CNNaffinity 7.51703882
REMARK  9 active torsions:
REMARK  status: ('A' for Active; 'I' for Inactive)
REMARK    1  A    between atoms: C4_4  and  C5_5 
REMARK    2  A    between atoms: C7_7  and  O1_9 
REMARK    3  A    between atoms: C20_21  and  O2_22 
REMARK    4  A    between atoms: O2_22  and  C21_23 
REMARK    5  A    between atoms: C22_25  and  C23_26 
REMARK    6  A    between atoms: C23_26  and  O4_27 
REMARK    7  A    between atoms: C24_28  and  O5_29 
REMARK    8  A    between atoms: C25_30  and  O6_31 
REMARK    9  A    between atoms: C26_32  and  O7_33 
ROOT
HETATM    1  C5  UNL     1      -9.463   7.296  14.859  1.00  0.00     0.147 C 
HETATM    2  C6  UNL     1      -9.559   6.962  13.351  1.00  0.00     0.074 C 
HETATM    3  C7  UNL     1      -8.604   5.827  12.916  1.00  0.00     0.064 C 
HETATM    4  C8  UNL     1      -8.622   5.688  11.392  1.00  0.00     0.046 C 
HETATM    5  C9  UNL     1      -7.215   6.181  13.471  1.00  0.00     0.058 C 
HETATM    6  C10 UNL     1      -7.347   6.301  15.008  1.00  0.00     0.131 C 
HETATM    7  C11 UNL     1      -5.913   6.277  15.575  1.00  0.00     0.042 C 
HETATM    8  C12 UNL     1      -4.990   6.115  14.334  1.00  0.00    -0.029 C 
HETATM    9  C13 UNL     1      -4.664   7.586  13.908  1.00  0.00     0.016 C 
HETATM   10  C14 UNL     1      -3.697   5.274  14.542  1.00  0.00     0.014 C 
HETATM   11  C15 UNL     1      -2.759   5.799  15.643  1.00  0.00     0.034 C 
HETATM   12  C16 UNL     1      -1.578   6.594  15.167  1.00  0.00    -0.022 C 
HETATM   13  C17 UNL     1      -1.213   6.792  13.888  1.00  0.00    -0.059 C 
HETATM   14  C18 UNL     1      -1.983   6.131  12.738  1.00  0.00     0.057 C 
HETATM   15  C19 UNL     1      -1.055   5.742  11.596  1.00  0.00     0.024 C 
HETATM   16  C20 UNL     1       0.262   5.998  11.499  1.00  0.00     0.116 C 
HETATM   17  C27 UNL     1       0.905   6.774  12.611  1.00  0.00     0.194 C 
HETATM   18  O8  UNL     1       2.134   6.732  12.741  1.00  0.00    -0.289 OA
HETATM   19  C28 UNL     1       0.000   7.654  13.487  1.00  0.00     0.044 C 
HETATM   20  C29 UNL     1       0.837   8.156  14.683  1.00  0.00     0.028 C 
HETATM   21  C30 UNL     1      -0.435   8.891  12.681  1.00  0.00     0.028 C 
HETATM   22  C31 UNL     1      -2.926   4.952  13.199  1.00  0.00     0.032 C 
HETATM   23  C32 UNL     1      -2.089   3.662  13.454  1.00  0.00     0.025 C 
HETATM   24  C33 UNL     1      -3.907   4.631  12.030  1.00  0.00     0.137 C 
HETATM   25  O9  UNL     1      -3.577   3.878  11.107  1.00  0.00    -0.297 OA
HETATM   26  C34 UNL     1      -5.269   5.318  11.955  1.00  0.00     0.089 C 
HETATM   27  C35 UNL     1      -5.935   5.335  13.327  1.00  0.00    -0.021 C 
HETATM   28  C36 UNL     1      -6.225   3.849  13.713  1.00  0.00     0.017 C 
HETATM   29  O10 UNL     1      -8.095   7.477  15.284  1.00  0.00    -0.376 OA
ENDROOT
BRANCH  16  30
HETATM   30  O2  UNL     1       1.102   5.624  10.484  1.00  0.00    -0.314 OA
BRANCH  30  31
HETATM   31  C21 UNL     1       1.321   6.460   9.350  1.00  0.00     0.298 C 
HETATM   32  O3  UNL     1       2.253   5.844   8.451  1.00  0.00    -0.348 OA
HETATM   33  C22 UNL     1       3.536   5.538   9.022  1.00  0.00     0.179 C 
HETATM   34  C24 UNL     1       3.969   6.528  10.120  1.00  0.00     0.180 C 
HETATM   35  C25 UNL     1       3.362   7.893   9.804  1.00  0.00     0.183 C 
HETATM   36  C26 UNL     1       1.838   7.830   9.860  1.00  0.00     0.205 C 
BRANCH  33  37
HETATM   37  C23 UNL     1       3.584   4.083   9.517  1.00  0.00     0.198 C 
BRANCH  37  38
HETATM   38  O4  UNL     1       4.675   3.360   8.954  1.00  0.00    -0.398 OA
HETATM   39  H32 UNL     1       5.424   3.966   8.837  1.00  0.00     0.209 HD
ENDBRANCH  37  38
ENDBRANCH  33  37
BRANCH  34  40
HETATM   40  O5  UNL     1       5.393   6.664  10.162  1.00  0.00    -0.390 OA
HETATM   41  H34 UNL     1       5.748   5.917  10.677  1.00  0.00     0.210 HD
ENDBRANCH  34  40
BRANCH  35  42
HETATM   42  O6  UNL     1       3.822   8.881  10.737  1.00  0.00    -0.390 OA
HETATM   43  H36 UNL     1       4.799   8.839  10.681  1.00  0.00     0.210 HD
ENDBRANCH  35  42
BRANCH  36  44
HETATM   44  O7  UNL     1       1.311   8.916   9.080  1.00  0.00    -0.388 OA
HETATM   45  H38 UNL     1       1.735   9.718   9.443  1.00  0.00     0.210 HD
ENDBRANCH  36  44
ENDBRANCH  30  31
ENDBRANCH  16  30
BRANCH   3  46
HETATM   46  O1  UNL     1      -9.087   4.604  13.472  1.00  0.00    -0.390 OA
HETATM   47  H14 UNL     1      -9.934   4.386  13.043  1.00  0.00     0.210 HD
ENDBRANCH   3  46
BRANCH   1  48
HETATM   48  C4  UNL     1     -10.180   8.587  15.151  1.00  0.00     0.007 C 
HETATM   49  C2  UNL     1     -11.275   9.096  14.547  1.00  0.00    -0.089 C 
HETATM   50  C1  UNL     1     -11.841  10.419  14.997  1.00  0.00     0.042 C 
HETATM   51  C3  UNL     1     -12.027   8.455  13.417  1.00  0.00     0.042 C 
ENDBRANCH   1  48
TORSDOF 9
ENDMDL
MODEL 8
REMARK minimizedAffinity -7.86613989
REMARK CNNscore 0.337033927
REMARK CNNaffinity 6.10614204
REMARK  9 active torsions:
REMARK  status: ('A' for Active; 'I' for Inactive)
REMARK    1  A    between atoms: C4_4  and  C5_5 
REMARK    2  A    between atoms: C7_7  and  O1_9 
REMARK    3  A    between atoms: C20_21  and  O2_22 
REMARK    4  A    between atoms: O2_22  and  C21_23 
REMARK    5  A    between atoms: C22_25  and  C23_26 
REMARK    6  A    between atoms: C23_26  and  O4_27 
REMARK    7  A    between atoms: C24_28  and  O5_29 
REMARK    8  A    between atoms: C25_30  and  O6_31 
REMARK    9  A    between atoms: C26_32  and  O7_33 
ROOT
HETATM    1  C5  UNL     1      -2.679   5.536  13.720  1.00  0.00     0.147 C 
HETATM    2  C6  UNL     1      -2.242   6.455  12.555  1.00  0.00     0.074 C 
HETATM    3  C7  UNL     1      -1.301   7.598  13.000  1.00  0.00     0.064 C 
HETATM    4  C8  UNL     1      -1.069   8.563  11.835  1.00  0.00     0.046 C 
HETATM    5  C9  UNL     1      -1.964   8.269  14.213  1.00  0.00     0.058 C 
HETATM    6  C10 UNL     1      -2.148   7.183  15.300  1.00  0.00     0.131 C 
HETATM    7  C11 UNL     1      -2.451   7.927  16.617  1.00  0.00     0.042 C 
HETATM    8  C12 UNL     1      -2.405   9.437  16.248  1.00  0.00    -0.029 C 
HETATM    9  C13 UNL     1      -3.883   9.778  15.860  1.00  0.00     0.016 C 
HETATM   10  C14 UNL     1      -1.859  10.398  17.345  1.00  0.00     0.014 C 
HETATM   11  C15 UNL     1      -2.631  10.358  18.675  1.00  0.00     0.034 C 
HETATM   12  C16 UNL     1      -3.619  11.467  18.888  1.00  0.00    -0.022 C 
HETATM   13  C17 UNL     1      -3.810  12.530  18.087  1.00  0.00    -0.059 C 
HETATM   14  C18 UNL     1      -2.937  12.746  16.844  1.00  0.00     0.057 C 
HETATM   15  C19 UNL     1      -2.677  14.224  16.595  1.00  0.00     0.024 C 
HETATM   16  C20 UNL     1      -3.189  15.264  17.278  1.00  0.00     0.116 C 
HETATM   17  C27 UNL     1      -4.146  14.961  18.394  1.00  0.00     0.194 C 
HETATM   18  O8  UNL     1      -4.363  15.826  19.251  1.00  0.00    -0.289 OA
HETATM   19  C28 UNL     1      -4.875  13.609  18.365  1.00  0.00     0.044 C 
HETATM   20  C29 UNL     1      -5.608  13.434  19.712  1.00  0.00     0.028 C 
HETATM   21  C30 UNL     1      -5.945  13.635  17.260  1.00  0.00     0.028 C 
HETATM   22  C31 UNL     1      -1.620  11.875  16.832  1.00  0.00     0.032 C 
HETATM   23  C32 UNL     1      -0.546  12.511  17.766  1.00  0.00     0.025 C 
HETATM   24  C33 UNL     1      -1.035  11.900  15.387  1.00  0.00     0.137 C 
HETATM   25  O9  UNL     1      -0.311  12.826  15.006  1.00  0.00    -0.297 OA
HETATM   26  C34 UNL     1      -1.425  10.821  14.379  1.00  0.00     0.089 C 
HETATM   27  C35 UNL     1      -1.389   9.442  15.031  1.00  0.00    -0.021 C 
HETATM   28  C36 UNL     1       0.098   9.156  15.413  1.00  0.00     0.017 C 
HETATM   29  O10 UNL     1      -3.161   6.294  14.851  1.00  0.00    -0.376 OA
ENDROOT
BRANCH  16  30
HETATM   30  O2  UNL     1      -2.933  16.593  17.071  1.00  0.00    -0.314 OA
BRANCH  30  31
HETATM   31  C21 UNL     1      -3.544  17.314  16.003  1.00  0.00     0.298 C 
HETATM   32  O3  UNL     1      -2.659  17.376  14.876  1.00  0.00    -0.348 OA
HETATM   33  C22 UNL     1      -1.383  17.984  15.139  1.00  0.00     0.179 C 
HETATM   34  C24 UNL     1      -1.440  19.084  16.214  1.00  0.00     0.180 C 
HETATM   35  C25 UNL     1      -2.819  19.737  16.164  1.00  0.00     0.183 C 
HETATM   36  C26 UNL     1      -3.905  18.728  16.526  1.00  0.00     0.205 C 
BRANCH  33  37
HETATM   37  C23 UNL     1      -0.325  16.918  15.469  1.00  0.00     0.198 C 
BRANCH  37  38
HETATM   38  O4  UNL     1      -0.335  15.844  14.535  1.00  0.00    -0.398 OA
HETATM   39  H32 UNL     1      -0.563  16.194  13.658  1.00  0.00     0.209 HD
ENDBRANCH  37  38
ENDBRANCH  33  37
BRANCH  34  40
HETATM   40  O5  UNL     1      -0.452  20.093  15.975  1.00  0.00    -0.390 OA
HETATM   41  H34 UNL     1       0.395  19.769  16.332  1.00  0.00     0.210 HD
ENDBRANCH  34  40
BRANCH  35  42
HETATM   42  O6  UNL     1      -2.889  20.844  17.074  1.00  0.00    -0.390 OA
HETATM   43  H36 UNL     1      -2.146  21.427  16.814  1.00  0.00     0.210 HD
ENDBRANCH  35  42
BRANCH  36  44
HETATM   44  O7  UNL     1      -5.151  19.189  15.980  1.00  0.00    -0.388 OA
HETATM   45  H38 UNL     1      -5.258  20.098  16.324  1.00  0.00     0.210 HD
ENDBRANCH  36  44
ENDBRANCH  30  31
ENDBRANCH  16  30
BRANCH   3  46
HETATM   46  O1  UNL     1      -0.041   7.025  13.349  1.00  0.00    -0.390 OA
HETATM   47  H14 UNL     1       0.371   6.672  12.539  1.00  0.00     0.210 HD
ENDBRANCH   3  46
BRANCH   1  48
HETATM   48  C4  UNL     1      -3.812   4.647  13.283  1.00  0.00     0.007 C 
HETATM   49  C2  UNL     1      -5.119   4.958  13.144  1.00  0.00    -0.089 C 
HETATM   50  C1  UNL     1      -6.101   3.909  12.688  1.00  0.00     0.042 C 
HETATM   51  C3  UNL     1      -5.730   6.303  13.409  1.00  0.00     0.042 C 
ENDBRANCH   1  48
TORSDOF 9
ENDMDL
MODEL 9
REMARK minimizedAffinity -7.75158501
REMARK CNNscore 0.30194968
REMARK CNNaffinity 6.10178423
REMARK  9 active torsions:
REMARK  status: ('A' for Active; 'I' for Inactive)
REMARK    1  A    between atoms: C4_4  and  C5_5 
REMARK    2  A    between atoms: C7_7  and  O1_9 
REMARK    3  A    between atoms: C20_21  and  O2_22 
REMARK    4  A    between atoms: O2_22  and  C21_23 
REMARK    5  A    between atoms: C22_25  and  C23_26 
REMARK    6  A    between atoms: C23_26  and  O4_27 
REMARK    7  A    between atoms: C24_28  and  O5_29 
REMARK    8  A    between atoms: C25_30  and  O6_31 
REMARK    9  A    between atoms: C26_32  and  O7_33 
ROOT
HETATM    1  C5  UNL     1      -2.927   5.664  13.510  1.00  0.00     0.147 C 
HETATM    2  C6  UNL     1      -2.272   6.618  12.483  1.00  0.00     0.074 C 
HETATM    3  C7  UNL     1      -1.258   7.596  13.121  1.00  0.00     0.064 C 
HETATM    4  C8  UNL     1      -0.800   8.621  12.081  1.00  0.00     0.046 C 
HETATM    5  C9  UNL     1      -1.962   8.237  14.328  1.00  0.00     0.058 C 
HETATM    6  C10 UNL     1      -2.378   7.093  15.283  1.00  0.00     0.131 C 
HETATM    7  C11 UNL     1      -2.728   7.754  16.632  1.00  0.00     0.042 C 
HETATM    8  C12 UNL     1      -2.474   9.273  16.416  1.00  0.00    -0.029 C 
HETATM    9  C13 UNL     1      -3.856   9.823  15.929  1.00  0.00     0.016 C 
HETATM   10  C14 UNL     1      -1.938  10.063  17.646  1.00  0.00     0.014 C 
HETATM   11  C15 UNL     1      -2.841  10.005  18.890  1.00  0.00     0.034 C 
HETATM   12  C16 UNL     1      -3.714  11.204  19.118  1.00  0.00    -0.022 C 
HETATM   13  C17 UNL     1      -3.700  12.347  18.409  1.00  0.00    -0.059 C 
HETATM   14  C18 UNL     1      -2.685  12.560  17.278  1.00  0.00     0.057 C 
HETATM   15  C19 UNL     1      -2.235  14.011  17.198  1.00  0.00     0.024 C 
HETATM   16  C20 UNL     1      -2.694  15.043  17.929  1.00  0.00     0.116 C 
HETATM   17  C27 UNL     1      -3.788  14.766  18.917  1.00  0.00     0.194 C 
HETATM   18  O8  UNL     1      -3.993  15.574  19.830  1.00  0.00    -0.289 OA
HETATM   19  C28 UNL     1      -4.659  13.520  18.691  1.00  0.00     0.044 C 
HETATM   20  C29 UNL     1      -5.542  13.322  19.942  1.00  0.00     0.028 C 
HETATM   21  C30 UNL     1      -5.601  13.771  17.500  1.00  0.00     0.028 C 
HETATM   22  C31 UNL     1      -1.482  11.538  17.303  1.00  0.00     0.032 C 
HETATM   23  C32 UNL     1      -0.444  11.956  18.388  1.00  0.00     0.025 C 
HETATM   24  C33 UNL     1      -0.753  11.614  15.927  1.00  0.00     0.137 C 
HETATM   25  O9  UNL     1       0.106  12.474  15.705  1.00  0.00    -0.297 OA
HETATM   26  C34 UNL     1      -1.157  10.681  14.788  1.00  0.00     0.089 C 
HETATM   27  C35 UNL     1      -1.344   9.258  15.304  1.00  0.00    -0.021 C 
HETATM   28  C36 UNL     1       0.054   8.760  15.791  1.00  0.00     0.017 C 
HETATM   29  O10 UNL     1      -3.434   6.376  14.659  1.00  0.00    -0.376 OA
ENDROOT
BRANCH  16  30
HETATM   30  O2  UNL     1      -2.269  16.344  17.875  1.00  0.00    -0.314 OA
BRANCH  30  31
HETATM   31  C21 UNL     1      -1.001  16.692  17.321  1.00  0.00     0.298 C 
HETATM   32  O3  UNL     1       0.026  16.568  18.314  1.00  0.00    -0.348 OA
HETATM   33  C22 UNL     1      -0.170  17.366  19.494  1.00  0.00     0.179 C 
HETATM   34  C24 UNL     1      -0.907  18.690  19.221  1.00  0.00     0.180 C 
HETATM   35  C25 UNL     1      -0.573  19.144  17.803  1.00  0.00     0.183 C 
HETATM   36  C26 UNL     1      -1.100  18.142  16.779  1.00  0.00     0.205 C 
BRANCH  33  37
HETATM   37  C23 UNL     1      -0.856  16.549  20.602  1.00  0.00     0.198 C 
BRANCH  37  38
HETATM   38  O4  UNL     1      -0.422  15.193  20.616  1.00  0.00    -0.398 OA
HETATM   39  H32 UNL     1       0.512  15.161  20.356  1.00  0.00     0.209 HD
ENDBRANCH  37  38
ENDBRANCH  33  37
BRANCH  34  40
HETATM   40  O5  UNL     1      -0.491  19.711  20.134  1.00  0.00    -0.390 OA
HETATM   41  H34 UNL     1      -0.988  19.590  20.963  1.00  0.00     0.210 HD
ENDBRANCH  34  40
BRANCH  35  42
HETATM   42  O6  UNL     1      -1.148  20.431  17.534  1.00  0.00    -0.390 OA
HETATM   43  H36 UNL     1      -0.805  21.010  18.245  1.00  0.00     0.210 HD
ENDBRANCH  35  42
BRANCH  36  44
HETATM   44  O7  UNL     1      -0.351  18.301  15.563  1.00  0.00    -0.388 OA
HETATM   45  H38 UNL     1      -0.432  19.249  15.338  1.00  0.00     0.210 HD
ENDBRANCH  36  44
ENDBRANCH  30  31
ENDBRANCH  16  30
BRANCH   3  46
HETATM   46  O1  UNL     1      -0.114   6.846  13.527  1.00  0.00    -0.390 OA
HETATM   47  H14 UNL     1       0.336   6.516  12.728  1.00  0.00     0.210 HD
ENDBRANCH   3  46
BRANCH   1  48
HETATM   48  C4  UNL     1      -4.103   4.960  12.887  1.00  0.00     0.007 C 
HETATM   49  C2  UNL     1      -4.118   3.803  12.191  1.00  0.00    -0.089 C 
HETATM   50  C1  UNL     1      -5.417   3.264  11.647  1.00  0.00     0.042 C 
HETATM   51  C3  UNL     1      -2.920   2.952  11.884  1.00  0.00     0.042 C 
ENDBRANCH   1  48
TORSDOF 9
ENDMDL
