MODEL 1
REMARK minimizedAffinity -8.80712605
REMARK CNNscore 0.941452146
REMARK CNNaffinity 8.06228828
REMARK  12 active torsions:
REMARK  status: ('A' for Active; 'I' for Inactive)
REMARK    1  A    between atoms: C2_2  and  C17_19 
REMARK    2  A    between atoms: C3_3  and  C4_4 
REMARK    3  A    between atoms: C4_4  and  C5_5 
REMARK    4  A    between atoms: C5_5  and  C6_6 
REMARK    5  A    between atoms: C12_12  and  O1_13 
REMARK    6  A    between atoms: C17_19  and  C18_20 
REMARK    7  A    between atoms: C19_21  and  C20_22 
REMARK    8  A    between atoms: C20_22  and  C22_24 
REMARK    9  A    between atoms: C22_24  and  C23_26 
REMARK   10  A    between atoms: C23_26  and  O4_27 
REMARK   11  A    between atoms: C23_26  and  C24_28 
REMARK   12  A    between atoms: C24_28  and  C25_29 
ROOT
HETATM    1  C1  UNL     1      -4.931  48.699 -21.522  1.00  0.00     0.043 C 
HETATM    2  C2  UNL     1      -3.884  48.402 -22.563  1.00  0.00    -0.084 C 
HETATM    3  C3  UNL     1      -2.593  48.129 -22.280  1.00  0.00    -0.024 C 
ENDROOT
BRANCH   3   4
HETATM    4  C4  UNL     1      -1.980  47.970 -20.917  1.00  0.00     0.030 C 
BRANCH   4   5
HETATM    5  C5  UNL     1      -1.180  49.165 -20.385  1.00  0.00     0.042 C 
BRANCH   5   6
HETATM    6  C6  UNL     1      -1.953  50.433 -19.934  1.00  0.00     0.065 C 
HETATM    7  C7  UNL     1      -3.030  50.080 -18.893  1.00  0.00     0.046 C 
HETATM    8  C8  UNL     1      -2.618  51.228 -21.066  1.00  0.00     0.043 C 
HETATM    9  C9  UNL     1      -1.582  51.779 -22.031  1.00  0.00     0.044 C 
HETATM   10  C10 UNL     1      -0.463  52.434 -21.276  1.00  0.00    -0.021 A 
HETATM   11  C11 UNL     1       0.384  53.336 -21.938  1.00  0.00     0.046 A 
HETATM   12  C16 UNL     1      -0.237  52.136 -19.926  1.00  0.00     0.082 A 
HETATM   13  C12 UNL     1       1.423  53.944 -21.242  1.00  0.00     0.066 A 
HETATM   14  C13 UNL     1       1.641  53.664 -19.899  1.00  0.00     0.046 A 
HETATM   15  C14 UNL     1       0.813  52.756 -19.226  1.00  0.00    -0.025 A 
HETATM   16  C15 UNL     1       1.053  52.459 -17.774  1.00  0.00     0.051 C 
HETATM   17  O2  UNL     1      -1.018  51.267 -19.208  1.00  0.00    -0.340 OA
BRANCH  13  18
HETATM   18  O1  UNL     1       2.258  54.833 -21.848  1.00  0.00    -0.361 OA
HETATM   19  H17 UNL     1       1.973  54.952 -22.767  1.00  0.00     0.217 HD
ENDBRANCH  13  18
ENDBRANCH   5   6
ENDBRANCH   4   5
ENDBRANCH   3   4
BRANCH   2  20
HETATM   20  C17 UNL     1      -4.373  48.456 -24.002  1.00  0.00     0.060 C 
BRANCH  20  21
HETATM   21  C18 UNL     1      -3.223  48.481 -24.970  1.00  0.00    -0.026 C 
HETATM   22  C19 UNL     1      -2.824  49.416 -25.849  1.00  0.00    -0.019 C 
BRANCH  22  23
HETATM   23  C20 UNL     1      -3.375  50.772 -26.234  1.00  0.00     0.076 C 
HETATM   24  C21 UNL     1      -3.377  51.861 -25.162  1.00  0.00     0.022 C 
BRANCH  23  25
HETATM   25  C22 UNL     1      -2.664  51.252 -27.508  1.00  0.00     0.162 C 
HETATM   26  O3  UNL     1      -2.898  50.768 -28.623  1.00  0.00    -0.294 OA
BRANCH  25  27
HETATM   27  C23 UNL     1      -1.696  52.446 -27.396  1.00  0.00     0.188 C 
BRANCH  27  28
HETATM   28  O4  UNL     1      -2.165  53.557 -28.156  1.00  0.00    -0.388 OA
HETATM   29  H31 UNL     1      -3.063  53.316 -28.470  1.00  0.00     0.210 HD
ENDBRANCH  27  28
BRANCH  27  30
HETATM   30  C24 UNL     1      -0.232  52.153 -27.757  1.00  0.00     0.043 C 
BRANCH  30  31
HETATM   31  C25 UNL     1       0.848  52.184 -26.651  1.00  0.00    -0.020 C 
HETATM   32  C26 UNL     1       2.207  51.644 -27.093  1.00  0.00     0.009 C 
HETATM   33  C27 UNL     1       0.408  51.513 -25.352  1.00  0.00     0.009 C 
ENDBRANCH  30  31
ENDBRANCH  27  30
ENDBRANCH  25  27
ENDBRANCH  23  25
ENDBRANCH  22  23
ENDBRANCH  20  21
ENDBRANCH   2  20
TORSDOF 12
ENDMDL
MODEL 2
REMARK minimizedAffinity -8.56440639
REMARK CNNscore 0.831591785
REMARK CNNaffinity 7.6926198
REMARK  12 active torsions:
REMARK  status: ('A' for Active; 'I' for Inactive)
REMARK    1  A    between atoms: C2_2  and  C17_19 
REMARK    2  A    between atoms: C3_3  and  C4_4 
REMARK    3  A    between atoms: C4_4  and  C5_5 
REMARK    4  A    between atoms: C5_5  and  C6_6 
REMARK    5  A    between atoms: C12_12  and  O1_13 
REMARK    6  A    between atoms: C17_19  and  C18_20 
REMARK    7  A    between atoms: C19_21  and  C20_22 
REMARK    8  A    between atoms: C20_22  and  C22_24 
REMARK    9  A    between atoms: C22_24  and  C23_26 
REMARK   10  A    between atoms: C23_26  and  O4_27 
REMARK   11  A    between atoms: C23_26  and  C24_28 
REMARK   12  A    between atoms: C24_28  and  C25_29 
ROOT
HETATM    1  C1  UNL     1      -5.559  49.352 -19.993  1.00  0.00     0.043 C 
HETATM    2  C2  UNL     1      -4.562  49.562 -21.103  1.00  0.00    -0.084 C 
HETATM    3  C3  UNL     1      -3.663  50.568 -21.132  1.00  0.00    -0.024 C 
ENDROOT
BRANCH   3   4
HETATM    4  C4  UNL     1      -3.412  51.588 -20.057  1.00  0.00     0.030 C 
BRANCH   4   5
HETATM    5  C5  UNL     1      -2.592  51.119 -18.849  1.00  0.00     0.042 C 
BRANCH   5   6
HETATM    6  C6  UNL     1      -1.269  50.347 -19.105  1.00  0.00     0.065 C 
HETATM    7  C7  UNL     1      -1.498  48.827 -19.039  1.00  0.00     0.046 C 
HETATM    8  C8  UNL     1      -0.114  50.703 -18.160  1.00  0.00     0.043 C 
HETATM    9  C9  UNL     1       0.297  52.157 -18.319  1.00  0.00     0.044 C 
HETATM   10  C10 UNL     1       0.447  52.499 -19.772  1.00  0.00    -0.021 A 
HETATM   11  C11 UNL     1       1.182  53.635 -20.144  1.00  0.00     0.046 A 
HETATM   12  C16 UNL     1      -0.160  51.714 -20.762  1.00  0.00     0.082 A 
HETATM   13  C12 UNL     1       1.322  53.957 -21.490  1.00  0.00     0.066 A 
HETATM   14  C13 UNL     1       0.735  53.172 -22.475  1.00  0.00     0.046 A 
HETATM   15  C14 UNL     1      -0.013  52.043 -22.121  1.00  0.00    -0.025 A 
HETATM   16  C15 UNL     1      -0.643  51.197 -23.191  1.00  0.00     0.051 C 
HETATM   17  O2  UNL     1      -0.894  50.590 -20.482  1.00  0.00    -0.340 OA
BRANCH  13  18
HETATM   18  O1  UNL     1       2.038  55.046 -21.888  1.00  0.00    -0.361 OA
HETATM   19  H17 UNL     1       2.409  55.478 -21.104  1.00  0.00     0.217 HD
ENDBRANCH  13  18
ENDBRANCH   5   6
ENDBRANCH   4   5
ENDBRANCH   3   4
BRANCH   2  20
HETATM   20  C17 UNL     1      -4.647  48.558 -22.242  1.00  0.00     0.060 C 
BRANCH  20  21
HETATM   21  C18 UNL     1      -3.311  48.371 -22.907  1.00  0.00    -0.026 C 
HETATM   22  C19 UNL     1      -2.936  48.492 -24.192  1.00  0.00    -0.019 C 
BRANCH  22  23
HETATM   23  C20 UNL     1      -3.691  48.823 -25.460  1.00  0.00     0.076 C 
HETATM   24  C21 UNL     1      -5.139  48.347 -25.562  1.00  0.00     0.022 C 
BRANCH  23  25
HETATM   25  C22 UNL     1      -3.588  50.333 -25.719  1.00  0.00     0.162 C 
HETATM   26  O3  UNL     1      -4.028  51.176 -24.926  1.00  0.00    -0.294 OA
BRANCH  25  27
HETATM   27  C23 UNL     1      -2.821  50.808 -26.969  1.00  0.00     0.188 C 
BRANCH  27  28
HETATM   28  O4  UNL     1      -3.167  50.023 -28.108  1.00  0.00    -0.388 OA
HETATM   29  H31 UNL     1      -3.908  49.444 -27.828  1.00  0.00     0.210 HD
ENDBRANCH  27  28
BRANCH  27  30
HETATM   30  C24 UNL     1      -1.293  50.872 -26.830  1.00  0.00     0.043 C 
BRANCH  30  31
HETATM   31  C25 UNL     1      -0.527  52.100 -27.374  1.00  0.00    -0.020 C 
HETATM   32  C26 UNL     1       0.635  51.747 -28.301  1.00  0.00     0.009 C 
HETATM   33  C27 UNL     1      -0.061  53.058 -26.280  1.00  0.00     0.009 C 
ENDBRANCH  30  31
ENDBRANCH  27  30
ENDBRANCH  25  27
ENDBRANCH  23  25
ENDBRANCH  22  23
ENDBRANCH  20  21
ENDBRANCH   2  20
TORSDOF 12
ENDMDL
MODEL 3
REMARK minimizedAffinity -7.72018814
REMARK CNNscore 0.673325479
REMARK CNNaffinity 6.84729576
REMARK  12 active torsions:
REMARK  status: ('A' for Active; 'I' for Inactive)
REMARK    1  A    between atoms: C2_2  and  C17_19 
REMARK    2  A    between atoms: C3_3  and  C4_4 
REMARK    3  A    between atoms: C4_4  and  C5_5 
REMARK    4  A    between atoms: C5_5  and  C6_6 
REMARK    5  A    between atoms: C12_12  and  O1_13 
REMARK    6  A    between atoms: C17_19  and  C18_20 
REMARK    7  A    between atoms: C19_21  and  C20_22 
REMARK    8  A    between atoms: C20_22  and  C22_24 
REMARK    9  A    between atoms: C22_24  and  C23_26 
REMARK   10  A    between atoms: C23_26  and  O4_27 
REMARK   11  A    between atoms: C23_26  and  C24_28 
REMARK   12  A    between atoms: C24_28  and  C25_29 
ROOT
HETATM    1  C1  UNL     1      -5.188  49.220 -19.179  1.00  0.00     0.043 C 
HETATM    2  C2  UNL     1      -5.102  49.926 -20.507  1.00  0.00    -0.084 C 
HETATM    3  C3  UNL     1      -4.301  50.984 -20.750  1.00  0.00    -0.024 C 
ENDROOT
BRANCH   3   4
HETATM    4  C4  UNL     1      -3.294  51.590 -19.813  1.00  0.00     0.030 C 
BRANCH   4   5
HETATM    5  C5  UNL     1      -2.717  50.663 -18.737  1.00  0.00     0.042 C 
BRANCH   5   6
HETATM    6  C6  UNL     1      -1.382  49.926 -19.029  1.00  0.00     0.065 C 
HETATM    7  C7  UNL     1      -1.592  48.403 -19.072  1.00  0.00     0.046 C 
HETATM    8  C8  UNL     1      -0.243  50.230 -18.047  1.00  0.00     0.043 C 
HETATM    9  C9  UNL     1       0.151  51.696 -18.100  1.00  0.00     0.044 C 
HETATM   10  C10 UNL     1       0.314  52.140 -19.524  1.00  0.00    -0.021 A 
HETATM   11  C11 UNL     1       1.038  53.308 -19.806  1.00  0.00     0.046 A 
HETATM   12  C16 UNL     1      -0.271  51.419 -20.573  1.00  0.00     0.082 A 
HETATM   13  C12 UNL     1       1.190  53.725 -21.125  1.00  0.00     0.066 A 
HETATM   14  C13 UNL     1       0.625  53.003 -22.169  1.00  0.00     0.046 A 
HETATM   15  C14 UNL     1      -0.113  51.843 -21.904  1.00  0.00    -0.025 A 
HETATM   16  C15 UNL     1      -0.720  51.067 -23.038  1.00  0.00     0.051 C 
HETATM   17  O2  UNL     1      -0.994  50.270 -20.381  1.00  0.00    -0.340 OA
BRANCH  13  18
HETATM   18  O1  UNL     1       1.896  54.847 -21.438  1.00  0.00    -0.361 OA
HETATM   19  H17 UNL     1       2.253  55.228 -20.620  1.00  0.00     0.217 HD
ENDBRANCH  13  18
ENDBRANCH   5   6
ENDBRANCH   4   5
ENDBRANCH   3   4
BRANCH   2  20
HETATM   20  C17 UNL     1      -6.021  49.378 -21.588  1.00  0.00     0.060 C 
BRANCH  20  21
HETATM   21  C18 UNL     1      -6.121  50.325 -22.752  1.00  0.00    -0.026 C 
HETATM   22  C19 UNL     1      -5.257  50.607 -23.741  1.00  0.00    -0.019 C 
BRANCH  22  23
HETATM   23  C20 UNL     1      -3.858  50.126 -24.059  1.00  0.00     0.076 C 
HETATM   24  C21 UNL     1      -3.572  48.634 -23.892  1.00  0.00     0.022 C 
BRANCH  23  25
HETATM   25  C22 UNL     1      -3.475  50.607 -25.466  1.00  0.00     0.162 C 
HETATM   26  O3  UNL     1      -3.731  51.749 -25.872  1.00  0.00    -0.294 OA
BRANCH  25  27
HETATM   27  C23 UNL     1      -2.660  49.657 -26.364  1.00  0.00     0.188 C 
BRANCH  27  28
HETATM   28  O4  UNL     1      -2.113  50.354 -27.481  1.00  0.00    -0.388 OA
HETATM   29  H31 UNL     1      -2.300  51.305 -27.330  1.00  0.00     0.210 HD
ENDBRANCH  27  28
BRANCH  27  30
HETATM   30  C24 UNL     1      -3.398  48.401 -26.849  1.00  0.00     0.043 C 
BRANCH  30  31
HETATM   31  C25 UNL     1      -4.817  48.532 -27.449  1.00  0.00    -0.020 C 
HETATM   32  C26 UNL     1      -5.895  47.788 -26.665  1.00  0.00     0.009 C 
HETATM   33  C27 UNL     1      -4.887  48.161 -28.929  1.00  0.00     0.009 C 
ENDBRANCH  30  31
ENDBRANCH  27  30
ENDBRANCH  25  27
ENDBRANCH  23  25
ENDBRANCH  22  23
ENDBRANCH  20  21
ENDBRANCH   2  20
TORSDOF 12
ENDMDL
MODEL 4
REMARK minimizedAffinity -8.39596844
REMARK CNNscore 0.577558041
REMARK CNNaffinity 7.45936584
REMARK  12 active torsions:
REMARK  status: ('A' for Active; 'I' for Inactive)
REMARK    1  A    between atoms: C2_2  and  C17_19 
REMARK    2  A    between atoms: C3_3  and  C4_4 
REMARK    3  A    between atoms: C4_4  and  C5_5 
REMARK    4  A    between atoms: C5_5  and  C6_6 
REMARK    5  A    between atoms: C12_12  and  O1_13 
REMARK    6  A    between atoms: C17_19  and  C18_20 
REMARK    7  A    between atoms: C19_21  and  C20_22 
REMARK    8  A    between atoms: C20_22  and  C22_24 
REMARK    9  A    between atoms: C22_24  and  C23_26 
REMARK   10  A    between atoms: C23_26  and  O4_27 
REMARK   11  A    between atoms: C23_26  and  C24_28 
REMARK   12  A    between atoms: C24_28  and  C25_29 
ROOT
HETATM    1  C1  UNL     1      -6.439  50.111 -21.286  1.00  0.00     0.043 C 
HETATM    2  C2  UNL     1      -5.326  50.690 -22.121  1.00  0.00    -0.084 C 
HETATM    3  C3  UNL     1      -4.165  51.155 -21.614  1.00  0.00    -0.024 C 
ENDROOT
BRANCH   3   4
HETATM    4  C4  UNL     1      -3.717  51.100 -20.181  1.00  0.00     0.030 C 
BRANCH   4   5
HETATM    5  C5  UNL     1      -3.302  49.724 -19.647  1.00  0.00     0.042 C 
BRANCH   5   6
HETATM    6  C6  UNL     1      -1.894  49.181 -20.012  1.00  0.00     0.065 C 
HETATM    7  C7  UNL     1      -1.948  48.333 -21.294  1.00  0.00     0.046 C 
HETATM    8  C8  UNL     1      -1.210  48.354 -18.915  1.00  0.00     0.043 C 
HETATM    9  C9  UNL     1      -0.946  49.196 -17.678  1.00  0.00     0.044 C 
HETATM   10  C10 UNL     1      -0.323  50.506 -18.063  1.00  0.00    -0.021 A 
HETATM   11  C11 UNL     1       0.355  51.261 -17.095  1.00  0.00     0.046 A 
HETATM   12  C16 UNL     1      -0.432  50.997 -19.371  1.00  0.00     0.082 A 
HETATM   13  C12 UNL     1       0.933  52.477 -17.447  1.00  0.00     0.066 A 
HETATM   14  C13 UNL     1       0.841  52.959 -18.747  1.00  0.00     0.046 A 
HETATM   15  C14 UNL     1       0.156  52.224 -19.722  1.00  0.00    -0.025 A 
HETATM   16  C15 UNL     1       0.061  52.751 -21.126  1.00  0.00     0.051 C 
HETATM   17  O2  UNL     1      -1.078  50.321 -20.374  1.00  0.00    -0.340 OA
BRANCH  13  18
HETATM   18  O1  UNL     1       1.609  53.231 -16.537  1.00  0.00    -0.361 OA
HETATM   19  H17 UNL     1       1.618  52.762 -15.688  1.00  0.00     0.217 HD
ENDBRANCH  13  18
ENDBRANCH   5   6
ENDBRANCH   4   5
ENDBRANCH   3   4
BRANCH   2  20
HETATM   20  C17 UNL     1      -5.606  50.749 -23.615  1.00  0.00     0.060 C 
BRANCH  20  21
HETATM   21  C18 UNL     1      -4.832  51.858 -24.273  1.00  0.00    -0.026 C 
HETATM   22  C19 UNL     1      -3.816  51.828 -25.152  1.00  0.00    -0.019 C 
BRANCH  22  23
HETATM   23  C20 UNL     1      -3.039  50.700 -25.794  1.00  0.00     0.076 C 
HETATM   24  C21 UNL     1      -3.739  49.347 -25.921  1.00  0.00     0.022 C 
BRANCH  23  25
HETATM   25  C22 UNL     1      -2.507  51.175 -27.154  1.00  0.00     0.162 C 
HETATM   26  O3  UNL     1      -2.902  50.699 -28.227  1.00  0.00    -0.294 OA
BRANCH  25  27
HETATM   27  C23 UNL     1      -1.516  52.355 -27.176  1.00  0.00     0.188 C 
BRANCH  27  28
HETATM   28  O4  UNL     1      -1.946  53.366 -28.084  1.00  0.00    -0.388 OA
HETATM   29  H31 UNL     1      -2.843  53.103 -28.384  1.00  0.00     0.210 HD
ENDBRANCH  27  28
BRANCH  27  30
HETATM   30  C24 UNL     1      -0.052  51.990 -27.465  1.00  0.00     0.043 C 
BRANCH  30  31
HETATM   31  C25 UNL     1       0.867  51.543 -26.304  1.00  0.00    -0.020 C 
HETATM   32  C26 UNL     1       0.696  52.360 -25.025  1.00  0.00     0.009 C 
HETATM   33  C27 UNL     1       2.342  51.468 -26.693  1.00  0.00     0.009 C 
ENDBRANCH  30  31
ENDBRANCH  27  30
ENDBRANCH  25  27
ENDBRANCH  23  25
ENDBRANCH  22  23
ENDBRANCH  20  21
ENDBRANCH   2  20
TORSDOF 12
ENDMDL
MODEL 5
REMARK minimizedAffinity -8.85012054
REMARK CNNscore 0.530588031
REMARK CNNaffinity 7.23083925
REMARK  12 active torsions:
REMARK  status: ('A' for Active; 'I' for Inactive)
REMARK    1  A    between atoms: C2_2  and  C17_19 
REMARK    2  A    between atoms: C3_3  and  C4_4 
REMARK    3  A    between atoms: C4_4  and  C5_5 
REMARK    4  A    between atoms: C5_5  and  C6_6 
REMARK    5  A    between atoms: C12_12  and  O1_13 
REMARK    6  A    between atoms: C17_19  and  C18_20 
REMARK    7  A    between atoms: C19_21  and  C20_22 
REMARK    8  A    between atoms: C20_22  and  C22_24 
REMARK    9  A    between atoms: C22_24  and  C23_26 
REMARK   10  A    between atoms: C23_26  and  O4_27 
REMARK   11  A    between atoms: C23_26  and  C24_28 
REMARK   12  A    between atoms: C24_28  and  C25_29 
ROOT
HETATM    1  C1  UNL     1      -2.403  47.081 -21.560  1.00  0.00     0.043 C 
HETATM    2  C2  UNL     1      -1.838  48.475 -21.642  1.00  0.00    -0.084 C 
HETATM    3  C3  UNL     1      -2.176  49.374 -22.590  1.00  0.00    -0.024 C 
ENDROOT
BRANCH   3   4
HETATM    4  C4  UNL     1      -3.220  49.211 -23.659  1.00  0.00     0.030 C 
BRANCH   4   5
HETATM    5  C5  UNL     1      -2.813  49.620 -25.080  1.00  0.00     0.042 C 
BRANCH   5   6
HETATM    6  C6  UNL     1      -2.885  51.122 -25.468  1.00  0.00     0.065 C 
HETATM    7  C7  UNL     1      -4.093  51.805 -24.804  1.00  0.00     0.046 C 
HETATM    8  C8  UNL     1      -2.939  51.403 -26.976  1.00  0.00     0.043 C 
HETATM    9  C9  UNL     1      -1.674  50.925 -27.669  1.00  0.00     0.044 C 
HETATM   10  C10 UNL     1      -0.462  51.383 -26.912  1.00  0.00    -0.021 A 
HETATM   11  C11 UNL     1       0.786  51.403 -27.552  1.00  0.00     0.046 A 
HETATM   12  C16 UNL     1      -0.556  51.764 -25.567  1.00  0.00     0.082 A 
HETATM   13  C12 UNL     1       1.913  51.825 -26.854  1.00  0.00     0.066 A 
HETATM   14  C13 UNL     1       1.821  52.219 -25.525  1.00  0.00     0.046 A 
HETATM   15  C14 UNL     1       0.586  52.192 -24.867  1.00  0.00    -0.025 A 
HETATM   16  C15 UNL     1       0.494  52.621 -23.431  1.00  0.00     0.051 C 
HETATM   17  O2  UNL     1      -1.737  51.771 -24.870  1.00  0.00    -0.340 OA
BRANCH  13  18
HETATM   18  O1  UNL     1       3.139  51.869 -27.446  1.00  0.00    -0.361 OA
HETATM   19  H17 UNL     1       3.048  51.596 -28.373  1.00  0.00     0.217 HD
ENDBRANCH  13  18
ENDBRANCH   5   6
ENDBRANCH   4   5
ENDBRANCH   3   4
BRANCH   2  20
HETATM   20  C17 UNL     1      -0.810  48.817 -20.574  1.00  0.00     0.060 C 
BRANCH  20  21
HETATM   21  C18 UNL     1      -0.203  50.172 -20.814  1.00  0.00    -0.026 C 
HETATM   22  C19 UNL     1      -0.283  51.315 -20.112  1.00  0.00    -0.019 C 
BRANCH  22  23
HETATM   23  C20 UNL     1      -1.023  51.702 -18.850  1.00  0.00     0.076 C 
HETATM   24  C21 UNL     1      -2.511  51.364 -18.775  1.00  0.00     0.022 C 
BRANCH  23  25
HETATM   25  C22 UNL     1      -0.268  51.135 -17.639  1.00  0.00     0.162 C 
HETATM   26  O3  UNL     1      -0.393  49.961 -17.266  1.00  0.00    -0.294 OA
BRANCH  25  27
HETATM   27  C23 UNL     1       0.753  52.044 -16.926  1.00  0.00     0.188 C 
BRANCH  27  28
HETATM   28  O4  UNL     1       1.259  53.038 -17.815  1.00  0.00    -0.388 OA
HETATM   29  H31 UNL     1       0.731  52.964 -18.639  1.00  0.00     0.210 HD
ENDBRANCH  27  28
BRANCH  27  30
HETATM   30  C24 UNL     1       1.921  51.323 -16.238  1.00  0.00     0.043 C 
BRANCH  30  31
HETATM   31  C25 UNL     1       2.919  52.133 -15.379  1.00  0.00    -0.020 C 
HETATM   32  C26 UNL     1       4.264  52.385 -16.058  1.00  0.00     0.009 C 
HETATM   33  C27 UNL     1       3.132  51.549 -13.983  1.00  0.00     0.009 C 
ENDBRANCH  30  31
ENDBRANCH  27  30
ENDBRANCH  25  27
ENDBRANCH  23  25
ENDBRANCH  22  23
ENDBRANCH  20  21
ENDBRANCH   2  20
TORSDOF 12
ENDMDL
MODEL 6
REMARK minimizedAffinity -8.06135368
REMARK CNNscore 0.478313267
REMARK CNNaffinity 6.66911173
REMARK  12 active torsions:
REMARK  status: ('A' for Active; 'I' for Inactive)
REMARK    1  A    between atoms: C2_2  and  C17_19 
REMARK    2  A    between atoms: C3_3  and  C4_4 
REMARK    3  A    between atoms: C4_4  and  C5_5 
REMARK    4  A    between atoms: C5_5  and  C6_6 
REMARK    5  A    between atoms: C12_12  and  O1_13 
REMARK    6  A    between atoms: C17_19  and  C18_20 
REMARK    7  A    between atoms: C19_21  and  C20_22 
REMARK    8  A    between atoms: C20_22  and  C22_24 
REMARK    9  A    between atoms: C22_24  and  C23_26 
REMARK   10  A    between atoms: C23_26  and  O4_27 
REMARK   11  A    between atoms: C23_26  and  C24_28 
REMARK   12  A    between atoms: C24_28  and  C25_29 
ROOT
HETATM    1  C1  UNL     1      -4.771  47.973 -23.734  1.00  0.00     0.043 C 
HETATM    2  C2  UNL     1      -3.712  48.884 -24.298  1.00  0.00    -0.084 C 
HETATM    3  C3  UNL     1      -3.383  50.081 -23.767  1.00  0.00    -0.024 C 
ENDROOT
BRANCH   3   4
HETATM    4  C4  UNL     1      -3.913  50.683 -22.497  1.00  0.00     0.030 C 
BRANCH   4   5
HETATM    5  C5  UNL     1      -2.891  50.937 -21.382  1.00  0.00     0.042 C 
BRANCH   5   6
HETATM    6  C6  UNL     1      -1.501  50.253 -21.481  1.00  0.00     0.065 C 
HETATM    7  C7  UNL     1      -1.638  48.721 -21.432  1.00  0.00     0.046 C 
HETATM    8  C8  UNL     1      -0.486  50.682 -20.412  1.00  0.00     0.043 C 
HETATM    9  C9  UNL     1      -0.154  52.159 -20.533  1.00  0.00     0.044 C 
HETATM   10  C10 UNL     1       0.138  52.512 -21.962  1.00  0.00    -0.021 A 
HETATM   11  C11 UNL     1       0.836  53.693 -22.254  1.00  0.00     0.046 A 
HETATM   12  C16 UNL     1      -0.300  51.690 -23.009  1.00  0.00     0.082 A 
HETATM   13  C12 UNL     1       1.108  54.025 -23.577  1.00  0.00     0.066 A 
HETATM   14  C13 UNL     1       0.690  53.205 -24.618  1.00  0.00     0.046 A 
HETATM   15  C14 UNL     1      -0.020  52.029 -24.344  1.00  0.00    -0.025 A 
HETATM   16  C15 UNL     1      -0.468  51.146 -25.474  1.00  0.00     0.051 C 
HETATM   17  O2  UNL     1      -0.987  50.521 -22.808  1.00  0.00    -0.340 OA
BRANCH  13  18
HETATM   18  O1  UNL     1       1.794  55.158 -23.899  1.00  0.00    -0.361 OA
HETATM   19  H17 UNL     1       2.045  55.613 -23.080  1.00  0.00     0.217 HD
ENDBRANCH  13  18
ENDBRANCH   5   6
ENDBRANCH   4   5
ENDBRANCH   3   4
BRANCH   2  20
HETATM   20  C17 UNL     1      -3.029  48.375 -25.558  1.00  0.00     0.060 C 
BRANCH  20  21
HETATM   21  C18 UNL     1      -3.341  49.249 -26.741  1.00  0.00    -0.026 C 
HETATM   22  C19 UNL     1      -4.184  49.076 -27.772  1.00  0.00    -0.019 C 
BRANCH  22  23
HETATM   23  C20 UNL     1      -5.111  47.948 -28.169  1.00  0.00     0.076 C 
HETATM   24  C21 UNL     1      -6.250  47.603 -27.211  1.00  0.00     0.022 C 
BRANCH  23  25
HETATM   25  C22 UNL     1      -5.644  48.219 -29.584  1.00  0.00     0.162 C 
HETATM   26  O3  UNL     1      -4.964  48.778 -30.455  1.00  0.00    -0.294 OA
BRANCH  25  27
HETATM   27  C23 UNL     1      -7.042  47.685 -29.950  1.00  0.00     0.188 C 
BRANCH  27  28
HETATM   28  O4  UNL     1      -6.959  46.378 -30.513  1.00  0.00    -0.388 OA
HETATM   29  H31 UNL     1      -6.024  46.095 -30.415  1.00  0.00     0.210 HD
ENDBRANCH  27  28
BRANCH  27  30
HETATM   30  C24 UNL     1      -7.882  48.589 -30.865  1.00  0.00     0.043 C 
BRANCH  30  31
HETATM   31  C25 UNL     1      -8.147  48.162 -32.327  1.00  0.00    -0.020 C 
HETATM   32  C26 UNL     1      -9.311  47.185 -32.488  1.00  0.00     0.009 C 
HETATM   33  C27 UNL     1      -6.906  47.628 -33.039  1.00  0.00     0.009 C 
ENDBRANCH  30  31
ENDBRANCH  27  30
ENDBRANCH  25  27
ENDBRANCH  23  25
ENDBRANCH  22  23
ENDBRANCH  20  21
ENDBRANCH   2  20
TORSDOF 12
ENDMDL
MODEL 7
REMARK minimizedAffinity -7.41646719
REMARK CNNscore 0.448421746
REMARK CNNaffinity 6.17570353
REMARK  12 active torsions:
REMARK  status: ('A' for Active; 'I' for Inactive)
REMARK    1  A    between atoms: C2_2  and  C17_19 
REMARK    2  A    between atoms: C3_3  and  C4_4 
REMARK    3  A    between atoms: C4_4  and  C5_5 
REMARK    4  A    between atoms: C5_5  and  C6_6 
REMARK    5  A    between atoms: C12_12  and  O1_13 
REMARK    6  A    between atoms: C17_19  and  C18_20 
REMARK    7  A    between atoms: C19_21  and  C20_22 
REMARK    8  A    between atoms: C20_22  and  C22_24 
REMARK    9  A    between atoms: C22_24  and  C23_26 
REMARK   10  A    between atoms: C23_26  and  O4_27 
REMARK   11  A    between atoms: C23_26  and  C24_28 
REMARK   12  A    between atoms: C24_28  and  C25_29 
ROOT
HETATM    1  C1  UNL     1      -3.915  48.633 -24.733  1.00  0.00     0.043 C 
HETATM    2  C2  UNL     1      -5.096  48.734 -23.803  1.00  0.00    -0.084 C 
HETATM    3  C3  UNL     1      -5.074  49.388 -22.623  1.00  0.00    -0.024 C 
ENDROOT
BRANCH   3   4
HETATM    4  C4  UNL     1      -3.943  50.203 -22.061  1.00  0.00     0.030 C 
BRANCH   4   5
HETATM    5  C5  UNL     1      -3.176  49.588 -20.885  1.00  0.00     0.042 C 
BRANCH   5   6
HETATM    6  C6  UNL     1      -1.757  49.014 -21.145  1.00  0.00     0.065 C 
HETATM    7  C7  UNL     1      -1.838  47.619 -21.789  1.00  0.00     0.046 C 
HETATM    8  C8  UNL     1      -0.854  48.922 -19.907  1.00  0.00     0.043 C 
HETATM    9  C9  UNL     1      -0.571  50.299 -19.332  1.00  0.00     0.044 C 
HETATM   10  C10 UNL     1      -0.171  51.247 -20.424  1.00  0.00    -0.021 A 
HETATM   11  C11 UNL     1       0.503  52.434 -20.099  1.00  0.00     0.046 A 
HETATM   12  C16 UNL     1      -0.486  50.976 -21.762  1.00  0.00     0.082 A 
HETATM   13  C12 UNL     1       0.873  53.316 -21.108  1.00  0.00     0.066 A 
HETATM   14  C13 UNL     1       0.577  53.043 -22.437  1.00  0.00     0.046 A 
HETATM   15  C14 UNL     1      -0.107  51.870 -22.778  1.00  0.00    -0.025 A 
HETATM   16  C15 UNL     1      -0.422  51.579 -24.218  1.00  0.00     0.051 C 
HETATM   17  O2  UNL     1      -1.143  49.840 -22.163  1.00  0.00    -0.340 OA
BRANCH  13  18
HETATM   18  O1  UNL     1       1.539  54.472 -20.831  1.00  0.00    -0.361 OA
HETATM   19  H17 UNL     1       1.702  54.517 -19.876  1.00  0.00     0.217 HD
ENDBRANCH  13  18
ENDBRANCH   5   6
ENDBRANCH   4   5
ENDBRANCH   3   4
BRANCH   2  20
HETATM   20  C17 UNL     1      -6.349  48.011 -24.272  1.00  0.00     0.060 C 
BRANCH  20  21
HETATM   21  C18 UNL     1      -6.267  47.667 -25.734  1.00  0.00    -0.026 C 
HETATM   22  C19 UNL     1      -7.222  47.564 -26.674  1.00  0.00    -0.019 C 
BRANCH  22  23
HETATM   23  C20 UNL     1      -8.727  47.713 -26.638  1.00  0.00     0.076 C 
HETATM   24  C21 UNL     1      -9.299  48.875 -25.826  1.00  0.00     0.022 C 
BRANCH  23  25
HETATM   25  C22 UNL     1      -9.258  47.732 -28.078  1.00  0.00     0.162 C 
HETATM   26  O3  UNL     1     -10.388  47.323 -28.377  1.00  0.00    -0.294 OA
BRANCH  25  27
HETATM   27  C23 UNL     1      -8.380  48.374 -29.170  1.00  0.00     0.188 C 
BRANCH  27  28
HETATM   28  O4  UNL     1      -8.688  49.758 -29.325  1.00  0.00    -0.388 OA
HETATM   29  H31 UNL     1      -9.312  49.983 -28.602  1.00  0.00     0.210 HD
ENDBRANCH  27  28
BRANCH  27  30
HETATM   30  C24 UNL     1      -8.408  47.681 -30.540  1.00  0.00     0.043 C 
BRANCH  30  31
HETATM   31  C25 UNL     1      -7.174  46.879 -31.016  1.00  0.00    -0.020 C 
HETATM   32  C26 UNL     1      -7.414  45.374 -31.122  1.00  0.00     0.009 C 
HETATM   33  C27 UNL     1      -5.916  47.159 -30.198  1.00  0.00     0.009 C 
ENDBRANCH  30  31
ENDBRANCH  27  30
ENDBRANCH  25  27
ENDBRANCH  23  25
ENDBRANCH  22  23
ENDBRANCH  20  21
ENDBRANCH   2  20
TORSDOF 12
ENDMDL
MODEL 8
REMARK minimizedAffinity -8.30514717
REMARK CNNscore 0.377158195
REMARK CNNaffinity 7.05061197
REMARK  12 active torsions:
REMARK  status: ('A' for Active; 'I' for Inactive)
REMARK    1  A    between atoms: C2_2  and  C17_19 
REMARK    2  A    between atoms: C3_3  and  C4_4 
REMARK    3  A    between atoms: C4_4  and  C5_5 
REMARK    4  A    between atoms: C5_5  and  C6_6 
REMARK    5  A    between atoms: C12_12  and  O1_13 
REMARK    6  A    between atoms: C17_19  and  C18_20 
REMARK    7  A    between atoms: C19_21  and  C20_22 
REMARK    8  A    between atoms: C20_22  and  C22_24 
REMARK    9  A    between atoms: C22_24  and  C23_26 
REMARK   10  A    between atoms: C23_26  and  O4_27 
REMARK   11  A    between atoms: C23_26  and  C24_28 
REMARK   12  A    between atoms: C24_28  and  C25_29 
ROOT
HETATM    1  C1  UNL     1      -3.405  47.805 -22.591  1.00  0.00     0.043 C 
HETATM    2  C2  UNL     1      -4.787  48.117 -23.102  1.00  0.00    -0.084 C 
HETATM    3  C3  UNL     1      -5.058  48.494 -24.369  1.00  0.00    -0.024 C 
ENDROOT
BRANCH   3   4
HETATM    4  C4  UNL     1      -4.088  48.580 -25.514  1.00  0.00     0.030 C 
BRANCH   4   5
HETATM    5  C5  UNL     1      -2.835  49.435 -25.285  1.00  0.00     0.042 C 
BRANCH   5   6
HETATM    6  C6  UNL     1      -2.921  50.962 -25.550  1.00  0.00     0.065 C 
HETATM    7  C7  UNL     1      -4.144  51.575 -24.846  1.00  0.00     0.046 C 
HETATM    8  C8  UNL     1      -2.963  51.365 -27.030  1.00  0.00     0.043 C 
HETATM    9  C9  UNL     1      -1.685  50.960 -27.746  1.00  0.00     0.044 C 
HETATM   10  C10 UNL     1      -0.487  51.367 -26.941  1.00  0.00    -0.021 A 
HETATM   11  C11 UNL     1       0.768  51.454 -27.563  1.00  0.00     0.046 A 
HETATM   12  C16 UNL     1      -0.599  51.636 -25.570  1.00  0.00     0.082 A 
HETATM   13  C12 UNL     1       1.882  51.829 -26.820  1.00  0.00     0.066 A 
HETATM   14  C13 UNL     1       1.772  52.112 -25.464  1.00  0.00     0.046 A 
HETATM   15  C14 UNL     1       0.530  52.018 -24.825  1.00  0.00    -0.025 A 
HETATM   16  C15 UNL     1       0.418  52.326 -23.359  1.00  0.00     0.051 C 
HETATM   17  O2  UNL     1      -1.787  51.573 -24.888  1.00  0.00    -0.340 OA
BRANCH  13  18
HETATM   18  O1  UNL     1       3.114  51.936 -27.392  1.00  0.00    -0.361 OA
HETATM   19  H17 UNL     1       3.036  51.738 -28.339  1.00  0.00     0.217 HD
ENDBRANCH  13  18
ENDBRANCH   5   6
ENDBRANCH   4   5
ENDBRANCH   3   4
BRANCH   2  20
HETATM   20  C17 UNL     1      -5.897  48.005 -22.067  1.00  0.00     0.060 C 
BRANCH  20  21
HETATM   21  C18 UNL     1      -6.357  49.362 -21.610  1.00  0.00    -0.026 C 
HETATM   22  C19 UNL     1      -5.886  50.182 -20.656  1.00  0.00    -0.019 C 
BRANCH  22  23
HETATM   23  C20 UNL     1      -4.754  50.063 -19.659  1.00  0.00     0.076 C 
HETATM   24  C21 UNL     1      -4.416  48.666 -19.141  1.00  0.00     0.022 C 
BRANCH  23  25
HETATM   25  C22 UNL     1      -3.510  50.753 -20.237  1.00  0.00     0.162 C 
HETATM   26  O3  UNL     1      -3.450  51.144 -21.411  1.00  0.00    -0.294 OA
BRANCH  25  27
HETATM   27  C23 UNL     1      -2.334  51.051 -19.287  1.00  0.00     0.188 C 
BRANCH  27  28
HETATM   28  O4  UNL     1      -2.763  51.832 -18.173  1.00  0.00    -0.388 OA
HETATM   29  H31 UNL     1      -3.741  51.885 -18.235  1.00  0.00     0.210 HD
ENDBRANCH  27  28
BRANCH  27  30
HETATM   30  C24 UNL     1      -1.103  51.703 -19.933  1.00  0.00     0.043 C 
BRANCH  30  31
HETATM   31  C25 UNL     1      -0.305  52.771 -19.150  1.00  0.00    -0.020 C 
HETATM   32  C26 UNL     1       0.461  53.750 -20.037  1.00  0.00     0.009 C 
HETATM   33  C27 UNL     1       0.622  52.180 -18.089  1.00  0.00     0.009 C 
ENDBRANCH  30  31
ENDBRANCH  27  30
ENDBRANCH  25  27
ENDBRANCH  23  25
ENDBRANCH  22  23
ENDBRANCH  20  21
ENDBRANCH   2  20
TORSDOF 12
ENDMDL
MODEL 9
REMARK minimizedAffinity -7.47426701
REMARK CNNscore 0.355210423
REMARK CNNaffinity 6.06254768
REMARK  12 active torsions:
REMARK  status: ('A' for Active; 'I' for Inactive)
REMARK    1  A    between atoms: C2_2  and  C17_19 
REMARK    2  A    between atoms: C3_3  and  C4_4 
REMARK    3  A    between atoms: C4_4  and  C5_5 
REMARK    4  A    between atoms: C5_5  and  C6_6 
REMARK    5  A    between atoms: C12_12  and  O1_13 
REMARK    6  A    between atoms: C17_19  and  C18_20 
REMARK    7  A    between atoms: C19_21  and  C20_22 
REMARK    8  A    between atoms: C20_22  and  C22_24 
REMARK    9  A    between atoms: C22_24  and  C23_26 
REMARK   10  A    between atoms: C23_26  and  O4_27 
REMARK   11  A    between atoms: C23_26  and  C24_28 
REMARK   12  A    between atoms: C24_28  and  C25_29 
ROOT
HETATM    1  C1  UNL     1      -7.194  47.363 -27.472  1.00  0.00     0.043 C 
HETATM    2  C2  UNL     1      -5.793  47.901 -27.596  1.00  0.00    -0.084 C 
HETATM    3  C3  UNL     1      -5.172  48.131 -28.772  1.00  0.00    -0.024 C 
ENDROOT
BRANCH   3   4
HETATM    4  C4  UNL     1      -5.763  47.999 -30.147  1.00  0.00     0.030 C 
BRANCH   4   5
HETATM    5  C5  UNL     1      -5.826  46.583 -30.732  1.00  0.00     0.042 C 
BRANCH   5   6
HETATM    6  C6  UNL     1      -6.892  46.275 -31.818  1.00  0.00     0.065 C 
HETATM    7  C7  UNL     1      -6.359  45.254 -32.838  1.00  0.00     0.046 C 
HETATM    8  C8  UNL     1      -7.412  47.498 -32.585  1.00  0.00     0.043 C 
HETATM    9  C9  UNL     1      -8.131  48.463 -31.657  1.00  0.00     0.044 C 
HETATM   10  C10 UNL     1      -9.096  47.720 -30.781  1.00  0.00    -0.021 A 
HETATM   11  C11 UNL     1     -10.129  48.421 -30.140  1.00  0.00     0.046 A 
HETATM   12  C16 UNL     1      -8.963  46.341 -30.573  1.00  0.00     0.082 A 
HETATM   13  C12 UNL     1     -11.025  47.736 -29.325  1.00  0.00     0.066 A 
HETATM   14  C13 UNL     1     -10.906  46.366 -29.129  1.00  0.00     0.046 A 
HETATM   15  C14 UNL     1      -9.873  45.654 -29.751  1.00  0.00    -0.025 A 
HETATM   16  C15 UNL     1      -9.751  44.172 -29.535  1.00  0.00     0.051 C 
HETATM   17  O2  UNL     1      -7.982  45.585 -31.160  1.00  0.00    -0.340 OA
BRANCH  13  18
HETATM   18  O1  UNL     1     -12.048  48.381 -28.697  1.00  0.00    -0.361 OA
HETATM   19  H17 UNL     1     -12.024  49.319 -28.945  1.00  0.00     0.217 HD
ENDBRANCH  13  18
ENDBRANCH   5   6
ENDBRANCH   4   5
ENDBRANCH   3   4
BRANCH   2  20
HETATM   20  C17 UNL     1      -5.081  48.153 -26.275  1.00  0.00     0.060 C 
BRANCH  20  21
HETATM   21  C18 UNL     1      -3.606  48.363 -26.480  1.00  0.00    -0.026 C 
HETATM   22  C19 UNL     1      -2.722  49.136 -25.827  1.00  0.00    -0.019 C 
BRANCH  22  23
HETATM   23  C20 UNL     1      -2.854  50.108 -24.675  1.00  0.00     0.076 C 
HETATM   24  C21 UNL     1      -1.913  49.920 -23.486  1.00  0.00     0.022 C 
BRANCH  23  25
HETATM   25  C22 UNL     1      -2.772  51.540 -25.222  1.00  0.00     0.162 C 
HETATM   26  O3  UNL     1      -3.780  52.217 -25.467  1.00  0.00    -0.294 OA
BRANCH  25  27
HETATM   27  C23 UNL     1      -1.380  52.182 -25.380  1.00  0.00     0.188 C 
BRANCH  27  28
HETATM   28  O4  UNL     1      -1.384  53.530 -24.914  1.00  0.00    -0.388 OA
HETATM   29  H31 UNL     1      -2.259  53.673 -24.495  1.00  0.00     0.210 HD
ENDBRANCH  27  28
BRANCH  27  30
HETATM   30  C24 UNL     1      -0.774  52.124 -26.789  1.00  0.00     0.043 C 
BRANCH  30  31
HETATM   31  C25 UNL     1       0.592  51.432 -27.006  1.00  0.00    -0.020 C 
HETATM   32  C26 UNL     1       1.600  51.681 -25.886  1.00  0.00     0.009 C 
HETATM   33  C27 UNL     1       1.221  51.743 -28.363  1.00  0.00     0.009 C 
ENDBRANCH  30  31
ENDBRANCH  27  30
ENDBRANCH  25  27
ENDBRANCH  23  25
ENDBRANCH  22  23
ENDBRANCH  20  21
ENDBRANCH   2  20
TORSDOF 12
ENDMDL
