MODEL 1
REMARK minimizedAffinity -9.82742786
REMARK  9 active torsions:
REMARK  status: ('A' for Active; 'I' for Inactive)
REMARK    1  A    between atoms: C2_2  and  C30_33 
REMARK    2  A    between atoms: C3_3  and  C4_4 
REMARK    3  A    between atoms: C4_4  and  C5_5 
REMARK    4  A    between atoms: C5_5  and  C6_6 
REMARK    5  A    between atoms: C6_6  and  C8_8 
REMARK    6  A    between atoms: C10_10  and  O1_11 
REMARK    7  A    between atoms: C23_24  and  O2_25 
REMARK    8  A    between atoms: C29_31  and  O3_32 
REMARK    9  A    between atoms: C30_33  and  O4_34 
ROOT
HETATM    1  C8  UNL     1      -3.661  50.474 -25.165  1.00  0.00     0.001 C 
HETATM    2  C9  UNL     1      -5.186  50.407 -24.887  1.00  0.00     0.038 C 
HETATM    3  C10 UNL     1      -5.345  50.242 -23.357  1.00  0.00     0.132 C 
HETATM    4  C11 UNL     1      -3.972  50.656 -22.769  1.00  0.00     0.016 C 
HETATM    5  C12 UNL     1      -3.897  52.219 -22.717  1.00  0.00     0.023 C 
HETATM    6  C13 UNL     1      -3.588  50.179 -21.370  1.00  0.00    -0.037 C 
HETATM    7  C14 UNL     1      -2.271  50.042 -21.057  1.00  0.00    -0.065 C 
HETATM    8  C15 UNL     1      -1.166  50.270 -22.101  1.00  0.00     0.036 C 
HETATM    9  C16 UNL     1      -1.594  50.491 -23.569  1.00  0.00     0.015 C 
HETATM   10  C17 UNL     1      -3.019  49.990 -23.827  1.00  0.00    -0.026 C 
HETATM   11  C18 UNL     1      -2.987  48.435 -23.762  1.00  0.00     0.016 C 
HETATM   12  C19 UNL     1      -1.812  49.585 -19.642  1.00  0.00    -0.016 C 
HETATM   13  C20 UNL     1      -1.529  48.074 -19.778  1.00  0.00     0.020 C 
HETATM   14  C21 UNL     1      -0.554  50.368 -19.204  1.00  0.00     0.016 C 
HETATM   15  C22 UNL     1      -0.071  50.164 -17.770  1.00  0.00     0.033 C 
HETATM   16  C23 UNL     1      -1.032  49.469 -16.808  1.00  0.00     0.126 C 
HETATM   17  C24 UNL     1      -2.553  49.673 -17.076  1.00  0.00    -0.017 C 
HETATM   18  C25 UNL     1      -2.979  50.956 -16.303  1.00  0.00     0.018 C 
HETATM   19  C26 UNL     1      -3.343  48.503 -16.439  1.00  0.00     0.018 C 
HETATM   20  C27 UNL     1      -2.921  49.920 -18.596  1.00  0.00     0.011 C 
HETATM   21  C28 UNL     1      -4.268  49.319 -19.043  1.00  0.00     0.043 C 
HETATM   22  C29 UNL     1      -4.711  49.884 -20.399  1.00  0.00     0.148 C 
ENDROOT
BRANCH   1  23
HETATM   23  C6  UNL     1      -3.148  49.859 -26.500  1.00  0.00    -0.013 C 
HETATM   24  C7  UNL     1      -2.560  48.464 -26.214  1.00  0.00     0.010 C 
BRANCH  23  25
HETATM   25  C5  UNL     1      -2.100  50.697 -27.266  1.00  0.00     0.008 C 
BRANCH  25  26
HETATM   26  C4  UNL     1      -1.526  51.843 -26.423  1.00  0.00     0.028 C 
BRANCH  26  27
HETATM   27  C3  UNL     1      -0.087  51.596 -26.068  1.00  0.00    -0.022 C 
HETATM   28  C2  UNL     1       0.991  51.694 -26.875  1.00  0.00    -0.064 C 
HETATM   29  C1  UNL     1       0.909  52.015 -28.345  1.00  0.00     0.045 C 
BRANCH  28  30
HETATM   30  C30 UNL     1       2.409  51.449 -26.396  1.00  0.00     0.197 C 
BRANCH  30  31
HETATM   31  O4  UNL     1       3.354  51.496 -27.456  1.00  0.00    -0.397 OA
HETATM   32  H50 UNL     1       3.079  50.819 -28.094  1.00  0.00     0.209 HD
ENDBRANCH  30  31
ENDBRANCH  28  30
ENDBRANCH  26  27
ENDBRANCH  25  26
ENDBRANCH  23  25
ENDBRANCH   1  23
BRANCH   3  33
HETATM   33  O1  UNL     1      -6.418  51.030 -22.856  1.00  0.00    -0.394 OA
HETATM   34  H17 UNL     1      -7.213  50.805 -23.384  1.00  0.00     0.210 HD
ENDBRANCH   3  33
BRANCH  22  35
HETATM   35  O3  UNL     1      -5.422  51.087 -20.144  1.00  0.00    -0.391 OA
HETATM   36  H47 UNL     1      -5.949  51.282 -20.943  1.00  0.00     0.210 HD
ENDBRANCH  22  35
BRANCH  16  37
HETATM   37  O2  UNL     1      -0.705  48.075 -16.780  1.00  0.00    -0.395 OA
HETATM   38  H36 UNL     1       0.212  47.988 -16.465  1.00  0.00     0.210 HD
ENDBRANCH  16  37
TORSDOF 9
ENDMDL
MODEL 2
REMARK minimizedAffinity -9.69046211
REMARK  9 active torsions:
REMARK  status: ('A' for Active; 'I' for Inactive)
REMARK    1  A    between atoms: C2_2  and  C30_33 
REMARK    2  A    between atoms: C3_3  and  C4_4 
REMARK    3  A    between atoms: C4_4  and  C5_5 
REMARK    4  A    between atoms: C5_5  and  C6_6 
REMARK    5  A    between atoms: C6_6  and  C8_8 
REMARK    6  A    between atoms: C10_10  and  O1_11 
REMARK    7  A    between atoms: C23_24  and  O2_25 
REMARK    8  A    between atoms: C29_31  and  O3_32 
REMARK    9  A    between atoms: C30_33  and  O4_34 
ROOT
HETATM    1  C8  UNL     1      -0.600  50.054 -20.961  1.00  0.00     0.001 C 
HETATM    2  C9  UNL     1      -0.847  49.398 -19.576  1.00  0.00     0.038 C 
HETATM    3  C10 UNL     1      -2.200  48.656 -19.678  1.00  0.00     0.132 C 
HETATM    4  C11 UNL     1      -2.470  48.532 -21.199  1.00  0.00     0.016 C 
HETATM    5  C12 UNL     1      -1.632  47.336 -21.763  1.00  0.00     0.023 C 
HETATM    6  C13 UNL     1      -3.900  48.297 -21.684  1.00  0.00    -0.037 C 
HETATM    7  C14 UNL     1      -4.253  48.720 -22.928  1.00  0.00    -0.065 C 
HETATM    8  C15 UNL     1      -3.278  49.503 -23.821  1.00  0.00     0.036 C 
HETATM    9  C16 UNL     1      -1.935  49.954 -23.203  1.00  0.00     0.015 C 
HETATM   10  C17 UNL     1      -1.986  49.951 -21.671  1.00  0.00    -0.026 C 
HETATM   11  C18 UNL     1      -2.918  51.118 -21.232  1.00  0.00     0.016 C 
HETATM   12  C19 UNL     1      -5.685  48.489 -23.492  1.00  0.00    -0.016 C 
HETATM   13  C20 UNL     1      -6.429  49.820 -23.260  1.00  0.00     0.020 C 
HETATM   14  C21 UNL     1      -5.621  48.119 -24.991  1.00  0.00     0.016 C 
HETATM   15  C22 UNL     1      -6.927  47.694 -25.660  1.00  0.00     0.033 C 
HETATM   16  C23 UNL     1      -8.100  47.363 -24.739  1.00  0.00     0.126 C 
HETATM   17  C24 UNL     1      -7.743  46.791 -23.335  1.00  0.00    -0.017 C 
HETATM   18  C25 UNL     1      -7.651  45.244 -23.488  1.00  0.00     0.018 C 
HETATM   19  C26 UNL     1      -8.919  47.060 -22.363  1.00  0.00     0.018 C 
HETATM   20  C27 UNL     1      -6.344  47.272 -22.770  1.00  0.00     0.011 C 
HETATM   21  C28 UNL     1      -6.297  47.474 -21.243  1.00  0.00     0.043 C 
HETATM   22  C29 UNL     1      -4.852  47.597 -20.739  1.00  0.00     0.148 C 
ENDROOT
BRANCH   1  23
HETATM   23  C6  UNL     1       0.147  51.418 -20.984  1.00  0.00    -0.013 C 
HETATM   24  C7  UNL     1      -0.094  52.143 -19.647  1.00  0.00     0.010 C 
BRANCH  23  25
HETATM   25  C5  UNL     1      -0.227  52.368 -22.144  1.00  0.00     0.008 C 
BRANCH  25  26
HETATM   26  C4  UNL     1       0.747  52.274 -23.326  1.00  0.00     0.028 C 
BRANCH  26  27
HETATM   27  C3  UNL     1       0.282  53.104 -24.489  1.00  0.00    -0.022 C 
HETATM   28  C2  UNL     1       0.548  52.912 -25.799  1.00  0.00    -0.064 C 
HETATM   29  C1  UNL     1       1.452  51.824 -26.318  1.00  0.00     0.045 C 
BRANCH  28  30
HETATM   30  C30 UNL     1      -0.006  53.802 -26.895  1.00  0.00     0.197 C 
BRANCH  30  31
HETATM   31  O4  UNL     1       0.129  55.184 -26.589  1.00  0.00    -0.397 OA
HETATM   32  H50 UNL     1      -0.344  55.323 -25.753  1.00  0.00     0.209 HD
ENDBRANCH  30  31
ENDBRANCH  28  30
ENDBRANCH  26  27
ENDBRANCH  25  26
ENDBRANCH  23  25
ENDBRANCH   1  23
BRANCH   3  33
HETATM   33  O1  UNL     1      -2.155  47.394 -19.023  1.00  0.00    -0.394 OA
HETATM   34  H17 UNL     1      -1.835  47.554 -18.110  1.00  0.00     0.210 HD
ENDBRANCH   3  33
BRANCH  22  35
HETATM   35  O3  UNL     1      -4.374  46.280 -20.500  1.00  0.00    -0.391 OA
HETATM   36  H47 UNL     1      -3.598  46.361 -19.914  1.00  0.00     0.210 HD
ENDBRANCH  22  35
BRANCH  16  37
HETATM   37  O2  UNL     1      -8.914  48.535 -24.617  1.00  0.00    -0.395 OA
HETATM   38  H36 UNL     1      -9.236  48.771 -25.505  1.00  0.00     0.210 HD
ENDBRANCH  16  37
TORSDOF 9
ENDMDL
MODEL 3
REMARK minimizedAffinity -9.33163834
REMARK  9 active torsions:
REMARK  status: ('A' for Active; 'I' for Inactive)
REMARK    1  A    between atoms: C2_2  and  C30_33 
REMARK    2  A    between atoms: C3_3  and  C4_4 
REMARK    3  A    between atoms: C4_4  and  C5_5 
REMARK    4  A    between atoms: C5_5  and  C6_6 
REMARK    5  A    between atoms: C6_6  and  C8_8 
REMARK    6  A    between atoms: C10_10  and  O1_11 
REMARK    7  A    between atoms: C23_24  and  O2_25 
REMARK    8  A    between atoms: C29_31  and  O3_32 
REMARK    9  A    between atoms: C30_33  and  O4_34 
ROOT
HETATM    1  C8  UNL     1      -3.244  50.574 -25.143  1.00  0.00     0.001 C 
HETATM    2  C9  UNL     1      -4.780  50.453 -24.950  1.00  0.00     0.038 C 
HETATM    3  C10 UNL     1      -5.017  50.256 -23.434  1.00  0.00     0.132 C 
HETATM    4  C11 UNL     1      -3.692  50.703 -22.765  1.00  0.00     0.016 C 
HETATM    5  C12 UNL     1      -3.671  52.267 -22.683  1.00  0.00     0.023 C 
HETATM    6  C13 UNL     1      -3.369  50.213 -21.354  1.00  0.00    -0.037 C 
HETATM    7  C14 UNL     1      -2.068  50.113 -20.972  1.00  0.00    -0.065 C 
HETATM    8  C15 UNL     1      -0.916  50.394 -21.949  1.00  0.00     0.036 C 
HETATM    9  C16 UNL     1      -1.269  50.628 -23.435  1.00  0.00     0.015 C 
HETATM   10  C17 UNL     1      -2.661  50.087 -23.779  1.00  0.00    -0.026 C 
HETATM   11  C18 UNL     1      -2.582  48.532 -23.737  1.00  0.00     0.016 C 
HETATM   12  C19 UNL     1      -1.672  49.645 -19.541  1.00  0.00    -0.016 C 
HETATM   13  C20 UNL     1      -1.332  48.147 -19.685  1.00  0.00     0.020 C 
HETATM   14  C21 UNL     1      -0.466  50.461 -19.022  1.00  0.00     0.016 C 
HETATM   15  C22 UNL     1      -0.055  50.246 -17.566  1.00  0.00     0.033 C 
HETATM   16  C23 UNL     1      -1.044  49.504 -16.671  1.00  0.00     0.126 C 
HETATM   17  C24 UNL     1      -2.555  49.664 -17.018  1.00  0.00    -0.017 C 
HETATM   18  C25 UNL     1      -3.064  50.919 -16.250  1.00  0.00     0.018 C 
HETATM   19  C26 UNL     1      -3.338  48.458 -16.445  1.00  0.00     0.018 C 
HETATM   20  C27 UNL     1      -2.847  49.926 -18.553  1.00  0.00     0.011 C 
HETATM   21  C28 UNL     1      -4.147  49.290 -19.083  1.00  0.00     0.043 C 
HETATM   22  C29 UNL     1      -4.533  49.866 -20.452  1.00  0.00     0.148 C 
ENDROOT
BRANCH   1  23
HETATM   23  C6  UNL     1      -2.640  50.000 -26.456  1.00  0.00    -0.013 C 
HETATM   24  C7  UNL     1      -3.038  50.913 -27.631  1.00  0.00     0.010 C 
BRANCH  23  25
HETATM   25  C5  UNL     1      -3.035  48.545 -26.797  1.00  0.00     0.008 C 
BRANCH  25  26
HETATM   26  C4  UNL     1      -4.503  48.413 -27.224  1.00  0.00     0.028 C 
BRANCH  26  27
HETATM   27  C3  UNL     1      -4.639  48.390 -28.720  1.00  0.00    -0.022 C 
HETATM   28  C2  UNL     1      -5.727  48.048 -29.445  1.00  0.00    -0.064 C 
HETATM   29  C1  UNL     1      -7.012  47.547 -28.838  1.00  0.00     0.045 C 
BRANCH  28  30
HETATM   30  C30 UNL     1      -5.759  48.093 -30.960  1.00  0.00     0.197 C 
BRANCH  30  31
HETATM   31  O4  UNL     1      -4.647  48.790 -31.505  1.00  0.00    -0.397 OA
HETATM   32  H50 UNL     1      -4.678  49.684 -31.128  1.00  0.00     0.209 HD
ENDBRANCH  30  31
ENDBRANCH  28  30
ENDBRANCH  26  27
ENDBRANCH  25  26
ENDBRANCH  23  25
ENDBRANCH   1  23
BRANCH   3  33
HETATM   33  O1  UNL     1      -6.141  51.001 -22.980  1.00  0.00    -0.394 OA
HETATM   34  H17 UNL     1      -6.897  50.760 -23.554  1.00  0.00     0.210 HD
ENDBRANCH   3  33
BRANCH  22  35
HETATM   35  O3  UNL     1      -5.297  51.041 -20.216  1.00  0.00    -0.391 OA
HETATM   36  H47 UNL     1      -5.785  51.233 -21.040  1.00  0.00     0.210 HD
ENDBRANCH  22  35
BRANCH  16  37
HETATM   37  O2  UNL     1      -0.673  48.120 -16.647  1.00  0.00    -0.395 OA
HETATM   38  H36 UNL     1       0.227  48.058 -16.283  1.00  0.00     0.210 HD
ENDBRANCH  16  37
TORSDOF 9
ENDMDL
MODEL 4
REMARK minimizedAffinity -9.29632664
REMARK  9 active torsions:
REMARK  status: ('A' for Active; 'I' for Inactive)
REMARK    1  A    between atoms: C2_2  and  C30_33 
REMARK    2  A    between atoms: C3_3  and  C4_4 
REMARK    3  A    between atoms: C4_4  and  C5_5 
REMARK    4  A    between atoms: C5_5  and  C6_6 
REMARK    5  A    between atoms: C6_6  and  C8_8 
REMARK    6  A    between atoms: C10_10  and  O1_11 
REMARK    7  A    between atoms: C23_24  and  O2_25 
REMARK    8  A    between atoms: C29_31  and  O3_32 
REMARK    9  A    between atoms: C30_33  and  O4_34 
ROOT
HETATM    1  C8  UNL     1      -1.705  52.159 -22.716  1.00  0.00     0.001 C 
HETATM    2  C9  UNL     1      -2.226  52.347 -24.166  1.00  0.00     0.038 C 
HETATM    3  C10 UNL     1      -3.425  51.383 -24.329  1.00  0.00     0.132 C 
HETATM    4  C11 UNL     1      -3.830  51.006 -22.881  1.00  0.00     0.016 C 
HETATM    5  C12 UNL     1      -4.689  52.169 -22.279  1.00  0.00     0.023 C 
HETATM    6  C13 UNL     1      -4.638  49.732 -22.642  1.00  0.00    -0.037 C 
HETATM    7  C14 UNL     1      -4.537  49.101 -21.441  1.00  0.00    -0.065 C 
HETATM    8  C15 UNL     1      -3.565  49.587 -20.355  1.00  0.00     0.036 C 
HETATM    9  C16 UNL     1      -2.573  50.713 -20.722  1.00  0.00     0.015 C 
HETATM   10  C17 UNL     1      -2.403  50.847 -22.239  1.00  0.00    -0.026 C 
HETATM   11  C18 UNL     1      -1.622  49.595 -22.735  1.00  0.00     0.016 C 
HETATM   12  C19 UNL     1      -5.352  47.813 -21.125  1.00  0.00    -0.016 C 
HETATM   13  C20 UNL     1      -4.375  46.645 -21.375  1.00  0.00     0.020 C 
HETATM   14  C21 UNL     1      -5.855  47.840 -19.665  1.00  0.00     0.016 C 
HETATM   15  C22 UNL     1      -6.816  46.730 -19.239  1.00  0.00     0.033 C 
HETATM   16  C23 UNL     1      -7.441  45.892 -20.352  1.00  0.00     0.126 C 
HETATM   17  C24 UNL     1      -7.659  46.603 -21.721  1.00  0.00    -0.017 C 
HETATM   18  C25 UNL     1      -9.067  47.266 -21.665  1.00  0.00     0.018 C 
HETATM   19  C26 UNL     1      -7.727  45.537 -22.842  1.00  0.00     0.018 C 
HETATM   20  C27 UNL     1      -6.626  47.764 -22.026  1.00  0.00     0.011 C 
HETATM   21  C28 UNL     1      -6.231  47.907 -23.508  1.00  0.00     0.043 C 
HETATM   22  C29 UNL     1      -5.518  49.241 -23.771  1.00  0.00     0.148 C 
ENDROOT
BRANCH   1  23
HETATM   23  C6  UNL     1      -0.175  52.313 -22.480  1.00  0.00    -0.013 C 
HETATM   24  C7  UNL     1       0.060  52.837 -21.051  1.00  0.00     0.010 C 
BRANCH  23  25
HETATM   25  C5  UNL     1       0.569  53.229 -23.478  1.00  0.00     0.008 C 
BRANCH  25  26
HETATM   26  C4  UNL     1       0.893  52.525 -24.802  1.00  0.00     0.028 C 
BRANCH  26  27
HETATM   27  C3  UNL     1       0.309  53.262 -25.973  1.00  0.00    -0.022 C 
HETATM   28  C2  UNL     1       0.245  52.852 -27.258  1.00  0.00    -0.064 C 
HETATM   29  C1  UNL     1       0.839  51.558 -27.754  1.00  0.00     0.045 C 
BRANCH  28  30
HETATM   30  C30 UNL     1      -0.399  53.673 -28.359  1.00  0.00     0.197 C 
BRANCH  30  31
HETATM   31  O4  UNL     1      -1.792  53.859 -28.149  1.00  0.00    -0.397 OA
HETATM   32  H50 UNL     1      -2.180  52.971 -28.102  1.00  0.00     0.209 HD
ENDBRANCH  30  31
ENDBRANCH  28  30
ENDBRANCH  26  27
ENDBRANCH  25  26
ENDBRANCH  23  25
ENDBRANCH   1  23
BRANCH   3  33
HETATM   33  O1  UNL     1      -4.487  51.988 -25.057  1.00  0.00    -0.394 OA
HETATM   34  H17 UNL     1      -4.107  52.325 -25.895  1.00  0.00     0.210 HD
ENDBRANCH   3  33
BRANCH  22  35
HETATM   35  O3  UNL     1      -6.522  50.214 -24.026  1.00  0.00    -0.391 OA
HETATM   36  H47 UNL     1      -6.085  50.962 -24.477  1.00  0.00     0.210 HD
ENDBRANCH  22  35
BRANCH  16  37
HETATM   37  O2  UNL     1      -6.651  44.708 -20.516  1.00  0.00    -0.395 OA
HETATM   38  H36 UNL     1      -6.664  44.220 -19.674  1.00  0.00     0.210 HD
ENDBRANCH  16  37
TORSDOF 9
ENDMDL
MODEL 5
REMARK minimizedAffinity -9.24521828
REMARK  9 active torsions:
REMARK  status: ('A' for Active; 'I' for Inactive)
REMARK    1  A    between atoms: C2_2  and  C30_33 
REMARK    2  A    between atoms: C3_3  and  C4_4 
REMARK    3  A    between atoms: C4_4  and  C5_5 
REMARK    4  A    between atoms: C5_5  and  C6_6 
REMARK    5  A    between atoms: C6_6  and  C8_8 
REMARK    6  A    between atoms: C10_10  and  O1_11 
REMARK    7  A    between atoms: C23_24  and  O2_25 
REMARK    8  A    between atoms: C29_31  and  O3_32 
REMARK    9  A    between atoms: C30_33  and  O4_34 
ROOT
HETATM    1  C8  UNL     1      -0.065  51.090 -21.254  1.00  0.00     0.001 C 
HETATM    2  C9  UNL     1      -0.125  51.435 -19.742  1.00  0.00     0.038 C 
HETATM    3  C10 UNL     1      -1.457  50.856 -19.213  1.00  0.00     0.132 C 
HETATM    4  C11 UNL     1      -1.904  49.838 -20.293  1.00  0.00     0.016 C 
HETATM    5  C12 UNL     1      -1.105  48.507 -20.093  1.00  0.00     0.023 C 
HETATM    6  C13 UNL     1      -3.374  49.428 -20.366  1.00  0.00    -0.037 C 
HETATM    7  C14 UNL     1      -3.887  49.016 -21.557  1.00  0.00    -0.065 C 
HETATM    8  C15 UNL     1      -3.050  49.037 -22.845  1.00  0.00     0.036 C 
HETATM    9  C16 UNL     1      -1.657  49.703 -22.792  1.00  0.00     0.015 C 
HETATM   10  C17 UNL     1      -1.523  50.643 -21.589  1.00  0.00    -0.026 C 
HETATM   11  C18 UNL     1      -2.430  51.879 -21.857  1.00  0.00     0.016 C 
HETATM   12  C19 UNL     1      -5.369  48.561 -21.693  1.00  0.00    -0.016 C 
HETATM   13  C20 UNL     1      -6.120  49.790 -22.247  1.00  0.00     0.020 C 
HETATM   14  C21 UNL     1      -5.474  47.346 -22.643  1.00  0.00     0.016 C 
HETATM   15  C22 UNL     1      -6.838  46.667 -22.756  1.00  0.00     0.033 C 
HETATM   16  C23 UNL     1      -7.881  47.030 -21.702  1.00  0.00     0.126 C 
HETATM   17  C24 UNL     1      -7.341  47.422 -20.294  1.00  0.00    -0.017 C 
HETATM   18  C25 UNL     1      -7.222  46.104 -19.473  1.00  0.00     0.018 C 
HETATM   19  C26 UNL     1      -8.399  48.290 -19.568  1.00  0.00     0.018 C 
HETATM   20  C27 UNL     1      -5.899  48.078 -20.307  1.00  0.00     0.011 C 
HETATM   21  C28 UNL     1      -5.675  49.171 -19.245  1.00  0.00     0.043 C 
HETATM   22  C29 UNL     1      -4.185  49.504 -19.090  1.00  0.00     0.148 C 
ENDROOT
BRANCH   1  23
HETATM   23  C6  UNL     1       0.632  52.113 -22.196  1.00  0.00    -0.013 C 
HETATM   24  C7  UNL     1       0.931  53.399 -21.403  1.00  0.00     0.010 C 
BRANCH  23  25
HETATM   25  C5  UNL     1      -0.146  52.484 -23.478  1.00  0.00     0.008 C 
BRANCH  25  26
HETATM   26  C4  UNL     1       0.710  53.261 -24.487  1.00  0.00     0.028 C 
BRANCH  26  27
HETATM   27  C3  UNL     1       0.353  52.900 -25.902  1.00  0.00    -0.022 C 
HETATM   28  C2  UNL     1       1.032  52.091 -26.743  1.00  0.00    -0.064 C 
HETATM   29  C1  UNL     1       2.351  51.447 -26.403  1.00  0.00     0.045 C 
BRANCH  28  30
HETATM   30  C30 UNL     1       0.557  51.772 -28.148  1.00  0.00     0.197 C 
BRANCH  30  31
HETATM   31  O4  UNL     1      -0.017  52.900 -28.794  1.00  0.00    -0.397 OA
HETATM   32  H50 UNL     1      -0.755  53.187 -28.232  1.00  0.00     0.209 HD
ENDBRANCH  30  31
ENDBRANCH  28  30
ENDBRANCH  26  27
ENDBRANCH  25  26
ENDBRANCH  23  25
ENDBRANCH   1  23
BRANCH   3  33
HETATM   33  O1  UNL     1      -1.296  50.260 -17.930  1.00  0.00    -0.394 OA
HETATM   34  H17 UNL     1      -0.874  50.930 -17.353  1.00  0.00     0.210 HD
ENDBRANCH   3  33
BRANCH  22  35
HETATM   35  O3  UNL     1      -3.643  48.589 -18.148  1.00  0.00    -0.391 OA
HETATM   36  H47 UNL     1      -2.804  48.973 -17.828  1.00  0.00     0.210 HD
ENDBRANCH  22  35
BRANCH  16  37
HETATM   37  O2  UNL     1      -8.710  48.070 -22.235  1.00  0.00    -0.395 OA
HETATM   38  H36 UNL     1      -9.142  47.727 -23.037  1.00  0.00     0.210 HD
ENDBRANCH  16  37
TORSDOF 9
ENDMDL
MODEL 6
REMARK minimizedAffinity -9.08618641
REMARK  9 active torsions:
REMARK  status: ('A' for Active; 'I' for Inactive)
REMARK    1  A    between atoms: C2_2  and  C30_33 
REMARK    2  A    between atoms: C3_3  and  C4_4 
REMARK    3  A    between atoms: C4_4  and  C5_5 
REMARK    4  A    between atoms: C5_5  and  C6_6 
REMARK    5  A    between atoms: C6_6  and  C8_8 
REMARK    6  A    between atoms: C10_10  and  O1_11 
REMARK    7  A    between atoms: C23_24  and  O2_25 
REMARK    8  A    between atoms: C29_31  and  O3_32 
REMARK    9  A    between atoms: C30_33  and  O4_34 
ROOT
HETATM    1  C8  UNL     1      -1.865  50.754 -22.542  1.00  0.00     0.001 C 
HETATM    2  C9  UNL     1      -1.811  50.377 -21.038  1.00  0.00     0.038 C 
HETATM    3  C10 UNL     1      -3.027  49.459 -20.772  1.00  0.00     0.132 C 
HETATM    4  C11 UNL     1      -3.478  48.983 -22.176  1.00  0.00     0.016 C 
HETATM    5  C12 UNL     1      -2.542  47.816 -22.638  1.00  0.00     0.023 C 
HETATM    6  C13 UNL     1      -4.904  48.466 -22.363  1.00  0.00    -0.037 C 
HETATM    7  C14 UNL     1      -5.488  48.567 -23.588  1.00  0.00    -0.065 C 
HETATM    8  C15 UNL     1      -4.784  49.267 -24.761  1.00  0.00     0.036 C 
HETATM    9  C16 UNL     1      -3.461  50.010 -24.471  1.00  0.00     0.015 C 
HETATM   10  C17 UNL     1      -3.300  50.323 -22.980  1.00  0.00    -0.026 C 
HETATM   11  C18 UNL     1      -4.341  51.423 -22.617  1.00  0.00     0.016 C 
HETATM   12  C19 UNL     1      -6.927  48.037 -23.852  1.00  0.00    -0.016 C 
HETATM   13  C20 UNL     1      -7.839  49.277 -23.753  1.00  0.00     0.020 C 
HETATM   14  C21 UNL     1      -7.009  47.372 -25.244  1.00  0.00     0.016 C 
HETATM   15  C22 UNL     1      -8.307  46.647 -25.594  1.00  0.00     0.033 C 
HETATM   16  C23 UNL     1      -9.274  46.366 -24.446  1.00  0.00     0.126 C 
HETATM   17  C24 UNL     1      -8.641  46.153 -23.039  1.00  0.00    -0.017 C 
HETATM   18  C25 UNL     1      -8.320  44.635 -22.913  1.00  0.00     0.018 C 
HETATM   19  C26 UNL     1      -9.700  46.464 -21.953  1.00  0.00     0.018 C 
HETATM   20  C27 UNL     1      -7.274  46.922 -22.815  1.00  0.00     0.011 C 
HETATM   21  C28 UNL     1      -7.052  47.446 -21.383  1.00  0.00     0.043 C 
HETATM   22  C29 UNL     1      -5.592  47.860 -21.158  1.00  0.00     0.148 C 
ENDROOT
BRANCH   1  23
HETATM   23  C6  UNL     1      -1.360  52.169 -22.945  1.00  0.00    -0.013 C 
HETATM   24  C7  UNL     1      -2.093  52.617 -24.223  1.00  0.00     0.010 C 
BRANCH  23  25
HETATM   25  C5  UNL     1       0.163  52.299 -23.170  1.00  0.00     0.008 C 
BRANCH  25  26
HETATM   26  C4  UNL     1       0.511  53.161 -24.390  1.00  0.00     0.028 C 
BRANCH  26  27
HETATM   27  C3  UNL     1       1.250  52.368 -25.431  1.00  0.00    -0.022 C 
HETATM   28  C2  UNL     1       1.074  52.396 -26.769  1.00  0.00    -0.064 C 
HETATM   29  C1  UNL     1       0.012  53.215 -27.456  1.00  0.00     0.045 C 
BRANCH  28  30
HETATM   30  C30 UNL     1       1.905  51.569 -27.731  1.00  0.00     0.197 C 
BRANCH  30  31
HETATM   31  O4  UNL     1       3.276  51.519 -27.357  1.00  0.00    -0.397 OA
HETATM   32  H50 UNL     1       3.583  52.439 -27.332  1.00  0.00     0.209 HD
ENDBRANCH  30  31
ENDBRANCH  28  30
ENDBRANCH  26  27
ENDBRANCH  25  26
ENDBRANCH  23  25
ENDBRANCH   1  23
BRANCH   3  33
HETATM   33  O1  UNL     1      -2.688  48.379 -19.908  1.00  0.00    -0.394 OA
HETATM   34  H17 UNL     1      -2.277  48.768 -19.108  1.00  0.00     0.210 HD
ENDBRANCH   3  33
BRANCH  22  35
HETATM   35  O3  UNL     1      -4.878  46.698 -20.760  1.00  0.00    -0.391 OA
HETATM   36  H47 UNL     1      -4.052  47.002 -20.337  1.00  0.00     0.210 HD
ENDBRANCH  22  35
BRANCH  16  37
HETATM   37  O2  UNL     1     -10.244  47.420 -24.412  1.00  0.00    -0.395 OA
HETATM   38  H36 UNL     1     -10.718  47.420 -25.262  1.00  0.00     0.210 HD
ENDBRANCH  16  37
TORSDOF 9
ENDMDL
MODEL 7
REMARK minimizedAffinity -9.01781559
REMARK  9 active torsions:
REMARK  status: ('A' for Active; 'I' for Inactive)
REMARK    1  A    between atoms: C2_2  and  C30_33 
REMARK    2  A    between atoms: C3_3  and  C4_4 
REMARK    3  A    between atoms: C4_4  and  C5_5 
REMARK    4  A    between atoms: C5_5  and  C6_6 
REMARK    5  A    between atoms: C6_6  and  C8_8 
REMARK    6  A    between atoms: C10_10  and  O1_11 
REMARK    7  A    between atoms: C23_24  and  O2_25 
REMARK    8  A    between atoms: C29_31  and  O3_32 
REMARK    9  A    between atoms: C30_33  and  O4_34 
ROOT
HETATM    1  C8  UNL     1      -0.976  51.427 -17.273  1.00  0.00     0.001 C 
HETATM    2  C9  UNL     1       0.534  51.771 -17.174  1.00  0.00     0.038 C 
HETATM    3  C10 UNL     1       1.010  52.069 -18.615  1.00  0.00     0.132 C 
HETATM    4  C11 UNL     1      -0.291  52.321 -19.419  1.00  0.00     0.016 C 
HETATM    5  C12 UNL     1      -0.778  53.783 -19.145  1.00  0.00     0.023 C 
HETATM    6  C13 UNL     1      -0.267  52.173 -20.939  1.00  0.00    -0.037 C 
HETATM    7  C14 UNL     1      -1.416  51.844 -21.589  1.00  0.00    -0.065 C 
HETATM    8  C15 UNL     1      -2.713  51.533 -20.827  1.00  0.00     0.036 C 
HETATM    9  C16 UNL     1      -2.639  51.431 -19.287  1.00  0.00     0.015 C 
HETATM   10  C17 UNL     1      -1.205  51.200 -18.801  1.00  0.00    -0.026 C 
HETATM   11  C18 UNL     1      -0.799  49.754 -19.210  1.00  0.00     0.016 C 
HETATM   12  C19 UNL     1      -1.465  51.703 -23.139  1.00  0.00    -0.016 C 
HETATM   13  C20 UNL     1      -1.346  50.189 -23.410  1.00  0.00     0.020 C 
HETATM   14  C21 UNL     1      -2.785  52.284 -23.691  1.00  0.00     0.016 C 
HETATM   15  C22 UNL     1      -2.923  52.380 -25.210  1.00  0.00     0.033 C 
HETATM   16  C23 UNL     1      -1.649  52.201 -26.032  1.00  0.00     0.126 C 
HETATM   17  C24 UNL     1      -0.316  52.649 -25.359  1.00  0.00    -0.017 C 
HETATM   18  C25 UNL     1      -0.122  54.155 -25.703  1.00  0.00     0.018 C 
HETATM   19  C26 UNL     1       0.865  51.897 -26.021  1.00  0.00     0.018 C 
HETATM   20  C27 UNL     1      -0.316  52.544 -23.779  1.00  0.00     0.011 C 
HETATM   21  C28 UNL     1       1.037  52.151 -23.156  1.00  0.00     0.043 C 
HETATM   22  C29 UNL     1       1.053  52.406 -21.643  1.00  0.00     0.148 C 
ENDROOT
BRANCH   1  23
HETATM   23  C6  UNL     1      -1.538  50.374 -16.274  1.00  0.00    -0.013 C 
HETATM   24  C7  UNL     1      -3.072  50.335 -16.400  1.00  0.00     0.010 C 
BRANCH  23  25
HETATM   25  C5  UNL     1      -1.163  50.590 -14.791  1.00  0.00     0.008 C 
BRANCH  25  26
HETATM   26  C4  UNL     1      -2.223  50.045 -13.826  1.00  0.00     0.028 C 
BRANCH  26  27
HETATM   27  C3  UNL     1      -3.146  51.132 -13.352  1.00  0.00    -0.022 C 
HETATM   28  C2  UNL     1      -2.895  52.082 -12.425  1.00  0.00    -0.064 C 
HETATM   29  C1  UNL     1      -1.615  52.162 -11.635  1.00  0.00     0.045 C 
BRANCH  28  30
HETATM   30  C30 UNL     1      -3.898  53.155 -12.048  1.00  0.00     0.197 C 
BRANCH  30  31
HETATM   31  O4  UNL     1      -4.293  53.944 -13.162  1.00  0.00    -0.397 OA
HETATM   32  H50 UNL     1      -3.479  54.335 -13.519  1.00  0.00     0.209 HD
ENDBRANCH  30  31
ENDBRANCH  28  30
ENDBRANCH  26  27
ENDBRANCH  25  26
ENDBRANCH  23  25
ENDBRANCH   1  23
BRANCH   3  33
HETATM   33  O1  UNL     1       1.901  53.178 -18.652  1.00  0.00    -0.394 OA
HETATM   34  H17 UNL     1       2.616  52.995 -18.006  1.00  0.00     0.210 HD
ENDBRANCH   3  33
BRANCH  22  35
HETATM   35  O3  UNL     1       1.444  53.757 -21.446  1.00  0.00    -0.391 OA
HETATM   36  H47 UNL     1       1.741  53.836 -20.519  1.00  0.00     0.210 HD
ENDBRANCH  22  35
BRANCH  16  37
HETATM   37  O2  UNL     1      -1.573  50.831 -26.444  1.00  0.00    -0.395 OA
HETATM   38  H36 UNL     1      -2.357  50.637 -26.987  1.00  0.00     0.210 HD
ENDBRANCH  16  37
TORSDOF 9
ENDMDL
MODEL 8
REMARK minimizedAffinity -9.01362038
REMARK  9 active torsions:
REMARK  status: ('A' for Active; 'I' for Inactive)
REMARK    1  A    between atoms: C2_2  and  C30_33 
REMARK    2  A    between atoms: C3_3  and  C4_4 
REMARK    3  A    between atoms: C4_4  and  C5_5 
REMARK    4  A    between atoms: C5_5  and  C6_6 
REMARK    5  A    between atoms: C6_6  and  C8_8 
REMARK    6  A    between atoms: C10_10  and  O1_11 
REMARK    7  A    between atoms: C23_24  and  O2_25 
REMARK    8  A    between atoms: C29_31  and  O3_32 
REMARK    9  A    between atoms: C30_33  and  O4_34 
ROOT
HETATM    1  C8  UNL     1      -0.977  51.479 -21.633  1.00  0.00     0.001 C 
HETATM    2  C9  UNL     1      -0.524  51.546 -23.115  1.00  0.00     0.038 C 
HETATM    3  C10 UNL     1      -1.651  50.890 -23.947  1.00  0.00     0.132 C 
HETATM    4  C11 UNL     1      -2.880  50.869 -23.003  1.00  0.00     0.016 C 
HETATM    5  C12 UNL     1      -3.539  52.289 -23.002  1.00  0.00     0.023 C 
HETATM    6  C13 UNL     1      -4.017  49.888 -23.283  1.00  0.00    -0.037 C 
HETATM    7  C14 UNL     1      -4.790  49.459 -22.249  1.00  0.00    -0.065 C 
HETATM    8  C15 UNL     1      -4.493  49.867 -20.798  1.00  0.00     0.036 C 
HETATM    9  C16 UNL     1      -3.185  50.641 -20.517  1.00  0.00     0.015 C 
HETATM   10  C17 UNL     1      -2.172  50.475 -21.655  1.00  0.00    -0.026 C 
HETATM   11  C18 UNL     1      -1.659  49.006 -21.615  1.00  0.00     0.016 C 
HETATM   12  C19 UNL     1      -5.979  48.480 -22.471  1.00  0.00    -0.016 C 
HETATM   13  C20 UNL     1      -5.425  47.085 -22.116  1.00  0.00     0.020 C 
HETATM   14  C21 UNL     1      -7.173  48.871 -21.571  1.00  0.00     0.016 C 
HETATM   15  C22 UNL     1      -8.484  48.116 -21.786  1.00  0.00     0.033 C 
HETATM   16  C23 UNL     1      -8.601  47.282 -23.060  1.00  0.00     0.126 C 
HETATM   17  C24 UNL     1      -7.802  47.788 -24.299  1.00  0.00    -0.017 C 
HETATM   18  C25 UNL     1      -8.733  48.774 -25.064  1.00  0.00     0.018 C 
HETATM   19  C26 UNL     1      -7.548  46.600 -25.259  1.00  0.00     0.018 C 
HETATM   20  C27 UNL     1      -6.486  48.595 -23.943  1.00  0.00     0.011 C 
HETATM   21  C28 UNL     1      -5.315  48.389 -24.922  1.00  0.00     0.043 C 
HETATM   22  C29 UNL     1      -4.221  49.446 -24.717  1.00  0.00     0.148 C 
ENDROOT
BRANCH   1  23
HETATM   23  C6  UNL     1       0.128  51.293 -20.554  1.00  0.00    -0.013 C 
HETATM   24  C7  UNL     1      -0.421  50.402 -19.424  1.00  0.00     0.010 C 
BRANCH  23  25
HETATM   25  C5  UNL     1       0.690  52.593 -19.937  1.00  0.00     0.008 C 
BRANCH  25  26
HETATM   26  C4  UNL     1       0.456  52.682 -18.424  1.00  0.00     0.028 C 
BRANCH  26  27
HETATM   27  C3  UNL     1       1.753  52.653 -17.665  1.00  0.00    -0.022 C 
HETATM   28  C2  UNL     1       1.974  52.158 -16.428  1.00  0.00    -0.064 C 
HETATM   29  C1  UNL     1       0.890  51.594 -15.546  1.00  0.00     0.045 C 
BRANCH  28  30
HETATM   30  C30 UNL     1       3.341  52.154 -15.770  1.00  0.00     0.197 C 
BRANCH  30  31
HETATM   31  O4  UNL     1       4.012  53.400 -15.909  1.00  0.00    -0.397 OA
HETATM   32  H50 UNL     1       4.083  53.563 -16.863  1.00  0.00     0.209 HD
ENDBRANCH  30  31
ENDBRANCH  28  30
ENDBRANCH  26  27
ENDBRANCH  25  26
ENDBRANCH  23  25
ENDBRANCH   1  23
BRANCH   3  33
HETATM   33  O1  UNL     1      -1.896  51.606 -25.152  1.00  0.00    -0.394 OA
HETATM   34  H17 UNL     1      -1.036  51.696 -25.614  1.00  0.00     0.210 HD
ENDBRANCH   3  33
BRANCH  22  35
HETATM   35  O3  UNL     1      -4.574  50.578 -25.499  1.00  0.00    -0.391 OA
HETATM   36  H47 UNL     1      -3.764  51.112 -25.610  1.00  0.00     0.210 HD
ENDBRANCH  22  35
BRANCH  16  37
HETATM   37  O2  UNL     1      -8.244  45.932 -22.744  1.00  0.00    -0.395 OA
HETATM   38  H36 UNL     1      -8.865  45.608 -22.068  1.00  0.00     0.210 HD
ENDBRANCH  16  37
TORSDOF 9
ENDMDL
MODEL 9
REMARK minimizedAffinity -8.96777725
REMARK  9 active torsions:
REMARK  status: ('A' for Active; 'I' for Inactive)
REMARK    1  A    between atoms: C2_2  and  C30_33 
REMARK    2  A    between atoms: C3_3  and  C4_4 
REMARK    3  A    between atoms: C4_4  and  C5_5 
REMARK    4  A    between atoms: C5_5  and  C6_6 
REMARK    5  A    between atoms: C6_6  and  C8_8 
REMARK    6  A    between atoms: C10_10  and  O1_11 
REMARK    7  A    between atoms: C23_24  and  O2_25 
REMARK    8  A    between atoms: C29_31  and  O3_32 
REMARK    9  A    between atoms: C30_33  and  O4_34 
ROOT
HETATM    1  C8  UNL     1      -1.144  50.416 -22.142  1.00  0.00     0.001 C 
HETATM    2  C9  UNL     1      -1.173  49.915 -20.674  1.00  0.00     0.038 C 
HETATM    3  C10 UNL     1      -2.465  49.079 -20.522  1.00  0.00     0.132 C 
HETATM    4  C11 UNL     1      -2.901  48.757 -21.974  1.00  0.00     0.016 C 
HETATM    5  C12 UNL     1      -2.042  47.560 -22.505  1.00  0.00     0.023 C 
HETATM    6  C13 UNL     1      -4.355  48.373 -22.246  1.00  0.00    -0.037 C 
HETATM    7  C14 UNL     1      -4.885  48.619 -23.475  1.00  0.00    -0.065 C 
HETATM    8  C15 UNL     1      -4.087  49.354 -24.564  1.00  0.00     0.036 C 
HETATM    9  C16 UNL     1      -2.721  49.963 -24.173  1.00  0.00     0.015 C 
HETATM   10  C17 UNL     1      -2.591  50.139 -22.657  1.00  0.00    -0.026 C 
HETATM   11  C18 UNL     1      -3.556  51.285 -22.234  1.00  0.00     0.016 C 
HETATM   12  C19 UNL     1      -6.350  48.229 -23.824  1.00  0.00    -0.016 C 
HETATM   13  C20 UNL     1      -7.166  49.527 -23.649  1.00  0.00     0.020 C 
HETATM   14  C21 UNL     1      -6.433  47.689 -25.270  1.00  0.00     0.016 C 
HETATM   15  C22 UNL     1      -7.770  47.102 -25.717  1.00  0.00     0.033 C 
HETATM   16  C23 UNL     1      -8.797  46.807 -24.626  1.00  0.00     0.126 C 
HETATM   17  C24 UNL     1      -8.233  46.430 -23.223  1.00  0.00    -0.017 C 
HETATM   18  C25 UNL     1      -8.035  44.885 -23.216  1.00  0.00     0.018 C 
HETATM   19  C26 UNL     1      -9.304  46.735 -22.147  1.00  0.00     0.018 C 
HETATM   20  C27 UNL     1      -6.819  47.066 -22.895  1.00  0.00     0.011 C 
HETATM   21  C28 UNL     1      -6.609  47.451 -21.418  1.00  0.00     0.043 C 
HETATM   22  C29 UNL     1      -5.130  47.728 -21.117  1.00  0.00     0.148 C 
ENDROOT
BRANCH   1  23
HETATM   23  C6  UNL     1      -0.516  51.815 -22.410  1.00  0.00    -0.013 C 
HETATM   24  C7  UNL     1      -0.052  51.882 -23.876  1.00  0.00     0.010 C 
BRANCH  23  25
HETATM   25  C5  UNL     1       0.663  52.208 -21.492  1.00  0.00     0.008 C 
BRANCH  25  26
HETATM   26  C4  UNL     1       0.281  53.277 -20.461  1.00  0.00     0.028 C 
BRANCH  26  27
HETATM   27  C3  UNL     1       1.166  53.211 -19.248  1.00  0.00    -0.022 C 
HETATM   28  C2  UNL     1       0.965  52.499 -18.118  1.00  0.00    -0.064 C 
HETATM   29  C1  UNL     1      -0.269  51.675 -17.857  1.00  0.00     0.045 C 
BRANCH  28  30
HETATM   30  C30 UNL     1       1.948  52.485 -16.963  1.00  0.00     0.197 C 
BRANCH  30  31
HETATM   31  O4  UNL     1       1.466  53.199 -15.832  1.00  0.00    -0.397 OA
HETATM   32  H50 UNL     1       1.297  54.104 -16.137  1.00  0.00     0.209 HD
ENDBRANCH  30  31
ENDBRANCH  28  30
ENDBRANCH  26  27
ENDBRANCH  25  26
ENDBRANCH  23  25
ENDBRANCH   1  23
BRANCH   3  33
HETATM   33  O1  UNL     1      -2.242  47.909 -19.743  1.00  0.00    -0.394 OA
HETATM   34  H17 UNL     1      -1.831  48.198 -18.901  1.00  0.00     0.210 HD
ENDBRANCH   3  33
BRANCH  22  35
HETATM   35  O3  UNL     1      -4.524  46.484 -20.797  1.00  0.00    -0.391 OA
HETATM   36  H47 UNL     1      -3.692  46.685 -20.326  1.00  0.00     0.210 HD
ENDBRANCH  22  35
BRANCH  16  37
HETATM   37  O2  UNL     1      -9.683  47.928 -24.532  1.00  0.00    -0.395 OA
HETATM   38  H36 UNL     1     -10.124  48.035 -25.393  1.00  0.00     0.210 HD
ENDBRANCH  16  37
TORSDOF 9
ENDMDL
