MODEL 1
REMARK minimizedAffinity -6.82701111
REMARK CNNscore 0.825450778
REMARK CNNaffinity 7.60608912
REMARK  19 active torsions:
REMARK  status: ('A' for Active; 'I' for Inactive)
REMARK    1  A    between atoms: C2_2  and  C3_3 
REMARK    2  A    between atoms: C2_2  and  C30_37 
REMARK    3  A    between atoms: C4_4  and  C5_5 
REMARK    4  A    between atoms: C6_6  and  C7_7 
REMARK    5  A    between atoms: C6_6  and  C11_14 
REMARK    6  A    between atoms: C7_7  and  O1_8 
REMARK    7  A    between atoms: O1_8  and  C8_9 
REMARK    8  A    between atoms: C8_9  and  C9_10 
REMARK    9  A    between atoms: C9_10  and  O2_11 
REMARK   10  A    between atoms: C9_10  and  C10_12 
REMARK   11  A    between atoms: C10_12  and  O3_13 
REMARK   12  A    between atoms: C17_20  and  C19_22 
REMARK   13  A    between atoms: C22_26  and  O5_28 
REMARK   14  A    between atoms: C24_29  and  C25_30 
REMARK   15  A    between atoms: C25_30  and  C26_31 
REMARK   16  A    between atoms: C26_31  and  O6_32 
REMARK   17  A    between atoms: C29_35  and  O7_36 
REMARK   18  A    between atoms: C30_37  and  C31_38 
REMARK   19  A    between atoms: C31_38  and  C32_39 
ROOT
HETATM    1  C11 UNL     1      -1.928  52.463 -12.373  1.00  0.00     0.052 C 
HETATM    2  C12 UNL     1      -2.672  51.799 -13.541  1.00  0.00     0.013 C 
HETATM    3  C13 UNL     1      -2.258  50.343 -13.484  1.00  0.00     0.017 C 
HETATM    4  C14 UNL     1      -0.755  50.318 -13.029  1.00  0.00     0.030 C 
HETATM    5  C15 UNL     1       0.183  50.742 -14.239  1.00  0.00     0.033 C 
HETATM    6  C16 UNL     1       0.046  49.759 -15.405  1.00  0.00    -0.066 C 
HETATM    7  C17 UNL     1      -0.085  50.119 -16.710  1.00  0.00    -0.021 C 
HETATM    8  C18 UNL     1      -0.369  49.167 -17.844  1.00  0.00     0.052 C 
HETATM    9  C20 UNL     1      -0.073  48.300 -14.998  1.00  0.00     0.038 C 
HETATM   10  C21 UNL     1       0.354  48.012 -13.569  1.00  0.00     0.042 C 
HETATM   11  C22 UNL     1      -0.377  48.856 -12.506  1.00  0.00     0.066 C 
HETATM   12  C23 UNL     1      -1.562  48.016 -11.976  1.00  0.00     0.047 C 
HETATM   13  C24 UNL     1       1.632  51.226 -13.860  1.00  0.00    -0.003 C 
HETATM   14  C27 UNL     1       1.774  51.546 -12.362  1.00  0.00     0.008 C 
HETATM   15  C28 UNL     1       0.556  52.257 -11.803  1.00  0.00     0.040 C 
HETATM   16  C29 UNL     1      -0.765  51.469 -11.951  1.00  0.00     0.076 C 
ENDROOT
BRANCH   1  17
HETATM   17  C6  UNL     1      -2.832  52.971 -11.237  1.00  0.00    -0.049 C 
HETATM   18  C5  UNL     1      -2.466  53.939 -10.365  1.00  0.00     0.005 C 
BRANCH  18  19
HETATM   19  C4  UNL     1      -1.228  54.684 -10.323  1.00  0.00     0.001 C 
HETATM   20  C3  UNL     1      -0.279  54.458  -9.399  1.00  0.00     0.006 C 
BRANCH  20  21
HETATM   21  C2  UNL     1       0.974  55.193  -9.256  1.00  0.00    -0.067 C 
HETATM   22  C1  UNL     1       1.137  56.027  -8.213  1.00  0.00     0.019 C 
BRANCH  21  23
HETATM   23  C30 UNL     1       2.063  55.060 -10.306  1.00  0.00     0.041 C 
BRANCH  23  24
HETATM   24  C31 UNL     1       3.120  56.168 -10.204  1.00  0.00     0.032 C 
BRANCH  24  25
HETATM   25  C32 UNL     1       4.542  55.674 -10.201  1.00  0.00    -0.024 C 
HETATM   26  C33 UNL     1       5.336  55.449  -9.136  1.00  0.00    -0.091 C 
HETATM   27  C34 UNL     1       4.910  55.619  -7.707  1.00  0.00     0.042 C 
HETATM   28  C35 UNL     1       6.757  54.978  -9.323  1.00  0.00     0.042 C 
ENDBRANCH  24  25
ENDBRANCH  23  24
ENDBRANCH  21  23
ENDBRANCH  20  21
ENDBRANCH  18  19
BRANCH  17  29
HETATM   29  C7  UNL     1      -4.213  52.319 -11.124  1.00  0.00     0.202 C 
BRANCH  29  30
HETATM   30  O1  UNL     1      -4.155  51.027 -10.505  1.00  0.00    -0.384 OA
BRANCH  30  31
HETATM   31  C8  UNL     1      -5.465  50.513 -10.206  1.00  0.00     0.201 C 
BRANCH  31  32
HETATM   32  C9  UNL     1      -5.289  49.078  -9.700  1.00  0.00     0.165 C 
BRANCH  32  33
HETATM   33  O2  UNL     1      -4.296  49.076  -8.660  1.00  0.00    -0.391 OA
HETATM   34  H11 UNL     1      -4.562  49.807  -8.064  1.00  0.00     0.210 HD
ENDBRANCH  32  33
BRANCH  32  35
HETATM   35  C10 UNL     1      -4.836  48.126 -10.806  1.00  0.00     0.198 C 
BRANCH  35  36
HETATM   36  O3  UNL     1      -5.136  48.680 -12.087  1.00  0.00    -0.398 OA
HETATM   37  H14 UNL     1      -4.753  49.581 -12.065  1.00  0.00     0.209 HD
ENDBRANCH  35  36
ENDBRANCH  32  35
ENDBRANCH  31  32
ENDBRANCH  30  31
ENDBRANCH  29  30
ENDBRANCH  17  29
ENDBRANCH   1  17
BRANCH  16  38
HETATM   38  O7  UNL     1      -1.052  50.882 -10.670  1.00  0.00    -0.388 OA
HETATM   39  H43 UNL     1      -1.082  51.607 -10.017  1.00  0.00     0.210 HD
ENDBRANCH  16  38
BRANCH  11  40
HETATM   40  O5  UNL     1       0.522  48.923 -11.391  1.00  0.00    -0.389 OA
HETATM   41  H32 UNL     1       0.079  49.501 -10.734  1.00  0.00     0.210 HD
ENDBRANCH  11  40
BRANCH  13  42
HETATM   42  C25 UNL     1       2.892  50.435 -14.300  1.00  0.00     0.031 C 
BRANCH  42  43
HETATM   43  C26 UNL     1       3.673  49.682 -13.229  1.00  0.00     0.164 C 
BRANCH  43  44
HETATM   44  O6  UNL     1       5.057  49.665 -13.540  1.00  0.00    -0.401 OA
HETATM   45  H38 UNL     1       5.513  49.226 -12.799  1.00  0.00     0.209 HD
ENDBRANCH  43  44
ENDBRANCH  42  43
ENDBRANCH  13  42
BRANCH   7  46
HETATM   46  C19 UNL     1       0.050  51.538 -17.176  1.00  0.00     0.265 C 
HETATM   47  O4  UNL     1      -0.042  51.856 -18.358  1.00  0.00    -0.302 OA
ENDBRANCH   7  46
TORSDOF 19
ENDMDL
MODEL 2
REMARK minimizedAffinity -7.98593855
REMARK CNNscore 0.680572331
REMARK CNNaffinity 7.54956198
REMARK  19 active torsions:
REMARK  status: ('A' for Active; 'I' for Inactive)
REMARK    1  A    between atoms: C2_2  and  C3_3 
REMARK    2  A    between atoms: C2_2  and  C30_37 
REMARK    3  A    between atoms: C4_4  and  C5_5 
REMARK    4  A    between atoms: C6_6  and  C7_7 
REMARK    5  A    between atoms: C6_6  and  C11_14 
REMARK    6  A    between atoms: C7_7  and  O1_8 
REMARK    7  A    between atoms: O1_8  and  C8_9 
REMARK    8  A    between atoms: C8_9  and  C9_10 
REMARK    9  A    between atoms: C9_10  and  O2_11 
REMARK   10  A    between atoms: C9_10  and  C10_12 
REMARK   11  A    between atoms: C10_12  and  O3_13 
REMARK   12  A    between atoms: C17_20  and  C19_22 
REMARK   13  A    between atoms: C22_26  and  O5_28 
REMARK   14  A    between atoms: C24_29  and  C25_30 
REMARK   15  A    between atoms: C25_30  and  C26_31 
REMARK   16  A    between atoms: C26_31  and  O6_32 
REMARK   17  A    between atoms: C29_35  and  O7_36 
REMARK   18  A    between atoms: C30_37  and  C31_38 
REMARK   19  A    between atoms: C31_38  and  C32_39 
ROOT
HETATM    1  C11 UNL     1      -3.551  47.042 -21.398  1.00  0.00     0.052 C 
HETATM    2  C12 UNL     1      -2.428  47.878 -22.031  1.00  0.00     0.013 C 
HETATM    3  C13 UNL     1      -2.976  49.289 -22.076  1.00  0.00     0.017 C 
HETATM    4  C14 UNL     1      -4.512  49.168 -22.380  1.00  0.00     0.030 C 
HETATM    5  C15 UNL     1      -4.734  48.823 -23.915  1.00  0.00     0.033 C 
HETATM    6  C16 UNL     1      -4.181  49.935 -24.810  1.00  0.00    -0.066 C 
HETATM    7  C17 UNL     1      -3.424  49.731 -25.921  1.00  0.00    -0.021 C 
HETATM    8  C18 UNL     1      -2.753  50.819 -26.720  1.00  0.00     0.052 C 
HETATM    9  C20 UNL     1      -4.420  51.345 -24.296  1.00  0.00     0.038 C 
HETATM   10  C21 UNL     1      -5.487  51.446 -23.218  1.00  0.00     0.042 C 
HETATM   11  C22 UNL     1      -5.243  50.537 -21.997  1.00  0.00     0.066 C 
HETATM   12  C23 UNL     1      -4.535  51.386 -20.917  1.00  0.00     0.047 C 
HETATM   13  C24 UNL     1      -6.133  48.209 -24.295  1.00  0.00    -0.003 C 
HETATM   14  C27 UNL     1      -6.915  47.717 -23.065  1.00  0.00     0.008 C 
HETATM   15  C28 UNL     1      -6.024  47.027 -22.049  1.00  0.00     0.040 C 
HETATM   16  C29 UNL     1      -4.877  47.908 -21.505  1.00  0.00     0.076 C 
ENDROOT
BRANCH   1  17
HETATM   17  C6  UNL     1      -3.225  46.469 -20.009  1.00  0.00    -0.049 C 
HETATM   18  C5  UNL     1      -2.553  47.155 -19.055  1.00  0.00     0.005 C 
BRANCH  18  19
HETATM   19  C4  UNL     1      -2.044  48.507 -19.116  1.00  0.00     0.001 C 
HETATM   20  C3  UNL     1      -1.143  48.981 -18.239  1.00  0.00     0.006 C 
BRANCH  20  21
HETATM   21  C2  UNL     1      -0.615  50.341 -18.199  1.00  0.00    -0.067 C 
HETATM   22  C1  UNL     1       0.328  50.658 -17.293  1.00  0.00     0.019 C 
BRANCH  21  23
HETATM   23  C30 UNL     1      -1.164  51.402 -19.135  1.00  0.00     0.041 C 
BRANCH  23  24
HETATM   24  C31 UNL     1      -0.060  52.257 -19.771  1.00  0.00     0.032 C 
BRANCH  24  25
HETATM   25  C32 UNL     1      -0.003  52.186 -21.274  1.00  0.00    -0.024 C 
HETATM   26  C33 UNL     1       0.642  53.015 -22.117  1.00  0.00    -0.091 C 
HETATM   27  C34 UNL     1       1.486  54.179 -21.684  1.00  0.00     0.042 C 
HETATM   28  C35 UNL     1       0.566  52.808 -23.609  1.00  0.00     0.042 C 
ENDBRANCH  24  25
ENDBRANCH  23  24
ENDBRANCH  21  23
ENDBRANCH  20  21
ENDBRANCH  18  19
BRANCH  17  29
HETATM   29  C7  UNL     1      -3.706  45.042 -19.732  1.00  0.00     0.202 C 
BRANCH  29  30
HETATM   30  O1  UNL     1      -3.866  44.785 -18.331  1.00  0.00    -0.384 OA
BRANCH  30  31
HETATM   31  C8  UNL     1      -3.609  43.408 -18.002  1.00  0.00     0.201 C 
BRANCH  31  32
HETATM   32  C9  UNL     1      -4.624  42.557 -18.771  1.00  0.00     0.165 C 
BRANCH  32  33
HETATM   33  O2  UNL     1      -5.833  42.474 -17.998  1.00  0.00    -0.391 OA
HETATM   34  H11 UNL     1      -6.024  43.399 -17.738  1.00  0.00     0.210 HD
ENDBRANCH  32  33
BRANCH  32  35
HETATM   35  C10 UNL     1      -4.114  41.140 -19.030  1.00  0.00     0.198 C 
BRANCH  35  36
HETATM   36  O3  UNL     1      -2.710  41.161 -19.285  1.00  0.00    -0.398 OA
HETATM   37  H14 UNL     1      -2.327  41.662 -18.535  1.00  0.00     0.209 HD
ENDBRANCH  35  36
ENDBRANCH  32  35
ENDBRANCH  31  32
ENDBRANCH  30  31
ENDBRANCH  29  30
ENDBRANCH  17  29
ENDBRANCH   1  17
BRANCH  16  38
HETATM   38  O7  UNL     1      -5.279  48.367 -20.203  1.00  0.00    -0.388 OA
HETATM   39  H43 UNL     1      -5.476  47.577 -19.664  1.00  0.00     0.210 HD
ENDBRANCH  16  38
BRANCH  11  40
HETATM   40  O5  UNL     1      -6.543  50.290 -21.443  1.00  0.00    -0.389 OA
HETATM   41  H32 UNL     1      -6.394  49.672 -20.696  1.00  0.00     0.210 HD
ENDBRANCH  11  40
BRANCH  13  42
HETATM   42  C25 UNL     1      -7.124  48.963 -25.220  1.00  0.00     0.031 C 
BRANCH  42  43
HETATM   43  C26 UNL     1      -8.610  48.887 -24.886  1.00  0.00     0.164 C 
BRANCH  43  44
HETATM   44  O6  UNL     1      -9.309  49.970 -25.479  1.00  0.00    -0.401 OA
HETATM   45  H38 UNL     1     -10.255  49.842 -25.285  1.00  0.00     0.209 HD
ENDBRANCH  43  44
ENDBRANCH  42  43
ENDBRANCH  13  42
BRANCH   7  46
HETATM   46  C19 UNL     1      -3.176  48.367 -26.491  1.00  0.00     0.265 C 
HETATM   47  O4  UNL     1      -3.351  48.106 -27.679  1.00  0.00    -0.302 OA
ENDBRANCH   7  46
TORSDOF 19
ENDMDL
MODEL 3
REMARK minimizedAffinity -6.4801302
REMARK CNNscore 0.618915677
REMARK CNNaffinity 7.04928732
REMARK  19 active torsions:
REMARK  status: ('A' for Active; 'I' for Inactive)
REMARK    1  A    between atoms: C2_2  and  C3_3 
REMARK    2  A    between atoms: C2_2  and  C30_37 
REMARK    3  A    between atoms: C4_4  and  C5_5 
REMARK    4  A    between atoms: C6_6  and  C7_7 
REMARK    5  A    between atoms: C6_6  and  C11_14 
REMARK    6  A    between atoms: C7_7  and  O1_8 
REMARK    7  A    between atoms: O1_8  and  C8_9 
REMARK    8  A    between atoms: C8_9  and  C9_10 
REMARK    9  A    between atoms: C9_10  and  O2_11 
REMARK   10  A    between atoms: C9_10  and  C10_12 
REMARK   11  A    between atoms: C10_12  and  O3_13 
REMARK   12  A    between atoms: C17_20  and  C19_22 
REMARK   13  A    between atoms: C22_26  and  O5_28 
REMARK   14  A    between atoms: C24_29  and  C25_30 
REMARK   15  A    between atoms: C25_30  and  C26_31 
REMARK   16  A    between atoms: C26_31  and  O6_32 
REMARK   17  A    between atoms: C29_35  and  O7_36 
REMARK   18  A    between atoms: C30_37  and  C31_38 
REMARK   19  A    between atoms: C31_38  and  C32_39 
ROOT
HETATM    1  C11 UNL     1      -0.184  53.051 -11.803  1.00  0.00     0.052 C 
HETATM    2  C12 UNL     1      -1.190  52.497 -12.823  1.00  0.00     0.013 C 
HETATM    3  C13 UNL     1      -0.942  51.003 -12.837  1.00  0.00     0.017 C 
HETATM    4  C14 UNL     1       0.605  50.801 -12.651  1.00  0.00     0.030 C 
HETATM    5  C15 UNL     1       1.362  51.139 -14.006  1.00  0.00     0.033 C 
HETATM    6  C16 UNL     1       0.914  50.200 -15.130  1.00  0.00    -0.066 C 
HETATM    7  C17 UNL     1       0.601  50.597 -16.392  1.00  0.00    -0.021 C 
HETATM    8  C18 UNL     1       0.019  49.704 -17.458  1.00  0.00     0.052 C 
HETATM    9  C20 UNL     1       0.701  48.756 -14.707  1.00  0.00     0.038 C 
HETATM   10  C21 UNL     1       1.333  48.395 -13.373  1.00  0.00     0.042 C 
HETATM   11  C22 UNL     1       0.898  49.295 -12.200  1.00  0.00     0.066 C 
HETATM   12  C23 UNL     1      -0.265  48.585 -11.472  1.00  0.00     0.047 C 
HETATM   13  C24 UNL     1       2.900  51.449 -13.886  1.00  0.00    -0.003 C 
HETATM   14  C27 UNL     1       3.335  51.723 -12.435  1.00  0.00     0.008 C 
HETATM   15  C28 UNL     1       2.321  52.556 -11.673  1.00  0.00     0.040 C 
HETATM   16  C29 UNL     1       0.913  51.925 -11.589  1.00  0.00     0.076 C 
ENDROOT
BRANCH   1  17
HETATM   17  C6  UNL     1      -0.815  53.636 -10.528  1.00  0.00    -0.049 C 
HETATM   18  C5  UNL     1      -0.287  54.676  -9.841  1.00  0.00     0.005 C 
BRANCH  18  19
HETATM   19  C4  UNL     1       0.902  55.439 -10.147  1.00  0.00     0.001 C 
HETATM   20  C3  UNL     1       2.062  55.266  -9.491  1.00  0.00     0.006 C 
BRANCH  20  21
HETATM   21  C2  UNL     1       3.291  56.023  -9.703  1.00  0.00    -0.067 C 
HETATM   22  C1  UNL     1       3.722  56.247 -10.958  1.00  0.00     0.019 C 
BRANCH  21  23
HETATM   23  C30 UNL     1       4.106  56.505  -8.517  1.00  0.00     0.041 C 
BRANCH  23  24
HETATM   24  C31 UNL     1       3.648  57.878  -8.006  1.00  0.00     0.032 C 
BRANCH  24  25
HETATM   25  C32 UNL     1       3.227  57.896  -6.560  1.00  0.00    -0.024 C 
HETATM   26  C33 UNL     1       2.009  57.629  -6.051  1.00  0.00    -0.091 C 
HETATM   27  C34 UNL     1       0.820  57.209  -6.867  1.00  0.00     0.042 C 
HETATM   28  C35 UNL     1       1.758  57.724  -4.567  1.00  0.00     0.042 C 
ENDBRANCH  24  25
ENDBRANCH  23  24
ENDBRANCH  21  23
ENDBRANCH  20  21
ENDBRANCH  18  19
BRANCH  17  29
HETATM   29  C7  UNL     1      -2.110  52.976 -10.045  1.00  0.00     0.202 C 
BRANCH  29  30
HETATM   30  O1  UNL     1      -1.950  51.569  -9.820  1.00  0.00    -0.384 OA
BRANCH  30  31
HETATM   31  C8  UNL     1      -3.152  50.965  -9.308  1.00  0.00     0.201 C 
BRANCH  31  32
HETATM   32  C9  UNL     1      -4.235  51.121 -10.380  1.00  0.00     0.165 C 
BRANCH  32  33
HETATM   33  O2  UNL     1      -3.844  50.370 -11.541  1.00  0.00    -0.391 OA
HETATM   34  H11 UNL     1      -3.585  49.493 -11.191  1.00  0.00     0.210 HD
ENDBRANCH  32  33
BRANCH  32  35
HETATM   35  C10 UNL     1      -4.438  52.579 -10.789  1.00  0.00     0.198 C 
BRANCH  35  36
HETATM   36  O3  UNL     1      -4.649  52.672 -12.197  1.00  0.00    -0.398 OA
HETATM   37  H14 UNL     1      -5.368  52.033 -12.385  1.00  0.00     0.209 HD
ENDBRANCH  35  36
ENDBRANCH  32  35
ENDBRANCH  31  32
ENDBRANCH  30  31
ENDBRANCH  29  30
ENDBRANCH  17  29
ENDBRANCH   1  17
BRANCH  16  38
HETATM   38  O7  UNL     1       0.787  51.349 -10.277  1.00  0.00    -0.388 OA
HETATM   39  H43 UNL     1       0.953  52.061  -9.629  1.00  0.00     0.210 HD
ENDBRANCH  16  38
BRANCH  11  40
HETATM   40  O5  UNL     1       1.978  49.240 -11.259  1.00  0.00    -0.389 OA
HETATM   41  H32 UNL     1       1.725  49.851 -10.535  1.00  0.00     0.210 HD
ENDBRANCH  11  40
BRANCH  13  42
HETATM   42  C25 UNL     1       3.967  50.530 -14.537  1.00  0.00     0.031 C 
BRANCH  42  43
HETATM   43  C26 UNL     1       4.412  49.294 -13.764  1.00  0.00     0.164 C 
BRANCH  43  44
HETATM   44  O6  UNL     1       5.412  49.633 -12.815  1.00  0.00    -0.401 OA
HETATM   45  H38 UNL     1       5.617  48.825 -12.312  1.00  0.00     0.209 HD
ENDBRANCH  43  44
ENDBRANCH  42  43
ENDBRANCH  13  42
BRANCH   7  46
HETATM   46  C19 UNL     1       0.815  52.000 -16.875  1.00  0.00     0.265 C 
HETATM   47  O4  UNL     1       0.340  52.414 -17.929  1.00  0.00    -0.302 OA
ENDBRANCH   7  46
TORSDOF 19
ENDMDL
MODEL 4
REMARK minimizedAffinity -6.57102728
REMARK CNNscore 0.615305126
REMARK CNNaffinity 7.11620951
REMARK  19 active torsions:
REMARK  status: ('A' for Active; 'I' for Inactive)
REMARK    1  A    between atoms: C2_2  and  C3_3 
REMARK    2  A    between atoms: C2_2  and  C30_37 
REMARK    3  A    between atoms: C4_4  and  C5_5 
REMARK    4  A    between atoms: C6_6  and  C7_7 
REMARK    5  A    between atoms: C6_6  and  C11_14 
REMARK    6  A    between atoms: C7_7  and  O1_8 
REMARK    7  A    between atoms: O1_8  and  C8_9 
REMARK    8  A    between atoms: C8_9  and  C9_10 
REMARK    9  A    between atoms: C9_10  and  O2_11 
REMARK   10  A    between atoms: C9_10  and  C10_12 
REMARK   11  A    between atoms: C10_12  and  O3_13 
REMARK   12  A    between atoms: C17_20  and  C19_22 
REMARK   13  A    between atoms: C22_26  and  O5_28 
REMARK   14  A    between atoms: C24_29  and  C25_30 
REMARK   15  A    between atoms: C25_30  and  C26_31 
REMARK   16  A    between atoms: C26_31  and  O6_32 
REMARK   17  A    between atoms: C29_35  and  O7_36 
REMARK   18  A    between atoms: C30_37  and  C31_38 
REMARK   19  A    between atoms: C31_38  and  C32_39 
ROOT
HETATM    1  C11 UNL     1      -1.861  50.862 -11.862  1.00  0.00     0.052 C 
HETATM    2  C12 UNL     1      -1.257  52.089 -12.561  1.00  0.00     0.013 C 
HETATM    3  C13 UNL     1      -1.429  51.813 -14.040  1.00  0.00     0.017 C 
HETATM    4  C14 UNL     1      -1.224  50.268 -14.239  1.00  0.00     0.030 C 
HETATM    5  C15 UNL     1       0.321  49.912 -14.151  1.00  0.00     0.033 C 
HETATM    6  C16 UNL     1       1.108  50.619 -15.257  1.00  0.00    -0.066 C 
HETATM    7  C17 UNL     1       2.289  51.269 -15.074  1.00  0.00    -0.021 C 
HETATM    8  C18 UNL     1       2.993  52.092 -16.123  1.00  0.00     0.052 C 
HETATM    9  C20 UNL     1       0.406  50.672 -16.604  1.00  0.00     0.038 C 
HETATM   10  C21 UNL     1      -0.750  49.697 -16.746  1.00  0.00     0.042 C 
HETATM   11  C22 UNL     1      -1.827  49.825 -15.651  1.00  0.00     0.066 C 
HETATM   12  C23 UNL     1      -2.950  50.732 -16.204  1.00  0.00     0.047 C 
HETATM   13  C24 UNL     1       0.673  48.406 -13.855  1.00  0.00    -0.003 C 
HETATM   14  C27 UNL     1      -0.540  47.606 -13.347  1.00  0.00     0.008 C 
HETATM   15  C28 UNL     1      -1.395  48.401 -12.377  1.00  0.00     0.040 C 
HETATM   16  C29 UNL     1      -1.959  49.718 -12.957  1.00  0.00     0.076 C 
ENDROOT
BRANCH   1  17
HETATM   17  C6  UNL     1      -3.140  51.142 -11.056  1.00  0.00    -0.049 C 
HETATM   18  C5  UNL     1      -3.194  51.998 -10.009  1.00  0.00     0.005 C 
BRANCH  18  19
HETATM   19  C4  UNL     1      -2.129  52.809  -9.462  1.00  0.00     0.001 C 
HETATM   20  C3  UNL     1      -1.878  54.057  -9.892  1.00  0.00     0.006 C 
BRANCH  20  21
HETATM   21  C2  UNL     1      -0.798  54.924  -9.430  1.00  0.00    -0.067 C 
HETATM   22  C1  UNL     1      -1.033  56.238  -9.258  1.00  0.00     0.019 C 
BRANCH  21  23
HETATM   23  C30 UNL     1       0.592  54.359  -9.201  1.00  0.00     0.041 C 
BRANCH  23  24
HETATM   24  C31 UNL     1       1.568  55.402  -8.641  1.00  0.00     0.032 C 
BRANCH  24  25
HETATM   25  C32 UNL     1       3.020  55.094  -8.891  1.00  0.00    -0.024 C 
HETATM   26  C33 UNL     1       3.788  55.507  -9.919  1.00  0.00    -0.091 C 
HETATM   27  C34 UNL     1       3.319  56.418 -11.016  1.00  0.00     0.042 C 
HETATM   28  C35 UNL     1       5.228  55.073 -10.026  1.00  0.00     0.042 C 
ENDBRANCH  24  25
ENDBRANCH  23  24
ENDBRANCH  21  23
ENDBRANCH  20  21
ENDBRANCH  18  19
BRANCH  17  29
HETATM   29  C7  UNL     1      -4.400  50.392 -11.498  1.00  0.00     0.202 C 
BRANCH  29  30
HETATM   30  O1  UNL     1      -4.612  49.193 -10.741  1.00  0.00    -0.384 OA
BRANCH  30  31
HETATM   31  C8  UNL     1      -5.989  48.775 -10.767  1.00  0.00     0.201 C 
BRANCH  31  32
HETATM   32  C9  UNL     1      -6.463  48.671  -9.314  1.00  0.00     0.165 C 
BRANCH  32  33
HETATM   33  O2  UNL     1      -6.483  47.284  -8.936  1.00  0.00    -0.391 OA
HETATM   34  H11 UNL     1      -5.613  46.938  -9.223  1.00  0.00     0.210 HD
ENDBRANCH  32  33
BRANCH  32  35
HETATM   35  C10 UNL     1      -7.864  49.249  -9.120  1.00  0.00     0.198 C 
BRANCH  35  36
HETATM   36  O3  UNL     1      -7.999  50.468  -9.848  1.00  0.00    -0.398 OA
HETATM   37  H14 UNL     1      -7.710  50.250 -10.759  1.00  0.00     0.209 HD
ENDBRANCH  35  36
ENDBRANCH  32  35
ENDBRANCH  31  32
ENDBRANCH  30  31
ENDBRANCH  29  30
ENDBRANCH  17  29
ENDBRANCH   1  17
BRANCH  16  38
HETATM   38  O7  UNL     1      -3.334  49.472 -13.299  1.00  0.00    -0.388 OA
HETATM   39  H43 UNL     1      -3.784  49.157 -12.491  1.00  0.00     0.210 HD
ENDBRANCH  16  38
BRANCH  11  40
HETATM   40  O5  UNL     1      -2.439  48.531 -15.568  1.00  0.00    -0.389 OA
HETATM   41  H32 UNL     1      -3.091  48.598 -14.837  1.00  0.00     0.210 HD
ENDBRANCH  11  40
BRANCH  13  42
HETATM   42  C25 UNL     1       1.421  47.529 -14.892  1.00  0.00     0.031 C 
BRANCH  42  43
HETATM   43  C26 UNL     1       2.737  46.887 -14.467  1.00  0.00     0.164 C 
BRANCH  43  44
HETATM   44  O6  UNL     1       3.332  47.622 -13.409  1.00  0.00    -0.401 OA
HETATM   45  H38 UNL     1       4.133  47.139 -13.138  1.00  0.00     0.209 HD
ENDBRANCH  43  44
ENDBRANCH  42  43
ENDBRANCH  13  42
BRANCH   7  46
HETATM   46  C19 UNL     1       3.041  51.230 -13.778  1.00  0.00     0.265 C 
HETATM   47  O4  UNL     1       3.955  50.436 -13.569  1.00  0.00    -0.302 OA
ENDBRANCH   7  46
TORSDOF 19
ENDMDL
MODEL 5
REMARK minimizedAffinity -6.52052164
REMARK CNNscore 0.518365026
REMARK CNNaffinity 6.40027237
REMARK  19 active torsions:
REMARK  status: ('A' for Active; 'I' for Inactive)
REMARK    1  A    between atoms: C2_2  and  C3_3 
REMARK    2  A    between atoms: C2_2  and  C30_37 
REMARK    3  A    between atoms: C4_4  and  C5_5 
REMARK    4  A    between atoms: C6_6  and  C7_7 
REMARK    5  A    between atoms: C6_6  and  C11_14 
REMARK    6  A    between atoms: C7_7  and  O1_8 
REMARK    7  A    between atoms: O1_8  and  C8_9 
REMARK    8  A    between atoms: C8_9  and  C9_10 
REMARK    9  A    between atoms: C9_10  and  O2_11 
REMARK   10  A    between atoms: C9_10  and  C10_12 
REMARK   11  A    between atoms: C10_12  and  O3_13 
REMARK   12  A    between atoms: C17_20  and  C19_22 
REMARK   13  A    between atoms: C22_26  and  O5_28 
REMARK   14  A    between atoms: C24_29  and  C25_30 
REMARK   15  A    between atoms: C25_30  and  C26_31 
REMARK   16  A    between atoms: C26_31  and  O6_32 
REMARK   17  A    between atoms: C29_35  and  O7_36 
REMARK   18  A    between atoms: C30_37  and  C31_38 
REMARK   19  A    between atoms: C31_38  and  C32_39 
ROOT
HETATM    1  C11 UNL     1      -8.448  46.451 -27.527  1.00  0.00     0.052 C 
HETATM    2  C12 UNL     1      -8.892  45.441 -28.596  1.00  0.00     0.013 C 
HETATM    3  C13 UNL     1     -10.264  45.914 -29.027  1.00  0.00     0.017 C 
HETATM    4  C14 UNL     1     -10.970  46.483 -27.744  1.00  0.00     0.030 C 
HETATM    5  C15 UNL     1     -11.456  45.288 -26.819  1.00  0.00     0.033 C 
HETATM    6  C16 UNL     1     -12.480  44.414 -27.549  1.00  0.00    -0.066 C 
HETATM    7  C17 UNL     1     -12.469  43.054 -27.563  1.00  0.00    -0.021 C 
HETATM    8  C18 UNL     1     -13.381  42.192 -28.398  1.00  0.00     0.052 C 
HETATM    9  C20 UNL     1     -13.476  45.180 -28.404  1.00  0.00     0.038 C 
HETATM   10  C21 UNL     1     -13.555  46.666 -28.094  1.00  0.00     0.042 C 
HETATM   11  C22 UNL     1     -12.204  47.403 -28.175  1.00  0.00     0.066 C 
HETATM   12  C23 UNL     1     -12.100  48.034 -29.582  1.00  0.00     0.047 C 
HETATM   13  C24 UNL     1     -11.746  45.645 -25.314  1.00  0.00    -0.003 C 
HETATM   14  C27 UNL     1     -11.166  47.012 -24.911  1.00  0.00     0.008 C 
HETATM   15  C28 UNL     1      -9.794  47.261 -25.510  1.00  0.00     0.040 C 
HETATM   16  C29 UNL     1      -9.756  47.215 -27.054  1.00  0.00     0.076 C 
ENDROOT
BRANCH   1  17
HETATM   17  C6  UNL     1      -7.254  47.333 -27.928  1.00  0.00    -0.049 C 
HETATM   18  C5  UNL     1      -6.349  47.815 -27.045  1.00  0.00     0.005 C 
BRANCH  18  19
HETATM   19  C4  UNL     1      -6.292  47.602 -25.617  1.00  0.00     0.001 C 
HETATM   20  C3  UNL     1      -6.426  48.603 -24.730  1.00  0.00     0.006 C 
BRANCH  20  21
HETATM   21  C2  UNL     1      -6.334  48.484 -23.278  1.00  0.00    -0.067 C 
HETATM   22  C1  UNL     1      -7.290  49.036 -22.508  1.00  0.00     0.019 C 
BRANCH  21  23
HETATM   23  C30 UNL     1      -5.142  47.793 -22.642  1.00  0.00     0.041 C 
BRANCH  23  24
HETATM   24  C31 UNL     1      -3.803  48.382 -23.104  1.00  0.00     0.032 C 
BRANCH  24  25
HETATM   25  C32 UNL     1      -2.711  48.336 -22.069  1.00  0.00    -0.024 C 
HETATM   26  C33 UNL     1      -1.663  49.173 -21.935  1.00  0.00    -0.091 C 
HETATM   27  C34 UNL     1      -1.415  50.370 -22.806  1.00  0.00     0.042 C 
HETATM   28  C35 UNL     1      -0.641  48.957 -20.847  1.00  0.00     0.042 C 
ENDBRANCH  24  25
ENDBRANCH  23  24
ENDBRANCH  21  23
ENDBRANCH  20  21
ENDBRANCH  18  19
BRANCH  17  29
HETATM   29  C7  UNL     1      -7.119  47.657 -29.419  1.00  0.00     0.202 C 
BRANCH  29  30
HETATM   30  O1  UNL     1      -5.997  46.998 -30.019  1.00  0.00    -0.384 OA
BRANCH  30  31
HETATM   31  C8  UNL     1      -5.453  47.750 -31.119  1.00  0.00     0.201 C 
BRANCH  31  32
HETATM   32  C9  UNL     1      -5.310  46.790 -32.304  1.00  0.00     0.165 C 
BRANCH  32  33
HETATM   33  O2  UNL     1      -4.580  45.631 -31.870  1.00  0.00    -0.391 OA
HETATM   34  H11 UNL     1      -5.017  45.362 -31.036  1.00  0.00     0.210 HD
ENDBRANCH  32  33
BRANCH  32  35
HETATM   35  C10 UNL     1      -4.563  47.425 -33.475  1.00  0.00     0.198 C 
BRANCH  35  36
HETATM   36  O3  UNL     1      -3.721  48.480 -33.011  1.00  0.00    -0.398 OA
HETATM   37  H14 UNL     1      -3.194  48.079 -32.287  1.00  0.00     0.209 HD
ENDBRANCH  35  36
ENDBRANCH  32  35
ENDBRANCH  31  32
ENDBRANCH  30  31
ENDBRANCH  29  30
ENDBRANCH  17  29
ENDBRANCH   1  17
BRANCH  16  38
HETATM   38  O7  UNL     1      -9.731  48.577 -27.515  1.00  0.00    -0.388 OA
HETATM   39  H43 UNL     1      -8.961  49.011 -27.101  1.00  0.00     0.210 HD
ENDBRANCH  16  38
BRANCH  11  40
HETATM   40  O5  UNL     1     -12.337  48.532 -27.301  1.00  0.00    -0.389 OA
HETATM   41  H32 UNL     1     -11.461  48.975 -27.313  1.00  0.00     0.210 HD
ENDBRANCH  11  40
BRANCH  13  42
HETATM   42  C25 UNL     1     -13.172  45.536 -24.714  1.00  0.00     0.031 C 
BRANCH  42  43
HETATM   43  C26 UNL     1     -13.433  44.440 -23.687  1.00  0.00     0.164 C 
BRANCH  43  44
HETATM   44  O6  UNL     1     -12.297  43.600 -23.555  1.00  0.00    -0.401 OA
HETATM   45  H38 UNL     1     -12.494  42.958 -22.850  1.00  0.00     0.209 HD
ENDBRANCH  43  44
ENDBRANCH  42  43
ENDBRANCH  13  42
BRANCH   7  46
HETATM   46  C19 UNL     1     -11.529  42.245 -26.721  1.00  0.00     0.265 C 
HETATM   47  O4  UNL     1     -10.682  41.500 -27.208  1.00  0.00    -0.302 OA
ENDBRANCH   7  46
TORSDOF 19
ENDMDL
MODEL 6
REMARK minimizedAffinity -6.90536022
REMARK CNNscore 0.507448673
REMARK CNNaffinity 7.08001947
REMARK  19 active torsions:
REMARK  status: ('A' for Active; 'I' for Inactive)
REMARK    1  A    between atoms: C2_2  and  C3_3 
REMARK    2  A    between atoms: C2_2  and  C30_37 
REMARK    3  A    between atoms: C4_4  and  C5_5 
REMARK    4  A    between atoms: C6_6  and  C7_7 
REMARK    5  A    between atoms: C6_6  and  C11_14 
REMARK    6  A    between atoms: C7_7  and  O1_8 
REMARK    7  A    between atoms: O1_8  and  C8_9 
REMARK    8  A    between atoms: C8_9  and  C9_10 
REMARK    9  A    between atoms: C9_10  and  O2_11 
REMARK   10  A    between atoms: C9_10  and  C10_12 
REMARK   11  A    between atoms: C10_12  and  O3_13 
REMARK   12  A    between atoms: C17_20  and  C19_22 
REMARK   13  A    between atoms: C22_26  and  O5_28 
REMARK   14  A    between atoms: C24_29  and  C25_30 
REMARK   15  A    between atoms: C25_30  and  C26_31 
REMARK   16  A    between atoms: C26_31  and  O6_32 
REMARK   17  A    between atoms: C29_35  and  O7_36 
REMARK   18  A    between atoms: C30_37  and  C31_38 
REMARK   19  A    between atoms: C31_38  and  C32_39 
ROOT
HETATM    1  C11 UNL     1      -2.510  51.219 -12.570  1.00  0.00     0.052 C 
HETATM    2  C12 UNL     1      -3.080  50.386 -13.728  1.00  0.00     0.013 C 
HETATM    3  C13 UNL     1      -2.113  49.231 -13.884  1.00  0.00     0.017 C 
HETATM    4  C14 UNL     1      -0.679  49.799 -13.589  1.00  0.00     0.030 C 
HETATM    5  C15 UNL     1      -0.169  50.652 -14.829  1.00  0.00     0.033 C 
HETATM    6  C16 UNL     1      -0.062  49.781 -16.083  1.00  0.00    -0.066 C 
HETATM    7  C17 UNL     1      -0.507  50.140 -17.316  1.00  0.00    -0.021 C 
HETATM    8  C18 UNL     1      -0.541  49.233 -18.520  1.00  0.00     0.052 C 
HETATM    9  C20 UNL     1       0.473  48.379 -15.841  1.00  0.00     0.038 C 
HETATM   10  C21 UNL     1       1.175  48.198 -14.505  1.00  0.00     0.042 C 
HETATM   11  C22 UNL     1       0.323  48.592 -13.283  1.00  0.00     0.066 C 
HETATM   12  C23 UNL     1      -0.338  47.305 -12.740  1.00  0.00     0.047 C 
HETATM   13  C24 UNL     1       1.002  51.665 -14.543  1.00  0.00    -0.003 C 
HETATM   14  C27 UNL     1       1.211  51.915 -13.039  1.00  0.00     0.008 C 
HETATM   15  C28 UNL     1      -0.099  52.020 -12.280  1.00  0.00     0.040 C 
HETATM   16  C29 UNL     1      -0.999  50.769 -12.387  1.00  0.00     0.076 C 
ENDROOT
BRANCH   1  17
HETATM   17  C6  UNL     1      -3.373  51.232 -11.297  1.00  0.00    -0.049 C 
HETATM   18  C5  UNL     1      -3.371  52.245 -10.401  1.00  0.00     0.005 C 
BRANCH  18  19
HETATM   19  C4  UNL     1      -2.621  53.480 -10.449  1.00  0.00     0.001 C 
HETATM   20  C3  UNL     1      -1.470  53.654  -9.777  1.00  0.00     0.006 C 
BRANCH  20  21
HETATM   21  C2  UNL     1      -0.676  54.878  -9.732  1.00  0.00    -0.067 C 
HETATM   22  C1  UNL     1      -1.280  56.047  -9.449  1.00  0.00     0.019 C 
BRANCH  21  23
HETATM   23  C30 UNL     1       0.806  54.841 -10.058  1.00  0.00     0.041 C 
BRANCH  23  24
HETATM   24  C31 UNL     1       1.652  55.626  -9.046  1.00  0.00     0.032 C 
BRANCH  24  25
HETATM   25  C32 UNL     1       3.124  55.314  -9.090  1.00  0.00    -0.024 C 
HETATM   26  C33 UNL     1       4.018  55.679 -10.030  1.00  0.00    -0.091 C 
HETATM   27  C34 UNL     1       3.696  56.529 -11.225  1.00  0.00     0.042 C 
HETATM   28  C35 UNL     1       5.460  55.250  -9.927  1.00  0.00     0.042 C 
ENDBRANCH  24  25
ENDBRANCH  23  24
ENDBRANCH  21  23
ENDBRANCH  20  21
ENDBRANCH  18  19
BRANCH  17  29
HETATM   29  C7  UNL     1      -4.270  50.010 -11.072  1.00  0.00     0.202 C 
BRANCH  29  30
HETATM   30  O1  UNL     1      -5.503  50.354 -10.427  1.00  0.00    -0.384 OA
BRANCH  30  31
HETATM   31  C8  UNL     1      -6.415  49.241 -10.379  1.00  0.00     0.201 C 
BRANCH  31  32
HETATM   32  C9  UNL     1      -7.790  49.793  -9.990  1.00  0.00     0.165 C 
BRANCH  32  33
HETATM   33  O2  UNL     1      -7.922  49.730  -8.560  1.00  0.00    -0.391 OA
HETATM   34  H11 UNL     1      -7.091  50.121  -8.218  1.00  0.00     0.210 HD
ENDBRANCH  32  33
BRANCH  32  35
HETATM   35  C10 UNL     1      -8.932  48.998 -10.620  1.00  0.00     0.198 C 
BRANCH  35  36
HETATM   36  O3  UNL     1      -8.432  47.796 -11.204  1.00  0.00    -0.398 OA
HETATM   37  H14 UNL     1      -7.908  47.371 -10.494  1.00  0.00     0.209 HD
ENDBRANCH  35  36
ENDBRANCH  32  35
ENDBRANCH  31  32
ENDBRANCH  30  31
ENDBRANCH  29  30
ENDBRANCH  17  29
ENDBRANCH   1  17
BRANCH  16  38
HETATM   38  O7  UNL     1      -0.844  50.032 -11.163  1.00  0.00    -0.388 OA
HETATM   39  H43 UNL     1      -1.071  50.634 -10.428  1.00  0.00     0.210 HD
ENDBRANCH  16  38
BRANCH  11  40
HETATM   40  O5  UNL     1       1.266  48.950 -12.264  1.00  0.00    -0.389 OA
HETATM   41  H32 UNL     1       0.725  49.249 -11.502  1.00  0.00     0.210 HD
ENDBRANCH  11  40
BRANCH  13  42
HETATM   42  C25 UNL     1       2.398  51.496 -15.197  1.00  0.00     0.031 C 
BRANCH  42  43
HETATM   43  C26 UNL     1       2.782  52.455 -16.318  1.00  0.00     0.164 C 
BRANCH  43  44
HETATM   44  O6  UNL     1       1.726  53.367 -16.577  1.00  0.00    -0.401 OA
HETATM   45  H38 UNL     1       2.043  53.989 -17.256  1.00  0.00     0.209 HD
ENDBRANCH  43  44
ENDBRANCH  42  43
ENDBRANCH  13  42
BRANCH   7  46
HETATM   46  C19 UNL     1      -1.019  51.515 -17.622  1.00  0.00     0.265 C 
HETATM   47  O4  UNL     1      -0.440  52.279 -18.390  1.00  0.00    -0.302 OA
ENDBRANCH   7  46
TORSDOF 19
ENDMDL
MODEL 7
REMARK minimizedAffinity -7.6856761
REMARK CNNscore 0.449097723
REMARK CNNaffinity 6.50060511
REMARK  19 active torsions:
REMARK  status: ('A' for Active; 'I' for Inactive)
REMARK    1  A    between atoms: C2_2  and  C3_3 
REMARK    2  A    between atoms: C2_2  and  C30_37 
REMARK    3  A    between atoms: C4_4  and  C5_5 
REMARK    4  A    between atoms: C6_6  and  C7_7 
REMARK    5  A    between atoms: C6_6  and  C11_14 
REMARK    6  A    between atoms: C7_7  and  O1_8 
REMARK    7  A    between atoms: O1_8  and  C8_9 
REMARK    8  A    between atoms: C8_9  and  C9_10 
REMARK    9  A    between atoms: C9_10  and  O2_11 
REMARK   10  A    between atoms: C9_10  and  C10_12 
REMARK   11  A    between atoms: C10_12  and  O3_13 
REMARK   12  A    between atoms: C17_20  and  C19_22 
REMARK   13  A    between atoms: C22_26  and  O5_28 
REMARK   14  A    between atoms: C24_29  and  C25_30 
REMARK   15  A    between atoms: C25_30  and  C26_31 
REMARK   16  A    between atoms: C26_31  and  O6_32 
REMARK   17  A    between atoms: C29_35  and  O7_36 
REMARK   18  A    between atoms: C30_37  and  C31_38 
REMARK   19  A    between atoms: C31_38  and  C32_39 
ROOT
HETATM    1  C11 UNL     1      -8.094  46.620 -29.303  1.00  0.00     0.052 C 
HETATM    2  C12 UNL     1      -8.868  45.606 -30.158  1.00  0.00     0.013 C 
HETATM    3  C13 UNL     1     -10.316  46.035 -30.049  1.00  0.00     0.017 C 
HETATM    4  C14 UNL     1     -10.520  46.567 -28.586  1.00  0.00     0.030 C 
HETATM    5  C15 UNL     1     -10.601  45.346 -27.573  1.00  0.00     0.033 C 
HETATM    6  C16 UNL     1     -11.795  44.445 -27.898  1.00  0.00    -0.066 C 
HETATM    7  C17 UNL     1     -11.750  43.087 -27.944  1.00  0.00    -0.021 C 
HETATM    8  C18 UNL     1     -12.879  42.201 -28.408  1.00  0.00     0.052 C 
HETATM    9  C20 UNL     1     -13.056  45.184 -28.315  1.00  0.00     0.038 C 
HETATM   10  C21 UNL     1     -13.059  46.663 -27.966  1.00  0.00     0.042 C 
HETATM   11  C22 UNL     1     -11.853  47.447 -28.517  1.00  0.00     0.066 C 
HETATM   12  C23 UNL     1     -12.287  48.095 -29.852  1.00  0.00     0.047 C 
HETATM   13  C24 UNL     1     -10.331  45.679 -26.058  1.00  0.00    -0.003 C 
HETATM   14  C27 UNL     1      -9.684  47.062 -25.865  1.00  0.00     0.008 C 
HETATM   15  C28 UNL     1      -8.633  47.364 -26.917  1.00  0.00     0.040 C 
HETATM   16  C29 UNL     1      -9.160  47.334 -28.369  1.00  0.00     0.076 C 
ENDROOT
BRANCH   1  17
HETATM   17  C6  UNL     1      -7.154  47.546 -30.093  1.00  0.00    -0.049 C 
HETATM   18  C5  UNL     1      -5.979  48.011 -29.608  1.00  0.00     0.005 C 
BRANCH  18  19
HETATM   19  C4  UNL     1      -5.370  47.737 -28.326  1.00  0.00     0.001 C 
HETATM   20  C3  UNL     1      -4.800  48.697 -27.577  1.00  0.00     0.006 C 
BRANCH  20  21
HETATM   21  C2  UNL     1      -4.123  48.501 -26.299  1.00  0.00    -0.067 C 
HETATM   22  C1  UNL     1      -4.854  48.289 -25.189  1.00  0.00     0.019 C 
BRANCH  21  23
HETATM   23  C30 UNL     1      -2.610  48.591 -26.213  1.00  0.00     0.041 C 
BRANCH  23  24
HETATM   24  C31 UNL     1      -2.122  50.006 -25.871  1.00  0.00     0.032 C 
BRANCH  24  25
HETATM   25  C32 UNL     1      -0.906  50.449 -26.640  1.00  0.00    -0.024 C 
HETATM   26  C33 UNL     1      -0.746  51.580 -27.355  1.00  0.00    -0.091 C 
HETATM   27  C34 UNL     1      -1.783  52.659 -27.480  1.00  0.00     0.042 C 
HETATM   28  C35 UNL     1       0.542  51.849 -28.091  1.00  0.00     0.042 C 
ENDBRANCH  24  25
ENDBRANCH  23  24
ENDBRANCH  21  23
ENDBRANCH  20  21
ENDBRANCH  18  19
BRANCH  17  29
HETATM   29  C7  UNL     1      -7.612  47.938 -31.501  1.00  0.00     0.202 C 
BRANCH  29  30
HETATM   30  O1  UNL     1      -7.475  46.861 -32.436  1.00  0.00    -0.384 OA
BRANCH  30  31
HETATM   31  C8  UNL     1      -6.095  46.542 -32.692  1.00  0.00     0.201 C 
BRANCH  31  32
HETATM   32  C9  UNL     1      -5.505  47.690 -33.517  1.00  0.00     0.165 C 
BRANCH  32  33
HETATM   33  O2  UNL     1      -6.272  47.829 -34.725  1.00  0.00    -0.391 OA
HETATM   34  H11 UNL     1      -7.204  47.831 -34.426  1.00  0.00     0.210 HD
ENDBRANCH  32  33
BRANCH  32  35
HETATM   35  C10 UNL     1      -4.045  47.442 -33.893  1.00  0.00     0.198 C 
BRANCH  35  36
HETATM   36  O3  UNL     1      -3.181  48.160 -33.013  1.00  0.00    -0.398 OA
HETATM   37  H14 UNL     1      -3.477  47.911 -32.113  1.00  0.00     0.209 HD
ENDBRANCH  35  36
ENDBRANCH  32  35
ENDBRANCH  31  32
ENDBRANCH  30  31
ENDBRANCH  29  30
ENDBRANCH  17  29
ENDBRANCH   1  17
BRANCH  16  38
HETATM   38  O7  UNL     1      -9.344  48.700 -28.779  1.00  0.00    -0.388 OA
HETATM   39  H43 UNL     1      -8.489  49.157 -28.665  1.00  0.00     0.210 HD
ENDBRANCH  16  38
BRANCH  11  40
HETATM   40  O5  UNL     1     -11.689  48.563 -27.631  1.00  0.00    -0.389 OA
HETATM   41  H32 UNL     1     -10.891  49.036 -27.952  1.00  0.00     0.210 HD
ENDBRANCH  11  40
BRANCH  13  42
HETATM   42  C25 UNL     1     -11.436  45.516 -24.982  1.00  0.00     0.031 C 
BRANCH  42  43
HETATM   43  C26 UNL     1     -12.254  46.746 -24.606  1.00  0.00     0.164 C 
BRANCH  43  44
HETATM   44  O6  UNL     1     -12.197  46.974 -23.207  1.00  0.00    -0.401 OA
HETATM   45  H38 UNL     1     -12.684  47.799 -23.030  1.00  0.00     0.209 HD
ENDBRANCH  43  44
ENDBRANCH  42  43
ENDBRANCH  13  42
BRANCH   7  46
HETATM   46  C19 UNL     1     -10.545  42.302 -27.520  1.00  0.00     0.265 C 
HETATM   47  O4  UNL     1     -10.625  41.158 -27.080  1.00  0.00    -0.302 OA
ENDBRANCH   7  46
TORSDOF 19
ENDMDL
MODEL 8
REMARK minimizedAffinity -9.02658749
REMARK CNNscore 0.445524663
REMARK CNNaffinity 6.48245239
REMARK  19 active torsions:
REMARK  status: ('A' for Active; 'I' for Inactive)
REMARK    1  A    between atoms: C2_2  and  C3_3 
REMARK    2  A    between atoms: C2_2  and  C30_37 
REMARK    3  A    between atoms: C4_4  and  C5_5 
REMARK    4  A    between atoms: C6_6  and  C7_7 
REMARK    5  A    between atoms: C6_6  and  C11_14 
REMARK    6  A    between atoms: C7_7  and  O1_8 
REMARK    7  A    between atoms: O1_8  and  C8_9 
REMARK    8  A    between atoms: C8_9  and  C9_10 
REMARK    9  A    between atoms: C9_10  and  O2_11 
REMARK   10  A    between atoms: C9_10  and  C10_12 
REMARK   11  A    between atoms: C10_12  and  O3_13 
REMARK   12  A    between atoms: C17_20  and  C19_22 
REMARK   13  A    between atoms: C22_26  and  O5_28 
REMARK   14  A    between atoms: C24_29  and  C25_30 
REMARK   15  A    between atoms: C25_30  and  C26_31 
REMARK   16  A    between atoms: C26_31  and  O6_32 
REMARK   17  A    between atoms: C29_35  and  O7_36 
REMARK   18  A    between atoms: C30_37  and  C31_38 
REMARK   19  A    between atoms: C31_38  and  C32_39 
ROOT
HETATM    1  C11 UNL     1      -7.074  46.494 -29.012  1.00  0.00     0.052 C 
HETATM    2  C12 UNL     1      -7.476  45.104 -29.529  1.00  0.00     0.013 C 
HETATM    3  C13 UNL     1      -8.841  45.305 -30.153  1.00  0.00     0.017 C 
HETATM    4  C14 UNL     1      -9.589  46.369 -29.272  1.00  0.00     0.030 C 
HETATM    5  C15 UNL     1     -10.088  45.699 -27.922  1.00  0.00     0.033 C 
HETATM    6  C16 UNL     1     -11.081  44.569 -28.208  1.00  0.00    -0.066 C 
HETATM    7  C17 UNL     1     -11.054  43.345 -27.615  1.00  0.00    -0.021 C 
HETATM    8  C18 UNL     1     -11.933  42.181 -27.998  1.00  0.00     0.052 C 
HETATM    9  C20 UNL     1     -12.061  44.852 -29.334  1.00  0.00     0.038 C 
HETATM   10  C21 UNL     1     -12.165  46.319 -29.720  1.00  0.00     0.042 C 
HETATM   11  C22 UNL     1     -10.821  46.974 -30.092  1.00  0.00     0.066 C 
HETATM   12  C23 UNL     1     -10.684  46.916 -31.631  1.00  0.00     0.047 C 
HETATM   13  C24 UNL     1     -10.424  46.682 -26.739  1.00  0.00    -0.003 C 
HETATM   14  C27 UNL     1      -9.871  48.098 -26.974  1.00  0.00     0.008 C 
HETATM   15  C28 UNL     1      -8.486  48.085 -27.593  1.00  0.00     0.040 C 
HETATM   16  C29 UNL     1      -8.403  47.359 -28.955  1.00  0.00     0.076 C 
ENDROOT
BRANCH   1  17
HETATM   17  C6  UNL     1      -5.879  47.132 -29.739  1.00  0.00    -0.049 C 
HETATM   18  C5  UNL     1      -4.958  47.911 -29.125  1.00  0.00     0.005 C 
BRANCH  18  19
HETATM   19  C4  UNL     1      -4.883  48.275 -27.728  1.00  0.00     0.001 C 
HETATM   20  C3  UNL     1      -3.716  48.518 -27.106  1.00  0.00     0.006 C 
BRANCH  20  21
HETATM   21  C2  UNL     1      -3.547  48.844 -25.694  1.00  0.00    -0.067 C 
HETATM   22  C1  UNL     1      -4.495  48.478 -24.812  1.00  0.00     0.019 C 
BRANCH  21  23
HETATM   23  C30 UNL     1      -2.337  49.637 -25.232  1.00  0.00     0.041 C 
BRANCH  23  24
HETATM   24  C31 UNL     1      -1.591  50.305 -26.395  1.00  0.00     0.032 C 
BRANCH  24  25
HETATM   25  C32 UNL     1      -0.146  50.616 -26.111  1.00  0.00    -0.024 C 
HETATM   26  C33 UNL     1       0.732  51.261 -26.904  1.00  0.00    -0.091 C 
HETATM   27  C34 UNL     1       0.397  51.840 -28.248  1.00  0.00     0.042 C 
HETATM   28  C35 UNL     1       2.162  51.461 -26.466  1.00  0.00     0.042 C 
ENDBRANCH  24  25
ENDBRANCH  23  24
ENDBRANCH  21  23
ENDBRANCH  20  21
ENDBRANCH  18  19
BRANCH  17  29
HETATM   29  C7  UNL     1      -5.763  46.844 -31.239  1.00  0.00     0.202 C 
BRANCH  29  30
HETATM   30  O1  UNL     1      -4.528  47.321 -31.789  1.00  0.00    -0.384 OA
BRANCH  30  31
HETATM   31  C8  UNL     1      -4.077  46.507 -32.887  1.00  0.00     0.201 C 
BRANCH  31  32
HETATM   32  C9  UNL     1      -3.568  47.452 -33.979  1.00  0.00     0.165 C 
BRANCH  32  33
HETATM   33  O2  UNL     1      -2.461  48.206 -33.455  1.00  0.00    -0.391 OA
HETATM   34  H11 UNL     1      -1.881  47.536 -33.039  1.00  0.00     0.210 HD
ENDBRANCH  32  33
BRANCH  32  35
HETATM   35  C10 UNL     1      -4.645  48.430 -34.446  1.00  0.00     0.198 C 
BRANCH  35  36
HETATM   36  O3  UNL     1      -5.889  47.751 -34.610  1.00  0.00    -0.398 OA
HETATM   37  H14 UNL     1      -6.029  47.276 -33.764  1.00  0.00     0.209 HD
ENDBRANCH  35  36
ENDBRANCH  32  35
ENDBRANCH  31  32
ENDBRANCH  30  31
ENDBRANCH  29  30
ENDBRANCH  17  29
ENDBRANCH   1  17
BRANCH  16  38
HETATM   38  O7  UNL     1      -8.381  48.374 -29.973  1.00  0.00    -0.388 OA
HETATM   39  H43 UNL     1      -7.627  48.964 -29.780  1.00  0.00     0.210 HD
ENDBRANCH  16  38
BRANCH  11  40
HETATM   40  O5  UNL     1     -10.990  48.370 -29.814  1.00  0.00    -0.389 OA
HETATM   41  H32 UNL     1     -10.119  48.781 -30.004  1.00  0.00     0.210 HD
ENDBRANCH  11  40
BRANCH  13  42
HETATM   42  C25 UNL     1     -11.865  46.819 -26.182  1.00  0.00     0.031 C 
BRANCH  42  43
HETATM   43  C26 UNL     1     -12.896  47.542 -27.041  1.00  0.00     0.164 C 
BRANCH  43  44
HETATM   44  O6  UNL     1     -12.551  48.910 -27.187  1.00  0.00    -0.401 OA
HETATM   45  H38 UNL     1     -13.205  49.309 -27.788  1.00  0.00     0.209 HD
ENDBRANCH  43  44
ENDBRANCH  42  43
ENDBRANCH  13  42
BRANCH   7  46
HETATM   46  C19 UNL     1     -10.130  43.016 -26.481  1.00  0.00     0.265 C 
HETATM   47  O4  UNL     1     -10.535  42.594 -25.401  1.00  0.00    -0.302 OA
ENDBRANCH   7  46
TORSDOF 19
ENDMDL
MODEL 9
REMARK minimizedAffinity -8.8400135
REMARK CNNscore 0.425930679
REMARK CNNaffinity 6.80231237
REMARK  19 active torsions:
REMARK  status: ('A' for Active; 'I' for Inactive)
REMARK    1  A    between atoms: C2_2  and  C3_3 
REMARK    2  A    between atoms: C2_2  and  C30_37 
REMARK    3  A    between atoms: C4_4  and  C5_5 
REMARK    4  A    between atoms: C6_6  and  C7_7 
REMARK    5  A    between atoms: C6_6  and  C11_14 
REMARK    6  A    between atoms: C7_7  and  O1_8 
REMARK    7  A    between atoms: O1_8  and  C8_9 
REMARK    8  A    between atoms: C8_9  and  C9_10 
REMARK    9  A    between atoms: C9_10  and  O2_11 
REMARK   10  A    between atoms: C9_10  and  C10_12 
REMARK   11  A    between atoms: C10_12  and  O3_13 
REMARK   12  A    between atoms: C17_20  and  C19_22 
REMARK   13  A    between atoms: C22_26  and  O5_28 
REMARK   14  A    between atoms: C24_29  and  C25_30 
REMARK   15  A    between atoms: C25_30  and  C26_31 
REMARK   16  A    between atoms: C26_31  and  O6_32 
REMARK   17  A    between atoms: C29_35  and  O7_36 
REMARK   18  A    between atoms: C30_37  and  C31_38 
REMARK   19  A    between atoms: C31_38  and  C32_39 
ROOT
HETATM    1  C11 UNL     1      -6.756  46.828 -28.286  1.00  0.00     0.052 C 
HETATM    2  C12 UNL     1      -6.423  48.063 -29.137  1.00  0.00     0.013 C 
HETATM    3  C13 UNL     1      -7.496  48.096 -30.205  1.00  0.00     0.017 C 
HETATM    4  C14 UNL     1      -7.811  46.602 -30.576  1.00  0.00     0.030 C 
HETATM    5  C15 UNL     1      -6.649  46.014 -31.484  1.00  0.00     0.033 C 
HETATM    6  C16 UNL     1      -6.536  46.792 -32.798  1.00  0.00    -0.066 C 
HETATM    7  C17 UNL     1      -5.367  47.218 -33.348  1.00  0.00    -0.021 C 
HETATM    8  C18 UNL     1      -5.257  48.111 -34.558  1.00  0.00     0.052 C 
HETATM    9  C20 UNL     1      -7.864  47.198 -33.414  1.00  0.00     0.038 C 
HETATM   10  C21 UNL     1      -9.065  46.445 -32.866  1.00  0.00     0.042 C 
HETATM   11  C22 UNL     1      -9.216  46.523 -31.334  1.00  0.00     0.066 C 
HETATM   12  C23 UNL     1     -10.203  47.671 -31.020  1.00  0.00     0.047 C 
HETATM   13  C24 UNL     1      -6.548  44.445 -31.557  1.00  0.00    -0.003 C 
HETATM   14  C27 UNL     1      -7.366  43.750 -30.454  1.00  0.00     0.008 C 
HETATM   15  C28 UNL     1      -7.267  44.466 -29.120  1.00  0.00     0.040 C 
HETATM   16  C29 UNL     1      -7.744  45.935 -29.149  1.00  0.00     0.076 C 
ENDROOT
BRANCH   1  17
HETATM   17  C6  UNL     1      -7.200  47.137 -26.847  1.00  0.00    -0.049 C 
HETATM   18  C5  UNL     1      -6.398  47.714 -25.922  1.00  0.00     0.005 C 
BRANCH  18  19
HETATM   19  C4  UNL     1      -5.033  48.165 -26.079  1.00  0.00     0.001 C 
HETATM   20  C3  UNL     1      -4.312  48.656 -25.057  1.00  0.00     0.006 C 
BRANCH  20  21
HETATM   21  C2  UNL     1      -2.950  49.175 -25.137  1.00  0.00    -0.067 C 
HETATM   22  C1  UNL     1      -2.372  49.687 -24.035  1.00  0.00     0.019 C 
BRANCH  21  23
HETATM   23  C30 UNL     1      -2.214  49.188 -26.464  1.00  0.00     0.041 C 
BRANCH  23  24
HETATM   24  C31 UNL     1      -1.616  50.563 -26.794  1.00  0.00     0.032 C 
BRANCH  24  25
HETATM   25  C32 UNL     1      -0.149  50.695 -26.483  1.00  0.00    -0.024 C 
HETATM   26  C33 UNL     1       0.763  51.464 -27.111  1.00  0.00    -0.091 C 
HETATM   27  C34 UNL     1       0.452  52.391 -28.250  1.00  0.00     0.042 C 
HETATM   28  C35 UNL     1       2.208  51.450 -26.680  1.00  0.00     0.042 C 
ENDBRANCH  24  25
ENDBRANCH  23  24
ENDBRANCH  21  23
ENDBRANCH  20  21
ENDBRANCH  18  19
BRANCH  17  29
HETATM   29  C7  UNL     1      -8.639  46.755 -26.483  1.00  0.00     0.202 C 
BRANCH  29  30
HETATM   30  O1  UNL     1      -8.968  47.106 -25.133  1.00  0.00    -0.384 OA
BRANCH  30  31
HETATM   31  C8  UNL     1     -10.342  47.514 -25.002  1.00  0.00     0.201 C 
BRANCH  31  32
HETATM   32  C9  UNL     1     -10.756  48.160 -26.328  1.00  0.00     0.165 C 
BRANCH  32  33
HETATM   33  O2  UNL     1     -10.672  49.588 -26.190  1.00  0.00    -0.391 OA
HETATM   34  H11 UNL     1      -9.793  49.746 -25.789  1.00  0.00     0.210 HD
ENDBRANCH  32  33
BRANCH  32  35
HETATM   35  C10 UNL     1     -12.184  47.792 -26.729  1.00  0.00     0.198 C 
BRANCH  35  36
HETATM   36  O3  UNL     1     -12.752  48.827 -27.531  1.00  0.00    -0.398 OA
HETATM   37  H14 UNL     1     -12.096  48.981 -28.242  1.00  0.00     0.209 HD
ENDBRANCH  35  36
ENDBRANCH  32  35
ENDBRANCH  31  32
ENDBRANCH  30  31
ENDBRANCH  29  30
ENDBRANCH  17  29
ENDBRANCH   1  17
BRANCH  16  38
HETATM   38  O7  UNL     1      -9.064  45.961 -28.579  1.00  0.00    -0.388 OA
HETATM   39  H43 UNL     1      -9.004  45.570 -27.686  1.00  0.00     0.210 HD
ENDBRANCH  16  38
BRANCH  11  40
HETATM   40  O5  UNL     1      -9.936  45.339 -30.964  1.00  0.00    -0.389 OA
HETATM   41  H32 UNL     1      -9.990  45.363 -29.984  1.00  0.00     0.210 HD
ENDBRANCH  11  40
BRANCH  13  42
HETATM   42  C25 UNL     1      -6.787  43.677 -32.883  1.00  0.00     0.031 C 
BRANCH  42  43
HETATM   43  C26 UNL     1      -5.983  42.405 -33.126  1.00  0.00     0.164 C 
BRANCH  43  44
HETATM   44  O6  UNL     1      -5.176  42.539 -34.286  1.00  0.00    -0.401 OA
HETATM   45  H38 UNL     1      -4.644  41.727 -34.361  1.00  0.00     0.209 HD
ENDBRANCH  43  44
ENDBRANCH  42  43
ENDBRANCH  13  42
BRANCH   7  46
HETATM   46  C19 UNL     1      -4.026  46.829 -32.801  1.00  0.00     0.265 C 
HETATM   47  O4  UNL     1      -3.817  46.698 -31.598  1.00  0.00    -0.302 OA
ENDBRANCH   7  46
TORSDOF 19
ENDMDL
