MODEL 1
REMARK minimizedAffinity -9.14461708
REMARK  8 active torsions:
REMARK  status: ('A' for Active; 'I' for Inactive)
REMARK    1  A    between atoms: C2_2  and  C3_3 
REMARK    2  A    between atoms: C2_2  and  C9_12 
REMARK    3  A    between atoms: C3_3  and  C4_4 
REMARK    4  A    between atoms: C4_4  and  C5_5 
REMARK    5  A    between atoms: C6_6  and  C7_7 
REMARK    6  A    between atoms: C6_6  and  C8_9 
REMARK    7  A    between atoms: C7_7  and  O1_8 
REMARK    8  A    between atoms: C8_9  and  O3_11 
ROOT
HETATM    1  C9  UNL     1       0.137   7.404  10.614  1.00  0.00    -0.002 C 
HETATM    2  C10 UNL     1       0.275   5.864  10.587  1.00  0.00     0.006 C 
HETATM    3  C11 UNL     1      -0.350   5.359  11.900  1.00  0.00     0.006 C 
HETATM    4  C12 UNL     1      -0.933   6.609  12.561  1.00  0.00    -0.001 C 
HETATM    5  C13 UNL     1      -1.215   6.557  14.071  1.00  0.00    -0.000 C 
HETATM    6  C14 UNL     1      -2.238   5.430  14.325  1.00  0.00     0.006 C 
HETATM    7  C15 UNL     1      -3.099   5.562  15.571  1.00  0.00     0.007 C 
HETATM    8  C16 UNL     1      -3.829   6.911  15.703  1.00  0.00     0.010 C 
HETATM    9  C17 UNL     1      -5.138   7.071  14.848  1.00  0.00     0.018 C 
HETATM   10  C18 UNL     1      -6.203   6.052  15.309  1.00  0.00     0.023 C 
HETATM   11  C19 UNL     1      -4.959   6.919  13.330  1.00  0.00     0.023 C 
HETATM   12  C20 UNL     1      -5.697   8.491  15.077  1.00  0.00     0.135 C 
HETATM   13  O4  UNL     1      -6.876   8.710  15.358  1.00  0.00    -0.297 OA
HETATM   14  C21 UNL     1      -4.736   9.638  14.874  1.00  0.00     0.080 C 
HETATM   15  C22 UNL     1      -3.560   9.433  15.802  1.00  0.00     0.018 C 
HETATM   16  C23 UNL     1      -2.874   8.100  15.533  1.00  0.00    -0.026 A 
HETATM   17  C24 UNL     1      -1.500   8.021  16.144  1.00  0.00     0.021 A 
HETATM   18  C25 UNL     1      -1.626   7.947  14.626  1.00  0.00    -0.028 A 
HETATM   19  C26 UNL     1      -1.021   9.182  13.927  1.00  0.00     0.011 C 
HETATM   20  C27 UNL     1      -0.710   9.040  12.436  1.00  0.00     0.011 C 
HETATM   21  C28 UNL     1       0.026   7.733  12.132  1.00  0.00    -0.036 C 
HETATM   22  C29 UNL     1       1.386   7.694  12.856  1.00  0.00     0.016 C 
ENDROOT
BRANCH   1  23
HETATM   23  C2  UNL     1       1.148   8.209   9.750  1.00  0.00    -0.014 C 
HETATM   24  C1  UNL     1       0.667   8.201   8.287  1.00  0.00     0.010 C 
BRANCH  23  25
HETATM   25  C3  UNL     1       2.612   7.719   9.810  1.00  0.00     0.008 C 
BRANCH  25  26
HETATM   26  C4  UNL     1       2.743   6.192   9.731  1.00  0.00     0.028 C 
BRANCH  26  27
HETATM   27  C5  UNL     1       2.889   5.736   8.301  1.00  0.00    -0.011 C 
HETATM   28  C6  UNL     1       3.475   4.605   7.854  1.00  0.00     0.035 C 
BRANCH  28  29
HETATM   29  C7  UNL     1       3.531   4.242   6.402  1.00  0.00     0.209 C 
BRANCH  29  30
HETATM   30  O1  UNL     1       3.724   2.838   6.260  1.00  0.00    -0.396 OA
HETATM   31  H12 UNL     1       4.459   2.585   6.846  1.00  0.00     0.209 HD
ENDBRANCH  29  30
ENDBRANCH  28  29
BRANCH  28  32
HETATM   32  C8  UNL     1       4.112   3.662   8.795  1.00  0.00     0.173 C 
HETATM   33  O2  UNL     1       5.264   3.266   8.760  1.00  0.00    -0.646 OA
BRANCH  32  34
HETATM   34  O3  UNL     1       3.265   3.275   9.763  1.00  0.00    -0.773 OA
HETATM   35  H13 UNL     1       3.798   2.655  10.302  1.00  0.00     0.167 HD
ENDBRANCH  32  34
ENDBRANCH  28  32
ENDBRANCH  26  27
ENDBRANCH  25  26
ENDBRANCH  23  25
ENDBRANCH   1  23
TORSDOF 8
ENDMDL
MODEL 2
REMARK minimizedAffinity -9.01343346
REMARK  8 active torsions:
REMARK  status: ('A' for Active; 'I' for Inactive)
REMARK    1  A    between atoms: C2_2  and  C3_3 
REMARK    2  A    between atoms: C2_2  and  C9_12 
REMARK    3  A    between atoms: C3_3  and  C4_4 
REMARK    4  A    between atoms: C4_4  and  C5_5 
REMARK    5  A    between atoms: C6_6  and  C7_7 
REMARK    6  A    between atoms: C6_6  and  C8_9 
REMARK    7  A    between atoms: C7_7  and  O1_8 
REMARK    8  A    between atoms: C8_9  and  O3_11 
ROOT
HETATM    1  C9  UNL     1      -1.751  10.528  18.396  1.00  0.00    -0.002 C 
HETATM    2  C10 UNL     1      -3.144  11.184  18.536  1.00  0.00     0.006 C 
HETATM    3  C11 UNL     1      -3.893  10.871  17.228  1.00  0.00     0.006 C 
HETATM    4  C12 UNL     1      -2.955   9.945  16.452  1.00  0.00    -0.001 C 
HETATM    5  C13 UNL     1      -3.170   9.812  14.936  1.00  0.00    -0.000 C 
HETATM    6  C14 UNL     1      -4.593   9.261  14.704  1.00  0.00     0.006 C 
HETATM    7  C15 UNL     1      -4.824   8.502  13.407  1.00  0.00     0.007 C 
HETATM    8  C16 UNL     1      -3.821   7.366  13.144  1.00  0.00     0.010 C 
HETATM    9  C17 UNL     1      -4.087   6.021  13.913  1.00  0.00     0.018 C 
HETATM   10  C18 UNL     1      -5.432   5.409  13.465  1.00  0.00     0.023 C 
HETATM   11  C19 UNL     1      -4.098   6.127  15.445  1.00  0.00     0.023 C 
HETATM   12  C20 UNL     1      -2.962   5.027  13.558  1.00  0.00     0.135 C 
HETATM   13  O4  UNL     1      -3.179   3.869  13.198  1.00  0.00    -0.297 OA
HETATM   14  C21 UNL     1      -1.544   5.517  13.734  1.00  0.00     0.080 C 
HETATM   15  C22 UNL     1      -1.369   6.757  12.888  1.00  0.00     0.018 C 
HETATM   16  C23 UNL     1      -2.367   7.838  13.284  1.00  0.00    -0.026 A 
HETATM   17  C24 UNL     1      -1.992   9.197  12.756  1.00  0.00     0.021 A 
HETATM   18  C25 UNL     1      -2.036   8.991  14.266  1.00  0.00    -0.028 A 
HETATM   19  C26 UNL     1      -0.638   9.080  14.911  1.00  0.00     0.011 C 
HETATM   20  C27 UNL     1      -0.596   9.308  16.423  1.00  0.00     0.011 C 
HETATM   21  C28 UNL     1      -1.550  10.424  16.855  1.00  0.00    -0.036 C 
HETATM   22  C29 UNL     1      -1.146  11.764  16.211  1.00  0.00     0.016 C 
ENDROOT
BRANCH   1  23
HETATM   23  C2  UNL     1      -0.607  11.132  19.257  1.00  0.00    -0.014 C 
HETATM   24  C1  UNL     1      -0.763  12.664  19.286  1.00  0.00     0.010 C 
BRANCH  23  25
HETATM   25  C3  UNL     1       0.827  10.773  18.804  1.00  0.00     0.008 C 
BRANCH  25  26
HETATM   26  C4  UNL     1       1.887  11.048  19.879  1.00  0.00     0.028 C 
BRANCH  26  27
HETATM   27  C5  UNL     1       1.869   9.980  20.942  1.00  0.00    -0.011 C 
HETATM   28  C6  UNL     1       2.852   9.669  21.814  1.00  0.00     0.035 C 
BRANCH  28  29
HETATM   29  C7  UNL     1       2.704   8.601  22.854  1.00  0.00     0.209 C 
BRANCH  29  30
HETATM   30  O1  UNL     1       1.698   7.674  22.457  1.00  0.00    -0.396 OA
HETATM   31  H12 UNL     1       0.919   8.188  22.185  1.00  0.00     0.209 HD
ENDBRANCH  29  30
ENDBRANCH  28  29
BRANCH  28  32
HETATM   32  C8  UNL     1       4.149  10.373  21.771  1.00  0.00     0.173 C 
HETATM   33  O2  UNL     1       4.713  10.916  22.704  1.00  0.00    -0.646 OA
BRANCH  32  34
HETATM   34  O3  UNL     1       4.694  10.339  20.543  1.00  0.00    -0.773 OA
HETATM   35  H13 UNL     1       5.529  10.841  20.648  1.00  0.00     0.167 HD
ENDBRANCH  32  34
ENDBRANCH  28  32
ENDBRANCH  26  27
ENDBRANCH  25  26
ENDBRANCH  23  25
ENDBRANCH   1  23
TORSDOF 8
ENDMDL
MODEL 3
REMARK minimizedAffinity -8.67869091
REMARK  8 active torsions:
REMARK  status: ('A' for Active; 'I' for Inactive)
REMARK    1  A    between atoms: C2_2  and  C3_3 
REMARK    2  A    between atoms: C2_2  and  C9_12 
REMARK    3  A    between atoms: C3_3  and  C4_4 
REMARK    4  A    between atoms: C4_4  and  C5_5 
REMARK    5  A    between atoms: C6_6  and  C7_7 
REMARK    6  A    between atoms: C6_6  and  C8_9 
REMARK    7  A    between atoms: C7_7  and  O1_8 
REMARK    8  A    between atoms: C8_9  and  O3_11 
ROOT
HETATM    1  C9  UNL     1       0.218   6.915  10.588  1.00  0.00    -0.002 C 
HETATM    2  C10 UNL     1       0.323   5.377  10.705  1.00  0.00     0.006 C 
HETATM    3  C11 UNL     1      -0.304   5.011  12.063  1.00  0.00     0.006 C 
HETATM    4  C12 UNL     1      -0.856   6.331  12.607  1.00  0.00    -0.001 C 
HETATM    5  C13 UNL     1      -1.128   6.427  14.116  1.00  0.00    -0.000 C 
HETATM    6  C14 UNL     1      -2.173   5.352  14.480  1.00  0.00     0.006 C 
HETATM    7  C15 UNL     1      -3.023   5.620  15.712  1.00  0.00     0.007 C 
HETATM    8  C16 UNL     1      -3.722   6.991  15.720  1.00  0.00     0.010 C 
HETATM    9  C17 UNL     1      -5.033   7.099  14.860  1.00  0.00     0.018 C 
HETATM   10  C18 UNL     1      -6.117   6.152  15.420  1.00  0.00     0.023 C 
HETATM   11  C19 UNL     1      -4.868   6.802  13.363  1.00  0.00     0.023 C 
HETATM   12  C20 UNL     1      -5.559   8.546  14.957  1.00  0.00     0.135 C 
HETATM   13  O4  UNL     1      -6.732   8.817  15.222  1.00  0.00    -0.297 OA
HETATM   14  C21 UNL     1      -4.576   9.648  14.642  1.00  0.00     0.080 C 
HETATM   15  C22 UNL     1      -3.398   9.505  15.580  1.00  0.00     0.018 C 
HETATM   16  C23 UNL     1      -2.742   8.138  15.434  1.00  0.00    -0.026 A 
HETATM   17  C24 UNL     1      -1.367   8.085  16.043  1.00  0.00     0.021 A 
HETATM   18  C25 UNL     1      -1.504   7.872  14.540  1.00  0.00    -0.028 A 
HETATM   19  C26 UNL     1      -0.878   9.022  13.725  1.00  0.00     0.011 C 
HETATM   20  C27 UNL     1      -0.581   8.733  12.253  1.00  0.00     0.011 C 
HETATM   21  C28 UNL     1       0.125   7.387  12.069  1.00  0.00    -0.036 C 
HETATM   22  C29 UNL     1       1.489   7.387  12.786  1.00  0.00     0.016 C 
ENDROOT
BRANCH   1  23
HETATM   23  C2  UNL     1       1.240   7.613   9.648  1.00  0.00    -0.014 C 
HETATM   24  C1  UNL     1       0.468   8.439   8.601  1.00  0.00     0.010 C 
BRANCH  23  25
HETATM   25  C3  UNL     1       2.231   6.671   8.926  1.00  0.00     0.008 C 
BRANCH  25  26
HETATM   26  C4  UNL     1       3.448   6.302   9.784  1.00  0.00     0.028 C 
BRANCH  26  27
HETATM   27  C5  UNL     1       4.314   7.509  10.041  1.00  0.00    -0.011 C 
HETATM   28  C6  UNL     1       5.522   7.542  10.644  1.00  0.00     0.035 C 
BRANCH  28  29
HETATM   29  C7  UNL     1       6.307   8.807  10.815  1.00  0.00     0.209 C 
BRANCH  29  30
HETATM   30  O1  UNL     1       5.577   9.906  10.280  1.00  0.00    -0.396 OA
HETATM   31  H12 UNL     1       5.271   9.649   9.394  1.00  0.00     0.209 HD
ENDBRANCH  29  30
ENDBRANCH  28  29
BRANCH  28  32
HETATM   32  C8  UNL     1       6.129   6.310  11.186  1.00  0.00     0.173 C 
HETATM   33  O2  UNL     1       6.781   5.488  10.566  1.00  0.00    -0.646 OA
BRANCH  32  34
HETATM   34  O3  UNL     1       5.905   6.181  12.503  1.00  0.00    -0.773 OA
HETATM   35  H13 UNL     1       6.342   5.334  12.730  1.00  0.00     0.167 HD
ENDBRANCH  32  34
ENDBRANCH  28  32
ENDBRANCH  26  27
ENDBRANCH  25  26
ENDBRANCH  23  25
ENDBRANCH   1  23
TORSDOF 8
ENDMDL
MODEL 4
REMARK minimizedAffinity -8.51885605
REMARK  8 active torsions:
REMARK  status: ('A' for Active; 'I' for Inactive)
REMARK    1  A    between atoms: C2_2  and  C3_3 
REMARK    2  A    between atoms: C2_2  and  C9_12 
REMARK    3  A    between atoms: C3_3  and  C4_4 
REMARK    4  A    between atoms: C4_4  and  C5_5 
REMARK    5  A    between atoms: C6_6  and  C7_7 
REMARK    6  A    between atoms: C6_6  and  C8_9 
REMARK    7  A    between atoms: C7_7  and  O1_8 
REMARK    8  A    between atoms: C8_9  and  O3_11 
ROOT
HETATM    1  C9  UNL     1      -5.957   7.395  13.985  1.00  0.00    -0.002 C 
HETATM    2  C10 UNL     1      -5.868   8.712  14.790  1.00  0.00     0.006 C 
HETATM    3  C11 UNL     1      -4.379   8.899  15.135  1.00  0.00     0.006 C 
HETATM    4  C12 UNL     1      -3.664   7.759  14.407  1.00  0.00    -0.001 C 
HETATM    5  C13 UNL     1      -2.260   7.368  14.893  1.00  0.00    -0.000 C 
HETATM    6  C14 UNL     1      -1.344   8.601  14.746  1.00  0.00     0.006 C 
HETATM    7  C15 UNL     1       0.143   8.327  14.584  1.00  0.00     0.007 C 
HETATM    8  C16 UNL     1       0.492   7.334  13.462  1.00  0.00     0.010 C 
HETATM    9  C17 UNL     1       0.497   7.918  12.003  1.00  0.00     0.018 C 
HETATM   10  C18 UNL     1       1.593   8.998  11.866  1.00  0.00     0.023 C 
HETATM   11  C19 UNL     1      -0.831   8.526  11.529  1.00  0.00     0.023 C 
HETATM   12  C20 UNL     1       0.822   6.773  11.022  1.00  0.00     0.135 C 
HETATM   13  O4  UNL     1       1.683   6.865  10.145  1.00  0.00    -0.297 OA
HETATM   14  C21 UNL     1      -0.018   5.524  11.136  1.00  0.00     0.080 C 
HETATM   15  C22 UNL     1       0.115   4.996  12.546  1.00  0.00     0.018 C 
HETATM   16  C23 UNL     1      -0.324   6.038  13.567  1.00  0.00    -0.026 A 
HETATM   17  C24 UNL     1      -0.576   5.448  14.928  1.00  0.00     0.021 A 
HETATM   18  C25 UNL     1      -1.745   6.085  14.186  1.00  0.00    -0.028 A 
HETATM   19  C26 UNL     1      -2.806   5.049  13.764  1.00  0.00     0.011 C 
HETATM   20  C27 UNL     1      -4.188   5.595  13.399  1.00  0.00     0.011 C 
HETATM   21  C28 UNL     1      -4.687   6.611  14.429  1.00  0.00    -0.036 C 
HETATM   22  C29 UNL     1      -4.844   5.949  15.812  1.00  0.00     0.016 C 
ENDROOT
BRANCH   1  23
HETATM   23  C2  UNL     1      -7.327   6.662  13.999  1.00  0.00    -0.014 C 
HETATM   24  C1  UNL     1      -7.355   5.683  15.187  1.00  0.00     0.010 C 
BRANCH  23  25
HETATM   25  C3  UNL     1      -7.688   5.903  12.702  1.00  0.00     0.008 C 
BRANCH  25  26
HETATM   26  C4  UNL     1      -7.508   4.384  12.820  1.00  0.00     0.028 C 
BRANCH  26  27
HETATM   27  C5  UNL     1      -6.128   3.967  12.381  1.00  0.00    -0.011 C 
HETATM   28  C6  UNL     1      -5.745   2.766  11.898  1.00  0.00     0.035 C 
BRANCH  28  29
HETATM   29  C7  UNL     1      -4.341   2.479  11.461  1.00  0.00     0.209 C 
BRANCH  29  30
HETATM   30  O1  UNL     1      -4.075   3.135  10.225  1.00  0.00    -0.396 OA
HETATM   31  H12 UNL     1      -4.814   2.935   9.625  1.00  0.00     0.209 HD
ENDBRANCH  29  30
ENDBRANCH  28  29
BRANCH  28  32
HETATM   32  C8  UNL     1      -6.710   1.654  11.790  1.00  0.00     0.173 C 
HETATM   33  O2  UNL     1      -6.706   0.766  10.957  1.00  0.00    -0.646 OA
BRANCH  32  34
HETATM   34  O3  UNL     1      -7.634   1.700  12.764  1.00  0.00    -0.773 OA
HETATM   35  H13 UNL     1      -8.207   0.928  12.575  1.00  0.00     0.167 HD
ENDBRANCH  32  34
ENDBRANCH  28  32
ENDBRANCH  26  27
ENDBRANCH  25  26
ENDBRANCH  23  25
ENDBRANCH   1  23
TORSDOF 8
ENDMDL
MODEL 5
REMARK minimizedAffinity -8.29350281
REMARK  8 active torsions:
REMARK  status: ('A' for Active; 'I' for Inactive)
REMARK    1  A    between atoms: C2_2  and  C3_3 
REMARK    2  A    between atoms: C2_2  and  C9_12 
REMARK    3  A    between atoms: C3_3  and  C4_4 
REMARK    4  A    between atoms: C4_4  and  C5_5 
REMARK    5  A    between atoms: C6_6  and  C7_7 
REMARK    6  A    between atoms: C6_6  and  C8_9 
REMARK    7  A    between atoms: C7_7  and  O1_8 
REMARK    8  A    between atoms: C8_9  and  O3_11 
ROOT
HETATM    1  C9  UNL     1      -4.030   8.578  14.650  1.00  0.00    -0.002 C 
HETATM    2  C10 UNL     1      -3.478   9.153  15.975  1.00  0.00     0.006 C 
HETATM    3  C11 UNL     1      -2.030   8.642  16.089  1.00  0.00     0.006 C 
HETATM    4  C12 UNL     1      -1.770   7.908  14.772  1.00  0.00    -0.001 C 
HETATM    5  C13 UNL     1      -0.615   6.895  14.732  1.00  0.00    -0.000 C 
HETATM    6  C14 UNL     1       0.691   7.649  15.059  1.00  0.00     0.006 C 
HETATM    7  C15 UNL     1       1.977   7.047  14.514  1.00  0.00     0.007 C 
HETATM    8  C16 UNL     1       1.957   6.756  13.004  1.00  0.00     0.010 C 
HETATM    9  C17 UNL     1       2.201   7.990  12.061  1.00  0.00     0.018 C 
HETATM   10  C18 UNL     1       3.618   8.561  12.288  1.00  0.00     0.023 C 
HETATM   11  C19 UNL     1       1.195   9.141  12.206  1.00  0.00     0.023 C 
HETATM   12  C20 UNL     1       2.100   7.511  10.598  1.00  0.00     0.135 C 
HETATM   13  O4  UNL     1       2.949   7.777   9.746  1.00  0.00    -0.297 OA
HETATM   14  C21 UNL     1       0.859   6.739  10.221  1.00  0.00     0.080 C 
HETATM   15  C22 UNL     1       0.766   5.531  11.126  1.00  0.00     0.018 C 
HETATM   16  C23 UNL     1       0.721   5.944  12.592  1.00  0.00    -0.026 A 
HETATM   17  C24 UNL     1       0.248   4.835  13.493  1.00  0.00     0.021 A 
HETATM   18  C25 UNL     1      -0.594   6.103  13.396  1.00  0.00    -0.028 A 
HETATM   19  C26 UNL     1      -1.954   5.853  12.714  1.00  0.00     0.011 C 
HETATM   20  C27 UNL     1      -3.033   6.916  12.929  1.00  0.00     0.011 C 
HETATM   21  C28 UNL     1      -3.143   7.322  14.401  1.00  0.00    -0.036 C 
HETATM   22  C29 UNL     1      -3.555   6.116  15.267  1.00  0.00     0.016 C 
ENDROOT
BRANCH   1  23
HETATM   23  C2  UNL     1      -5.573   8.432  14.543  1.00  0.00    -0.014 C 
HETATM   24  C1  UNL     1      -6.096   7.738  15.815  1.00  0.00     0.010 C 
BRANCH  23  25
HETATM   25  C3  UNL     1      -6.085   7.672  13.299  1.00  0.00     0.008 C 
BRANCH  25  26
HETATM   26  C4  UNL     1      -6.729   6.321  13.637  1.00  0.00     0.028 C 
BRANCH  26  27
HETATM   27  C5  UNL     1      -6.046   5.196  12.902  1.00  0.00    -0.011 C 
HETATM   28  C6  UNL     1      -6.483   3.929  12.745  1.00  0.00     0.035 C 
BRANCH  28  29
HETATM   29  C7  UNL     1      -5.726   2.902  11.960  1.00  0.00     0.209 C 
BRANCH  29  30
HETATM   30  O1  UNL     1      -4.558   3.488  11.394  1.00  0.00    -0.396 OA
HETATM   31  H12 UNL     1      -4.829   4.317  10.963  1.00  0.00     0.209 HD
ENDBRANCH  29  30
ENDBRANCH  28  29
BRANCH  28  32
HETATM   32  C8  UNL     1      -7.748   3.485  13.365  1.00  0.00     0.173 C 
HETATM   33  O2  UNL     1      -8.753   3.117  12.784  1.00  0.00    -0.646 OA
BRANCH  32  34
HETATM   34  O3  UNL     1      -7.678   3.504  14.707  1.00  0.00    -0.773 OA
HETATM   35  H13 UNL     1      -8.568   3.205  14.988  1.00  0.00     0.167 HD
ENDBRANCH  32  34
ENDBRANCH  28  32
ENDBRANCH  26  27
ENDBRANCH  25  26
ENDBRANCH  23  25
ENDBRANCH   1  23
TORSDOF 8
ENDMDL
MODEL 6
REMARK minimizedAffinity -8.20188618
REMARK  8 active torsions:
REMARK  status: ('A' for Active; 'I' for Inactive)
REMARK    1  A    between atoms: C2_2  and  C3_3 
REMARK    2  A    between atoms: C2_2  and  C9_12 
REMARK    3  A    between atoms: C3_3  and  C4_4 
REMARK    4  A    between atoms: C4_4  and  C5_5 
REMARK    5  A    between atoms: C6_6  and  C7_7 
REMARK    6  A    between atoms: C6_6  and  C8_9 
REMARK    7  A    between atoms: C7_7  and  O1_8 
REMARK    8  A    between atoms: C8_9  and  O3_11 
ROOT
HETATM    1  C9  UNL     1      -7.573   6.926  13.859  1.00  0.00    -0.002 C 
HETATM    2  C10 UNL     1      -7.713   8.064  14.896  1.00  0.00     0.006 C 
HETATM    3  C11 UNL     1      -6.309   8.269  15.494  1.00  0.00     0.006 C 
HETATM    4  C12 UNL     1      -5.402   7.337  14.688  1.00  0.00    -0.001 C 
HETATM    5  C13 UNL     1      -4.051   6.943  15.304  1.00  0.00    -0.000 C 
HETATM    6  C14 UNL     1      -3.235   8.233  15.528  1.00  0.00     0.006 C 
HETATM    7  C15 UNL     1      -1.722   8.086  15.550  1.00  0.00     0.007 C 
HETATM    8  C16 UNL     1      -1.134   7.353  14.331  1.00  0.00     0.010 C 
HETATM    9  C17 UNL     1      -0.976   8.209  13.023  1.00  0.00     0.018 C 
HETATM   10  C18 UNL     1       0.029   9.359  13.257  1.00  0.00     0.023 C 
HETATM   11  C19 UNL     1      -2.274   8.817  12.470  1.00  0.00     0.023 C 
HETATM   12  C20 UNL     1      -0.418   7.298  11.910  1.00  0.00     0.135 C 
HETATM   13  O4  UNL     1       0.545   7.611  11.208  1.00  0.00    -0.297 OA
HETATM   14  C21 UNL     1      -1.154   6.003  11.661  1.00  0.00     0.080 C 
HETATM   15  C22 UNL     1      -1.172   5.220  12.954  1.00  0.00     0.018 C 
HETATM   16  C23 UNL     1      -1.840   6.015  14.070  1.00  0.00    -0.026 A 
HETATM   17  C24 UNL     1      -2.226   5.157  15.244  1.00  0.00     0.021 A 
HETATM   18  C25 UNL     1      -3.332   5.856  14.460  1.00  0.00    -0.028 A 
HETATM   19  C26 UNL     1      -4.228   4.860  13.697  1.00  0.00     0.011 C 
HETATM   20  C27 UNL     1      -5.588   5.384  13.230  1.00  0.00     0.011 C 
HETATM   21  C28 UNL     1      -6.314   6.147  14.341  1.00  0.00    -0.036 C 
HETATM   22  C29 UNL     1      -6.603   5.221  15.537  1.00  0.00     0.016 C 
ENDROOT
BRANCH   1  23
HETATM   23  C2  UNL     1      -8.862   6.124  13.526  1.00  0.00    -0.014 C 
HETATM   24  C1  UNL     1      -8.857   5.776  12.026  1.00  0.00     0.010 C 
BRANCH  23  25
HETATM   25  C3  UNL     1     -10.192   6.825  13.884  1.00  0.00     0.008 C 
BRANCH  25  26
HETATM   26  C4  UNL     1     -10.941   7.364  12.658  1.00  0.00     0.028 C 
BRANCH  26  27
HETATM   27  C5  UNL     1     -12.430   7.370  12.893  1.00  0.00    -0.011 C 
HETATM   28  C6  UNL     1     -13.256   8.438  12.915  1.00  0.00     0.035 C 
BRANCH  28  29
HETATM   29  C7  UNL     1     -14.734   8.314  13.128  1.00  0.00     0.209 C 
BRANCH  29  30
HETATM   30  O1  UNL     1     -15.258   7.280  12.300  1.00  0.00    -0.396 OA
HETATM   31  H12 UNL     1     -14.914   7.424  11.402  1.00  0.00     0.209 HD
ENDBRANCH  29  30
ENDBRANCH  28  29
BRANCH  28  32
HETATM   32  C8  UNL     1     -12.727   9.805  12.739  1.00  0.00     0.173 C 
HETATM   33  O2  UNL     1     -12.412  10.582  13.623  1.00  0.00    -0.646 OA
BRANCH  32  34
HETATM   34  O3  UNL     1     -12.595  10.125  11.441  1.00  0.00    -0.773 OA
HETATM   35  H13 UNL     1     -12.252  11.043  11.464  1.00  0.00     0.167 HD
ENDBRANCH  32  34
ENDBRANCH  28  32
ENDBRANCH  26  27
ENDBRANCH  25  26
ENDBRANCH  23  25
ENDBRANCH   1  23
TORSDOF 8
ENDMDL
MODEL 7
REMARK minimizedAffinity -8.15223408
REMARK  8 active torsions:
REMARK  status: ('A' for Active; 'I' for Inactive)
REMARK    1  A    between atoms: C2_2  and  C3_3 
REMARK    2  A    between atoms: C2_2  and  C9_12 
REMARK    3  A    between atoms: C3_3  and  C4_4 
REMARK    4  A    between atoms: C4_4  and  C5_5 
REMARK    5  A    between atoms: C6_6  and  C7_7 
REMARK    6  A    between atoms: C6_6  and  C8_9 
REMARK    7  A    between atoms: C7_7  and  O1_8 
REMARK    8  A    between atoms: C8_9  and  O3_11 
ROOT
HETATM    1  C9  UNL     1       5.975   9.939  12.970  1.00  0.00    -0.002 C 
HETATM    2  C10 UNL     1       7.177   9.121  12.445  1.00  0.00     0.006 C 
HETATM    3  C11 UNL     1       6.577   7.900  11.724  1.00  0.00     0.006 C 
HETATM    4  C12 UNL     1       5.065   8.134  11.751  1.00  0.00    -0.001 C 
HETATM    5  C13 UNL     1       4.148   6.920  11.541  1.00  0.00    -0.000 C 
HETATM    6  C14 UNL     1       4.456   6.325  10.151  1.00  0.00     0.006 C 
HETATM    7  C15 UNL     1       3.336   5.545   9.481  1.00  0.00     0.007 C 
HETATM    8  C16 UNL     1       1.996   6.298   9.394  1.00  0.00     0.010 C 
HETATM    9  C17 UNL     1       1.875   7.356   8.238  1.00  0.00     0.018 C 
HETATM   10  C18 UNL     1       1.972   6.657   6.865  1.00  0.00     0.023 C 
HETATM   11  C19 UNL     1       2.910   8.490   8.270  1.00  0.00     0.023 C 
HETATM   12  C20 UNL     1       0.492   8.031   8.341  1.00  0.00     0.135 C 
HETATM   13  O4  UNL     1      -0.266   8.157   7.378  1.00  0.00    -0.297 OA
HETATM   14  C21 UNL     1       0.116   8.606   9.686  1.00  0.00     0.080 C 
HETATM   15  C22 UNL     1       0.179   7.492  10.705  1.00  0.00     0.018 C 
HETATM   16  C23 UNL     1       1.569   6.869  10.753  1.00  0.00    -0.026 A 
HETATM   17  C24 UNL     1       1.792   6.042  11.991  1.00  0.00     0.021 A 
HETATM   18  C25 UNL     1       2.656   7.280  11.779  1.00  0.00    -0.028 A 
HETATM   19  C26 UNL     1       2.364   8.383  12.816  1.00  0.00     0.011 C 
HETATM   20  C27 UNL     1       3.425   9.473  12.972  1.00  0.00     0.011 C 
HETATM   21  C28 UNL     1       4.834   8.883  13.075  1.00  0.00    -0.036 C 
HETATM   22  C29 UNL     1       4.958   7.988  14.322  1.00  0.00     0.016 C 
ENDROOT
BRANCH   1  23
HETATM   23  C2  UNL     1       6.243  10.868  14.187  1.00  0.00    -0.014 C 
HETATM   24  C1  UNL     1       5.047  11.825  14.353  1.00  0.00     0.010 C 
BRANCH  23  25
HETATM   25  C3  UNL     1       7.550  11.689  14.121  1.00  0.00     0.008 C 
BRANCH  25  26
HETATM   26  C4  UNL     1       8.460  11.477  15.339  1.00  0.00     0.028 C 
BRANCH  26  27
HETATM   27  C5  UNL     1       8.515  10.021  15.725  1.00  0.00    -0.011 C 
HETATM   28  C6  UNL     1       9.436   9.106  15.356  1.00  0.00     0.035 C 
BRANCH  28  29
HETATM   29  C7  UNL     1       9.403   7.686  15.834  1.00  0.00     0.209 C 
BRANCH  29  30
HETATM   30  O1  UNL     1       8.651   7.598  17.040  1.00  0.00    -0.396 OA
HETATM   31  H12 UNL     1       8.973   8.296  17.635  1.00  0.00     0.209 HD
ENDBRANCH  29  30
ENDBRANCH  28  29
BRANCH  28  32
HETATM   32  C8  UNL     1      10.531   9.467  14.434  1.00  0.00     0.173 C 
HETATM   33  O2  UNL     1      10.566   9.268  13.233  1.00  0.00    -0.646 OA
BRANCH  32  34
HETATM   34  O3  UNL     1      11.535  10.090  15.073  1.00  0.00    -0.773 OA
HETATM   35  H13 UNL     1      12.188  10.262  14.363  1.00  0.00     0.167 HD
ENDBRANCH  32  34
ENDBRANCH  28  32
ENDBRANCH  26  27
ENDBRANCH  25  26
ENDBRANCH  23  25
ENDBRANCH   1  23
TORSDOF 8
ENDMDL
MODEL 8
REMARK minimizedAffinity -8.14158821
REMARK  8 active torsions:
REMARK  status: ('A' for Active; 'I' for Inactive)
REMARK    1  A    between atoms: C2_2  and  C3_3 
REMARK    2  A    between atoms: C2_2  and  C9_12 
REMARK    3  A    between atoms: C3_3  and  C4_4 
REMARK    4  A    between atoms: C4_4  and  C5_5 
REMARK    5  A    between atoms: C6_6  and  C7_7 
REMARK    6  A    between atoms: C6_6  and  C8_9 
REMARK    7  A    between atoms: C7_7  and  O1_8 
REMARK    8  A    between atoms: C8_9  and  O3_11 
ROOT
HETATM    1  C9  UNL     1      -6.957   7.010  13.860  1.00  0.00    -0.002 C 
HETATM    2  C10 UNL     1      -7.481   5.615  13.448  1.00  0.00     0.006 C 
HETATM    3  C11 UNL     1      -8.982   5.607  13.790  1.00  0.00     0.006 C 
HETATM    4  C12 UNL     1      -9.283   7.032  14.258  1.00  0.00    -0.001 C 
HETATM    5  C13 UNL     1     -10.548   7.258  15.101  1.00  0.00    -0.000 C 
HETATM    6  C14 UNL     1     -11.765   6.826  14.258  1.00  0.00     0.006 C 
HETATM    7  C15 UNL     1     -13.095   7.481  14.599  1.00  0.00     0.007 C 
HETATM    8  C16 UNL     1     -13.059   9.018  14.637  1.00  0.00     0.010 C 
HETATM    9  C17 UNL     1     -13.123   9.743  13.243  1.00  0.00     0.018 C 
HETATM   10  C18 UNL     1     -14.469   9.443  12.549  1.00  0.00     0.023 C 
HETATM   11  C19 UNL     1     -11.993   9.393  12.264  1.00  0.00     0.023 C 
HETATM   12  C20 UNL     1     -13.031  11.264  13.483  1.00  0.00     0.135 C 
HETATM   13  O4  UNL     1     -13.813  12.071  12.977  1.00  0.00    -0.297 OA
HETATM   14  C21 UNL     1     -11.877  11.749  14.328  1.00  0.00     0.080 C 
HETATM   15  C22 UNL     1     -11.959  11.060  15.671  1.00  0.00     0.018 C 
HETATM   16  C23 UNL     1     -11.915   9.545  15.515  1.00  0.00    -0.026 A 
HETATM   17  C24 UNL     1     -11.607   8.837  16.806  1.00  0.00     0.021 A 
HETATM   18  C25 UNL     1     -10.618   8.707  15.653  1.00  0.00    -0.028 A 
HETATM   19  C26 UNL     1      -9.275   9.404  15.951  1.00  0.00     0.011 C 
HETATM   20  C27 UNL     1      -8.086   8.998  15.079  1.00  0.00     0.011 C 
HETATM   21  C28 UNL     1      -7.977   7.478  14.939  1.00  0.00    -0.036 C 
HETATM   22  C29 UNL     1      -7.741   6.821  16.313  1.00  0.00     0.016 C 
ENDROOT
BRANCH   1  23
HETATM   23  C2  UNL     1      -5.439   7.119  14.174  1.00  0.00    -0.014 C 
HETATM   24  C1  UNL     1      -4.806   8.146  13.216  1.00  0.00     0.010 C 
BRANCH  23  25
HETATM   25  C3  UNL     1      -4.647   5.794  14.098  1.00  0.00     0.008 C 
BRANCH  25  26
HETATM   26  C4  UNL     1      -4.809   5.068  12.756  1.00  0.00     0.028 C 
BRANCH  26  27
HETATM   27  C5  UNL     1      -3.680   4.096  12.528  1.00  0.00    -0.011 C 
HETATM   28  C6  UNL     1      -3.661   3.038  11.690  1.00  0.00     0.035 C 
BRANCH  28  29
HETATM   29  C7  UNL     1      -2.461   2.156  11.524  1.00  0.00     0.209 C 
BRANCH  29  30
HETATM   30  O1  UNL     1      -2.874   0.824  11.238  1.00  0.00    -0.396 OA
HETATM   31  H12 UNL     1      -3.557   0.585  11.888  1.00  0.00     0.209 HD
ENDBRANCH  29  30
ENDBRANCH  28  29
BRANCH  28  32
HETATM   32  C8  UNL     1      -4.853   2.686  10.891  1.00  0.00     0.173 C 
HETATM   33  O2  UNL     1      -5.792   1.998  11.251  1.00  0.00    -0.646 OA
BRANCH  32  34
HETATM   34  O3  UNL     1      -4.818   3.245   9.671  1.00  0.00    -0.773 OA
HETATM   35  H13 UNL     1      -5.644   2.930   9.249  1.00  0.00     0.167 HD
ENDBRANCH  32  34
ENDBRANCH  28  32
ENDBRANCH  26  27
ENDBRANCH  25  26
ENDBRANCH  23  25
ENDBRANCH   1  23
TORSDOF 8
ENDMDL
MODEL 9
REMARK minimizedAffinity -8.12743282
REMARK  8 active torsions:
REMARK  status: ('A' for Active; 'I' for Inactive)
REMARK    1  A    between atoms: C2_2  and  C3_3 
REMARK    2  A    between atoms: C2_2  and  C9_12 
REMARK    3  A    between atoms: C3_3  and  C4_4 
REMARK    4  A    between atoms: C4_4  and  C5_5 
REMARK    5  A    between atoms: C6_6  and  C7_7 
REMARK    6  A    between atoms: C6_6  and  C8_9 
REMARK    7  A    between atoms: C7_7  and  O1_8 
REMARK    8  A    between atoms: C8_9  and  O3_11 
ROOT
HETATM    1  C9  UNL     1      -1.180   6.754  13.288  1.00  0.00    -0.002 C 
HETATM    2  C10 UNL     1      -0.725   7.556  12.047  1.00  0.00     0.006 C 
HETATM    3  C11 UNL     1      -1.023   9.033  12.363  1.00  0.00     0.006 C 
HETATM    4  C12 UNL     1      -1.510   9.031  13.813  1.00  0.00    -0.001 C 
HETATM    5  C13 UNL     1      -2.320  10.243  14.299  1.00  0.00    -0.000 C 
HETATM    6  C14 UNL     1      -1.432  11.497  14.155  1.00  0.00     0.006 C 
HETATM    7  C15 UNL     1      -1.747  12.662  15.081  1.00  0.00     0.007 C 
HETATM    8  C16 UNL     1      -1.817  12.293  16.572  1.00  0.00     0.010 C 
HETATM    9  C17 UNL     1      -0.436  12.151  17.312  1.00  0.00     0.018 C 
HETATM   10  C18 UNL     1       0.303  13.506  17.322  1.00  0.00     0.023 C 
HETATM   11  C19 UNL     1       0.516  11.093  16.736  1.00  0.00     0.023 C 
HETATM   12  C20 UNL     1      -0.708  11.737  18.772  1.00  0.00     0.135 C 
HETATM   13  O4  UNL     1      -0.196  12.307  19.737  1.00  0.00    -0.297 OA
HETATM   14  C21 UNL     1      -1.597  10.534  18.983  1.00  0.00     0.080 C 
HETATM   15  C22 UNL     1      -2.923  10.809  18.310  1.00  0.00     0.018 C 
HETATM   16  C23 UNL     1      -2.738  11.091  16.825  1.00  0.00    -0.026 A 
HETATM   17  C24 UNL     1      -4.024  10.988  16.050  1.00  0.00     0.021 A 
HETATM   18  C25 UNL     1      -2.898  10.013  15.722  1.00  0.00    -0.028 A 
HETATM   19  C26 UNL     1      -3.249   8.562  16.104  1.00  0.00     0.011 C 
HETATM   20  C27 UNL     1      -2.404   7.461  15.459  1.00  0.00     0.011 C 
HETATM   21  C28 UNL     1      -2.237   7.683  13.954  1.00  0.00    -0.036 C 
HETATM   22  C29 UNL     1      -3.604   7.641  13.244  1.00  0.00     0.016 C 
ENDROOT
BRANCH   1  23
HETATM   23  C2  UNL     1      -1.540   5.260  13.059  1.00  0.00    -0.014 C 
HETATM   24  C1  UNL     1      -1.364   4.930  11.564  1.00  0.00     0.010 C 
BRANCH  23  25
HETATM   25  C3  UNL     1      -2.957   4.841  13.511  1.00  0.00     0.008 C 
BRANCH  25  26
HETATM   26  C4  UNL     1      -3.876   4.457  12.344  1.00  0.00     0.028 C 
BRANCH  26  27
HETATM   27  C5  UNL     1      -5.247   4.073  12.839  1.00  0.00    -0.011 C 
HETATM   28  C6  UNL     1      -6.093   3.168  12.301  1.00  0.00     0.035 C 
BRANCH  28  29
HETATM   29  C7  UNL     1      -7.425   2.846  12.906  1.00  0.00     0.209 C 
BRANCH  29  30
HETATM   30  O1  UNL     1      -7.840   1.546  12.501  1.00  0.00    -0.396 OA
HETATM   31  H12 UNL     1      -7.726   1.491  11.537  1.00  0.00     0.209 HD
ENDBRANCH  29  30
ENDBRANCH  28  29
BRANCH  28  32
HETATM   32  C8  UNL     1      -5.741   2.451  11.059  1.00  0.00     0.173 C 
HETATM   33  O2  UNL     1      -5.749   2.906   9.930  1.00  0.00    -0.646 OA
BRANCH  32  34
HETATM   34  O3  UNL     1      -5.368   1.184  11.305  1.00  0.00    -0.773 OA
HETATM   35  H13 UNL     1      -5.175   0.824  10.414  1.00  0.00     0.167 HD
ENDBRANCH  32  34
ENDBRANCH  28  32
ENDBRANCH  26  27
ENDBRANCH  25  26
ENDBRANCH  23  25
ENDBRANCH   1  23
TORSDOF 8
ENDMDL
