MODEL 1
REMARK minimizedAffinity -8.07706738
REMARK  9 active torsions:
REMARK  status: ('A' for Active; 'I' for Inactive)
REMARK    1  A    between atoms: O1_2  and  C2_3 
REMARK    2  A    between atoms: C2_3  and  C3_4 
REMARK    3  A    between atoms: C3_4  and  N1_5 
REMARK       I    between atoms: N1_5  and  C4_6 
REMARK    4  A    between atoms: C4_6  and  C5_8 
REMARK    5  A    between atoms: C5_8  and  C7_10 
REMARK    6  A    between atoms: C15_20  and  N3_21 
REMARK       I    between atoms: N3_21  and  C16_22 
REMARK    7  A    between atoms: C16_22  and  C17_24 
REMARK    8  A    between atoms: C17_24  and  N4_25 
REMARK    9  A    between atoms: C23_32  and  O4_33 
ROOT
HETATM    1  C7  UNL     1      -3.373  50.219 -24.765  1.00  0.00     0.027 C 
HETATM    2  C8  UNL     1      -3.325  48.705 -24.516  1.00  0.00     0.009 C 
HETATM    3  C9  UNL     1      -3.564  48.357 -23.043  1.00  0.00     0.010 C 
HETATM    4  C10 UNL     1      -2.979  49.367 -22.013  1.00  0.00    -0.033 C 
HETATM    5  C11 UNL     1      -4.121  50.281 -21.492  1.00  0.00     0.016 C 
HETATM    6  C12 UNL     1      -2.420  48.542 -20.802  1.00  0.00     0.058 C 
HETATM    7  C13 UNL     1      -1.575  49.400 -19.926  1.00  0.00     0.010 A 
HETATM    8  C14 UNL     1      -1.004  50.600 -20.292  1.00  0.00     0.029 A 
HETATM    9  N2  UNL     1      -0.317  51.245 -19.283  1.00  0.00    -0.339 N 
ATOM     10  H2  UNL     1       0.132  52.157 -19.365  1.00  0.00     0.168 HD
HETATM   11  C15 UNL     1      -0.331  50.505 -18.205  1.00  0.00     0.151 A 
HETATM   12  S1  UNL     1      -1.170  49.017 -18.316  1.00  0.00    -0.056 SA
HETATM   13  C20 UNL     1      -1.165  51.227 -21.652  1.00  0.00     0.040 C 
HETATM   14  C21 UNL     1       0.173  51.775 -22.161  1.00  0.00     0.017 C 
HETATM   15  C22 UNL     1      -1.814  50.200 -22.659  1.00  0.00     0.033 C 
HETATM   16  C23 UNL     1      -2.214  50.894 -23.991  1.00  0.00     0.128 C 
ENDROOT
BRANCH   1  17
HETATM   17  C5  UNL     1      -3.404  50.548 -26.285  1.00  0.00     0.080 C 
HETATM   18  C6  UNL     1      -2.697  49.501 -27.153  1.00  0.00     0.020 C 
BRANCH  17  19
HETATM   19  C4  UNL     1      -2.797  51.926 -26.561  1.00  0.00     0.222 C 
HETATM   20  N1  UNL     1      -1.746  51.938 -27.455  1.00  0.00    -0.359 N 
HETATM   21  H8  UNL     1      -1.551  51.100 -27.984  1.00  0.00     0.162 HD
HETATM   22  O2  UNL     1      -3.195  52.925 -25.968  1.00  0.00    -0.273 OA
BRANCH  20  23
HETATM   23  C3  UNL     1      -1.169  53.184 -27.936  1.00  0.00     0.148 C 
BRANCH  23  24
HETATM   24  C2  UNL     1       0.149  53.528 -27.231  1.00  0.00     0.186 C 
BRANCH  24  25
HETATM   25  O1  UNL     1      -0.028  54.627 -26.338  1.00  0.00    -0.394 OA
HETATM   26  C1  UNL     1       0.257  54.270 -24.991  1.00  0.00     0.201 C 
ENDBRANCH  24  25
ENDBRANCH  23  24
ENDBRANCH  20  23
ENDBRANCH  17  19
ENDBRANCH   1  17
BRANCH  16  27
HETATM   27  O4  UNL     1      -1.049  50.947 -24.816  1.00  0.00    -0.395 OA
HETATM   28  H38 UNL     1      -0.791  50.039 -25.059  1.00  0.00     0.210 HD
ENDBRANCH  16  27
BRANCH  11  29
HETATM   29  N3  UNL     1       0.238  50.726 -16.985  1.00  0.00    -0.306 N 
HETATM   30  C16 UNL     1       0.982  51.857 -16.702  1.00  0.00     0.252 C 
HETATM   31  O3  UNL     1       1.149  52.817 -17.450  1.00  0.00    -0.271 OA
HETATM   32  H23 UNL     1       0.083  50.014 -16.288  1.00  0.00     0.171 HD
BRANCH  30  33
HETATM   33  C17 UNL     1       1.587  51.806 -15.287  1.00  0.00     0.373 C 
BRANCH  33  34
HETATM   34  N4  UNL     1       3.014  51.430 -15.230  1.00  0.00     0.088 N 
HETATM   35  C18 UNL     1       3.901  52.525 -15.611  1.00  0.00     0.310 C 
HETATM   36  C19 UNL     1       3.395  50.877 -13.931  1.00  0.00     0.310 C 
ENDBRANCH  33  34
ENDBRANCH  30  33
ENDBRANCH  11  29
TORSDOF 9
ENDMDL
MODEL 2
REMARK minimizedAffinity -8.05016804
REMARK  9 active torsions:
REMARK  status: ('A' for Active; 'I' for Inactive)
REMARK    1  A    between atoms: O1_2  and  C2_3 
REMARK    2  A    between atoms: C2_3  and  C3_4 
REMARK    3  A    between atoms: C3_4  and  N1_5 
REMARK       I    between atoms: N1_5  and  C4_6 
REMARK    4  A    between atoms: C4_6  and  C5_8 
REMARK    5  A    between atoms: C5_8  and  C7_10 
REMARK    6  A    between atoms: C15_20  and  N3_21 
REMARK       I    between atoms: N3_21  and  C16_22 
REMARK    7  A    between atoms: C16_22  and  C17_24 
REMARK    8  A    between atoms: C17_24  and  N4_25 
REMARK    9  A    between atoms: C23_32  and  O4_33 
ROOT
HETATM    1  C7  UNL     1      -1.832  51.742 -23.008  1.00  0.00     0.027 C 
HETATM    2  C8  UNL     1      -1.524  50.246 -22.866  1.00  0.00     0.009 C 
HETATM    3  C9  UNL     1      -1.705  49.755 -21.426  1.00  0.00     0.010 C 
HETATM    4  C10 UNL     1      -1.307  50.773 -20.318  1.00  0.00    -0.033 C 
HETATM    5  C11 UNL     1      -2.592  51.437 -19.752  1.00  0.00     0.016 C 
HETATM    6  C12 UNL     1      -0.619  49.971 -19.159  1.00  0.00     0.058 C 
HETATM    7  C13 UNL     1       0.061  50.896 -18.210  1.00  0.00     0.010 A 
HETATM    8  C14 UNL     1       0.418  52.200 -18.481  1.00  0.00     0.029 A 
HETATM    9  N2  UNL     1       0.979  52.878 -17.418  1.00  0.00    -0.339 N 
ATOM     10  H2  UNL     1       1.265  53.858 -17.428  1.00  0.00     0.168 HD
HETATM   11  C15 UNL     1       1.089  52.070 -16.396  1.00  0.00     0.151 A 
HETATM   12  S1  UNL     1       0.521  50.472 -16.625  1.00  0.00    -0.056 SA
HETATM   13  C20 UNL     1       0.156  52.886 -19.796  1.00  0.00     0.040 C 
HETATM   14  C21 UNL     1       1.382  53.692 -20.243  1.00  0.00     0.017 C 
HETATM   15  C22 UNL     1      -0.301  51.840 -20.883  1.00  0.00     0.033 C 
HETATM   16  C23 UNL     1      -0.810  52.549 -22.170  1.00  0.00     0.128 C 
ENDROOT
BRANCH   1  17
HETATM   17  C5  UNL     1      -1.913  52.171 -24.501  1.00  0.00     0.080 C 
HETATM   18  C6  UNL     1      -3.344  52.208 -25.051  1.00  0.00     0.020 C 
BRANCH  17  19
HETATM   19  C4  UNL     1      -1.055  51.260 -25.383  1.00  0.00     0.222 C 
HETATM   20  N1  UNL     1       0.272  51.621 -25.487  1.00  0.00    -0.359 N 
HETATM   21  H8  UNL     1       0.628  52.337 -24.871  1.00  0.00     0.162 HD
HETATM   22  O2  UNL     1      -1.552  50.316 -25.992  1.00  0.00    -0.273 OA
BRANCH  20  23
HETATM   23  C3  UNL     1       1.242  50.770 -26.160  1.00  0.00     0.148 C 
BRANCH  23  24
HETATM   24  C2  UNL     1       2.507  51.536 -26.569  1.00  0.00     0.186 C 
BRANCH  24  25
HETATM   25  O1  UNL     1       2.485  51.838 -27.963  1.00  0.00    -0.394 OA
HETATM   26  C1  UNL     1       1.167  51.792 -28.497  1.00  0.00     0.201 C 
ENDBRANCH  24  25
ENDBRANCH  23  24
ENDBRANCH  20  23
ENDBRANCH  17  19
ENDBRANCH   1  17
BRANCH  16  27
HETATM   27  O4  UNL     1       0.332  52.862 -22.970  1.00  0.00    -0.395 OA
HETATM   28  H38 UNL     1       0.743  52.032 -23.272  1.00  0.00     0.210 HD
ENDBRANCH  16  27
BRANCH  11  29
HETATM   29  N3  UNL     1       1.606  52.297 -15.153  1.00  0.00    -0.306 N 
HETATM   30  C16 UNL     1       2.091  51.281 -14.350  1.00  0.00     0.252 C 
HETATM   31  O3  UNL     1       2.200  50.100 -14.666  1.00  0.00    -0.271 OA
HETATM   32  H23 UNL     1       1.620  53.258 -14.847  1.00  0.00     0.171 HD
BRANCH  30  33
HETATM   33  C17 UNL     1       2.523  51.802 -12.966  1.00  0.00     0.373 C 
BRANCH  33  34
HETATM   34  N4  UNL     1       2.959  50.760 -12.015  1.00  0.00     0.088 N 
HETATM   35  C18 UNL     1       4.188  50.091 -12.434  1.00  0.00     0.310 C 
HETATM   36  C19 UNL     1       3.082  51.267 -10.648  1.00  0.00     0.310 C 
ENDBRANCH  33  34
ENDBRANCH  30  33
ENDBRANCH  11  29
TORSDOF 9
ENDMDL
MODEL 3
REMARK minimizedAffinity -7.83163214
REMARK  9 active torsions:
REMARK  status: ('A' for Active; 'I' for Inactive)
REMARK    1  A    between atoms: O1_2  and  C2_3 
REMARK    2  A    between atoms: C2_3  and  C3_4 
REMARK    3  A    between atoms: C3_4  and  N1_5 
REMARK       I    between atoms: N1_5  and  C4_6 
REMARK    4  A    between atoms: C4_6  and  C5_8 
REMARK    5  A    between atoms: C5_8  and  C7_10 
REMARK    6  A    between atoms: C15_20  and  N3_21 
REMARK       I    between atoms: N3_21  and  C16_22 
REMARK    7  A    between atoms: C16_22  and  C17_24 
REMARK    8  A    between atoms: C17_24  and  N4_25 
REMARK    9  A    between atoms: C23_32  and  O4_33 
ROOT
HETATM    1  C7  UNL     1      -0.779  51.198 -20.587  1.00  0.00     0.027 C 
HETATM    2  C8  UNL     1       0.505  51.496 -21.373  1.00  0.00     0.009 C 
HETATM    3  C9  UNL     1       0.212  52.141 -22.731  1.00  0.00     0.010 C 
HETATM    4  C10 UNL     1      -1.077  51.640 -23.445  1.00  0.00    -0.033 C 
HETATM    5  C11 UNL     1      -2.211  52.681 -23.236  1.00  0.00     0.016 C 
HETATM    6  C12 UNL     1      -0.768  51.553 -24.980  1.00  0.00     0.058 C 
HETATM    7  C13 UNL     1      -1.838  50.796 -25.689  1.00  0.00     0.010 A 
HETATM    8  C14 UNL     1      -2.739  49.939 -25.096  1.00  0.00     0.029 A 
HETATM    9  N2  UNL     1      -3.679  49.405 -25.955  1.00  0.00    -0.339 N 
ATOM     10  H2  UNL     1      -4.443  48.786 -25.682  1.00  0.00     0.168 HD
HETATM   11  C15 UNL     1      -3.439  49.815 -27.173  1.00  0.00     0.151 A 
HETATM   12  S1  UNL     1      -2.103  50.867 -27.371  1.00  0.00    -0.056 SA
HETATM   13  C20 UNL     1      -2.776  49.650 -23.619  1.00  0.00     0.040 C 
HETATM   14  C21 UNL     1      -2.966  48.150 -23.362  1.00  0.00     0.017 C 
HETATM   15  C22 UNL     1      -1.487  50.220 -22.913  1.00  0.00     0.033 C 
HETATM   16  C23 UNL     1      -1.615  50.152 -21.365  1.00  0.00     0.128 C 
ENDROOT
BRANCH   1  17
HETATM   17  C5  UNL     1      -0.470  50.802 -19.114  1.00  0.00     0.080 C 
HETATM   18  C6  UNL     1      -1.700  50.307 -18.343  1.00  0.00     0.020 C 
BRANCH  17  19
HETATM   19  C4  UNL     1       0.168  51.966 -18.354  1.00  0.00     0.222 C 
HETATM   20  N1  UNL     1       0.670  51.650 -17.108  1.00  0.00    -0.359 N 
HETATM   21  H8  UNL     1       0.737  50.678 -16.845  1.00  0.00     0.162 HD
HETATM   22  O2  UNL     1       0.166  53.104 -18.816  1.00  0.00    -0.273 OA
BRANCH  20  23
HETATM   23  C3  UNL     1       1.442  52.610 -16.332  1.00  0.00     0.148 C 
BRANCH  23  24
HETATM   24  C2  UNL     1       2.932  52.589 -16.694  1.00  0.00     0.186 C 
BRANCH  24  25
HETATM   25  O1  UNL     1       3.737  52.568 -15.516  1.00  0.00    -0.394 OA
HETATM   26  C1  UNL     1       3.213  51.688 -14.529  1.00  0.00     0.201 C 
ENDBRANCH  24  25
ENDBRANCH  23  24
ENDBRANCH  20  23
ENDBRANCH  17  19
ENDBRANCH   1  17
BRANCH  16  27
HETATM   27  O4  UNL     1      -1.239  48.834 -20.958  1.00  0.00    -0.395 OA
HETATM   28  H38 UNL     1      -0.294  48.701 -21.150  1.00  0.00     0.210 HD
ENDBRANCH  16  27
BRANCH  11  29
HETATM   29  N3  UNL     1      -4.087  49.524 -28.338  1.00  0.00    -0.306 N 
HETATM   30  C16 UNL     1      -4.980  48.474 -28.452  1.00  0.00     0.252 C 
HETATM   31  O3  UNL     1      -5.364  47.749 -27.538  1.00  0.00    -0.271 OA
HETATM   32  H23 UNL     1      -3.881  50.123 -29.122  1.00  0.00     0.171 HD
BRANCH  30  33
HETATM   33  C17 UNL     1      -5.490  48.311 -29.896  1.00  0.00     0.373 C 
BRANCH  33  34
HETATM   34  N4  UNL     1      -5.834  46.928 -30.285  1.00  0.00     0.088 N 
HETATM   35  C18 UNL     1      -7.272  46.730 -30.452  1.00  0.00     0.310 C 
HETATM   36  C19 UNL     1      -5.105  46.483 -31.473  1.00  0.00     0.310 C 
ENDBRANCH  33  34
ENDBRANCH  30  33
ENDBRANCH  11  29
TORSDOF 9
ENDMDL
MODEL 4
REMARK minimizedAffinity -7.74351406
REMARK  9 active torsions:
REMARK  status: ('A' for Active; 'I' for Inactive)
REMARK    1  A    between atoms: O1_2  and  C2_3 
REMARK    2  A    between atoms: C2_3  and  C3_4 
REMARK    3  A    between atoms: C3_4  and  N1_5 
REMARK       I    between atoms: N1_5  and  C4_6 
REMARK    4  A    between atoms: C4_6  and  C5_8 
REMARK    5  A    between atoms: C5_8  and  C7_10 
REMARK    6  A    between atoms: C15_20  and  N3_21 
REMARK       I    between atoms: N3_21  and  C16_22 
REMARK    7  A    between atoms: C16_22  and  C17_24 
REMARK    8  A    between atoms: C17_24  and  N4_25 
REMARK    9  A    between atoms: C23_32  and  O4_33 
ROOT
HETATM    1  C7  UNL     1      -3.130  50.112 -24.227  1.00  0.00     0.027 C 
HETATM    2  C8  UNL     1      -2.961  48.637 -23.841  1.00  0.00     0.009 C 
HETATM    3  C9  UNL     1      -3.113  48.415 -22.333  1.00  0.00     0.010 C 
HETATM    4  C10 UNL     1      -2.563  49.558 -21.430  1.00  0.00    -0.033 C 
HETATM    5  C11 UNL     1      -3.747  50.437 -20.943  1.00  0.00     0.016 C 
HETATM    6  C12 UNL     1      -1.896  48.894 -20.175  1.00  0.00     0.058 C 
HETATM    7  C13 UNL     1      -1.082  49.889 -19.424  1.00  0.00     0.010 A 
HETATM    8  C14 UNL     1      -0.615  51.085 -19.926  1.00  0.00     0.029 A 
HETATM    9  N2  UNL     1       0.063  51.870 -19.016  1.00  0.00    -0.339 N 
ATOM     10  H2  UNL     1       0.440  52.799 -19.204  1.00  0.00     0.168 HD
HETATM   11  C15 UNL     1       0.147  51.237 -17.874  1.00  0.00     0.151 A 
HETATM   12  S1  UNL     1      -0.584  49.691 -17.807  1.00  0.00    -0.056 SA
HETATM   13  C20 UNL     1      -0.878  51.565 -21.330  1.00  0.00     0.040 C 
HETATM   14  C21 UNL     1       0.395  52.153 -21.951  1.00  0.00     0.017 C 
HETATM   15  C22 UNL     1      -1.490  50.404 -22.205  1.00  0.00     0.033 C 
HETATM   16  C23 UNL     1      -1.993  50.938 -23.575  1.00  0.00     0.128 C 
ENDROOT
BRANCH   1  17
HETATM   17  C5  UNL     1      -3.247  50.292 -25.768  1.00  0.00     0.080 C 
HETATM   18  C6  UNL     1      -2.462  49.245 -26.568  1.00  0.00     0.020 C 
BRANCH  17  19
HETATM   19  C4  UNL     1      -2.800  51.692 -26.194  1.00  0.00     0.222 C 
HETATM   20  N1  UNL     1      -1.653  51.737 -26.959  1.00  0.00    -0.359 N 
HETATM   21  H8  UNL     1      -1.280  50.872 -27.322  1.00  0.00     0.162 HD
HETATM   22  O2  UNL     1      -3.403  52.693 -25.816  1.00  0.00    -0.273 OA
BRANCH  20  23
HETATM   23  C3  UNL     1      -1.192  52.975 -27.568  1.00  0.00     0.148 C 
BRANCH  23  24
HETATM   24  C2  UNL     1       0.313  52.954 -27.866  1.00  0.00     0.186 C 
BRANCH  24  25
HETATM   25  O1  UNL     1       1.064  52.834 -26.659  1.00  0.00    -0.394 OA
HETATM   26  C1  UNL     1       2.058  51.821 -26.749  1.00  0.00     0.201 C 
ENDBRANCH  24  25
ENDBRANCH  23  24
ENDBRANCH  20  23
ENDBRANCH  17  19
ENDBRANCH   1  17
BRANCH  16  27
HETATM   27  O4  UNL     1      -0.870  50.992 -24.456  1.00  0.00    -0.395 OA
HETATM   28  H38 UNL     1      -0.556  50.085 -24.626  1.00  0.00     0.210 HD
ENDBRANCH  16  27
BRANCH  11  29
HETATM   29  N3  UNL     1       0.747  51.614 -16.708  1.00  0.00    -0.306 N 
HETATM   30  C16 UNL     1       0.211  51.327 -15.466  1.00  0.00     0.252 C 
HETATM   31  O3  UNL     1      -0.788  50.646 -15.250  1.00  0.00    -0.271 OA
HETATM   32  H23 UNL     1       1.617  52.117 -16.799  1.00  0.00     0.171 HD
BRANCH  30  33
HETATM   33  C17 UNL     1       1.039  51.951 -14.327  1.00  0.00     0.373 C 
BRANCH  33  34
HETATM   34  N4  UNL     1       2.130  51.101 -13.810  1.00  0.00     0.088 N 
HETATM   35  C18 UNL     1       1.826  49.676 -13.900  1.00  0.00     0.310 C 
HETATM   36  C19 UNL     1       3.417  51.401 -14.437  1.00  0.00     0.310 C 
ENDBRANCH  33  34
ENDBRANCH  30  33
ENDBRANCH  11  29
TORSDOF 9
ENDMDL
MODEL 5
REMARK minimizedAffinity -7.59639931
REMARK  9 active torsions:
REMARK  status: ('A' for Active; 'I' for Inactive)
REMARK    1  A    between atoms: O1_2  and  C2_3 
REMARK    2  A    between atoms: C2_3  and  C3_4 
REMARK    3  A    between atoms: C3_4  and  N1_5 
REMARK       I    between atoms: N1_5  and  C4_6 
REMARK    4  A    between atoms: C4_6  and  C5_8 
REMARK    5  A    between atoms: C5_8  and  C7_10 
REMARK    6  A    between atoms: C15_20  and  N3_21 
REMARK       I    between atoms: N3_21  and  C16_22 
REMARK    7  A    between atoms: C16_22  and  C17_24 
REMARK    8  A    between atoms: C17_24  and  N4_25 
REMARK    9  A    between atoms: C23_32  and  O4_33 
ROOT
HETATM    1  C7  UNL     1      -3.158  50.754 -24.730  1.00  0.00     0.027 C 
HETATM    2  C8  UNL     1      -4.343  51.431 -24.030  1.00  0.00     0.009 C 
HETATM    3  C9  UNL     1      -3.958  51.995 -22.660  1.00  0.00     0.010 C 
HETATM    4  C10 UNL     1      -2.916  51.159 -21.861  1.00  0.00    -0.033 C 
HETATM    5  C11 UNL     1      -1.517  51.819 -22.001  1.00  0.00     0.016 C 
HETATM    6  C12 UNL     1      -3.330  51.202 -20.349  1.00  0.00     0.058 C 
HETATM    7  C13 UNL     1      -2.573  50.184 -19.567  1.00  0.00     0.010 A 
HETATM    8  C14 UNL     1      -1.927  49.087 -20.096  1.00  0.00     0.029 A 
HETATM    9  N2  UNL     1      -1.238  48.323 -19.175  1.00  0.00    -0.339 N 
ATOM     10  H2  UNL     1      -0.673  47.502 -19.395  1.00  0.00     0.168 HD
HETATM   11  C15 UNL     1      -1.421  48.815 -17.978  1.00  0.00     0.151 A 
HETATM   12  S1  UNL     1      -2.401  50.214 -17.873  1.00  0.00    -0.056 SA
HETATM   13  C20 UNL     1      -1.887  48.764 -21.566  1.00  0.00     0.040 C 
HETATM   14  C21 UNL     1      -2.128  47.268 -21.802  1.00  0.00     0.017 C 
HETATM   15  C22 UNL     1      -2.909  49.668 -22.358  1.00  0.00     0.033 C 
HETATM   16  C23 UNL     1      -2.713  49.528 -23.894  1.00  0.00     0.128 C 
ENDROOT
BRANCH   1  17
HETATM   17  C5  UNL     1      -3.479  50.429 -26.217  1.00  0.00     0.080 C 
HETATM   18  C6  UNL     1      -3.403  48.934 -26.548  1.00  0.00     0.020 C 
BRANCH  17  19
HETATM   19  C4  UNL     1      -2.555  51.203 -27.161  1.00  0.00     0.222 C 
HETATM   20  N1  UNL     1      -2.337  52.522 -26.819  1.00  0.00    -0.359 N 
HETATM   21  H8  UNL     1      -2.648  52.846 -25.915  1.00  0.00     0.162 HD
HETATM   22  O2  UNL     1      -2.103  50.681 -28.176  1.00  0.00    -0.273 OA
BRANCH  20  23
HETATM   23  C3  UNL     1      -1.364  53.340 -27.527  1.00  0.00     0.148 C 
BRANCH  23  24
HETATM   24  C2  UNL     1       0.065  53.126 -27.011  1.00  0.00     0.186 C 
BRANCH  24  25
HETATM   25  O1  UNL     1       0.435  54.165 -26.105  1.00  0.00    -0.394 OA
HETATM   26  C1  UNL     1       0.273  53.771 -24.748  1.00  0.00     0.201 C 
ENDBRANCH  24  25
ENDBRANCH  23  24
ENDBRANCH  20  23
ENDBRANCH  17  19
ENDBRANCH   1  17
BRANCH  16  27
HETATM   27  O4  UNL     1      -3.431  48.368 -24.316  1.00  0.00    -0.395 OA
HETATM   28  H38 UNL     1      -4.384  48.521 -24.186  1.00  0.00     0.210 HD
ENDBRANCH  16  27
BRANCH  11  29
HETATM   29  N3  UNL     1      -0.958  48.375 -16.772  1.00  0.00    -0.306 N 
HETATM   30  C16 UNL     1       0.157  48.916 -16.158  1.00  0.00     0.252 C 
HETATM   31  O3  UNL     1       0.802  49.883 -16.554  1.00  0.00    -0.271 OA
HETATM   32  H23 UNL     1      -1.480  47.626 -16.343  1.00  0.00     0.171 HD
BRANCH  30  33
HETATM   33  C17 UNL     1       0.514  48.170 -14.859  1.00  0.00     0.373 C 
BRANCH  33  34
HETATM   34  N4  UNL     1       1.899  47.663 -14.790  1.00  0.00     0.088 N 
HETATM   35  C18 UNL     1       2.679  48.293 -13.728  1.00  0.00     0.310 C 
HETATM   36  C19 UNL     1       1.956  46.205 -14.683  1.00  0.00     0.310 C 
ENDBRANCH  33  34
ENDBRANCH  30  33
ENDBRANCH  11  29
TORSDOF 9
ENDMDL
MODEL 6
REMARK minimizedAffinity -7.53529358
REMARK  9 active torsions:
REMARK  status: ('A' for Active; 'I' for Inactive)
REMARK    1  A    between atoms: O1_2  and  C2_3 
REMARK    2  A    between atoms: C2_3  and  C3_4 
REMARK    3  A    between atoms: C3_4  and  N1_5 
REMARK       I    between atoms: N1_5  and  C4_6 
REMARK    4  A    between atoms: C4_6  and  C5_8 
REMARK    5  A    between atoms: C5_8  and  C7_10 
REMARK    6  A    between atoms: C15_20  and  N3_21 
REMARK       I    between atoms: N3_21  and  C16_22 
REMARK    7  A    between atoms: C16_22  and  C17_24 
REMARK    8  A    between atoms: C17_24  and  N4_25 
REMARK    9  A    between atoms: C23_32  and  O4_33 
ROOT
HETATM    1  C7  UNL     1      -0.053  52.145 -23.610  1.00  0.00     0.027 C 
HETATM    2  C8  UNL     1       0.243  52.657 -22.195  1.00  0.00     0.009 C 
HETATM    3  C9  UNL     1      -0.233  51.677 -21.117  1.00  0.00     0.010 C 
HETATM    4  C10 UNL     1      -1.548  50.910 -21.444  1.00  0.00    -0.033 C 
HETATM    5  C11 UNL     1      -1.195  49.476 -21.924  1.00  0.00     0.016 C 
HETATM    6  C12 UNL     1      -2.374  50.794 -20.116  1.00  0.00     0.058 C 
HETATM    7  C13 UNL     1      -3.768  50.353 -20.400  1.00  0.00     0.010 A 
HETATM    8  C14 UNL     1      -4.398  50.430 -21.623  1.00  0.00     0.029 A 
HETATM    9  N2  UNL     1      -5.670  49.896 -21.653  1.00  0.00    -0.339 N 
ATOM     10  H2  UNL     1      -6.264  49.833 -22.480  1.00  0.00     0.168 HD
HETATM   11  C15 UNL     1      -5.997  49.485 -20.456  1.00  0.00     0.151 A 
HETATM   12  S1  UNL     1      -4.816  49.688 -19.234  1.00  0.00    -0.056 SA
HETATM   13  C20 UNL     1      -3.748  50.973 -22.869  1.00  0.00     0.040 C 
HETATM   14  C21 UNL     1      -4.713  51.891 -23.630  1.00  0.00     0.017 C 
HETATM   15  C22 UNL     1      -2.390  51.692 -22.515  1.00  0.00     0.033 C 
HETATM   16  C23 UNL     1      -1.587  52.043 -23.799  1.00  0.00     0.128 C 
ENDROOT
BRANCH   1  17
HETATM   17  C5  UNL     1       0.667  53.002 -24.691  1.00  0.00     0.080 C 
HETATM   18  C6  UNL     1       0.826  54.476 -24.299  1.00  0.00     0.020 C 
BRANCH  17  19
HETATM   19  C4  UNL     1      -0.057  52.912 -26.037  1.00  0.00     0.222 C 
HETATM   20  N1  UNL     1      -0.263  51.632 -26.510  1.00  0.00    -0.359 N 
HETATM   21  H8  UNL     1      -0.083  50.853 -25.893  1.00  0.00     0.162 HD
HETATM   22  O2  UNL     1      -0.367  53.924 -26.659  1.00  0.00    -0.273 OA
BRANCH  20  23
HETATM   23  C3  UNL     1      -1.071  51.379 -27.693  1.00  0.00     0.148 C 
BRANCH  23  24
HETATM   24  C2  UNL     1      -2.537  51.089 -27.348  1.00  0.00     0.186 C 
BRANCH  24  25
HETATM   25  O1  UNL     1      -3.115  50.202 -28.304  1.00  0.00    -0.394 OA
HETATM   26  C1  UNL     1      -3.855  49.159 -27.683  1.00  0.00     0.201 C 
ENDBRANCH  24  25
ENDBRANCH  23  24
ENDBRANCH  20  23
ENDBRANCH  17  19
ENDBRANCH   1  17
BRANCH  16  27
HETATM   27  O4  UNL     1      -2.096  53.279 -24.302  1.00  0.00    -0.395 OA
HETATM   28  H38 UNL     1      -1.894  53.987 -23.664  1.00  0.00     0.210 HD
ENDBRANCH  16  27
BRANCH  11  29
HETATM   29  N3  UNL     1      -7.157  48.919 -20.012  1.00  0.00    -0.306 N 
HETATM   30  C16 UNL     1      -8.158  48.498 -20.868  1.00  0.00     0.252 C 
HETATM   31  O3  UNL     1      -8.103  48.492 -22.095  1.00  0.00    -0.271 OA
HETATM   32  H23 UNL     1      -7.248  48.820 -19.012  1.00  0.00     0.171 HD
BRANCH  30  33
HETATM   33  C17 UNL     1      -9.392  47.990 -20.101  1.00  0.00     0.373 C 
BRANCH  33  34
HETATM   34  N4  UNL     1      -9.196  47.814 -18.648  1.00  0.00     0.088 N 
HETATM   35  C18 UNL     1      -8.145  46.849 -18.333  1.00  0.00     0.310 C 
HETATM   36  C19 UNL     1      -8.964  49.082 -17.957  1.00  0.00     0.310 C 
ENDBRANCH  33  34
ENDBRANCH  30  33
ENDBRANCH  11  29
TORSDOF 9
ENDMDL
MODEL 7
REMARK minimizedAffinity -7.51150894
REMARK  9 active torsions:
REMARK  status: ('A' for Active; 'I' for Inactive)
REMARK    1  A    between atoms: O1_2  and  C2_3 
REMARK    2  A    between atoms: C2_3  and  C3_4 
REMARK    3  A    between atoms: C3_4  and  N1_5 
REMARK       I    between atoms: N1_5  and  C4_6 
REMARK    4  A    between atoms: C4_6  and  C5_8 
REMARK    5  A    between atoms: C5_8  and  C7_10 
REMARK    6  A    between atoms: C15_20  and  N3_21 
REMARK       I    between atoms: N3_21  and  C16_22 
REMARK    7  A    between atoms: C16_22  and  C17_24 
REMARK    8  A    between atoms: C17_24  and  N4_25 
REMARK    9  A    between atoms: C23_32  and  O4_33 
ROOT
HETATM    1  C7  UNL     1      -1.751  51.502 -22.654  1.00  0.00     0.027 C 
HETATM    2  C8  UNL     1      -1.397  50.015 -22.518  1.00  0.00     0.009 C 
HETATM    3  C9  UNL     1      -1.604  49.503 -21.089  1.00  0.00     0.010 C 
HETATM    4  C10 UNL     1      -1.274  50.521 -19.959  1.00  0.00    -0.033 C 
HETATM    5  C11 UNL     1      -2.597  51.135 -19.426  1.00  0.00     0.016 C 
HETATM    6  C12 UNL     1      -0.595  49.729 -18.788  1.00  0.00     0.058 C 
HETATM    7  C13 UNL     1       0.026  50.666 -17.810  1.00  0.00     0.010 A 
HETATM    8  C14 UNL     1       0.346  51.983 -18.056  1.00  0.00     0.029 A 
HETATM    9  N2  UNL     1       0.852  52.668 -16.970  1.00  0.00    -0.339 N 
ATOM     10  H2  UNL     1       1.105  53.656 -16.961  1.00  0.00     0.168 HD
HETATM   11  C15 UNL     1       0.958  51.852 -15.953  1.00  0.00     0.151 A 
HETATM   12  S1  UNL     1       0.451  50.239 -16.216  1.00  0.00    -0.056 SA
HETATM   13  C20 UNL     1       0.101  52.675 -19.371  1.00  0.00     0.040 C 
HETATM   14  C21 UNL     1       1.312  53.526 -19.772  1.00  0.00     0.017 C 
HETATM   15  C22 UNL     1      -0.289  51.626 -20.483  1.00  0.00     0.033 C 
HETATM   16  C23 UNL     1      -0.782  52.333 -21.776  1.00  0.00     0.128 C 
ENDROOT
BRANCH   1  17
HETATM   17  C5  UNL     1      -1.801  51.945 -24.144  1.00  0.00     0.080 C 
HETATM   18  C6  UNL     1      -3.097  52.671 -24.524  1.00  0.00     0.020 C 
BRANCH  17  19
HETATM   19  C4  UNL     1      -1.598  50.751 -25.080  1.00  0.00     0.222 C 
HETATM   20  N1  UNL     1      -2.712  49.958 -25.273  1.00  0.00    -0.359 N 
HETATM   21  H8  UNL     1      -3.604  50.288 -24.935  1.00  0.00     0.162 HD
HETATM   22  O2  UNL     1      -0.497  50.502 -25.562  1.00  0.00    -0.273 OA
BRANCH  20  23
HETATM   23  C3  UNL     1      -2.720  48.882 -26.251  1.00  0.00     0.148 C 
BRANCH  23  24
HETATM   24  C2  UNL     1      -3.528  49.238 -27.505  1.00  0.00     0.186 C 
BRANCH  24  25
HETATM   25  O1  UNL     1      -3.880  48.061 -28.230  1.00  0.00    -0.394 OA
HETATM   26  C1  UNL     1      -5.218  48.110 -28.709  1.00  0.00     0.201 C 
ENDBRANCH  24  25
ENDBRANCH  23  24
ENDBRANCH  20  23
ENDBRANCH  17  19
ENDBRANCH   1  17
BRANCH  16  27
HETATM   27  O4  UNL     1       0.373  52.692 -22.538  1.00  0.00    -0.395 OA
HETATM   28  H38 UNL     1       0.820  51.880 -22.836  1.00  0.00     0.210 HD
ENDBRANCH  16  27
BRANCH  11  29
HETATM   29  N3  UNL     1       1.430  52.082 -14.693  1.00  0.00    -0.306 N 
HETATM   30  C16 UNL     1       0.596  52.282 -13.608  1.00  0.00     0.252 C 
HETATM   31  O3  UNL     1      -0.629  52.194 -13.613  1.00  0.00    -0.271 OA
HETATM   32  H23 UNL     1       2.434  52.097 -14.591  1.00  0.00     0.171 HD
BRANCH  30  33
HETATM   33  C17 UNL     1       1.388  52.616 -12.330  1.00  0.00     0.373 C 
BRANCH  33  34
HETATM   34  N4  UNL     1       0.593  53.218 -11.242  1.00  0.00     0.088 N 
HETATM   35  C18 UNL     1       0.287  52.268 -10.175  1.00  0.00     0.310 C 
HETATM   36  C19 UNL     1       1.211  54.429 -10.701  1.00  0.00     0.310 C 
ENDBRANCH  33  34
ENDBRANCH  30  33
ENDBRANCH  11  29
TORSDOF 9
ENDMDL
MODEL 8
REMARK minimizedAffinity -7.43892765
REMARK  9 active torsions:
REMARK  status: ('A' for Active; 'I' for Inactive)
REMARK    1  A    between atoms: O1_2  and  C2_3 
REMARK    2  A    between atoms: C2_3  and  C3_4 
REMARK    3  A    between atoms: C3_4  and  N1_5 
REMARK       I    between atoms: N1_5  and  C4_6 
REMARK    4  A    between atoms: C4_6  and  C5_8 
REMARK    5  A    between atoms: C5_8  and  C7_10 
REMARK    6  A    between atoms: C15_20  and  N3_21 
REMARK       I    between atoms: N3_21  and  C16_22 
REMARK    7  A    between atoms: C16_22  and  C17_24 
REMARK    8  A    between atoms: C17_24  and  N4_25 
REMARK    9  A    between atoms: C23_32  and  O4_33 
ROOT
HETATM    1  C7  UNL     1      -2.837  50.143 -21.352  1.00  0.00     0.027 C 
HETATM    2  C8  UNL     1      -1.523  49.762 -22.047  1.00  0.00     0.009 C 
HETATM    3  C9  UNL     1      -1.557  50.064 -23.549  1.00  0.00     0.010 C 
HETATM    4  C10 UNL     1      -2.933  49.848 -24.243  1.00  0.00    -0.033 C 
HETATM    5  C11 UNL     1      -3.630  51.223 -24.431  1.00  0.00     0.016 C 
HETATM    6  C12 UNL     1      -2.660  49.238 -25.662  1.00  0.00     0.058 C 
HETATM    7  C13 UNL     1      -3.920  48.719 -26.264  1.00  0.00     0.010 A 
HETATM    8  C14 UNL     1      -5.071  48.415 -25.570  1.00  0.00     0.029 A 
HETATM    9  N2  UNL     1      -6.131  48.011 -26.357  1.00  0.00    -0.339 N 
ATOM     10  H2  UNL     1      -7.066  47.786 -26.017  1.00  0.00     0.168 HD
HETATM   11  C15 UNL     1      -5.750  47.961 -27.607  1.00  0.00     0.151 A 
HETATM   12  S1  UNL     1      -4.127  48.405 -27.925  1.00  0.00    -0.056 SA
HETATM   13  C20 UNL     1      -5.222  48.577 -24.080  1.00  0.00     0.040 C 
HETATM   14  C21 UNL     1      -5.930  47.362 -23.469  1.00  0.00     0.017 C 
HETATM   15  C22 UNL     1      -3.821  48.854 -23.411  1.00  0.00     0.033 C 
HETATM   16  C23 UNL     1      -3.980  49.265 -21.920  1.00  0.00     0.128 C 
ENDROOT
BRANCH   1  17
HETATM   17  C5  UNL     1      -2.702  50.092 -19.804  1.00  0.00     0.080 C 
HETATM   18  C6  UNL     1      -4.008  49.733 -19.086  1.00  0.00     0.020 C 
BRANCH  17  19
HETATM   19  C4  UNL     1      -2.171  51.418 -19.254  1.00  0.00     0.222 C 
HETATM   20  N1  UNL     1      -0.920  51.784 -19.705  1.00  0.00    -0.359 N 
HETATM   21  H8  UNL     1      -0.511  51.266 -20.469  1.00  0.00     0.162 HD
HETATM   22  O2  UNL     1      -2.808  52.060 -18.423  1.00  0.00    -0.273 OA
BRANCH  20  23
HETATM   23  C3  UNL     1      -0.350  53.087 -19.396  1.00  0.00     0.148 C 
BRANCH  23  24
HETATM   24  C2  UNL     1       1.184  53.071 -19.409  1.00  0.00     0.186 C 
BRANCH  24  25
HETATM   25  O1  UNL     1       1.694  54.186 -20.138  1.00  0.00    -0.394 OA
HETATM   26  C1  UNL     1       1.401  54.093 -21.526  1.00  0.00     0.201 C 
ENDBRANCH  24  25
ENDBRANCH  23  24
ENDBRANCH  20  23
ENDBRANCH  17  19
ENDBRANCH   1  17
BRANCH  16  27
HETATM   27  O4  UNL     1      -4.096  48.066 -21.152  1.00  0.00    -0.395 OA
HETATM   28  H38 UNL     1      -3.256  47.576 -21.201  1.00  0.00     0.210 HD
ENDBRANCH  16  27
BRANCH  11  29
HETATM   29  N3  UNL     1      -6.448  47.593 -28.720  1.00  0.00    -0.306 N 
HETATM   30  C16 UNL     1      -6.052  47.940 -29.999  1.00  0.00     0.252 C 
HETATM   31  O3  UNL     1      -5.015  48.525 -30.300  1.00  0.00    -0.271 OA
HETATM   32  H23 UNL     1      -7.278  47.043 -28.561  1.00  0.00     0.171 HD
BRANCH  30  33
HETATM   33  C17 UNL     1      -7.070  47.480 -31.059  1.00  0.00     0.373 C 
BRANCH  33  34
HETATM   34  N4  UNL     1      -6.971  46.058 -31.444  1.00  0.00     0.088 N 
HETATM   35  C18 UNL     1      -5.595  45.635 -31.693  1.00  0.00     0.310 C 
HETATM   36  C19 UNL     1      -7.622  45.170 -30.480  1.00  0.00     0.310 C 
ENDBRANCH  33  34
ENDBRANCH  30  33
ENDBRANCH  11  29
TORSDOF 9
ENDMDL
MODEL 9
REMARK minimizedAffinity -7.41565228
REMARK  9 active torsions:
REMARK  status: ('A' for Active; 'I' for Inactive)
REMARK    1  A    between atoms: O1_2  and  C2_3 
REMARK    2  A    between atoms: C2_3  and  C3_4 
REMARK    3  A    between atoms: C3_4  and  N1_5 
REMARK       I    between atoms: N1_5  and  C4_6 
REMARK    4  A    between atoms: C4_6  and  C5_8 
REMARK    5  A    between atoms: C5_8  and  C7_10 
REMARK    6  A    between atoms: C15_20  and  N3_21 
REMARK       I    between atoms: N3_21  and  C16_22 
REMARK    7  A    between atoms: C16_22  and  C17_24 
REMARK    8  A    between atoms: C17_24  and  N4_25 
REMARK    9  A    between atoms: C23_32  and  O4_33 
ROOT
HETATM    1  C7  UNL     1      -1.201  51.845 -23.925  1.00  0.00     0.027 C 
HETATM    2  C8  UNL     1      -1.128  50.314 -23.869  1.00  0.00     0.009 C 
HETATM    3  C9  UNL     1      -1.697  49.757 -22.561  1.00  0.00     0.010 C 
HETATM    4  C10 UNL     1      -1.440  50.628 -21.296  1.00  0.00    -0.033 C 
HETATM    5  C11 UNL     1      -2.724  51.434 -20.962  1.00  0.00     0.016 C 
HETATM    6  C12 UNL     1      -1.146  49.655 -20.101  1.00  0.00     0.058 C 
HETATM    7  C13 UNL     1      -0.590  50.403 -18.938  1.00  0.00     0.010 A 
HETATM    8  C14 UNL     1      -0.016  51.655 -18.993  1.00  0.00     0.029 A 
HETATM    9  N2  UNL     1       0.367  52.169 -17.770  1.00  0.00    -0.339 N 
ATOM     10  H2  UNL     1       0.770  53.094 -17.620  1.00  0.00     0.168 HD
HETATM   11  C15 UNL     1       0.133  51.286 -16.835  1.00  0.00     0.151 A 
HETATM   12  S1  UNL     1      -0.567  49.809 -17.342  1.00  0.00    -0.056 SA
HETATM   13  C20 UNL     1       0.123  52.461 -20.258  1.00  0.00     0.040 C 
HETATM   14  C21 UNL     1       1.511  53.106 -20.343  1.00  0.00     0.017 C 
HETATM   15  C22 UNL     1      -0.202  51.570 -21.518  1.00  0.00     0.033 C 
HETATM   16  C23 UNL     1      -0.305  52.433 -22.807  1.00  0.00     0.128 C 
ENDROOT
BRANCH   1  17
HETATM   17  C5  UNL     1      -0.880  52.382 -25.349  1.00  0.00     0.080 C 
HETATM   18  C6  UNL     1      -0.451  53.855 -25.366  1.00  0.00     0.020 C 
BRANCH  17  19
HETATM   19  C4  UNL     1      -2.072  52.192 -26.291  1.00  0.00     0.222 C 
HETATM   20  N1  UNL     1      -1.942  51.166 -27.204  1.00  0.00    -0.359 N 
HETATM   21  H8  UNL     1      -1.176  50.518 -27.097  1.00  0.00     0.162 HD
HETATM   22  O2  UNL     1      -3.036  52.952 -26.255  1.00  0.00    -0.273 OA
BRANCH  20  23
HETATM   23  C3  UNL     1      -3.049  50.763 -28.058  1.00  0.00     0.148 C 
BRANCH  23  24
HETATM   24  C2  UNL     1      -3.637  49.406 -27.650  1.00  0.00     0.186 C 
BRANCH  24  25
HETATM   25  O1  UNL     1      -4.159  49.461 -26.324  1.00  0.00    -0.394 OA
HETATM   26  C1  UNL     1      -3.706  48.373 -25.528  1.00  0.00     0.201 C 
ENDBRANCH  24  25
ENDBRANCH  23  24
ENDBRANCH  20  23
ENDBRANCH  17  19
ENDBRANCH   1  17
BRANCH  16  27
HETATM   27  O4  UNL     1       1.021  52.628 -23.302  1.00  0.00    -0.395 OA
HETATM   28  H38 UNL     1       1.381  51.769 -23.589  1.00  0.00     0.210 HD
ENDBRANCH  16  27
BRANCH  11  29
HETATM   29  N3  UNL     1       0.375  51.348 -15.493  1.00  0.00    -0.306 N 
HETATM   30  C16 UNL     1       1.628  51.615 -14.972  1.00  0.00     0.252 C 
HETATM   31  O3  UNL     1       2.631  51.909 -15.617  1.00  0.00    -0.271 OA
HETATM   32  H23 UNL     1      -0.419  51.191 -14.892  1.00  0.00     0.171 HD
BRANCH  30  33
HETATM   33  C17 UNL     1       1.638  51.530 -13.434  1.00  0.00     0.373 C 
BRANCH  33  34
HETATM   34  N4  UNL     1       2.980  51.561 -12.816  1.00  0.00     0.088 N 
HETATM   35  C18 UNL     1       2.988  52.235 -11.520  1.00  0.00     0.310 C 
HETATM   36  C19 UNL     1       3.580  50.230 -12.716  1.00  0.00     0.310 C 
ENDBRANCH  33  34
ENDBRANCH  30  33
ENDBRANCH  11  29
TORSDOF 9
ENDMDL
