MODEL 1
REMARK minimizedAffinity -9.21048546
REMARK CNNscore 0.598819911
REMARK CNNaffinity 6.75366402
REMARK  8 active torsions:
REMARK  status: ('A' for Active; 'I' for Inactive)
REMARK    1  A    between atoms: C4_4  and  C5_5 
REMARK    2  A    between atoms: C5_5  and  C6_6 
REMARK    3  A    between atoms: C6_6  and  C7_7 
REMARK    4  A    between atoms: C7_7  and  C9_9 
REMARK    5  A    between atoms: C25_26  and  C27_28 
REMARK    6  A    between atoms: C27_28  and  O3_30 
REMARK    7  A    between atoms: C28_31  and  O4_32 
REMARK    8  A    between atoms: C30_34  and  O5_35 
ROOT
HETATM    1  C9  UNL     1      -5.739   6.456  14.984  1.00  0.00    -0.002 C 
HETATM    2  C10 UNL     1      -5.963   5.162  14.150  1.00  0.00     0.007 C 
HETATM    3  C11 UNL     1      -4.713   4.964  13.272  1.00  0.00     0.015 C 
HETATM    4  C12 UNL     1      -3.639   5.887  13.881  1.00  0.00    -0.005 C 
HETATM    5  C13 UNL     1      -3.013   5.123  15.091  1.00  0.00     0.021 C 
HETATM    6  C14 UNL     1      -2.436   6.337  13.056  1.00  0.00    -0.000 C 
HETATM    7  C15 UNL     1      -1.824   7.528  13.296  1.00  0.00    -0.058 C 
HETATM    8  C16 UNL     1      -2.383   8.486  14.365  1.00  0.00     0.036 C 
HETATM    9  C17 UNL     1      -3.675   8.076  15.098  1.00  0.00     0.015 C 
HETATM   10  C18 UNL     1      -4.538   7.136  14.255  1.00  0.00    -0.028 C 
HETATM   11  C19 UNL     1      -5.024   7.920  13.002  1.00  0.00     0.016 C 
HETATM   12  C20 UNL     1      -0.579   8.036  12.497  1.00  0.00     0.011 C 
HETATM   13  C21 UNL     1      -1.150   9.002  11.431  1.00  0.00     0.023 C 
HETATM   14  C22 UNL     1       0.167   6.805  11.884  1.00  0.00     0.029 C 
HETATM   15  C23 UNL     1      -0.787   5.888  11.115  1.00  0.00     0.090 C 
HETATM   16  C24 UNL     1      -1.925   5.423  11.985  1.00  0.00     0.157 C 
HETATM   17  O1  UNL     1      -2.447   4.328  11.771  1.00  0.00    -0.293 OA
HETATM   18  C25 UNL     1       1.503   7.107  11.100  1.00  0.00     0.072 C 
HETATM   19  C26 UNL     1       2.494   5.942  11.382  1.00  0.00     0.030 C 
HETATM   20  C28 UNL     1       2.128   8.460  11.537  1.00  0.00     0.139 C 
HETATM   21  C29 UNL     1       1.914   8.738  13.020  1.00  0.00     0.065 C 
HETATM   22  C30 UNL     1       0.442   8.766  13.447  1.00  0.00     0.133 C 
ENDROOT
BRANCH   1  23
HETATM   23  C7  UNL     1      -7.076   7.176  15.335  1.00  0.00    -0.014 C 
HETATM   24  C8  UNL     1      -7.495   7.150  16.812  1.00  0.00     0.010 C 
BRANCH  23  25
HETATM   25  C6  UNL     1      -8.300   6.770  14.475  1.00  0.00     0.008 C 
BRANCH  25  26
HETATM   26  C5  UNL     1      -9.544   7.660  14.629  1.00  0.00     0.028 C 
BRANCH  26  27
HETATM   27  C4  UNL     1     -10.846   6.914  14.657  1.00  0.00    -0.025 C 
HETATM   28  C2  UNL     1     -11.948   7.134  13.912  1.00  0.00    -0.091 C 
HETATM   29  C1  UNL     1     -12.098   8.216  12.879  1.00  0.00     0.042 C 
HETATM   30  C3  UNL     1     -13.161   6.252  14.060  1.00  0.00     0.042 C 
ENDBRANCH  26  27
ENDBRANCH  25  26
ENDBRANCH  23  25
ENDBRANCH   1  23
BRANCH  22  31
HETATM   31  O5  UNL     1       0.069  10.126  13.694  1.00  0.00    -0.394 OA
HETATM   32  H46 UNL     1       0.208  10.646  12.883  1.00  0.00     0.210 HD
ENDBRANCH  22  31
BRANCH  18  33
HETATM   33  C27 UNL     1       1.295   7.135   9.582  1.00  0.00     0.151 C 
HETATM   34  O2  UNL     1       0.696   7.973   8.930  1.00  0.00    -0.649 OA
BRANCH  33  35
HETATM   35  O3  UNL     1       1.903   6.128   8.926  1.00  0.00    -0.776 OA
HETATM   36  H40 UNL     1       1.668   6.298   7.987  1.00  0.00     0.167 HD
ENDBRANCH  33  35
ENDBRANCH  18  33
BRANCH  20  37
HETATM   37  O4  UNL     1       3.534   8.477  11.275  1.00  0.00    -0.394 OA
HETATM   38  H42 UNL     1       3.866   9.373  11.465  1.00  0.00     0.210 HD
ENDBRANCH  20  37
TORSDOF 8
ENDMDL
MODEL 2
REMARK minimizedAffinity -7.21060228
REMARK CNNscore 0.584323704
REMARK CNNaffinity 5.9577117
REMARK  8 active torsions:
REMARK  status: ('A' for Active; 'I' for Inactive)
REMARK    1  A    between atoms: C4_4  and  C5_5 
REMARK    2  A    between atoms: C5_5  and  C6_6 
REMARK    3  A    between atoms: C6_6  and  C7_7 
REMARK    4  A    between atoms: C7_7  and  C9_9 
REMARK    5  A    between atoms: C25_26  and  C27_28 
REMARK    6  A    between atoms: C27_28  and  O3_30 
REMARK    7  A    between atoms: C28_31  and  O4_32 
REMARK    8  A    between atoms: C30_34  and  O5_35 
ROOT
HETATM    1  C9  UNL     1     -17.697   3.302  14.305  1.00  0.00    -0.002 C 
HETATM    2  C10 UNL     1     -17.651   3.207  15.857  1.00  0.00     0.007 C 
HETATM    3  C11 UNL     1     -16.983   1.864  16.211  1.00  0.00     0.015 C 
HETATM    4  C12 UNL     1     -16.304   1.393  14.910  1.00  0.00    -0.005 C 
HETATM    5  C13 UNL     1     -14.937   2.142  14.810  1.00  0.00     0.021 C 
HETATM    6  C14 UNL     1     -15.944  -0.076  14.703  1.00  0.00    -0.000 C 
HETATM    7  C15 UNL     1     -15.908  -0.623  13.458  1.00  0.00    -0.058 C 
HETATM    8  C16 UNL     1     -16.303   0.217  12.229  1.00  0.00     0.036 C 
HETATM    9  C17 UNL     1     -16.790   1.660  12.467  1.00  0.00     0.015 C 
HETATM   10  C18 UNL     1     -17.402   1.836  13.857  1.00  0.00    -0.028 C 
HETATM   11  C19 UNL     1     -18.688   0.964  13.933  1.00  0.00     0.016 C 
HETATM   12  C20 UNL     1     -15.531  -2.116  13.181  1.00  0.00     0.011 C 
HETATM   13  C21 UNL     1     -16.883  -2.852  13.027  1.00  0.00     0.023 C 
HETATM   14  C22 UNL     1     -14.665  -2.649  14.370  1.00  0.00     0.029 C 
HETATM   15  C23 UNL     1     -15.324  -2.370  15.722  1.00  0.00     0.090 C 
HETATM   16  C24 UNL     1     -15.606  -0.902  15.906  1.00  0.00     0.157 C 
HETATM   17  O1  UNL     1     -15.606  -0.419  17.038  1.00  0.00    -0.293 OA
HETATM   18  C25 UNL     1     -14.117  -4.123  14.240  1.00  0.00     0.072 C 
HETATM   19  C26 UNL     1     -12.696  -4.161  14.871  1.00  0.00     0.030 C 
HETATM   20  C28 UNL     1     -14.057  -4.581  12.757  1.00  0.00     0.139 C 
HETATM   21  C29 UNL     1     -13.693  -3.437  11.818  1.00  0.00     0.065 C 
HETATM   22  C30 UNL     1     -14.654  -2.245  11.879  1.00  0.00     0.133 C 
ENDROOT
BRANCH   1  23
HETATM   23  C7  UNL     1     -18.903   4.149  13.798  1.00  0.00    -0.014 C 
HETATM   24  C8  UNL     1     -19.374   3.869  12.363  1.00  0.00     0.010 C 
BRANCH  23  25
HETATM   25  C6  UNL     1     -18.765   5.683  13.974  1.00  0.00     0.008 C 
BRANCH  25  26
HETATM   26  C5  UNL     1     -17.554   6.325  13.276  1.00  0.00     0.028 C 
BRANCH  26  27
HETATM   27  C4  UNL     1     -16.225   5.953  13.866  1.00  0.00    -0.025 C 
HETATM   28  C2  UNL     1     -15.013   6.471  13.581  1.00  0.00    -0.091 C 
HETATM   29  C1  UNL     1     -14.746   7.554  12.573  1.00  0.00     0.042 C 
HETATM   30  C3  UNL     1     -13.784   5.987  14.306  1.00  0.00     0.042 C 
ENDBRANCH  26  27
ENDBRANCH  25  26
ENDBRANCH  23  25
ENDBRANCH   1  23
BRANCH  22  31
HETATM   31  O5  UNL     1     -15.452  -2.246  10.691  1.00  0.00    -0.394 OA
HETATM   32  H46 UNL     1     -15.940  -3.085  10.637  1.00  0.00     0.210 HD
ENDBRANCH  22  31
BRANCH  18  33
HETATM   33  C27 UNL     1     -14.962  -5.132  15.026  1.00  0.00     0.151 C 
HETATM   34  O2  UNL     1     -16.028  -5.623  14.697  1.00  0.00    -0.649 OA
BRANCH  33  35
HETATM   35  O3  UNL     1     -14.403  -5.532  16.183  1.00  0.00    -0.776 OA
HETATM   36  H40 UNL     1     -15.065  -6.159  16.548  1.00  0.00     0.167 HD
ENDBRANCH  33  35
ENDBRANCH  18  33
BRANCH  20  37
HETATM   37  O4  UNL     1     -13.094  -5.626  12.587  1.00  0.00    -0.394 OA
HETATM   38  H42 UNL     1     -13.161  -5.953  11.672  1.00  0.00     0.210 HD
ENDBRANCH  20  37
TORSDOF 8
ENDMDL
MODEL 3
REMARK minimizedAffinity -6.93713045
REMARK CNNscore 0.56192261
REMARK CNNaffinity 6.23620749
REMARK  8 active torsions:
REMARK  status: ('A' for Active; 'I' for Inactive)
REMARK    1  A    between atoms: C4_4  and  C5_5 
REMARK    2  A    between atoms: C5_5  and  C6_6 
REMARK    3  A    between atoms: C6_6  and  C7_7 
REMARK    4  A    between atoms: C7_7  and  C9_9 
REMARK    5  A    between atoms: C25_26  and  C27_28 
REMARK    6  A    between atoms: C27_28  and  O3_30 
REMARK    7  A    between atoms: C28_31  and  O4_32 
REMARK    8  A    between atoms: C30_34  and  O5_35 
ROOT
HETATM    1  C9  UNL     1     -17.820   3.300  14.334  1.00  0.00    -0.002 C 
HETATM    2  C10 UNL     1     -17.719   3.219  15.885  1.00  0.00     0.007 C 
HETATM    3  C11 UNL     1     -17.013   1.892  16.226  1.00  0.00     0.015 C 
HETATM    4  C12 UNL     1     -16.369   1.424  14.906  1.00  0.00    -0.005 C 
HETATM    5  C13 UNL     1     -15.021   2.199  14.754  1.00  0.00     0.021 C 
HETATM    6  C14 UNL     1     -15.987  -0.039  14.698  1.00  0.00    -0.000 C 
HETATM    7  C15 UNL     1     -15.983  -0.596  13.457  1.00  0.00    -0.058 C 
HETATM    8  C16 UNL     1     -16.435   0.226  12.236  1.00  0.00     0.036 C 
HETATM    9  C17 UNL     1     -16.943   1.661  12.479  1.00  0.00     0.015 C 
HETATM   10  C18 UNL     1     -17.511   1.837  13.888  1.00  0.00    -0.028 C 
HETATM   11  C19 UNL     1     -18.776   0.941  14.014  1.00  0.00     0.016 C 
HETATM   12  C20 UNL     1     -15.585  -2.083  13.179  1.00  0.00     0.011 C 
HETATM   13  C21 UNL     1     -16.927  -2.847  13.077  1.00  0.00     0.023 C 
HETATM   14  C22 UNL     1     -14.669  -2.590  14.342  1.00  0.00     0.029 C 
HETATM   15  C23 UNL     1     -15.288  -2.313  15.714  1.00  0.00     0.090 C 
HETATM   16  C24 UNL     1     -15.593  -0.849  15.895  1.00  0.00     0.157 C 
HETATM   17  O1  UNL     1     -15.564  -0.356  17.023  1.00  0.00    -0.293 OA
HETATM   18  C25 UNL     1     -14.097  -4.054  14.204  1.00  0.00     0.072 C 
HETATM   19  C26 UNL     1     -12.655  -4.058  14.787  1.00  0.00     0.030 C 
HETATM   20  C28 UNL     1     -14.078  -4.523  12.723  1.00  0.00     0.139 C 
HETATM   21  C29 UNL     1     -13.769  -3.380  11.764  1.00  0.00     0.065 C 
HETATM   22  C30 UNL     1     -14.750  -2.205  11.849  1.00  0.00     0.133 C 
ENDROOT
BRANCH   1  23
HETATM   23  C7  UNL     1     -19.059   4.119  13.862  1.00  0.00    -0.014 C 
HETATM   24  C8  UNL     1     -20.341   3.951  14.692  1.00  0.00     0.010 C 
BRANCH  23  25
HETATM   25  C6  UNL     1     -19.427   3.973  12.364  1.00  0.00     0.008 C 
BRANCH  25  26
HETATM   26  C5  UNL     1     -20.801   3.344  12.076  1.00  0.00     0.028 C 
BRANCH  26  27
HETATM   27  C4  UNL     1     -21.034   2.987  10.637  1.00  0.00    -0.025 C 
HETATM   28  C2  UNL     1     -20.740   1.832  10.007  1.00  0.00    -0.091 C 
HETATM   29  C1  UNL     1     -20.087   0.636  10.645  1.00  0.00     0.042 C 
HETATM   30  C3  UNL     1     -21.080   1.645   8.552  1.00  0.00     0.042 C 
ENDBRANCH  26  27
ENDBRANCH  25  26
ENDBRANCH  23  25
ENDBRANCH   1  23
BRANCH  22  31
HETATM   31  O5  UNL     1     -15.588  -2.232  10.689  1.00  0.00    -0.394 OA
HETATM   32  H46 UNL     1     -16.061  -3.082  10.658  1.00  0.00     0.210 HD
ENDBRANCH  22  31
BRANCH  18  33
HETATM   33  C27 UNL     1     -14.895  -5.072  15.026  1.00  0.00     0.151 C 
HETATM   34  O2  UNL     1     -15.964  -5.582  14.741  1.00  0.00    -0.649 OA
BRANCH  33  35
HETATM   35  O3  UNL     1     -14.285  -5.458  16.163  1.00  0.00    -0.776 OA
HETATM   36  H40 UNL     1     -14.922  -6.094  16.555  1.00  0.00     0.167 HD
ENDBRANCH  33  35
ENDBRANCH  18  33
BRANCH  20  37
HETATM   37  O4  UNL     1     -13.100  -5.549  12.529  1.00  0.00    -0.394 OA
HETATM   38  H42 UNL     1     -13.192  -5.885  11.619  1.00  0.00     0.210 HD
ENDBRANCH  20  37
TORSDOF 8
ENDMDL
MODEL 4
REMARK minimizedAffinity -8.70582294
REMARK CNNscore 0.560126662
REMARK CNNaffinity 6.94842529
REMARK  8 active torsions:
REMARK  status: ('A' for Active; 'I' for Inactive)
REMARK    1  A    between atoms: C4_4  and  C5_5 
REMARK    2  A    between atoms: C5_5  and  C6_6 
REMARK    3  A    between atoms: C6_6  and  C7_7 
REMARK    4  A    between atoms: C7_7  and  C9_9 
REMARK    5  A    between atoms: C25_26  and  C27_28 
REMARK    6  A    between atoms: C27_28  and  O3_30 
REMARK    7  A    between atoms: C28_31  and  O4_32 
REMARK    8  A    between atoms: C30_34  and  O5_35 
ROOT
HETATM    1  C9  UNL     1      -5.934   6.751  14.670  1.00  0.00    -0.002 C 
HETATM    2  C10 UNL     1      -5.689   8.026  15.527  1.00  0.00     0.007 C 
HETATM    3  C11 UNL     1      -4.231   8.462  15.287  1.00  0.00     0.015 C 
HETATM    4  C12 UNL     1      -3.782   7.700  14.024  1.00  0.00    -0.005 C 
HETATM    5  C13 UNL     1      -4.312   8.503  12.793  1.00  0.00     0.021 C 
HETATM    6  C14 UNL     1      -2.300   7.487  13.725  1.00  0.00    -0.000 C 
HETATM    7  C15 UNL     1      -1.873   6.401  13.026  1.00  0.00    -0.058 C 
HETATM    8  C16 UNL     1      -2.875   5.321  12.581  1.00  0.00     0.036 C 
HETATM    9  C17 UNL     1      -4.348   5.484  13.004  1.00  0.00     0.015 C 
HETATM   10  C18 UNL     1      -4.488   6.307  14.285  1.00  0.00    -0.028 C 
HETATM   11  C19 UNL     1      -3.827   5.509  15.446  1.00  0.00     0.016 C 
HETATM   12  C20 UNL     1      -0.372   6.137  12.673  1.00  0.00     0.011 C 
HETATM   13  C21 UNL     1       0.125   5.138  13.747  1.00  0.00     0.023 C 
HETATM   14  C22 UNL     1       0.400   7.498  12.687  1.00  0.00     0.029 C 
HETATM   15  C23 UNL     1       0.148   8.281  13.978  1.00  0.00     0.090 C 
HETATM   16  C24 UNL     1      -1.322   8.517  14.200  1.00  0.00     0.157 C 
HETATM   17  O1  UNL     1      -1.692   9.521  14.811  1.00  0.00    -0.293 OA
HETATM   18  C25 UNL     1       1.924   7.451  12.278  1.00  0.00     0.072 C 
HETATM   19  C26 UNL     1       2.243   8.747  11.482  1.00  0.00     0.030 C 
HETATM   20  C28 UNL     1       2.245   6.199  11.416  1.00  0.00     0.139 C 
HETATM   21  C29 UNL     1       1.090   5.826  10.494  1.00  0.00     0.065 C 
HETATM   22  C30 UNL     1      -0.228   5.541  11.223  1.00  0.00     0.133 C 
ENDROOT
BRANCH   1  23
HETATM   23  C7  UNL     1      -7.004   5.810  15.300  1.00  0.00    -0.014 C 
HETATM   24  C8  UNL     1      -7.668   4.803  14.349  1.00  0.00     0.010 C 
BRANCH  23  25
HETATM   25  C6  UNL     1      -8.118   6.514  16.117  1.00  0.00     0.008 C 
BRANCH  25  26
HETATM   26  C5  UNL     1      -9.322   7.016  15.303  1.00  0.00     0.028 C 
BRANCH  26  27
HETATM   27  C4  UNL     1      -9.310   8.489  15.016  1.00  0.00    -0.025 C 
HETATM   28  C2  UNL     1      -9.823   9.487  15.762  1.00  0.00    -0.091 C 
HETATM   29  C1  UNL     1     -10.544   9.312  17.071  1.00  0.00     0.042 C 
HETATM   30  C3  UNL     1      -9.686  10.921  15.322  1.00  0.00     0.042 C 
ENDBRANCH  26  27
ENDBRANCH  25  26
ENDBRANCH  23  25
ENDBRANCH   1  23
BRANCH  22  31
HETATM   31  O5  UNL     1      -0.464   4.130  11.196  1.00  0.00    -0.394 OA
HETATM   32  H46 UNL     1       0.280   3.675  11.628  1.00  0.00     0.210 HD
ENDBRANCH  22  31
BRANCH  18  33
HETATM   33  C27 UNL     1       2.855   7.454  13.495  1.00  0.00     0.151 C 
HETATM   34  O2  UNL     1       2.541   7.393  14.671  1.00  0.00    -0.649 OA
BRANCH  33  35
HETATM   35  O3  UNL     1       4.165   7.479  13.184  1.00  0.00    -0.776 OA
HETATM   36  H40 UNL     1       4.605   7.480  14.062  1.00  0.00     0.167 HD
ENDBRANCH  33  35
ENDBRANCH  18  33
BRANCH  20  37
HETATM   37  O4  UNL     1       3.408   6.422  10.613  1.00  0.00    -0.394 OA
HETATM   38  H42 UNL     1       3.633   5.584  10.170  1.00  0.00     0.210 HD
ENDBRANCH  20  37
TORSDOF 8
ENDMDL
MODEL 5
REMARK minimizedAffinity -9.35388947
REMARK CNNscore 0.548556924
REMARK CNNaffinity 7.00905085
REMARK  8 active torsions:
REMARK  status: ('A' for Active; 'I' for Inactive)
REMARK    1  A    between atoms: C4_4  and  C5_5 
REMARK    2  A    between atoms: C5_5  and  C6_6 
REMARK    3  A    between atoms: C6_6  and  C7_7 
REMARK    4  A    between atoms: C7_7  and  C9_9 
REMARK    5  A    between atoms: C25_26  and  C27_28 
REMARK    6  A    between atoms: C27_28  and  O3_30 
REMARK    7  A    between atoms: C28_31  and  O4_32 
REMARK    8  A    between atoms: C30_34  and  O5_35 
ROOT
HETATM    1  C9  UNL     1      -6.046   6.981  14.330  1.00  0.00    -0.002 C 
HETATM    2  C10 UNL     1      -5.868   8.262  15.195  1.00  0.00     0.007 C 
HETATM    3  C11 UNL     1      -4.391   8.686  15.083  1.00  0.00     0.015 C 
HETATM    4  C12 UNL     1      -3.837   7.909  13.872  1.00  0.00    -0.005 C 
HETATM    5  C13 UNL     1      -4.249   8.704  12.592  1.00  0.00     0.021 C 
HETATM    6  C14 UNL     1      -2.336   7.684  13.709  1.00  0.00    -0.000 C 
HETATM    7  C15 UNL     1      -1.856   6.589  13.060  1.00  0.00    -0.058 C 
HETATM    8  C16 UNL     1      -2.823   5.511  12.536  1.00  0.00     0.036 C 
HETATM    9  C17 UNL     1      -4.326   5.688  12.824  1.00  0.00     0.015 C 
HETATM   10  C18 UNL     1      -4.575   6.523  14.081  1.00  0.00    -0.028 C 
HETATM   11  C19 UNL     1      -4.026   5.732  15.303  1.00  0.00     0.016 C 
HETATM   12  C20 UNL     1      -0.332   6.311  12.846  1.00  0.00     0.011 C 
HETATM   13  C21 UNL     1       0.059   5.319  13.968  1.00  0.00     0.023 C 
HETATM   14  C22 UNL     1       0.446   7.667  12.918  1.00  0.00     0.029 C 
HETATM   15  C23 UNL     1       0.086   8.463  14.173  1.00  0.00     0.090 C 
HETATM   16  C24 UNL     1      -1.397   8.711  14.261  1.00  0.00     0.157 C 
HETATM   17  O1  UNL     1      -1.813   9.723  14.828  1.00  0.00    -0.293 OA
HETATM   18  C25 UNL     1       2.000   7.605  12.647  1.00  0.00     0.072 C 
HETATM   19  C26 UNL     1       2.399   8.892  11.872  1.00  0.00     0.030 C 
HETATM   20  C28 UNL     1       2.388   6.344  11.828  1.00  0.00     0.139 C 
HETATM   21  C29 UNL     1       1.317   5.970  10.810  1.00  0.00     0.065 C 
HETATM   22  C30 UNL     1      -0.063   5.701  11.419  1.00  0.00     0.133 C 
ENDROOT
BRANCH   1  23
HETATM   23  C7  UNL     1      -7.175   6.052  14.870  1.00  0.00    -0.014 C 
HETATM   24  C8  UNL     1      -7.447   6.120  16.380  1.00  0.00     0.010 C 
BRANCH  23  25
HETATM   25  C6  UNL     1      -7.068   4.561  14.462  1.00  0.00     0.008 C 
BRANCH  25  26
HETATM   26  C5  UNL     1      -7.299   4.263  12.970  1.00  0.00     0.028 C 
BRANCH  26  27
HETATM   27  C4  UNL     1      -6.968   2.859  12.557  1.00  0.00    -0.025 C 
HETATM   28  C2  UNL     1      -6.160   2.453  11.557  1.00  0.00    -0.091 C 
HETATM   29  C1  UNL     1      -5.414   3.362  10.619  1.00  0.00     0.042 C 
HETATM   30  C3  UNL     1      -5.922   0.986  11.311  1.00  0.00     0.042 C 
ENDBRANCH  26  27
ENDBRANCH  25  26
ENDBRANCH  23  25
ENDBRANCH   1  23
BRANCH  22  31
HETATM   31  O5  UNL     1      -0.306   4.291  11.383  1.00  0.00    -0.394 OA
HETATM   32  H46 UNL     1       0.393   3.835  11.884  1.00  0.00     0.210 HD
ENDBRANCH  22  31
BRANCH  18  33
HETATM   33  C27 UNL     1       2.818   7.614  13.943  1.00  0.00     0.151 C 
HETATM   34  O2  UNL     1       3.629   8.449  14.303  1.00  0.00    -0.649 OA
BRANCH  33  35
HETATM   35  O3  UNL     1       2.543   6.590  14.773  1.00  0.00    -0.776 OA
HETATM   36  H40 UNL     1       3.145   6.748  15.533  1.00  0.00     0.167 HD
ENDBRANCH  33  35
ENDBRANCH  18  33
BRANCH  20  37
HETATM   37  O4  UNL     1       3.619   6.551  11.130  1.00  0.00    -0.394 OA
HETATM   38  H42 UNL     1       3.877   5.708  10.716  1.00  0.00     0.210 HD
ENDBRANCH  20  37
TORSDOF 8
ENDMDL
MODEL 6
REMARK minimizedAffinity -6.86294556
REMARK CNNscore 0.478074491
REMARK CNNaffinity 6.65415049
REMARK  8 active torsions:
REMARK  status: ('A' for Active; 'I' for Inactive)
REMARK    1  A    between atoms: C4_4  and  C5_5 
REMARK    2  A    between atoms: C5_5  and  C6_6 
REMARK    3  A    between atoms: C6_6  and  C7_7 
REMARK    4  A    between atoms: C7_7  and  C9_9 
REMARK    5  A    between atoms: C25_26  and  C27_28 
REMARK    6  A    between atoms: C27_28  and  O3_30 
REMARK    7  A    between atoms: C28_31  and  O4_32 
REMARK    8  A    between atoms: C30_34  and  O5_35 
ROOT
HETATM    1  C9  UNL     1     -11.385  16.235   2.320  1.00  0.00    -0.002 C 
HETATM    2  C10 UNL     1     -10.273  16.615   1.300  1.00  0.00     0.007 C 
HETATM    3  C11 UNL     1     -10.508  15.769   0.034  1.00  0.00     0.015 C 
HETATM    4  C12 UNL     1     -11.943  15.223   0.172  1.00  0.00    -0.005 C 
HETATM    5  C13 UNL     1     -12.911  16.353  -0.302  1.00  0.00     0.021 C 
HETATM    6  C14 UNL     1     -12.389  13.992  -0.613  1.00  0.00    -0.000 C 
HETATM    7  C15 UNL     1     -13.352  13.160  -0.130  1.00  0.00    -0.058 C 
HETATM    8  C16 UNL     1     -13.964  13.407   1.261  1.00  0.00     0.036 C 
HETATM    9  C17 UNL     1     -13.410  14.577   2.096  1.00  0.00     0.015 C 
HETATM   10  C18 UNL     1     -11.965  14.913   1.725  1.00  0.00    -0.028 C 
HETATM   11  C19 UNL     1     -11.073  13.697   2.105  1.00  0.00     0.016 C 
HETATM   12  C20 UNL     1     -13.862  11.894  -0.894  1.00  0.00     0.011 C 
HETATM   13  C21 UNL     1     -13.091  10.707  -0.269  1.00  0.00     0.023 C 
HETATM   14  C22 UNL     1     -13.586  12.079  -2.424  1.00  0.00     0.029 C 
HETATM   15  C23 UNL     1     -12.134  12.477  -2.694  1.00  0.00     0.090 C 
HETATM   16  C24 UNL     1     -11.757  13.729  -1.945  1.00  0.00     0.157 C 
HETATM   17  O1  UNL     1     -10.904  14.484  -2.412  1.00  0.00    -0.293 OA
HETATM   18  C25 UNL     1     -14.102  10.933  -3.378  1.00  0.00     0.072 C 
HETATM   19  C26 UNL     1     -14.595  11.597  -4.695  1.00  0.00     0.030 C 
HETATM   20  C28 UNL     1     -15.254  10.121  -2.724  1.00  0.00     0.139 C 
HETATM   21  C29 UNL     1     -16.152  10.995  -1.858  1.00  0.00     0.065 C 
HETATM   22  C30 UNL     1     -15.419  11.722  -0.726  1.00  0.00     0.133 C 
ENDROOT
BRANCH   1  23
HETATM   23  C7  UNL     1     -10.918  16.402   3.797  1.00  0.00    -0.014 C 
HETATM   24  C8  UNL     1     -11.575  17.539   4.593  1.00  0.00     0.010 C 
BRANCH  23  25
HETATM   25  C6  UNL     1      -9.384  16.483   4.009  1.00  0.00     0.008 C 
BRANCH  25  26
HETATM   26  C5  UNL     1      -8.861  15.870   5.319  1.00  0.00     0.028 C 
BRANCH  26  27
HETATM   27  C4  UNL     1      -7.904  16.742   6.077  1.00  0.00    -0.025 C 
HETATM   28  C2  UNL     1      -8.173  17.587   7.092  1.00  0.00    -0.091 C 
HETATM   29  C1  UNL     1      -9.536  17.839   7.677  1.00  0.00     0.042 C 
HETATM   30  C3  UNL     1      -7.066  18.364   7.756  1.00  0.00     0.042 C 
ENDBRANCH  26  27
ENDBRANCH  25  26
ENDBRANCH  23  25
ENDBRANCH   1  23
BRANCH  22  31
HETATM   31  O5  UNL     1     -15.758  11.089   0.513  1.00  0.00    -0.394 OA
HETATM   32  H46 UNL     1     -15.499  10.152   0.472  1.00  0.00     0.210 HD
ENDBRANCH  22  31
BRANCH  18  33
HETATM   33  C27 UNL     1     -12.988   9.960  -3.778  1.00  0.00     0.151 C 
HETATM   34  O2  UNL     1     -12.192  10.078  -4.693  1.00  0.00    -0.649 OA
BRANCH  33  35
HETATM   35  O3  UNL     1     -12.878   8.889  -2.969  1.00  0.00    -0.776 OA
HETATM   36  H40 UNL     1     -12.134   8.384  -3.365  1.00  0.00     0.167 HD
ENDBRANCH  33  35
ENDBRANCH  18  33
BRANCH  20  37
HETATM   37  O4  UNL     1     -16.064   9.495  -3.724  1.00  0.00    -0.394 OA
HETATM   38  H42 UNL     1     -16.706   8.917  -3.274  1.00  0.00     0.210 HD
ENDBRANCH  20  37
TORSDOF 8
ENDMDL
MODEL 7
REMARK minimizedAffinity -9.18149757
REMARK CNNscore 0.453126132
REMARK CNNaffinity 6.88244867
REMARK  8 active torsions:
REMARK  status: ('A' for Active; 'I' for Inactive)
REMARK    1  A    between atoms: C4_4  and  C5_5 
REMARK    2  A    between atoms: C5_5  and  C6_6 
REMARK    3  A    between atoms: C6_6  and  C7_7 
REMARK    4  A    between atoms: C7_7  and  C9_9 
REMARK    5  A    between atoms: C25_26  and  C27_28 
REMARK    6  A    between atoms: C27_28  and  O3_30 
REMARK    7  A    between atoms: C28_31  and  O4_32 
REMARK    8  A    between atoms: C30_34  and  O5_35 
ROOT
HETATM    1  C9  UNL     1      -4.052   6.944  14.592  1.00  0.00    -0.002 C 
HETATM    2  C10 UNL     1      -4.475   5.634  13.867  1.00  0.00     0.007 C 
HETATM    3  C11 UNL     1      -3.331   5.255  12.907  1.00  0.00     0.015 C 
HETATM    4  C12 UNL     1      -2.122   6.093  13.366  1.00  0.00    -0.005 C 
HETATM    5  C13 UNL     1      -1.474   5.339  14.571  1.00  0.00     0.021 C 
HETATM    6  C14 UNL     1      -0.955   6.365  12.421  1.00  0.00    -0.000 C 
HETATM    7  C15 UNL     1      -0.209   7.497  12.530  1.00  0.00    -0.058 C 
HETATM    8  C16 UNL     1      -0.575   8.569  13.573  1.00  0.00     0.036 C 
HETATM    9  C17 UNL     1      -1.834   8.341  14.433  1.00  0.00     0.015 C 
HETATM   10  C18 UNL     1      -2.856   7.450  13.726  1.00  0.00    -0.028 C 
HETATM   11  C19 UNL     1      -3.366   8.206  12.465  1.00  0.00     0.016 C 
HETATM   12  C20 UNL     1       1.008   7.823  11.603  1.00  0.00     0.011 C 
HETATM   13  C21 UNL     1       0.447   8.780  10.523  1.00  0.00     0.023 C 
HETATM   14  C22 UNL     1       1.572   6.486  11.017  1.00  0.00     0.029 C 
HETATM   15  C23 UNL     1       0.469   5.632  10.389  1.00  0.00     0.090 C 
HETATM   16  C24 UNL     1      -0.631   5.341  11.376  1.00  0.00     0.157 C 
HETATM   17  O1  UNL     1      -1.277   4.297  11.278  1.00  0.00    -0.293 OA
HETATM   18  C25 UNL     1       2.859   6.600  10.111  1.00  0.00     0.072 C 
HETATM   19  C26 UNL     1       3.749   5.356  10.391  1.00  0.00     0.030 C 
HETATM   20  C28 UNL     1       3.651   7.903  10.405  1.00  0.00     0.139 C 
HETATM   21  C29 UNL     1       3.594   8.288  11.878  1.00  0.00     0.065 C 
HETATM   22  C30 UNL     1       2.175   8.496  12.418  1.00  0.00     0.133 C 
ENDROOT
BRANCH   1  23
HETATM   23  C7  UNL     1      -5.275   7.820  14.998  1.00  0.00    -0.014 C 
HETATM   24  C8  UNL     1      -4.959   9.120  15.752  1.00  0.00     0.010 C 
BRANCH  23  25
HETATM   25  C6  UNL     1      -6.406   7.080  15.756  1.00  0.00     0.008 C 
BRANCH  25  26
HETATM   26  C5  UNL     1      -7.640   6.712  14.915  1.00  0.00     0.028 C 
BRANCH  26  27
HETATM   27  C4  UNL     1      -7.686   5.279  14.469  1.00  0.00    -0.025 C 
HETATM   28  C2  UNL     1      -8.031   4.794  13.260  1.00  0.00    -0.091 C 
HETATM   29  C1  UNL     1      -8.464   5.623  12.082  1.00  0.00     0.042 C 
HETATM   30  C3  UNL     1      -7.986   3.313  12.987  1.00  0.00     0.042 C 
ENDBRANCH  26  27
ENDBRANCH  25  26
ENDBRANCH  23  25
ENDBRANCH   1  23
BRANCH  22  31
HETATM   31  O5  UNL     1       1.962   9.900  12.602  1.00  0.00    -0.394 OA
HETATM   32  H46 UNL     1       2.082  10.354  11.749  1.00  0.00     0.210 HD
ENDBRANCH  22  31
BRANCH  18  33
HETATM   33  C27 UNL     1       2.526   6.561   8.615  1.00  0.00     0.151 C 
HETATM   34  O2  UNL     1       2.068   7.461   7.933  1.00  0.00    -0.649 OA
BRANCH  33  35
HETATM   35  O3  UNL     1       2.835   5.397   8.014  1.00  0.00    -0.776 OA
HETATM   36  H40 UNL     1       2.559   5.544   7.083  1.00  0.00     0.167 HD
ENDBRANCH  33  35
ENDBRANCH  18  33
BRANCH  20  37
HETATM   37  O4  UNL     1       5.025   7.756  10.032  1.00  0.00    -0.394 OA
HETATM   38  H42 UNL     1       5.460   8.622  10.135  1.00  0.00     0.210 HD
ENDBRANCH  20  37
TORSDOF 8
ENDMDL
MODEL 8
REMARK minimizedAffinity -6.55545807
REMARK CNNscore 0.440958977
REMARK CNNaffinity 6.17457533
REMARK  8 active torsions:
REMARK  status: ('A' for Active; 'I' for Inactive)
REMARK    1  A    between atoms: C4_4  and  C5_5 
REMARK    2  A    between atoms: C5_5  and  C6_6 
REMARK    3  A    between atoms: C6_6  and  C7_7 
REMARK    4  A    between atoms: C7_7  and  C9_9 
REMARK    5  A    between atoms: C25_26  and  C27_28 
REMARK    6  A    between atoms: C27_28  and  O3_30 
REMARK    7  A    between atoms: C28_31  and  O4_32 
REMARK    8  A    between atoms: C30_34  and  O5_35 
ROOT
HETATM    1  C9  UNL     1      -3.118  13.402  19.168  1.00  0.00    -0.002 C 
HETATM    2  C10 UNL     1      -4.459  13.209  18.403  1.00  0.00     0.007 C 
HETATM    3  C11 UNL     1      -4.226  12.110  17.348  1.00  0.00     0.015 C 
HETATM    4  C12 UNL     1      -2.916  11.415  17.768  1.00  0.00    -0.005 C 
HETATM    5  C13 UNL     1      -3.283  10.384  18.883  1.00  0.00     0.021 C 
HETATM    6  C14 UNL     1      -2.102  10.607  16.761  1.00  0.00    -0.000 C 
HETATM    7  C15 UNL     1      -0.752  10.488  16.881  1.00  0.00    -0.058 C 
HETATM    8  C16 UNL     1      -0.005  11.230  18.004  1.00  0.00     0.036 C 
HETATM    9  C17 UNL     1      -0.823  12.147  18.934  1.00  0.00     0.015 C 
HETATM   10  C18 UNL     1      -2.086  12.675  18.251  1.00  0.00    -0.028 C 
HETATM   11  C19 UNL     1      -1.650  13.591  17.072  1.00  0.00     0.016 C 
HETATM   12  C20 UNL     1       0.133   9.661  15.892  1.00  0.00     0.011 C 
HETATM   13  C21 UNL     1       0.718  10.702  14.907  1.00  0.00     0.023 C 
HETATM   14  C22 UNL     1      -0.758   8.579  15.196  1.00  0.00     0.029 C 
HETATM   15  C23 UNL     1      -2.029   9.188  14.600  1.00  0.00     0.090 C 
HETATM   16  C24 UNL     1      -2.828   9.925  15.642  1.00  0.00     0.157 C 
HETATM   17  O1  UNL     1      -4.052   9.998  15.532  1.00  0.00    -0.293 OA
HETATM   18  C25 UNL     1      -0.026   7.587  14.211  1.00  0.00     0.072 C 
HETATM   19  C26 UNL     1      -0.691   6.190  14.361  1.00  0.00     0.030 C 
HETATM   20  C28 UNL     1       1.494   7.493  14.521  1.00  0.00     0.139 C 
HETATM   21  C29 UNL     1       1.782   7.599  16.014  1.00  0.00     0.065 C 
HETATM   22  C30 UNL     1       1.273   8.892  16.660  1.00  0.00     0.133 C 
ENDROOT
BRANCH   1  23
HETATM   23  C7  UNL     1      -2.945  14.855  19.705  1.00  0.00    -0.014 C 
HETATM   24  C8  UNL     1      -1.501  15.353  19.866  1.00  0.00     0.010 C 
BRANCH  23  25
HETATM   25  C6  UNL     1      -3.721  15.186  21.005  1.00  0.00     0.008 C 
BRANCH  25  26
HETATM   26  C5  UNL     1      -5.238  15.378  20.843  1.00  0.00     0.028 C 
BRANCH  26  27
HETATM   27  C4  UNL     1      -6.074  14.296  21.462  1.00  0.00    -0.025 C 
HETATM   28  C2  UNL     1      -6.554  14.231  22.720  1.00  0.00    -0.091 C 
HETATM   29  C1  UNL     1      -6.330  15.264  23.790  1.00  0.00     0.042 C 
HETATM   30  C3  UNL     1      -7.409  13.069  23.155  1.00  0.00     0.042 C 
ENDBRANCH  26  27
ENDBRANCH  25  26
ENDBRANCH  23  25
ENDBRANCH   1  23
BRANCH  22  31
HETATM   31  O5  UNL     1       2.398   9.734  16.935  1.00  0.00    -0.394 OA
HETATM   32  H46 UNL     1       2.866   9.920  16.102  1.00  0.00     0.210 HD
ENDBRANCH  22  31
BRANCH  18  33
HETATM   33  C27 UNL     1      -0.198   7.989  12.742  1.00  0.00     0.151 C 
HETATM   34  O2  UNL     1       0.373   8.886  12.146  1.00  0.00    -0.649 OA
BRANCH  33  35
HETATM   35  O3  UNL     1      -1.049   7.204  12.055  1.00  0.00    -0.776 OA
HETATM   36  H40 UNL     1      -1.040   7.598  11.155  1.00  0.00     0.167 HD
ENDBRANCH  33  35
ENDBRANCH  18  33
BRANCH  20  37
HETATM   37  O4  UNL     1       2.032   6.255  14.047  1.00  0.00    -0.394 OA
HETATM   38  H42 UNL     1       2.998   6.280  14.167  1.00  0.00     0.210 HD
ENDBRANCH  20  37
TORSDOF 8
ENDMDL
MODEL 9
REMARK minimizedAffinity -8.85773373
REMARK CNNscore 0.413198024
REMARK CNNaffinity 6.84581804
REMARK  8 active torsions:
REMARK  status: ('A' for Active; 'I' for Inactive)
REMARK    1  A    between atoms: C4_4  and  C5_5 
REMARK    2  A    between atoms: C5_5  and  C6_6 
REMARK    3  A    between atoms: C6_6  and  C7_7 
REMARK    4  A    between atoms: C7_7  and  C9_9 
REMARK    5  A    between atoms: C25_26  and  C27_28 
REMARK    6  A    between atoms: C27_28  and  O3_30 
REMARK    7  A    between atoms: C28_31  and  O4_32 
REMARK    8  A    between atoms: C30_34  and  O5_35 
ROOT
HETATM    1  C9  UNL     1      -5.754   5.340  13.425  1.00  0.00    -0.002 C 
HETATM    2  C10 UNL     1      -6.091   5.986  14.799  1.00  0.00     0.007 C 
HETATM    3  C11 UNL     1      -4.810   6.679  15.303  1.00  0.00     0.015 C 
HETATM    4  C12 UNL     1      -3.888   6.772  14.071  1.00  0.00    -0.005 C 
HETATM    5  C13 UNL     1      -4.343   8.023  13.253  1.00  0.00     0.021 C 
HETATM    6  C14 UNL     1      -2.382   6.956  14.234  1.00  0.00    -0.000 C 
HETATM    7  C15 UNL     1      -1.510   6.477  13.307  1.00  0.00    -0.058 C 
HETATM    8  C16 UNL     1      -2.026   5.670  12.101  1.00  0.00     0.036 C 
HETATM    9  C17 UNL     1      -3.537   5.380  12.018  1.00  0.00     0.015 C 
HETATM   10  C18 UNL     1      -4.194   5.370  13.400  1.00  0.00    -0.028 C 
HETATM   11  C19 UNL     1      -3.604   4.179  14.207  1.00  0.00     0.016 C 
HETATM   12  C20 UNL     1       0.042   6.648  13.409  1.00  0.00     0.011 C 
HETATM   13  C21 UNL     1       0.558   5.312  13.996  1.00  0.00     0.023 C 
HETATM   14  C22 UNL     1       0.356   7.887  14.314  1.00  0.00     0.029 C 
HETATM   15  C23 UNL     1      -0.395   7.823  15.645  1.00  0.00     0.090 C 
HETATM   16  C24 UNL     1      -1.881   7.701  15.433  1.00  0.00     0.157 C 
HETATM   17  O1  UNL     1      -2.656   8.166  16.270  1.00  0.00    -0.293 OA
HETATM   18  C25 UNL     1       1.878   8.273  14.478  1.00  0.00     0.072 C 
HETATM   19  C26 UNL     1       1.971   9.824  14.534  1.00  0.00     0.030 C 
HETATM   20  C28 UNL     1       2.736   7.726  13.304  1.00  0.00     0.139 C 
HETATM   21  C29 UNL     1       1.977   7.744  11.982  1.00  0.00     0.065 C 
HETATM   22  C30 UNL     1       0.673   6.938  11.996  1.00  0.00     0.133 C 
ENDROOT
BRANCH   1  23
HETATM   23  C7  UNL     1      -6.613   4.071  13.140  1.00  0.00    -0.014 C 
HETATM   24  C8  UNL     1      -6.136   3.172  11.989  1.00  0.00     0.010 C 
BRANCH  23  25
HETATM   25  C6  UNL     1      -8.133   4.316  12.967  1.00  0.00     0.008 C 
BRANCH  25  26
HETATM   26  C5  UNL     1      -8.542   5.769  12.670  1.00  0.00     0.028 C 
BRANCH  26  27
HETATM   27  C4  UNL     1      -9.346   6.425  13.755  1.00  0.00    -0.025 C 
HETATM   28  C2  UNL     1     -10.477   7.147  13.632  1.00  0.00    -0.091 C 
HETATM   29  C1  UNL     1     -11.174   7.458  12.336  1.00  0.00     0.042 C 
HETATM   30  C3  UNL     1     -11.165   7.706  14.851  1.00  0.00     0.042 C 
ENDBRANCH  26  27
ENDBRANCH  25  26
ENDBRANCH  23  25
ENDBRANCH   1  23
BRANCH  22  31
HETATM   31  O5  UNL     1       0.875   5.739  11.241  1.00  0.00    -0.394 OA
HETATM   32  H46 UNL     1       1.603   5.232  11.639  1.00  0.00     0.210 HD
ENDBRANCH  22  31
BRANCH  18  33
HETATM   33  C27 UNL     1       2.471   7.759  15.794  1.00  0.00     0.151 C 
HETATM   34  O2  UNL     1       2.388   8.272  16.896  1.00  0.00    -0.649 OA
BRANCH  33  35
HETATM   35  O3  UNL     1       3.107   6.577  15.685  1.00  0.00    -0.776 OA
HETATM   36  H40 UNL     1       3.419   6.405  16.600  1.00  0.00     0.167 HD
ENDBRANCH  33  35
ENDBRANCH  18  33
BRANCH  20  37
HETATM   37  O4  UNL     1       3.930   8.498  13.147  1.00  0.00    -0.394 OA
HETATM   38  H42 UNL     1       4.484   8.063  12.474  1.00  0.00     0.210 HD
ENDBRANCH  20  37
TORSDOF 8
ENDMDL
