MODEL 1
REMARK minimizedAffinity -9.29509735
REMARK  4 active torsions:
REMARK  status: ('A' for Active; 'I' for Inactive)
REMARK    1  A    between atoms: C2_2  and  N1_3 
REMARK       I    between atoms: N1_3  and  C3_4 
REMARK       I    between atoms: C3_4  and  N2_6 
REMARK    2  A    between atoms: C6_9  and  N3_10 
REMARK    3  A    between atoms: N3_10  and  C7_11 
REMARK    4  A    between atoms: C10_17  and  C11_18 
ROOT
HETATM    1  C7  UNL     1      -2.447   6.684  13.422  1.00  0.00     0.158 A 
HETATM    2  N4  UNL     1      -2.580   7.993  13.677  1.00  0.00    -0.341 N 
ATOM      3  H4  UNL     1      -1.780   8.625  13.650  1.00  0.00     0.167 HD
HETATM    4  C8  UNL     1      -3.821   8.435  13.970  1.00  0.00     0.116 A 
HETATM    5  C9  UNL     1      -4.935   7.631  14.021  1.00  0.00     0.077 A 
HETATM    6 CL1  UNL     1      -6.470   8.317  14.369  1.00  0.00    -0.080 Cl
HETATM    7  C10 UNL     1      -4.695   6.299  13.741  1.00  0.00     0.070 A 
HETATM    8  N6  UNL     1      -3.465   5.820  13.431  1.00  0.00    -0.331 N 
ATOM      9  H6  UNL     1      -3.322   4.834  13.212  1.00  0.00     0.168 HD
ENDROOT
BRANCH   1  10
HETATM   10  N3  UNL     1      -1.208   6.139  13.121  1.00  0.00    -0.259 NA
HETATM   11  H12 UNL     1      -1.384   5.143  13.018  1.00  0.00     0.131 HD
BRANCH  10  12
HETATM   12  C6  UNL     1      -0.472   6.774  12.027  1.00  0.00     0.066 C 
HETATM   13  C5  UNL     1       0.712   7.589  12.573  1.00  0.00     0.040 C 
HETATM   14  C4  UNL     1       2.022   6.810  12.537  1.00  0.00     0.129 C 
HETATM   15  N2  UNL     1       2.346   6.346  11.185  1.00  0.00    -0.334 N 
HETATM   16  C3  UNL     1       3.627   6.239  10.668  1.00  0.00     0.318 C 
HETATM   17  C20 UNL     1       1.227   6.109  10.279  1.00  0.00     0.129 C 
HETATM   18  N1  UNL     1       4.631   6.335  11.598  1.00  0.00    -0.343 N 
HETATM   19  O1  UNL     1       3.850   6.070   9.473  1.00  0.00    -0.247 OA
HETATM   20  H6  UNL     1       4.392   6.029  12.528  1.00  0.00     0.164 HD
HETATM   21  C19 UNL     1      -0.019   5.683  11.042  1.00  0.00     0.040 C 
BRANCH  18  22
HETATM   22  C2  UNL     1       6.021   6.197  11.214  1.00  0.00     0.120 C 
HETATM   23  C1  UNL     1       6.662   7.538  10.900  1.00  0.00     0.026 C 
ENDBRANCH  18  22
ENDBRANCH  10  12
ENDBRANCH   1  10
BRANCH   7  24
HETATM   24  C11 UNL     1      -5.740   5.287  13.732  1.00  0.00     0.020 A 
HETATM   25  C12 UNL     1      -6.825   5.293  14.588  1.00  0.00     0.103 A 
HETATM   26  N5  UNL     1      -7.587   4.188  14.315  1.00  0.00    -0.364 N 
HETATM   27  C13 UNL     1      -7.008   3.443  13.313  1.00  0.00     0.043 A 
HETATM   28  H15 UNL     1      -8.445   3.939  14.789  1.00  0.00     0.165 HD
HETATM   29  C14 UNL     1      -7.428   2.244  12.724  1.00  0.00     0.030 A 
HETATM   30  C18 UNL     1      -5.837   4.102  12.934  1.00  0.00     0.004 A 
HETATM   31  C15 UNL     1      -6.623   1.700  11.718  1.00  0.00     0.002 A 
HETATM   32  C16 UNL     1      -5.448   2.332  11.320  1.00  0.00     0.001 A 
HETATM   33  C17 UNL     1      -5.044   3.530  11.919  1.00  0.00     0.014 A 
ENDBRANCH   7  24
TORSDOF 4
ENDMDL
MODEL 2
REMARK minimizedAffinity -8.94279766
REMARK  4 active torsions:
REMARK  status: ('A' for Active; 'I' for Inactive)
REMARK    1  A    between atoms: C2_2  and  N1_3 
REMARK       I    between atoms: N1_3  and  C3_4 
REMARK       I    between atoms: C3_4  and  N2_6 
REMARK    2  A    between atoms: C6_9  and  N3_10 
REMARK    3  A    between atoms: N3_10  and  C7_11 
REMARK    4  A    between atoms: C10_17  and  C11_18 
ROOT
HETATM    1  C7  UNL     1      -3.753   3.633  11.440  1.00  0.00     0.158 A 
HETATM    2  N4  UNL     1      -4.205   2.506  10.876  1.00  0.00    -0.341 N 
ATOM      3  H4  UNL     1      -3.652   1.994  10.189  1.00  0.00     0.167 HD
HETATM    4  C8  UNL     1      -5.428   2.079  11.259  1.00  0.00     0.116 A 
HETATM    5  C9  UNL     1      -6.218   2.727  12.179  1.00  0.00     0.077 A 
HETATM    6 CL1  UNL     1      -7.742   2.065  12.612  1.00  0.00    -0.080 Cl
HETATM    7  C10 UNL     1      -5.663   3.877  12.704  1.00  0.00     0.070 A 
HETATM    8  N6  UNL     1      -4.434   4.331  12.352  1.00  0.00    -0.331 N 
ATOM      9  H6  UNL     1      -4.043   5.176  12.771  1.00  0.00     0.168 HD
ENDROOT
BRANCH   1  10
HETATM   10  N3  UNL     1      -2.512   4.152  11.100  1.00  0.00    -0.259 NA
HETATM   11  H12 UNL     1      -2.720   4.907  10.451  1.00  0.00     0.131 HD
BRANCH  10  12
HETATM   12  C6  UNL     1      -1.628   4.493  12.214  1.00  0.00     0.066 C 
HETATM   13  C5  UNL     1      -0.276   3.773  12.070  1.00  0.00     0.040 C 
HETATM   14  C4  UNL     1       0.785   4.651  11.416  1.00  0.00     0.129 C 
HETATM   15  N2  UNL     1       0.988   5.904  12.149  1.00  0.00    -0.334 N 
HETATM   16  C3  UNL     1       2.200   6.562  12.277  1.00  0.00     0.318 C 
HETATM   17  C20 UNL     1      -0.147   6.419  12.909  1.00  0.00     0.129 C 
HETATM   18  N1  UNL     1       3.187   6.116  11.435  1.00  0.00    -0.343 N 
HETATM   19  O1  UNL     1       2.381   7.473  13.080  1.00  0.00    -0.247 OA
HETATM   20  H6  UNL     1       2.868   5.726  10.562  1.00  0.00     0.164 HD
HETATM   21  C19 UNL     1      -1.467   6.022  12.265  1.00  0.00     0.040 C 
BRANCH  18  22
HETATM   22  C2  UNL     1       4.496   6.737  11.421  1.00  0.00     0.120 C 
HETATM   23  C1  UNL     1       4.651   7.717  10.271  1.00  0.00     0.026 C 
ENDBRANCH  18  22
ENDBRANCH  10  12
ENDBRANCH   1  10
BRANCH   7  24
HETATM   24  C11 UNL     1      -6.332   4.702  13.698  1.00  0.00     0.020 A 
HETATM   25  C12 UNL     1      -7.354   4.251  14.511  1.00  0.00     0.103 A 
HETATM   26  N5  UNL     1      -7.759   5.292  15.302  1.00  0.00    -0.364 N 
HETATM   27  C13 UNL     1      -7.039   6.427  15.006  1.00  0.00     0.043 A 
HETATM   28  H15 UNL     1      -8.492   5.247  15.997  1.00  0.00     0.165 HD
HETATM   29  C14 UNL     1      -7.119   7.713  15.551  1.00  0.00     0.030 A 
HETATM   30  C18 UNL     1      -6.142   6.090  13.990  1.00  0.00     0.004 A 
HETATM   31  C15 UNL     1      -6.256   8.689  15.041  1.00  0.00     0.002 A 
HETATM   32  C16 UNL     1      -5.352   8.386  14.026  1.00  0.00     0.001 A 
HETATM   33  C17 UNL     1      -5.285   7.094  13.492  1.00  0.00     0.014 A 
ENDBRANCH   7  24
TORSDOF 4
ENDMDL
MODEL 3
REMARK minimizedAffinity -8.93139076
REMARK  4 active torsions:
REMARK  status: ('A' for Active; 'I' for Inactive)
REMARK    1  A    between atoms: C2_2  and  N1_3 
REMARK       I    between atoms: N1_3  and  C3_4 
REMARK       I    between atoms: C3_4  and  N2_6 
REMARK    2  A    between atoms: C6_9  and  N3_10 
REMARK    3  A    between atoms: N3_10  and  C7_11 
REMARK    4  A    between atoms: C10_17  and  C11_18 
ROOT
HETATM    1  C7  UNL     1      -2.146   6.970  13.996  1.00  0.00     0.158 A 
HETATM    2  N4  UNL     1      -2.926   7.993  14.366  1.00  0.00    -0.341 N 
ATOM      3  H4  UNL     1      -2.545   8.813  14.837  1.00  0.00     0.167 HD
HETATM    4  C8  UNL     1      -4.244   7.889  14.086  1.00  0.00     0.116 A 
HETATM    5  C9  UNL     1      -4.815   6.810  13.454  1.00  0.00     0.077 A 
HETATM    6 CL1  UNL     1      -6.499   6.809  13.119  1.00  0.00    -0.080 Cl
HETATM    7  C10 UNL     1      -3.927   5.809  13.111  1.00  0.00     0.070 A 
HETATM    8  N6  UNL     1      -2.596   5.883  13.366  1.00  0.00    -0.331 N 
ATOM      9  H6  UNL     1      -1.962   5.134  13.085  1.00  0.00     0.168 HD
ENDROOT
BRANCH   1  10
HETATM   10  N3  UNL     1      -0.782   6.986  14.252  1.00  0.00    -0.259 NA
HETATM   11  H12 UNL     1      -0.707   6.805  15.250  1.00  0.00     0.131 HD
BRANCH  10  12
HETATM   12  C6  UNL     1       0.047   6.147  13.386  1.00  0.00     0.066 C 
HETATM   13  C5  UNL     1      -0.550   6.077  11.971  1.00  0.00     0.040 C 
HETATM   14  C4  UNL     1       0.088   7.082  11.019  1.00  0.00     0.129 C 
HETATM   15  N2  UNL     1       1.541   6.910  10.933  1.00  0.00    -0.334 N 
HETATM   16  C3  UNL     1       2.299   7.120   9.793  1.00  0.00     0.318 C 
HETATM   17  C20 UNL     1       2.212   6.347  12.100  1.00  0.00     0.129 C 
HETATM   18  N1  UNL     1       1.645   7.777   8.781  1.00  0.00    -0.343 N 
HETATM   19  O1  UNL     1       3.466   6.749   9.692  1.00  0.00    -0.247 OA
HETATM   20  H6  UNL     1       0.917   8.408   9.074  1.00  0.00     0.164 HD
HETATM   21  C19 UNL     1       1.479   6.707  13.384  1.00  0.00     0.040 C 
BRANCH  18  22
HETATM   22  C2  UNL     1       2.323   8.108   7.544  1.00  0.00     0.120 C 
HETATM   23  C1  UNL     1       1.906   7.195   6.403  1.00  0.00     0.026 C 
ENDBRANCH  18  22
ENDBRANCH  10  12
ENDBRANCH   1  10
BRANCH   7  24
HETATM   24  C11 UNL     1      -4.328   4.589  12.427  1.00  0.00     0.020 A 
HETATM   25  C12 UNL     1      -3.628   4.031  11.375  1.00  0.00     0.103 A 
HETATM   26  N5  UNL     1      -4.299   2.910  10.965  1.00  0.00    -0.364 N 
HETATM   27  C13 UNL     1      -5.441   2.737  11.713  1.00  0.00     0.043 A 
HETATM   28  H15 UNL     1      -4.012   2.301  10.211  1.00  0.00     0.165 HD
HETATM   29  C14 UNL     1      -6.424   1.742  11.639  1.00  0.00     0.030 A 
HETATM   30  C18 UNL     1      -5.494   3.785  12.633  1.00  0.00     0.004 A 
HETATM   31  C15 UNL     1      -7.497   1.824  12.532  1.00  0.00     0.002 A 
HETATM   32  C16 UNL     1      -7.580   2.859  13.461  1.00  0.00     0.001 A 
HETATM   33  C17 UNL     1      -6.588   3.844  13.521  1.00  0.00     0.014 A 
ENDBRANCH   7  24
TORSDOF 4
ENDMDL
MODEL 4
REMARK minimizedAffinity -8.92034435
REMARK  4 active torsions:
REMARK  status: ('A' for Active; 'I' for Inactive)
REMARK    1  A    between atoms: C2_2  and  N1_3 
REMARK       I    between atoms: N1_3  and  C3_4 
REMARK       I    between atoms: C3_4  and  N2_6 
REMARK    2  A    between atoms: C6_9  and  N3_10 
REMARK    3  A    between atoms: N3_10  and  C7_11 
REMARK    4  A    between atoms: C10_17  and  C11_18 
ROOT
HETATM    1  C7  UNL     1      -2.938   4.522  13.113  1.00  0.00     0.158 A 
HETATM    2  N4  UNL     1      -2.695   3.418  12.395  1.00  0.00    -0.341 N 
ATOM      3  H4  UNL     1      -1.744   3.117  12.185  1.00  0.00     0.167 HD
HETATM    4  C8  UNL     1      -3.768   2.723  11.961  1.00  0.00     0.116 A 
HETATM    5  C9  UNL     1      -5.072   3.080  12.213  1.00  0.00     0.077 A 
HETATM    6 CL1  UNL     1      -6.354   2.093  11.638  1.00  0.00    -0.080 Cl
HETATM    7  C10 UNL     1      -5.217   4.231  12.962  1.00  0.00     0.070 A 
HETATM    8  N6  UNL     1      -4.164   4.950  13.425  1.00  0.00    -0.331 N 
ATOM      9  H6  UNL     1      -4.303   5.787  13.991  1.00  0.00     0.168 HD
ENDROOT
BRANCH   1  10
HETATM   10  N3  UNL     1      -1.897   5.304  13.591  1.00  0.00    -0.259 NA
HETATM   11  H12 UNL     1      -2.035   5.327  14.598  1.00  0.00     0.131 HD
BRANCH  10  12
HETATM   12  C6  UNL     1      -0.554   4.937  13.140  1.00  0.00     0.066 C 
HETATM   13  C5  UNL     1      -0.570   4.565  11.647  1.00  0.00     0.040 C 
HETATM   14  C4  UNL     1      -0.172   5.732  10.751  1.00  0.00     0.129 C 
HETATM   15  N2  UNL     1       1.149   6.264  11.096  1.00  0.00    -0.334 N 
HETATM   16  C3  UNL     1       2.058   6.783  10.189  1.00  0.00     0.318 C 
HETATM   17  C20 UNL     1       1.585   6.108  12.480  1.00  0.00     0.129 C 
HETATM   18  N1  UNL     1       1.545   7.033   8.942  1.00  0.00    -0.343 N 
HETATM   19  O1  UNL     1       3.232   7.003  10.475  1.00  0.00    -0.247 OA
HETATM   20  H6  UNL     1       0.562   7.252   8.914  1.00  0.00     0.164 HD
HETATM   21  C19 UNL     1       0.401   6.106  13.435  1.00  0.00     0.040 C 
BRANCH  18  22
HETATM   22  C2  UNL     1       2.364   7.619   7.900  1.00  0.00     0.120 C 
HETATM   23  C1  UNL     1       1.790   7.369   6.515  1.00  0.00     0.026 C 
ENDBRANCH  18  22
ENDBRANCH  10  12
ENDBRANCH   1  10
BRANCH   7  24
HETATM   24  C11 UNL     1      -6.512   4.773  13.346  1.00  0.00     0.020 A 
HETATM   25  C12 UNL     1      -7.711   4.117  13.144  1.00  0.00     0.103 A 
HETATM   26  N5  UNL     1      -8.719   4.924  13.601  1.00  0.00    -0.364 N 
HETATM   27  C13 UNL     1      -8.205   6.109  14.077  1.00  0.00     0.043 A 
HETATM   28  H15 UNL     1      -9.704   4.695  13.583  1.00  0.00     0.165 HD
HETATM   29  C14 UNL     1      -8.858   7.219  14.625  1.00  0.00     0.030 A 
HETATM   30  C18 UNL     1      -6.819   6.049  13.916  1.00  0.00     0.004 A 
HETATM   31  C15 UNL     1      -8.070   8.305  15.019  1.00  0.00     0.002 A 
HETATM   32  C16 UNL     1      -6.686   8.278  14.871  1.00  0.00     0.001 A 
HETATM   33  C17 UNL     1      -6.049   7.159  14.321  1.00  0.00     0.014 A 
ENDBRANCH   7  24
TORSDOF 4
ENDMDL
MODEL 5
REMARK minimizedAffinity -8.86370373
REMARK  4 active torsions:
REMARK  status: ('A' for Active; 'I' for Inactive)
REMARK    1  A    between atoms: C2_2  and  N1_3 
REMARK       I    between atoms: N1_3  and  C3_4 
REMARK       I    between atoms: C3_4  and  N2_6 
REMARK    2  A    between atoms: C6_9  and  N3_10 
REMARK    3  A    between atoms: N3_10  and  C7_11 
REMARK    4  A    between atoms: C10_17  and  C11_18 
ROOT
HETATM    1  C7  UNL     1      -2.284   4.580  12.663  1.00  0.00     0.158 A 
HETATM    2  N4  UNL     1      -2.146   3.607  11.753  1.00  0.00    -0.341 N 
ATOM      3  H4  UNL     1      -1.233   3.354  11.376  1.00  0.00     0.167 HD
HETATM    4  C8  UNL     1      -3.273   2.977  11.357  1.00  0.00     0.116 A 
HETATM    5  C9  UNL     1      -4.530   3.274  11.829  1.00  0.00     0.077 A 
HETATM    6 CL1  UNL     1      -5.885   2.376  11.276  1.00  0.00    -0.080 Cl
HETATM    7  C10 UNL     1      -4.567   4.290  12.764  1.00  0.00     0.070 A 
HETATM    8  N6  UNL     1      -3.455   4.938  13.195  1.00  0.00    -0.331 N 
ATOM      9  H6  UNL     1      -3.512   5.673  13.900  1.00  0.00     0.168 HD
ENDROOT
BRANCH   1  10
HETATM   10  N3  UNL     1      -1.183   5.288  13.120  1.00  0.00    -0.259 NA
HETATM   11  H12 UNL     1      -0.586   4.585  13.548  1.00  0.00     0.131 HD
BRANCH  10  12
HETATM   12  C6  UNL     1      -0.534   6.170  12.149  1.00  0.00     0.066 C 
HETATM   13  C5  UNL     1       0.512   7.059  12.842  1.00  0.00     0.040 C 
HETATM   14  C4  UNL     1       1.922   6.488  12.740  1.00  0.00     0.129 C 
HETATM   15  N2  UNL     1       2.327   6.272  11.348  1.00  0.00    -0.334 N 
HETATM   16  C3  UNL     1       3.615   6.423  10.864  1.00  0.00     0.318 C 
HETATM   17  C20 UNL     1       1.265   6.010  10.382  1.00  0.00     0.129 C 
HETATM   18  N1  UNL     1       4.583   6.528  11.830  1.00  0.00    -0.343 N 
HETATM   19  O1  UNL     1       3.875   6.460   9.664  1.00  0.00    -0.247 OA
HETATM   20  H6  UNL     1       4.380   6.062  12.700  1.00  0.00     0.164 HD
HETATM   21  C19 UNL     1       0.085   5.306  11.037  1.00  0.00     0.040 C 
BRANCH  18  22
HETATM   22  C2  UNL     1       5.984   6.645  11.477  1.00  0.00     0.120 C 
HETATM   23  C1  UNL     1       6.508   8.056  11.685  1.00  0.00     0.026 C 
ENDBRANCH  18  22
ENDBRANCH  10  12
ENDBRANCH   1  10
BRANCH   7  24
HETATM   24  C11 UNL     1      -5.796   4.749  13.393  1.00  0.00     0.020 A 
HETATM   25  C12 UNL     1      -6.914   3.956  13.567  1.00  0.00     0.103 A 
HETATM   26  N5  UNL     1      -7.883   4.715  14.168  1.00  0.00    -0.364 N 
HETATM   27  C13 UNL     1      -7.430   5.999  14.368  1.00  0.00     0.043 A 
HETATM   28  H15 UNL     1      -8.807   4.390  14.418  1.00  0.00     0.165 HD
HETATM   29  C14 UNL     1      -8.076   7.104  14.934  1.00  0.00     0.030 A 
HETATM   30  C18 UNL     1      -6.124   6.055  13.878  1.00  0.00     0.004 A 
HETATM   31  C15 UNL     1      -7.365   8.307  14.999  1.00  0.00     0.002 A 
HETATM   32  C16 UNL     1      -6.061   8.396  14.518  1.00  0.00     0.001 A 
HETATM   33  C17 UNL     1      -5.431   7.281  13.955  1.00  0.00     0.014 A 
ENDBRANCH   7  24
TORSDOF 4
ENDMDL
MODEL 6
REMARK minimizedAffinity -8.79586411
REMARK  4 active torsions:
REMARK  status: ('A' for Active; 'I' for Inactive)
REMARK    1  A    between atoms: C2_2  and  N1_3 
REMARK       I    between atoms: N1_3  and  C3_4 
REMARK       I    between atoms: C3_4  and  N2_6 
REMARK    2  A    between atoms: C6_9  and  N3_10 
REMARK    3  A    between atoms: N3_10  and  C7_11 
REMARK    4  A    between atoms: C10_17  and  C11_18 
ROOT
HETATM    1  C7  UNL     1      -0.040   8.332  10.862  1.00  0.00     0.158 A 
HETATM    2  N4  UNL     1      -0.557   8.731   9.693  1.00  0.00    -0.341 N 
ATOM      3  H4  UNL     1      -1.460   9.201   9.641  1.00  0.00     0.167 HD
HETATM    4  C8  UNL     1       0.174   8.482   8.585  1.00  0.00     0.116 A 
HETATM    5  C9  UNL     1       1.397   7.853   8.593  1.00  0.00     0.077 A 
HETATM    6 CL1  UNL     1       2.250   7.625   7.120  1.00  0.00    -0.080 Cl
HETATM    7  C10 UNL     1       1.844   7.482   9.846  1.00  0.00     0.070 A 
HETATM    8  N6  UNL     1       1.143   7.726  10.982  1.00  0.00    -0.331 N 
ATOM      9  H6  UNL     1       1.508   7.455  11.896  1.00  0.00     0.168 HD
ENDROOT
BRANCH   1  10
HETATM   10  N3  UNL     1      -0.725   8.537  12.051  1.00  0.00    -0.259 NA
HETATM   11  H12 UNL     1      -1.559   9.052  11.779  1.00  0.00     0.131 HD
BRANCH  10  12
HETATM   12  C6  UNL     1      -0.948   7.352  12.880  1.00  0.00     0.066 C 
HETATM   13  C5  UNL     1      -2.259   7.487  13.672  1.00  0.00     0.040 C 
HETATM   14  C4  UNL     1      -3.430   6.795  12.983  1.00  0.00     0.129 C 
HETATM   15  N2  UNL     1      -3.163   5.375  12.742  1.00  0.00    -0.334 N 
HETATM   16  C3  UNL     1      -4.115   4.369  12.785  1.00  0.00     0.318 C 
HETATM   17  C20 UNL     1      -1.767   4.981  12.577  1.00  0.00     0.129 C 
HETATM   18  N1  UNL     1      -5.414   4.809  12.801  1.00  0.00    -0.343 N 
HETATM   19  O1  UNL     1      -3.822   3.177  12.807  1.00  0.00    -0.247 OA
HETATM   20  H6  UNL     1      -5.578   5.694  12.349  1.00  0.00     0.164 HD
HETATM   21  C19 UNL     1      -0.944   6.110  11.973  1.00  0.00     0.040 C 
BRANCH  18  22
HETATM   22  C2  UNL     1      -6.520   3.873  12.801  1.00  0.00     0.120 C 
HETATM   23  C1  UNL     1      -7.385   4.012  14.042  1.00  0.00     0.026 C 
ENDBRANCH  18  22
ENDBRANCH  10  12
ENDBRANCH   1  10
BRANCH   7  24
HETATM   24  C11 UNL     1       3.117   6.814  10.072  1.00  0.00     0.020 A 
HETATM   25  C12 UNL     1       3.349   5.483   9.786  1.00  0.00     0.103 A 
HETATM   26  N5  UNL     1       4.638   5.189  10.143  1.00  0.00    -0.364 N 
HETATM   27  C13 UNL     1       5.248   6.299  10.682  1.00  0.00     0.043 A 
HETATM   28  H15 UNL     1       5.080   4.286  10.042  1.00  0.00     0.165 HD
HETATM   29  C14 UNL     1       6.545   6.458  11.186  1.00  0.00     0.030 A 
HETATM   30  C18 UNL     1       4.312   7.334  10.664  1.00  0.00     0.004 A 
HETATM   31  C15 UNL     1       6.895   7.715  11.689  1.00  0.00     0.002 A 
HETATM   32  C16 UNL     1       5.983   8.768  11.686  1.00  0.00     0.001 A 
HETATM   33  C17 UNL     1       4.691   8.591  11.179  1.00  0.00     0.014 A 
ENDBRANCH   7  24
TORSDOF 4
ENDMDL
MODEL 7
REMARK minimizedAffinity -8.77420616
REMARK  4 active torsions:
REMARK  status: ('A' for Active; 'I' for Inactive)
REMARK    1  A    between atoms: C2_2  and  N1_3 
REMARK       I    between atoms: N1_3  and  C3_4 
REMARK       I    between atoms: C3_4  and  N2_6 
REMARK    2  A    between atoms: C6_9  and  N3_10 
REMARK    3  A    between atoms: N3_10  and  C7_11 
REMARK    4  A    between atoms: C10_17  and  C11_18 
ROOT
HETATM    1  C7  UNL     1      -7.345   4.351  13.995  1.00  0.00     0.158 A 
HETATM    2  N4  UNL     1      -8.132   3.322  13.652  1.00  0.00    -0.341 N 
ATOM      3  H4  UNL     1      -9.066   3.211  14.046  1.00  0.00     0.167 HD
HETATM    4  C8  UNL     1      -7.631   2.440  12.761  1.00  0.00     0.116 A 
HETATM    5  C9  UNL     1      -6.380   2.539  12.197  1.00  0.00     0.077 A 
HETATM    6 CL1  UNL     1      -5.869   1.374  11.045  1.00  0.00    -0.080 Cl
HETATM    7  C10 UNL     1      -5.648   3.634  12.613  1.00  0.00     0.070 A 
HETATM    8  N6  UNL     1      -6.122   4.547  13.498  1.00  0.00    -0.331 N 
ATOM      9  H6  UNL     1      -5.563   5.355  13.773  1.00  0.00     0.168 HD
ENDROOT
BRANCH   1  10
HETATM   10  N3  UNL     1      -7.772   5.300  14.912  1.00  0.00    -0.259 NA
HETATM   11  H12 UNL     1      -7.060   5.294  15.637  1.00  0.00     0.131 HD
BRANCH  10  12
HETATM   12  C6  UNL     1      -8.119   6.613  14.367  1.00  0.00     0.066 C 
HETATM   13  C5  UNL     1      -8.936   6.462  13.073  1.00  0.00     0.040 C 
HETATM   14  C4  UNL     1     -10.437   6.555  13.317  1.00  0.00     0.129 C 
HETATM   15  N2  UNL     1     -10.810   7.812  13.971  1.00  0.00    -0.334 N 
HETATM   16  C3  UNL     1     -11.988   8.505  13.748  1.00  0.00     0.318 C 
HETATM   17  C20 UNL     1      -9.802   8.443  14.817  1.00  0.00     0.129 C 
HETATM   18  N1  UNL     1     -12.946   7.801  13.063  1.00  0.00    -0.343 N 
HETATM   19  O1  UNL     1     -12.165   9.657  14.132  1.00  0.00    -0.247 OA
HETATM   20  H6  UNL     1     -12.917   6.801  13.180  1.00  0.00     0.164 HD
HETATM   21  C19 UNL     1      -8.880   7.406  15.443  1.00  0.00     0.040 C 
BRANCH  18  22
HETATM   22  C2  UNL     1     -14.248   8.378  12.794  1.00  0.00     0.120 C 
HETATM   23  C1  UNL     1     -15.268   7.325  12.397  1.00  0.00     0.026 C 
ENDBRANCH  18  22
ENDBRANCH  10  12
ENDBRANCH   1  10
BRANCH   7  24
HETATM   24  C11 UNL     1      -4.307   3.925  12.128  1.00  0.00     0.020 A 
HETATM   25  C12 UNL     1      -3.854   3.587  10.868  1.00  0.00     0.103 A 
HETATM   26  N5  UNL     1      -2.550   3.991  10.762  1.00  0.00    -0.364 N 
HETATM   27  C13 UNL     1      -2.130   4.564  11.941  1.00  0.00     0.043 A 
HETATM   28  H15 UNL     1      -1.967   3.874   9.945  1.00  0.00     0.165 HD
HETATM   29  C14 UNL     1      -0.885   5.103  12.288  1.00  0.00     0.030 A 
HETATM   30  C18 UNL     1      -3.210   4.525  12.825  1.00  0.00     0.004 A 
HETATM   31  C15 UNL     1      -0.739   5.616  13.580  1.00  0.00     0.002 A 
HETATM   32  C16 UNL     1      -1.797   5.590  14.486  1.00  0.00     0.001 A 
HETATM   33  C17 UNL     1      -3.034   5.048  14.122  1.00  0.00     0.014 A 
ENDBRANCH   7  24
TORSDOF 4
ENDMDL
MODEL 8
REMARK minimizedAffinity -8.7653513
REMARK  4 active torsions:
REMARK  status: ('A' for Active; 'I' for Inactive)
REMARK    1  A    between atoms: C2_2  and  N1_3 
REMARK       I    between atoms: N1_3  and  C3_4 
REMARK       I    between atoms: C3_4  and  N2_6 
REMARK    2  A    between atoms: C6_9  and  N3_10 
REMARK    3  A    between atoms: N3_10  and  C7_11 
REMARK    4  A    between atoms: C10_17  and  C11_18 
ROOT
HETATM    1  C7  UNL     1      -3.219   7.403  14.545  1.00  0.00     0.158 A 
HETATM    2  N4  UNL     1      -3.571   8.645  14.904  1.00  0.00    -0.341 N 
ATOM      3  H4  UNL     1      -2.881   9.388  15.004  1.00  0.00     0.167 HD
HETATM    4  C8  UNL     1      -4.885   8.866  15.126  1.00  0.00     0.116 A 
HETATM    5  C9  UNL     1      -5.861   7.905  15.006  1.00  0.00     0.077 A 
HETATM    6 CL1  UNL     1      -7.505   8.318  15.280  1.00  0.00    -0.080 Cl
HETATM    7  C10 UNL     1      -5.397   6.659  14.631  1.00  0.00     0.070 A 
HETATM    8  N6  UNL     1      -4.087   6.401  14.388  1.00  0.00    -0.331 N 
ATOM      9  H6  UNL     1      -3.777   5.475  14.094  1.00  0.00     0.168 HD
ENDROOT
BRANCH   1  10
HETATM   10  N3  UNL     1      -1.891   7.081  14.306  1.00  0.00    -0.259 NA
HETATM   11  H12 UNL     1      -1.924   6.162  13.873  1.00  0.00     0.131 HD
BRANCH  10  12
HETATM   12  C6  UNL     1      -1.099   8.090  13.602  1.00  0.00     0.066 C 
HETATM   13  C5  UNL     1       0.381   7.676  13.551  1.00  0.00     0.040 C 
HETATM   14  C4  UNL     1       0.748   6.981  12.244  1.00  0.00     0.129 C 
HETATM   15  N2  UNL     1       0.445   7.814  11.077  1.00  0.00    -0.334 N 
HETATM   16  C3  UNL     1       1.188   7.842   9.908  1.00  0.00     0.318 C 
HETATM   17  C20 UNL     1      -0.640   8.780  11.215  1.00  0.00     0.129 C 
HETATM   18  N1  UNL     1       2.098   6.823   9.782  1.00  0.00    -0.343 N 
HETATM   19  O1  UNL     1       1.045   8.708   9.049  1.00  0.00    -0.247 OA
HETATM   20  H6  UNL     1       1.858   5.966  10.254  1.00  0.00     0.164 HD
HETATM   21  C19 UNL     1      -1.693   8.289  12.197  1.00  0.00     0.040 C 
BRANCH  18  22
HETATM   22  C2  UNL     1       2.916   6.694   8.593  1.00  0.00     0.120 C 
HETATM   23  C1  UNL     1       2.077   6.632   7.327  1.00  0.00     0.026 C 
ENDBRANCH  18  22
ENDBRANCH  10  12
ENDBRANCH   1  10
BRANCH   7  24
HETATM   24  C11 UNL     1      -6.268   5.510  14.439  1.00  0.00     0.020 A 
HETATM   25  C12 UNL     1      -7.330   5.203  15.267  1.00  0.00     0.103 A 
HETATM   26  N5  UNL     1      -7.910   4.052  14.806  1.00  0.00    -0.364 N 
HETATM   27  C13 UNL     1      -7.231   3.582  13.705  1.00  0.00     0.043 A 
HETATM   28  H15 UNL     1      -8.713   3.596  15.218  1.00  0.00     0.165 HD
HETATM   29  C14 UNL     1      -7.461   2.445  12.921  1.00  0.00     0.030 A 
HETATM   30  C18 UNL     1      -6.183   4.472  13.458  1.00  0.00     0.004 A 
HETATM   31  C15 UNL     1      -6.590   2.207  11.853  1.00  0.00     0.002 A 
HETATM   32  C16 UNL     1      -5.534   3.074  11.582  1.00  0.00     0.001 A 
HETATM   33  C17 UNL     1      -5.320   4.206  12.375  1.00  0.00     0.014 A 
ENDBRANCH   7  24
TORSDOF 4
ENDMDL
MODEL 9
REMARK minimizedAffinity -8.71893787
REMARK  4 active torsions:
REMARK  status: ('A' for Active; 'I' for Inactive)
REMARK    1  A    between atoms: C2_2  and  N1_3 
REMARK       I    between atoms: N1_3  and  C3_4 
REMARK       I    between atoms: C3_4  and  N2_6 
REMARK    2  A    between atoms: C6_9  and  N3_10 
REMARK    3  A    between atoms: N3_10  and  C7_11 
REMARK    4  A    between atoms: C10_17  and  C11_18 
ROOT
HETATM    1  C7  UNL     1      -3.851   5.044  12.952  1.00  0.00     0.158 A 
HETATM    2  N4  UNL     1      -3.750   3.812  12.437  1.00  0.00    -0.341 N 
ATOM      3  H4  UNL     1      -2.861   3.448  12.095  1.00  0.00     0.167 HD
HETATM    4  C8  UNL     1      -4.880   3.075  12.390  1.00  0.00     0.116 A 
HETATM    5  C9  UNL     1      -6.105   3.512  12.835  1.00  0.00     0.077 A 
HETATM    6 CL1  UNL     1      -7.465   2.467  12.758  1.00  0.00    -0.080 Cl
HETATM    7  C10 UNL     1      -6.105   4.794  13.350  1.00  0.00     0.070 A 
HETATM    8  N6  UNL     1      -4.988   5.560  13.424  1.00  0.00    -0.331 N 
ATOM      9  H6  UNL     1      -5.016   6.498  13.826  1.00  0.00     0.168 HD
ENDROOT
BRANCH   1  10
HETATM   10  N3  UNL     1      -2.744   5.876  13.030  1.00  0.00    -0.259 NA
HETATM   11  H12 UNL     1      -2.876   6.398  13.892  1.00  0.00     0.131 HD
BRANCH  10  12
HETATM   12  C6  UNL     1      -1.440   5.233  12.867  1.00  0.00     0.066 C 
HETATM   13  C5  UNL     1      -1.088   5.097  11.376  1.00  0.00     0.040 C 
HETATM   14  C4  UNL     1      -0.198   6.232  10.881  1.00  0.00     0.129 C 
HETATM   15  N2  UNL     1       1.041   6.335  11.656  1.00  0.00    -0.334 N 
HETATM   16  C3  UNL     1       2.269   6.717  11.143  1.00  0.00     0.318 C 
HETATM   17  C20 UNL     1       0.999   5.870  13.039  1.00  0.00     0.129 C 
HETATM   18  N1  UNL     1       2.220   7.273   9.889  1.00  0.00    -0.343 N 
HETATM   19  O1  UNL     1       3.322   6.572  11.758  1.00  0.00    -0.247 OA
HETATM   20  H6  UNL     1       1.362   7.749   9.660  1.00  0.00     0.164 HD
HETATM   21  C19 UNL     1      -0.388   6.048  13.638  1.00  0.00     0.040 C 
BRANCH  18  22
HETATM   22  C2  UNL     1       3.419   7.762   9.240  1.00  0.00     0.120 C 
HETATM   23  C1  UNL     1       3.103   8.585   8.003  1.00  0.00     0.026 C 
ENDBRANCH  18  22
ENDBRANCH  10  12
ENDBRANCH   1  10
BRANCH   7  24
HETATM   24  C11 UNL     1      -7.296   5.439  13.882  1.00  0.00     0.020 A 
HETATM   25  C12 UNL     1      -7.541   5.611  15.231  1.00  0.00     0.103 A 
HETATM   26  N5  UNL     1      -8.755   6.229  15.367  1.00  0.00    -0.364 N 
HETATM   27  C13 UNL     1      -9.324   6.442  14.132  1.00  0.00     0.043 A 
HETATM   28  H15 UNL     1      -9.186   6.482  16.246  1.00  0.00     0.165 HD
HETATM   29  C14 UNL     1     -10.550   7.027  13.794  1.00  0.00     0.030 A 
HETATM   30  C18 UNL     1      -8.436   5.942  13.178  1.00  0.00     0.004 A 
HETATM   31  C15 UNL     1     -10.879   7.103  12.437  1.00  0.00     0.002 A 
HETATM   32  C16 UNL     1     -10.016   6.612  11.461  1.00  0.00     0.001 A 
HETATM   33  C17 UNL     1      -8.794   6.030  11.817  1.00  0.00     0.014 A 
ENDBRANCH   7  24
TORSDOF 4
ENDMDL
