MODEL 1
REMARK minimizedAffinity -9.6169939
REMARK  9 active torsions:
REMARK  status: ('A' for Active; 'I' for Inactive)
REMARK    1  A    between atoms: C2_2  and  C4_4 
REMARK    2  A    between atoms: C4_4  and  O1_5 
REMARK    3  A    between atoms: C4_4  and  C5_7 
REMARK    4  A    between atoms: O1_5  and  O2_6 
REMARK    5  A    between atoms: C5_7  and  O3_8 
REMARK    6  A    between atoms: C5_7  and  C6_9 
REMARK    7  A    between atoms: C6_9  and  C7_10 
REMARK    8  A    between atoms: C7_10  and  C9_12 
REMARK    9  A    between atoms: C20_23  and  O4_24 
ROOT
HETATM    1  C9  UNL     1      -3.494  50.637 -25.828  1.00  0.00    -0.002 C 
HETATM    2  C10 UNL     1      -4.180  49.241 -25.932  1.00  0.00     0.006 C 
HETATM    3  C11 UNL     1      -3.715  48.395 -24.731  1.00  0.00     0.011 C 
HETATM    4  C12 UNL     1      -3.061  49.401 -23.774  1.00  0.00    -0.032 C 
HETATM    5  C13 UNL     1      -4.219  50.087 -22.967  1.00  0.00     0.016 C 
HETATM    6  C14 UNL     1      -2.021  48.807 -22.764  1.00  0.00     0.004 C 
HETATM    7  C15 UNL     1      -2.637  47.671 -21.907  1.00  0.00     0.006 C 
HETATM    8  C16 UNL     1      -2.366  47.682 -20.407  1.00  0.00     0.006 C 
HETATM    9  C17 UNL     1      -2.541  49.081 -19.807  1.00  0.00     0.001 C 
HETATM   10  C18 UNL     1      -2.241  49.142 -18.288  1.00  0.00     0.015 C 
HETATM   11  C19 UNL     1      -2.908  48.031 -17.471  1.00  0.00     0.013 C 
HETATM   12  C20 UNL     1      -2.656  50.520 -17.717  1.00  0.00     0.122 C 
HETATM   13  C21 UNL     1      -2.763  51.620 -18.774  1.00  0.00     0.033 C 
HETATM   14  C22 UNL     1      -1.696  51.503 -19.860  1.00  0.00     0.013 C 
HETATM   15  C23 UNL     1      -1.644  50.118 -20.498  1.00  0.00    -0.027 A 
HETATM   16  C24 UNL     1      -0.283  49.646 -20.967  1.00  0.00     0.021 A 
HETATM   17  C25 UNL     1      -1.340  49.971 -22.001  1.00  0.00    -0.027 A 
HETATM   18  C26 UNL     1      -0.874  51.143 -22.883  1.00  0.00     0.011 C 
HETATM   19  C27 UNL     1      -1.843  51.577 -23.990  1.00  0.00     0.011 C 
HETATM   20  C28 UNL     1      -2.348  50.371 -24.798  1.00  0.00    -0.032 C 
HETATM   21  C29 UNL     1      -1.144  49.725 -25.552  1.00  0.00     0.016 C 
ENDROOT
BRANCH   1  22
HETATM   22  C7  UNL     1      -3.166  51.231 -27.236  1.00  0.00    -0.011 C 
HETATM   23  C8  UNL     1      -3.445  50.234 -28.364  1.00  0.00     0.010 C 
BRANCH  22  24
HETATM   24  C6  UNL     1      -1.686  51.699 -27.287  1.00  0.00     0.039 C 
BRANCH  24  25
HETATM   25  C5  UNL     1      -1.419  53.218 -27.194  1.00  0.00     0.154 C 
BRANCH  25  26
HETATM   26  C4  UNL     1       0.092  53.577 -27.054  1.00  0.00     0.216 C 
BRANCH  26  27
HETATM   27  C2  UNL     1       1.086  52.427 -26.872  1.00  0.00    -0.059 C 
HETATM   28  C1  UNL     1       1.545  51.977 -25.691  1.00  0.00     0.016 C 
HETATM   29  C3  UNL     1       1.522  51.754 -28.147  1.00  0.00     0.045 C 
ENDBRANCH  26  27
BRANCH  26  30
HETATM   30  O1  UNL     1       0.240  54.486 -25.946  1.00  0.00    -0.231 OA
BRANCH  30  31
HETATM   31  O2  UNL     1       0.205  55.839 -26.494  1.00  0.00    -0.250 OA
HETATM   32  H7  UNL     1       1.047  56.130 -26.096  1.00  0.00     0.253 HD
ENDBRANCH  30  31
ENDBRANCH  26  30
ENDBRANCH  25  26
BRANCH  25  33
HETATM   33  O3  UNL     1      -1.987  53.815 -28.376  1.00  0.00    -0.393 OA
HETATM   34  H9  UNL     1      -2.900  53.496 -28.461  1.00  0.00     0.210 HD
ENDBRANCH  25  33
ENDBRANCH  24  25
ENDBRANCH  22  24
ENDBRANCH   1  22
BRANCH  12  35
HETATM   35  O4  UNL     1      -1.701  50.896 -16.723  1.00  0.00    -0.395 OA
HETATM   36  H35 UNL     1      -2.002  51.731 -16.326  1.00  0.00     0.210 HD
ENDBRANCH  12  35
TORSDOF 9
ENDMDL
MODEL 2
REMARK minimizedAffinity -9.59209347
REMARK  9 active torsions:
REMARK  status: ('A' for Active; 'I' for Inactive)
REMARK    1  A    between atoms: C2_2  and  C4_4 
REMARK    2  A    between atoms: C4_4  and  O1_5 
REMARK    3  A    between atoms: C4_4  and  C5_7 
REMARK    4  A    between atoms: O1_5  and  O2_6 
REMARK    5  A    between atoms: C5_7  and  O3_8 
REMARK    6  A    between atoms: C5_7  and  C6_9 
REMARK    7  A    between atoms: C6_9  and  C7_10 
REMARK    8  A    between atoms: C7_10  and  C9_12 
REMARK    9  A    between atoms: C20_23  and  O4_24 
ROOT
HETATM    1  C9  UNL     1      -6.625  48.995 -23.855  1.00  0.00    -0.002 C 
HETATM    2  C10 UNL     1      -7.500  49.561 -22.695  1.00  0.00     0.006 C 
HETATM    3  C11 UNL     1      -6.570  49.865 -21.506  1.00  0.00     0.011 C 
HETATM    4  C12 UNL     1      -5.153  49.810 -22.093  1.00  0.00    -0.032 C 
HETATM    5  C13 UNL     1      -4.886  51.195 -22.782  1.00  0.00     0.016 C 
HETATM    6  C14 UNL     1      -4.001  49.521 -21.073  1.00  0.00     0.004 C 
HETATM    7  C15 UNL     1      -3.991  50.548 -19.911  1.00  0.00     0.006 C 
HETATM    8  C16 UNL     1      -2.651  51.148 -19.500  1.00  0.00     0.006 C 
HETATM    9  C17 UNL     1      -1.821  51.572 -20.716  1.00  0.00     0.001 C 
HETATM   10  C18 UNL     1      -0.435  52.156 -20.342  1.00  0.00     0.015 C 
HETATM   11  C19 UNL     1      -0.475  53.203 -19.224  1.00  0.00     0.013 C 
HETATM   12  C20 UNL     1       0.243  52.766 -21.593  1.00  0.00     0.122 C 
HETATM   13  C21 UNL     1      -0.309  52.234 -22.916  1.00  0.00     0.033 C 
HETATM   14  C22 UNL     1      -0.665  50.749 -22.854  1.00  0.00     0.013 C 
HETATM   15  C23 UNL     1      -1.584  50.406 -21.685  1.00  0.00    -0.027 A 
HETATM   16  C24 UNL     1      -1.410  49.030 -21.076  1.00  0.00     0.021 A 
HETATM   17  C25 UNL     1      -2.675  49.330 -21.852  1.00  0.00    -0.027 A 
HETATM   18  C26 UNL     1      -2.770  48.413 -23.084  1.00  0.00     0.011 C 
HETATM   19  C27 UNL     1      -4.014  48.595 -23.962  1.00  0.00     0.011 C 
HETATM   20  C28 UNL     1      -5.298  48.616 -23.118  1.00  0.00    -0.032 C 
HETATM   21  C29 UNL     1      -5.486  47.221 -22.446  1.00  0.00     0.016 C 
ENDROOT
BRANCH   1  22
HETATM   22  C7  UNL     1      -7.393  47.925 -24.696  1.00  0.00    -0.011 C 
HETATM   23  C8  UNL     1      -6.791  47.743 -26.092  1.00  0.00     0.010 C 
BRANCH  22  24
HETATM   24  C6  UNL     1      -8.895  48.308 -24.805  1.00  0.00     0.039 C 
BRANCH  24  25
HETATM   25  C5  UNL     1      -9.399  48.815 -26.174  1.00  0.00     0.154 C 
BRANCH  25  26
HETATM   26  C4  UNL     1     -10.624  48.019 -26.720  1.00  0.00     0.216 C 
BRANCH  26  27
HETATM   27  C2  UNL     1     -10.615  47.619 -28.197  1.00  0.00    -0.059 C 
HETATM   28  C1  UNL     1     -11.636  47.793 -29.055  1.00  0.00     0.016 C 
HETATM   29  C3  UNL     1      -9.322  47.022 -28.688  1.00  0.00     0.045 C 
ENDBRANCH  26  27
BRANCH  26  30
HETATM   30  O1  UNL     1     -11.814  48.790 -26.464  1.00  0.00    -0.231 OA
BRANCH  30  31
HETATM   31  O2  UNL     1     -12.600  48.785 -27.694  1.00  0.00    -0.250 OA
HETATM   32  H7  UNL     1     -12.684  49.755 -27.762  1.00  0.00     0.253 HD
ENDBRANCH  30  31
ENDBRANCH  26  30
ENDBRANCH  25  26
BRANCH  25  33
HETATM   33  O3  UNL     1      -9.718  50.211 -26.010  1.00  0.00    -0.393 OA
HETATM   34  H9  UNL     1      -8.956  50.644 -25.593  1.00  0.00     0.210 HD
ENDBRANCH  25  33
ENDBRANCH  24  25
ENDBRANCH  22  24
ENDBRANCH   1  22
BRANCH  12  35
HETATM   35  O4  UNL     1       1.645  52.503 -21.514  1.00  0.00    -0.395 OA
HETATM   36  H35 UNL     1       2.071  52.942 -22.269  1.00  0.00     0.210 HD
ENDBRANCH  12  35
TORSDOF 9
ENDMDL
MODEL 3
REMARK minimizedAffinity -9.55592918
REMARK  9 active torsions:
REMARK  status: ('A' for Active; 'I' for Inactive)
REMARK    1  A    between atoms: C2_2  and  C4_4 
REMARK    2  A    between atoms: C4_4  and  O1_5 
REMARK    3  A    between atoms: C4_4  and  C5_7 
REMARK    4  A    between atoms: O1_5  and  O2_6 
REMARK    5  A    between atoms: C5_7  and  O3_8 
REMARK    6  A    between atoms: C5_7  and  C6_9 
REMARK    7  A    between atoms: C6_9  and  C7_10 
REMARK    8  A    between atoms: C7_10  and  C9_12 
REMARK    9  A    between atoms: C20_23  and  O4_24 
ROOT
HETATM    1  C9  UNL     1      -1.606  50.321 -23.714  1.00  0.00    -0.002 C 
HETATM    2  C10 UNL     1      -0.599  51.466 -24.041  1.00  0.00     0.006 C 
HETATM    3  C11 UNL     1      -0.336  52.251 -22.742  1.00  0.00     0.011 C 
HETATM    4  C12 UNL     1      -0.901  51.361 -21.627  1.00  0.00    -0.032 C 
HETATM    5  C13 UNL     1       0.189  50.276 -21.307  1.00  0.00     0.016 C 
HETATM    6  C14 UNL     1      -1.292  52.094 -20.299  1.00  0.00     0.004 C 
HETATM    7  C15 UNL     1      -0.099  52.890 -19.709  1.00  0.00     0.006 C 
HETATM    8  C16 UNL     1       0.172  52.768 -18.214  1.00  0.00     0.006 C 
HETATM    9  C17 UNL     1       0.097  51.313 -17.740  1.00  0.00     0.001 C 
HETATM   10  C18 UNL     1       0.332  51.149 -16.216  1.00  0.00     0.015 C 
HETATM   11  C19 UNL     1       1.550  51.912 -15.684  1.00  0.00     0.013 C 
HETATM   12  C20 UNL     1       0.467  49.650 -15.855  1.00  0.00     0.122 C 
HETATM   13  C21 UNL     1      -0.142  48.706 -16.894  1.00  0.00     0.033 C 
HETATM   14  C22 UNL     1      -1.424  49.259 -17.514  1.00  0.00     0.013 C 
HETATM   15  C23 UNL     1      -1.258  50.670 -18.070  1.00  0.00    -0.027 A 
HETATM   16  C24 UNL     1      -2.478  51.565 -18.003  1.00  0.00     0.021 A 
HETATM   17  C25 UNL     1      -1.996  51.086 -19.356  1.00  0.00    -0.027 A 
HETATM   18  C26 UNL     1      -3.076  50.216 -20.024  1.00  0.00     0.011 C 
HETATM   19  C27 UNL     1      -2.732  49.667 -21.414  1.00  0.00     0.011 C 
HETATM   20  C28 UNL     1      -2.186  50.771 -22.333  1.00  0.00    -0.032 C 
HETATM   21  C29 UNL     1      -3.310  51.823 -22.587  1.00  0.00     0.016 C 
ENDROOT
BRANCH   1  22
HETATM   22  C7  UNL     1      -2.563  50.027 -24.914  1.00  0.00    -0.011 C 
HETATM   23  C8  UNL     1      -3.262  48.672 -24.778  1.00  0.00     0.010 C 
BRANCH  22  24
HETATM   24  C6  UNL     1      -1.778  50.095 -26.253  1.00  0.00     0.039 C 
BRANCH  24  25
HETATM   25  C5  UNL     1      -2.208  51.172 -27.273  1.00  0.00     0.154 C 
BRANCH  25  26
HETATM   26  C4  UNL     1      -1.019  52.018 -27.824  1.00  0.00     0.216 C 
BRANCH  26  27
HETATM   27  C2  UNL     1       0.401  51.522 -27.540  1.00  0.00    -0.059 C 
HETATM   28  C1  UNL     1       0.738  50.635 -26.587  1.00  0.00     0.016 C 
HETATM   29  C3  UNL     1       1.463  52.074 -28.455  1.00  0.00     0.045 C 
ENDBRANCH  26  27
BRANCH  26  30
HETATM   30  O1  UNL     1      -1.144  53.359 -27.314  1.00  0.00    -0.231 OA
BRANCH  30  31
HETATM   31  O2  UNL     1      -1.898  54.125 -28.301  1.00  0.00    -0.250 OA
HETATM   32  H7  UNL     1      -1.242  54.840 -28.396  1.00  0.00     0.253 HD
ENDBRANCH  30  31
ENDBRANCH  26  30
ENDBRANCH  25  26
BRANCH  25  33
HETATM   33  O3  UNL     1      -2.896  50.487 -28.338  1.00  0.00    -0.393 OA
HETATM   34  H9  UNL     1      -3.569  49.914 -27.938  1.00  0.00     0.210 HD
ENDBRANCH  25  33
ENDBRANCH  24  25
ENDBRANCH  22  24
ENDBRANCH   1  22
BRANCH  12  35
HETATM   35  O4  UNL     1      -0.156  49.439 -14.587  1.00  0.00    -0.395 OA
HETATM   36  H35 UNL     1      -0.013  48.509 -14.339  1.00  0.00     0.210 HD
ENDBRANCH  12  35
TORSDOF 9
ENDMDL
MODEL 4
REMARK minimizedAffinity -9.53531742
REMARK  9 active torsions:
REMARK  status: ('A' for Active; 'I' for Inactive)
REMARK    1  A    between atoms: C2_2  and  C4_4 
REMARK    2  A    between atoms: C4_4  and  O1_5 
REMARK    3  A    between atoms: C4_4  and  C5_7 
REMARK    4  A    between atoms: O1_5  and  O2_6 
REMARK    5  A    between atoms: C5_7  and  O3_8 
REMARK    6  A    between atoms: C5_7  and  C6_9 
REMARK    7  A    between atoms: C6_9  and  C7_10 
REMARK    8  A    between atoms: C7_10  and  C9_12 
REMARK    9  A    between atoms: C20_23  and  O4_24 
ROOT
HETATM    1  C9  UNL     1      -0.938  52.397 -21.774  1.00  0.00    -0.002 C 
HETATM    2  C10 UNL     1      -0.334  52.379 -23.212  1.00  0.00     0.006 C 
HETATM    3  C11 UNL     1      -0.962  51.197 -23.975  1.00  0.00     0.011 C 
HETATM    4  C12 UNL     1      -2.157  50.767 -23.113  1.00  0.00    -0.032 C 
HETATM    5  C13 UNL     1      -3.342  51.741 -23.451  1.00  0.00     0.016 C 
HETATM    6  C14 UNL     1      -2.644  49.290 -23.307  1.00  0.00     0.004 C 
HETATM    7  C15 UNL     1      -2.996  48.991 -24.787  1.00  0.00     0.006 C 
HETATM    8  C16 UNL     1      -4.293  48.243 -25.075  1.00  0.00     0.006 C 
HETATM    9  C17 UNL     1      -5.462  48.796 -24.254  1.00  0.00     0.001 C 
HETATM   10  C18 UNL     1      -6.794  48.040 -24.493  1.00  0.00     0.015 C 
HETATM   11  C19 UNL     1      -7.129  47.808 -25.970  1.00  0.00     0.013 C 
HETATM   12  C20 UNL     1      -7.964  48.792 -23.813  1.00  0.00     0.122 C 
HETATM   13  C21 UNL     1      -7.523  49.742 -22.698  1.00  0.00     0.033 C 
HETATM   14  C22 UNL     1      -6.354  49.193 -21.882  1.00  0.00     0.013 C 
HETATM   15  C23 UNL     1      -5.174  48.761 -22.747  1.00  0.00    -0.027 A 
HETATM   16  C24 UNL     1      -4.354  47.596 -22.231  1.00  0.00     0.021 A 
HETATM   17  C25 UNL     1      -3.732  48.977 -22.250  1.00  0.00    -0.027 A 
HETATM   18  C26 UNL     1      -3.395  49.424 -20.817  1.00  0.00     0.011 C 
HETATM   19  C27 UNL     1      -2.742  50.805 -20.680  1.00  0.00     0.011 C 
HETATM   20  C28 UNL     1      -1.571  50.971 -21.660  1.00  0.00    -0.032 C 
HETATM   21  C29 UNL     1      -0.445  49.959 -21.282  1.00  0.00     0.016 C 
ENDROOT
BRANCH   1  22
HETATM   22  C7  UNL     1       0.098  52.887 -20.713  1.00  0.00    -0.011 C 
HETATM   23  C8  UNL     1       1.494  53.078 -21.312  1.00  0.00     0.010 C 
BRANCH  22  24
HETATM   24  C6  UNL     1       0.157  51.891 -19.523  1.00  0.00     0.039 C 
BRANCH  24  25
HETATM   25  C5  UNL     1       0.541  52.461 -18.139  1.00  0.00     0.154 C 
BRANCH  25  26
HETATM   26  C4  UNL     1       0.655  51.372 -17.028  1.00  0.00     0.216 C 
BRANCH  26  27
HETATM   27  C2  UNL     1      -0.437  50.303 -16.961  1.00  0.00    -0.059 C 
HETATM   28  C1  UNL     1      -1.725  50.486 -17.299  1.00  0.00     0.016 C 
HETATM   29  C3  UNL     1       0.030  48.942 -16.511  1.00  0.00     0.045 C 
ENDBRANCH  26  27
BRANCH  26  30
HETATM   30  O1  UNL     1       0.721  52.036 -15.751  1.00  0.00    -0.231 OA
BRANCH  30  31
HETATM   31  O2  UNL     1       1.456  53.281 -15.952  1.00  0.00    -0.250 OA
HETATM   32  H7  UNL     1       2.117  53.121 -15.253  1.00  0.00     0.253 HD
ENDBRANCH  30  31
ENDBRANCH  26  30
ENDBRANCH  25  26
BRANCH  25  33
HETATM   33  O3  UNL     1       1.789  53.162 -18.309  1.00  0.00    -0.393 OA
HETATM   34  H9  UNL     1       1.691  53.765 -19.063  1.00  0.00     0.210 HD
ENDBRANCH  25  33
ENDBRANCH  24  25
ENDBRANCH  22  24
ENDBRANCH   1  22
BRANCH  12  35
HETATM   35  O4  UNL     1      -8.872  47.821 -23.289  1.00  0.00    -0.395 OA
HETATM   36  H35 UNL     1      -9.634  48.300 -22.919  1.00  0.00     0.210 HD
ENDBRANCH  12  35
TORSDOF 9
ENDMDL
MODEL 5
REMARK minimizedAffinity -9.27704811
REMARK  9 active torsions:
REMARK  status: ('A' for Active; 'I' for Inactive)
REMARK    1  A    between atoms: C2_2  and  C4_4 
REMARK    2  A    between atoms: C4_4  and  O1_5 
REMARK    3  A    between atoms: C4_4  and  C5_7 
REMARK    4  A    between atoms: O1_5  and  O2_6 
REMARK    5  A    between atoms: C5_7  and  O3_8 
REMARK    6  A    between atoms: C5_7  and  C6_9 
REMARK    7  A    between atoms: C6_9  and  C7_10 
REMARK    8  A    between atoms: C7_10  and  C9_12 
REMARK    9  A    between atoms: C20_23  and  O4_24 
ROOT
HETATM    1  C9  UNL     1      -3.053  51.122 -25.466  1.00  0.00    -0.002 C 
HETATM    2  C10 UNL     1      -4.084  52.240 -25.119  1.00  0.00     0.006 C 
HETATM    3  C11 UNL     1      -4.649  51.945 -23.717  1.00  0.00     0.011 C 
HETATM    4  C12 UNL     1      -3.705  50.886 -23.131  1.00  0.00    -0.032 C 
HETATM    5  C13 UNL     1      -2.450  51.647 -22.572  1.00  0.00     0.016 C 
HETATM    6  C14 UNL     1      -4.304  49.992 -21.993  1.00  0.00     0.004 C 
HETATM    7  C15 UNL     1      -4.847  50.845 -20.817  1.00  0.00     0.006 C 
HETATM    8  C16 UNL     1      -4.494  50.411 -19.398  1.00  0.00     0.006 C 
HETATM    9  C17 UNL     1      -3.014  50.039 -19.269  1.00  0.00     0.001 C 
HETATM   10  C18 UNL     1      -2.621  49.560 -17.848  1.00  0.00     0.015 C 
HETATM   11  C19 UNL     1      -3.136  50.457 -16.718  1.00  0.00     0.013 C 
HETATM   12  C20 UNL     1      -1.084  49.423 -17.737  1.00  0.00     0.122 C 
HETATM   13  C21 UNL     1      -0.376  49.283 -19.085  1.00  0.00     0.033 C 
HETATM   14  C22 UNL     1      -1.174  48.450 -20.087  1.00  0.00     0.013 C 
HETATM   15  C23 UNL     1      -2.610  48.936 -20.257  1.00  0.00    -0.027 A 
HETATM   16  C24 UNL     1      -3.646  47.875 -20.564  1.00  0.00     0.021 A 
HETATM   17  C25 UNL     1      -3.287  48.878 -21.640  1.00  0.00    -0.027 A 
HETATM   18  C26 UNL     1      -2.667  48.157 -22.849  1.00  0.00     0.011 C 
HETATM   19  C27 UNL     1      -2.263  49.049 -24.030  1.00  0.00     0.011 C 
HETATM   20  C28 UNL     1      -3.393  50.017 -24.412  1.00  0.00    -0.032 C 
HETATM   21  C29 UNL     1      -4.612  49.194 -24.934  1.00  0.00     0.016 C 
ENDROOT
BRANCH   1  22
HETATM   22  C7  UNL     1      -3.052  50.784 -26.992  1.00  0.00    -0.011 C 
HETATM   23  C8  UNL     1      -3.041  49.275 -27.250  1.00  0.00     0.010 C 
BRANCH  22  24
HETATM   24  C6  UNL     1      -1.836  51.456 -27.687  1.00  0.00     0.039 C 
BRANCH  24  25
HETATM   25  C5  UNL     1      -1.457  52.882 -27.229  1.00  0.00     0.154 C 
BRANCH  25  26
HETATM   26  C4  UNL     1       0.080  53.099 -27.076  1.00  0.00     0.216 C 
BRANCH  26  27
HETATM   27  C2  UNL     1       0.916  51.934 -26.542  1.00  0.00    -0.059 C 
HETATM   28  C1  UNL     1       0.574  51.140 -25.512  1.00  0.00     0.016 C 
HETATM   29  C3  UNL     1       2.198  51.673 -27.290  1.00  0.00     0.045 C 
ENDBRANCH  26  27
BRANCH  26  30
HETATM   30  O1  UNL     1       0.293  54.241 -26.224  1.00  0.00    -0.231 OA
BRANCH  30  31
HETATM   31  O2  UNL     1       0.077  55.431 -27.040  1.00  0.00    -0.250 OA
HETATM   32  H7  UNL     1       0.936  55.847 -26.838  1.00  0.00     0.253 HD
ENDBRANCH  30  31
ENDBRANCH  26  30
ENDBRANCH  25  26
BRANCH  25  33
HETATM   33  O3  UNL     1      -2.017  53.793 -28.195  1.00  0.00    -0.393 OA
HETATM   34  H9  UNL     1      -2.952  53.563 -28.314  1.00  0.00     0.210 HD
ENDBRANCH  25  33
ENDBRANCH  24  25
ENDBRANCH  22  24
ENDBRANCH   1  22
BRANCH  12  35
HETATM   35  O4  UNL     1      -0.795  48.287 -16.919  1.00  0.00    -0.395 OA
HETATM   36  H35 UNL     1       0.169  48.245 -16.803  1.00  0.00     0.210 HD
ENDBRANCH  12  35
TORSDOF 9
ENDMDL
MODEL 6
REMARK minimizedAffinity -9.18463039
REMARK  9 active torsions:
REMARK  status: ('A' for Active; 'I' for Inactive)
REMARK    1  A    between atoms: C2_2  and  C4_4 
REMARK    2  A    between atoms: C4_4  and  O1_5 
REMARK    3  A    between atoms: C4_4  and  C5_7 
REMARK    4  A    between atoms: O1_5  and  O2_6 
REMARK    5  A    between atoms: C5_7  and  O3_8 
REMARK    6  A    between atoms: C5_7  and  C6_9 
REMARK    7  A    between atoms: C6_9  and  C7_10 
REMARK    8  A    between atoms: C7_10  and  C9_12 
REMARK    9  A    between atoms: C20_23  and  O4_24 
ROOT
HETATM    1  C9  UNL     1      -2.171  51.413 -22.460  1.00  0.00    -0.002 C 
HETATM    2  C10 UNL     1      -3.160  52.394 -23.163  1.00  0.00     0.006 C 
HETATM    3  C11 UNL     1      -4.508  51.669 -23.329  1.00  0.00     0.011 C 
HETATM    4  C12 UNL     1      -4.401  50.433 -22.425  1.00  0.00    -0.032 C 
HETATM    5  C13 UNL     1      -4.723  50.904 -20.962  1.00  0.00     0.016 C 
HETATM    6  C14 UNL     1      -5.342  49.235 -22.790  1.00  0.00     0.004 C 
HETATM    7  C15 UNL     1      -6.831  49.664 -22.829  1.00  0.00     0.006 C 
HETATM    8  C16 UNL     1      -7.852  48.763 -22.145  1.00  0.00     0.006 C 
HETATM    9  C17 UNL     1      -7.370  48.303 -20.765  1.00  0.00     0.001 C 
HETATM   10  C18 UNL     1      -8.366  47.355 -20.049  1.00  0.00     0.015 C 
HETATM   11  C19 UNL     1      -9.819  47.841 -20.068  1.00  0.00     0.013 C 
HETATM   12  C20 UNL     1      -7.922  47.121 -18.585  1.00  0.00     0.122 C 
HETATM   13  C21 UNL     1      -6.441  47.412 -18.335  1.00  0.00     0.033 C 
HETATM   14  C22 UNL     1      -5.551  47.002 -19.507  1.00  0.00     0.013 C 
HETATM   15  C23 UNL     1      -6.018  47.581 -20.840  1.00  0.00    -0.027 A 
HETATM   16  C24 UNL     1      -5.758  46.733 -22.068  1.00  0.00     0.021 A 
HETATM   17  C25 UNL     1      -4.984  48.023 -21.894  1.00  0.00    -0.027 A 
HETATM   18  C26 UNL     1      -3.480  47.725 -21.772  1.00  0.00     0.011 C 
HETATM   19  C27 UNL     1      -2.565  48.944 -21.604  1.00  0.00     0.011 C 
HETATM   20  C28 UNL     1      -2.887  50.034 -22.637  1.00  0.00    -0.032 C 
HETATM   21  C29 UNL     1      -2.568  49.490 -24.065  1.00  0.00     0.016 C 
ENDROOT
BRANCH   1  22
HETATM   22  C7  UNL     1      -0.703  51.610 -22.958  1.00  0.00    -0.011 C 
HETATM   23  C8  UNL     1       0.296  51.678 -21.800  1.00  0.00     0.010 C 
BRANCH  22  24
HETATM   24  C6  UNL     1      -0.602  52.891 -23.830  1.00  0.00     0.039 C 
BRANCH  24  25
HETATM   25  C5  UNL     1       0.575  52.979 -24.827  1.00  0.00     0.154 C 
BRANCH  25  26
HETATM   26  C4  UNL     1       0.156  52.727 -26.309  1.00  0.00     0.216 C 
BRANCH  26  27
HETATM   27  C2  UNL     1       1.155  52.014 -27.222  1.00  0.00    -0.059 C 
HETATM   28  C1  UNL     1       1.002  51.827 -28.545  1.00  0.00     0.016 C 
HETATM   29  C3  UNL     1       2.413  51.538 -26.543  1.00  0.00     0.045 C 
ENDBRANCH  26  27
BRANCH  26  30
HETATM   30  O1  UNL     1      -0.181  53.995 -26.904  1.00  0.00    -0.231 OA
BRANCH  30  31
HETATM   31  O2  UNL     1       0.257  55.034 -25.977  1.00  0.00    -0.250 OA
HETATM   32  H7  UNL     1      -0.605  55.486 -25.920  1.00  0.00     0.253 HD
ENDBRANCH  30  31
ENDBRANCH  26  30
ENDBRANCH  25  26
BRANCH  25  33
HETATM   33  O3  UNL     1       1.161  54.286 -24.668  1.00  0.00    -0.393 OA
HETATM   34  H9  UNL     1       1.326  54.425 -23.722  1.00  0.00     0.210 HD
ENDBRANCH  25  33
ENDBRANCH  24  25
ENDBRANCH  22  24
ENDBRANCH   1  22
BRANCH  12  35
HETATM   35  O4  UNL     1      -8.211  45.764 -18.243  1.00  0.00    -0.395 OA
HETATM   36  H35 UNL     1      -7.988  45.642 -17.305  1.00  0.00     0.210 HD
ENDBRANCH  12  35
TORSDOF 9
ENDMDL
MODEL 7
REMARK minimizedAffinity -9.15946484
REMARK  9 active torsions:
REMARK  status: ('A' for Active; 'I' for Inactive)
REMARK    1  A    between atoms: C2_2  and  C4_4 
REMARK    2  A    between atoms: C4_4  and  O1_5 
REMARK    3  A    between atoms: C4_4  and  C5_7 
REMARK    4  A    between atoms: O1_5  and  O2_6 
REMARK    5  A    between atoms: C5_7  and  O3_8 
REMARK    6  A    between atoms: C5_7  and  C6_9 
REMARK    7  A    between atoms: C6_9  and  C7_10 
REMARK    8  A    between atoms: C7_10  and  C9_12 
REMARK    9  A    between atoms: C20_23  and  O4_24 
ROOT
HETATM    1  C9  UNL     1      -1.509  49.116 -19.198  1.00  0.00    -0.002 C 
HETATM    2  C10 UNL     1      -2.713  48.132 -19.318  1.00  0.00     0.006 C 
HETATM    3  C11 UNL     1      -3.530  48.533 -20.560  1.00  0.00     0.011 C 
HETATM    4  C12 UNL     1      -2.619  49.497 -21.333  1.00  0.00    -0.032 C 
HETATM    5  C13 UNL     1      -1.613  48.618 -22.157  1.00  0.00     0.016 C 
HETATM    6  C14 UNL     1      -3.342  50.489 -22.306  1.00  0.00     0.004 C 
HETATM    7  C15 UNL     1      -4.222  49.740 -23.340  1.00  0.00     0.006 C 
HETATM    8  C16 UNL     1      -4.137  50.175 -24.799  1.00  0.00     0.006 C 
HETATM    9  C17 UNL     1      -2.687  50.383 -25.247  1.00  0.00     0.001 C 
HETATM   10  C18 UNL     1      -2.558  50.860 -26.716  1.00  0.00     0.015 C 
HETATM   11  C19 UNL     1      -3.406  50.062 -27.712  1.00  0.00     0.013 C 
HETATM   12  C20 UNL     1      -1.076  50.826 -27.160  1.00  0.00     0.122 C 
HETATM   13  C21 UNL     1      -0.081  50.844 -25.998  1.00  0.00     0.033 C 
HETATM   14  C22 UNL     1      -0.540  51.729 -24.841  1.00  0.00     0.013 C 
HETATM   15  C23 UNL     1      -1.953  51.401 -24.364  1.00  0.00    -0.027 A 
HETATM   16  C24 UNL     1      -2.767  52.562 -23.831  1.00  0.00     0.021 A 
HETATM   17  C25 UNL     1      -2.302  51.491 -22.866  1.00  0.00    -0.027 A 
HETATM   18  C26 UNL     1      -1.355  52.100 -21.817  1.00  0.00     0.011 C 
HETATM   19  C27 UNL     1      -0.812  51.132 -20.759  1.00  0.00     0.011 C 
HETATM   20  C28 UNL     1      -1.938  50.285 -20.145  1.00  0.00    -0.032 C 
HETATM   21  C29 UNL     1      -2.910  51.223 -19.364  1.00  0.00     0.016 C 
ENDROOT
BRANCH   1  22
HETATM   22  C7  UNL     1      -1.138  49.404 -17.708  1.00  0.00    -0.011 C 
HETATM   23  C8  UNL     1      -2.373  49.682 -16.847  1.00  0.00     0.010 C 
BRANCH  22  24
HETATM   24  C6  UNL     1      -0.146  50.597 -17.624  1.00  0.00     0.039 C 
BRANCH  24  25
HETATM   25  C5  UNL     1       0.866  50.597 -16.457  1.00  0.00     0.154 C 
BRANCH  25  26
HETATM   26  C4  UNL     1       1.697  51.913 -16.354  1.00  0.00     0.216 C 
BRANCH  26  27
HETATM   27  C2  UNL     1       3.000  51.873 -15.553  1.00  0.00    -0.059 C 
HETATM   28  C1  UNL     1       3.219  51.120 -14.461  1.00  0.00     0.016 C 
HETATM   29  C3  UNL     1       4.110  52.736 -16.097  1.00  0.00     0.045 C 
ENDBRANCH  26  27
BRANCH  26  30
HETATM   30  O1  UNL     1       0.853  52.939 -15.799  1.00  0.00    -0.231 OA
BRANCH  30  31
HETATM   31  O2  UNL     1       0.914  52.805 -14.347  1.00  0.00    -0.250 OA
HETATM   32  H7  UNL     1      -0.050  52.747 -14.211  1.00  0.00     0.253 HD
ENDBRANCH  30  31
ENDBRANCH  26  30
ENDBRANCH  25  26
BRANCH  25  33
HETATM   33  O3  UNL     1       0.111  50.365 -15.251  1.00  0.00    -0.393 OA
HETATM   34  H9  UNL     1      -0.449  49.586 -15.396  1.00  0.00     0.210 HD
ENDBRANCH  25  33
ENDBRANCH  24  25
ENDBRANCH  22  24
ENDBRANCH   1  22
BRANCH  12  35
HETATM   35  O4  UNL     1      -0.841  51.948 -28.013  1.00  0.00    -0.395 OA
HETATM   36  H35 UNL     1       0.074  51.885 -28.338  1.00  0.00     0.210 HD
ENDBRANCH  12  35
TORSDOF 9
ENDMDL
MODEL 8
REMARK minimizedAffinity -9.15740967
REMARK  9 active torsions:
REMARK  status: ('A' for Active; 'I' for Inactive)
REMARK    1  A    between atoms: C2_2  and  C4_4 
REMARK    2  A    between atoms: C4_4  and  O1_5 
REMARK    3  A    between atoms: C4_4  and  C5_7 
REMARK    4  A    between atoms: O1_5  and  O2_6 
REMARK    5  A    between atoms: C5_7  and  O3_8 
REMARK    6  A    between atoms: C5_7  and  C6_9 
REMARK    7  A    between atoms: C6_9  and  C7_10 
REMARK    8  A    between atoms: C7_10  and  C9_12 
REMARK    9  A    between atoms: C20_23  and  O4_24 
ROOT
HETATM    1  C9  UNL     1      -0.912  50.417 -21.970  1.00  0.00    -0.002 C 
HETATM    2  C10 UNL     1      -0.495  49.296 -20.969  1.00  0.00     0.006 C 
HETATM    3  C11 UNL     1      -1.773  48.563 -20.520  1.00  0.00     0.011 C 
HETATM    4  C12 UNL     1      -2.853  49.020 -21.510  1.00  0.00    -0.032 C 
HETATM    5  C13 UNL     1      -2.689  48.146 -22.805  1.00  0.00     0.016 C 
HETATM    6  C14 UNL     1      -4.332  48.908 -21.007  1.00  0.00     0.004 C 
HETATM    7  C15 UNL     1      -4.680  47.465 -20.560  1.00  0.00     0.006 C 
HETATM    8  C16 UNL     1      -6.005  46.872 -21.027  1.00  0.00     0.006 C 
HETATM    9  C17 UNL     1      -6.256  47.143 -22.514  1.00  0.00     0.001 C 
HETATM   10  C18 UNL     1      -7.611  46.586 -23.022  1.00  0.00     0.015 C 
HETATM   11  C19 UNL     1      -7.893  45.141 -22.598  1.00  0.00     0.013 C 
HETATM   12  C20 UNL     1      -7.689  46.695 -24.563  1.00  0.00     0.122 C 
HETATM   13  C21 UNL     1      -6.730  47.727 -25.160  1.00  0.00     0.033 C 
HETATM   14  C22 UNL     1      -6.582  48.971 -24.285  1.00  0.00     0.013 C 
HETATM   15  C23 UNL     1      -6.222  48.643 -22.839  1.00  0.00    -0.027 A 
HETATM   16  C24 UNL     1      -6.760  49.588 -21.783  1.00  0.00     0.021 A 
HETATM   17  C25 UNL     1      -5.270  49.564 -22.052  1.00  0.00    -0.027 A 
HETATM   18  C26 UNL     1      -4.805  50.935 -22.574  1.00  0.00     0.011 C 
HETATM   19  C27 UNL     1      -3.308  51.066 -22.879  1.00  0.00     0.011 C 
HETATM   20  C28 UNL     1      -2.451  50.533 -21.719  1.00  0.00    -0.032 C 
HETATM   21  C29 UNL     1      -2.682  51.431 -20.464  1.00  0.00     0.016 C 
ENDROOT
BRANCH   1  22
HETATM   22  C7  UNL     1       0.005  51.677 -21.849  1.00  0.00    -0.011 C 
HETATM   23  C8  UNL     1      -0.097  52.336 -20.470  1.00  0.00     0.010 C 
BRANCH  22  24
HETATM   24  C6  UNL     1      -0.348  52.703 -22.961  1.00  0.00     0.039 C 
BRANCH  24  25
HETATM   25  C5  UNL     1       0.593  52.774 -24.184  1.00  0.00     0.154 C 
BRANCH  25  26
HETATM   26  C4  UNL     1      -0.116  52.445 -25.534  1.00  0.00     0.216 C 
BRANCH  26  27
HETATM   27  C2  UNL     1       0.746  51.915 -26.682  1.00  0.00    -0.059 C 
HETATM   28  C1  UNL     1       0.343  51.780 -27.958  1.00  0.00     0.016 C 
HETATM   29  C3  UNL     1       2.164  51.567 -26.308  1.00  0.00     0.045 C 
ENDBRANCH  26  27
BRANCH  26  30
HETATM   30  O1  UNL     1      -0.798  53.630 -25.987  1.00  0.00    -0.231 OA
BRANCH  30  31
HETATM   31  O2  UNL     1       0.211  54.510 -26.568  1.00  0.00    -0.250 OA
HETATM   32  H7  UNL     1      -0.011  55.289 -26.026  1.00  0.00     0.253 HD
ENDBRANCH  30  31
ENDBRANCH  26  30
ENDBRANCH  25  26
BRANCH  25  33
HETATM   33  O3  UNL     1       1.155  54.101 -24.203  1.00  0.00    -0.393 OA
HETATM   34  H9  UNL     1       1.508  54.287 -23.318  1.00  0.00     0.210 HD
ENDBRANCH  25  33
ENDBRANCH  24  25
ENDBRANCH  22  24
ENDBRANCH   1  22
BRANCH  12  35
HETATM   35  O4  UNL     1      -9.033  47.023 -24.919  1.00  0.00    -0.395 OA
HETATM   36  H35 UNL     1      -9.088  47.028 -25.890  1.00  0.00     0.210 HD
ENDBRANCH  12  35
TORSDOF 9
ENDMDL
MODEL 9
REMARK minimizedAffinity -8.97216988
REMARK  9 active torsions:
REMARK  status: ('A' for Active; 'I' for Inactive)
REMARK    1  A    between atoms: C2_2  and  C4_4 
REMARK    2  A    between atoms: C4_4  and  O1_5 
REMARK    3  A    between atoms: C4_4  and  C5_7 
REMARK    4  A    between atoms: O1_5  and  O2_6 
REMARK    5  A    between atoms: C5_7  and  O3_8 
REMARK    6  A    between atoms: C5_7  and  C6_9 
REMARK    7  A    between atoms: C6_9  and  C7_10 
REMARK    8  A    between atoms: C7_10  and  C9_12 
REMARK    9  A    between atoms: C20_23  and  O4_24 
ROOT
HETATM    1  C9  UNL     1      -2.842  50.170 -25.335  1.00  0.00    -0.002 C 
HETATM    2  C10 UNL     1      -1.504  50.572 -24.641  1.00  0.00     0.006 C 
HETATM    3  C11 UNL     1      -1.767  50.667 -23.127  1.00  0.00     0.011 C 
HETATM    4  C12 UNL     1      -3.129  49.990 -22.923  1.00  0.00    -0.032 C 
HETATM    5  C13 UNL     1      -2.872  48.441 -22.880  1.00  0.00     0.016 C 
HETATM    6  C14 UNL     1      -3.915  50.409 -21.635  1.00  0.00     0.004 C 
HETATM    7  C15 UNL     1      -3.077  50.180 -20.350  1.00  0.00     0.006 C 
HETATM    8  C16 UNL     1      -3.760  49.515 -19.161  1.00  0.00     0.006 C 
HETATM    9  C17 UNL     1      -4.592  48.301 -19.589  1.00  0.00     0.001 C 
HETATM   10  C18 UNL     1      -5.332  47.615 -18.412  1.00  0.00     0.015 C 
HETATM   11  C19 UNL     1      -4.455  47.363 -17.181  1.00  0.00     0.013 C 
HETATM   12  C20 UNL     1      -5.957  46.280 -18.880  1.00  0.00     0.122 C 
HETATM   13  C21 UNL     1      -6.156  46.187 -20.394  1.00  0.00     0.033 C 
HETATM   14  C22 UNL     1      -6.573  47.517 -21.018  1.00  0.00     0.013 C 
HETATM   15  C23 UNL     1      -5.643  48.668 -20.645  1.00  0.00    -0.027 A 
HETATM   16  C24 UNL     1      -6.282  50.038 -20.532  1.00  0.00     0.021 A 
HETATM   17  C25 UNL     1      -5.325  49.769 -21.675  1.00  0.00    -0.027 A 
HETATM   18  C26 UNL     1      -6.060  49.898 -23.021  1.00  0.00     0.011 C 
HETATM   19  C27 UNL     1      -5.210  49.665 -24.276  1.00  0.00     0.011 C 
HETATM   20  C28 UNL     1      -3.898  50.463 -24.220  1.00  0.00    -0.032 C 
HETATM   21  C29 UNL     1      -4.230  51.988 -24.241  1.00  0.00     0.016 C 
ENDROOT
BRANCH   1  22
HETATM   22  C7  UNL     1      -2.984  50.823 -26.748  1.00  0.00    -0.011 C 
HETATM   23  C8  UNL     1      -3.501  49.832 -27.794  1.00  0.00     0.010 C 
BRANCH  22  24
HETATM   24  C6  UNL     1      -1.623  51.419 -27.200  1.00  0.00     0.039 C 
BRANCH  24  25
HETATM   25  C5  UNL     1      -1.452  52.951 -27.101  1.00  0.00     0.154 C 
BRANCH  25  26
HETATM   26  C4  UNL     1       0.038  53.410 -27.054  1.00  0.00     0.216 C 
BRANCH  26  27
HETATM   27  C2  UNL     1       1.114  52.330 -26.927  1.00  0.00    -0.059 C 
HETATM   28  C1  UNL     1       1.614  51.864 -25.770  1.00  0.00     0.016 C 
HETATM   29  C3  UNL     1       1.588  51.746 -28.233  1.00  0.00     0.045 C 
ENDBRANCH  26  27
BRANCH  26  30
HETATM   30  O1  UNL     1       0.191  54.336 -25.961  1.00  0.00    -0.231 OA
BRANCH  30  31
HETATM   31  O2  UNL     1       0.171  55.679 -26.531  1.00  0.00    -0.250 OA
HETATM   32  H7  UNL     1       1.015  55.968 -26.135  1.00  0.00     0.253 HD
ENDBRANCH  30  31
ENDBRANCH  26  30
ENDBRANCH  25  26
BRANCH  25  33
HETATM   33  O3  UNL     1      -2.135  53.522 -28.235  1.00  0.00    -0.393 OA
HETATM   34  H9  UNL     1      -3.028  53.142 -28.266  1.00  0.00     0.210 HD
ENDBRANCH  25  33
ENDBRANCH  24  25
ENDBRANCH  22  24
ENDBRANCH   1  22
BRANCH  12  35
HETATM   35  O4  UNL     1      -7.212  46.118 -18.218  1.00  0.00    -0.395 OA
HETATM   36  H35 UNL     1      -7.569  45.249 -18.469  1.00  0.00     0.210 HD
ENDBRANCH  12  35
TORSDOF 9
ENDMDL
