MODEL 1
REMARK minimizedAffinity -10.1172009
REMARK  10 active torsions:
REMARK  status: ('A' for Active; 'I' for Inactive)
REMARK    1  A    between atoms: C11_11  and  O1_12 
REMARK    2  A    between atoms: C12_13  and  C14_15 
REMARK    3  A    between atoms: C14_15  and  C15_16 
REMARK    4  A    between atoms: C15_16  and  O2_17 
REMARK    5  A    between atoms: C15_16  and  C16_18 
REMARK    6  A    between atoms: C16_18  and  O3_19 
REMARK    7  A    between atoms: C16_18  and  C17_20 
REMARK    8  A    between atoms: C17_20  and  O4_22 
REMARK    9  A    between atoms: C17_20  and  C19_23 
REMARK   10  A    between atoms: C19_23  and  O5_24 
ROOT
HETATM    1  C1  UNL     1      -7.102   7.196  14.591  1.00  0.00     0.015 C 
HETATM    2  C2  UNL     1      -6.133   6.021  14.595  1.00  0.00     0.019 C 
HETATM    3  C3  UNL     1      -6.601   4.883  13.651  1.00  0.00     0.048 C 
HETATM    4  C4  UNL     1      -5.327   4.401  13.016  1.00  0.00    -0.043 C 
HETATM    5  C5  UNL     1      -4.319   5.234  13.289  1.00  0.00    -0.040 C 
HETATM    6  C6  UNL     1      -4.741   6.332  14.103  1.00  0.00    -0.050 C 
HETATM    7  C7  UNL     1      -3.981   7.420  14.262  1.00  0.00    -0.009 C 
HETATM    8  C8  UNL     1      -2.685   7.631  13.500  1.00  0.00    -0.018 C 
HETATM    9  C9  UNL     1      -2.950   8.859  12.592  1.00  0.00     0.020 C 
HETATM   10  C10 UNL     1      -1.522   7.897  14.463  1.00  0.00     0.046 C 
HETATM   11  C11 UNL     1      -0.264   7.661  13.634  1.00  0.00     0.128 C 
HETATM   12  C12 UNL     1      -0.587   6.416  12.756  1.00  0.00    -0.010 C 
HETATM   13  C13 UNL     1      -0.038   5.185  13.514  1.00  0.00     0.018 C 
HETATM   14  C20 UNL     1      -2.181   6.430  12.615  1.00  0.00     0.017 C 
HETATM   15  C21 UNL     1      -2.891   5.071  12.887  1.00  0.00     0.026 C 
HETATM   16  C22 UNL     1      -2.836   4.121  11.670  1.00  0.00     0.014 C 
HETATM   17  C23 UNL     1      -3.705   2.868  11.887  1.00  0.00     0.040 C 
HETATM   18  C24 UNL     1      -5.152   3.196  12.227  1.00  0.00    -0.040 C 
HETATM   19  C25 UNL     1      -6.198   2.448  11.845  1.00  0.00     0.092 C 
HETATM   20 CL1  UNL     1      -6.103   0.996  10.938  1.00  0.00    -0.096 Cl
ENDROOT
BRANCH  12  21
HETATM   21  C14 UNL     1       0.033   6.467  11.325  1.00  0.00     0.046 C 
BRANCH  21  22
HETATM   22  C15 UNL     1       1.334   7.280  11.140  1.00  0.00     0.150 C 
BRANCH  22  23
HETATM   23  O2  UNL     1       1.296   8.038   9.938  1.00  0.00    -0.393 OA
HETATM   24  H21 UNL     1       0.844   7.479   9.268  1.00  0.00     0.210 HD
ENDBRANCH  22  23
BRANCH  22  25
HETATM   25  C16 UNL     1       2.574   6.350  11.169  1.00  0.00     0.182 C 
BRANCH  25  26
HETATM   26  O3  UNL     1       3.318   6.605  12.383  1.00  0.00    -0.390 OA
HETATM   27  H23 UNL     1       3.712   5.745  12.625  1.00  0.00     0.210 HD
ENDBRANCH  25  26
BRANCH  25  28
HETATM   28  C17 UNL     1       3.547   6.490   9.962  1.00  0.00     0.103 C 
HETATM   29  C18 UNL     1       4.183   7.882   9.860  1.00  0.00     0.051 C 
BRANCH  28  30
HETATM   30  O4  UNL     1       4.644   5.567  10.196  1.00  0.00    -0.385 OA
HETATM   31  H27 UNL     1       5.074   5.874  11.015  1.00  0.00     0.210 HD
ENDBRANCH  28  30
BRANCH  28  32
HETATM   32  C19 UNL     1       2.908   6.111   8.609  1.00  0.00     0.204 C 
BRANCH  32  33
HETATM   33  O5  UNL     1       3.333   4.821   8.165  1.00  0.00    -0.398 OA
HETATM   34  H30 UNL     1       3.032   4.733   7.244  1.00  0.00     0.209 HD
ENDBRANCH  32  33
ENDBRANCH  28  32
ENDBRANCH  25  28
ENDBRANCH  22  25
ENDBRANCH  21  22
ENDBRANCH  12  21
BRANCH  11  35
HETATM   35  O1  UNL     1       0.046   8.812  12.850  1.00  0.00    -0.395 OA
HETATM   36  H14 UNL     1       0.113   9.566  13.462  1.00  0.00     0.210 HD
ENDBRANCH  11  35
TORSDOF 10
ENDMDL
MODEL 2
REMARK minimizedAffinity -9.3929081
REMARK  10 active torsions:
REMARK  status: ('A' for Active; 'I' for Inactive)
REMARK    1  A    between atoms: C11_11  and  O1_12 
REMARK    2  A    between atoms: C12_13  and  C14_15 
REMARK    3  A    between atoms: C14_15  and  C15_16 
REMARK    4  A    between atoms: C15_16  and  O2_17 
REMARK    5  A    between atoms: C15_16  and  C16_18 
REMARK    6  A    between atoms: C16_18  and  O3_19 
REMARK    7  A    between atoms: C16_18  and  C17_20 
REMARK    8  A    between atoms: C17_20  and  O4_22 
REMARK    9  A    between atoms: C17_20  and  C19_23 
REMARK   10  A    between atoms: C19_23  and  O5_24 
ROOT
HETATM    1  C1  UNL     1      -1.574   3.641  11.429  1.00  0.00     0.015 C 
HETATM    2  C2  UNL     1      -2.022   4.447  12.642  1.00  0.00     0.019 C 
HETATM    3  C3  UNL     1      -1.556   5.923  12.558  1.00  0.00     0.048 C 
HETATM    4  C4  UNL     1      -2.727   6.698  13.094  1.00  0.00    -0.043 C 
HETATM    5  C5  UNL     1      -3.796   5.905  13.225  1.00  0.00    -0.040 C 
HETATM    6  C6  UNL     1      -3.515   4.561  12.824  1.00  0.00    -0.050 C 
HETATM    7  C7  UNL     1      -4.493   3.677  12.605  1.00  0.00    -0.009 C 
HETATM    8  C8  UNL     1      -5.962   4.055  12.639  1.00  0.00    -0.018 C 
HETATM    9  C9  UNL     1      -6.462   3.849  11.187  1.00  0.00     0.020 C 
HETATM   10  C10 UNL     1      -6.733   3.166  13.621  1.00  0.00     0.046 C 
HETATM   11  C11 UNL     1      -8.041   3.906  13.877  1.00  0.00     0.128 C 
HETATM   12  C12 UNL     1      -7.643   5.409  13.971  1.00  0.00    -0.010 C 
HETATM   13  C13 UNL     1      -7.443   5.721  15.472  1.00  0.00     0.018 C 
HETATM   14  C20 UNL     1      -6.304   5.521  13.102  1.00  0.00     0.017 C 
HETATM   15  C21 UNL     1      -5.128   6.288  13.777  1.00  0.00     0.026 C 
HETATM   16  C22 UNL     1      -5.279   7.820  13.663  1.00  0.00     0.014 C 
HETATM   17  C23 UNL     1      -4.019   8.554  14.161  1.00  0.00     0.040 C 
HETATM   18  C24 UNL     1      -2.747   8.102  13.458  1.00  0.00    -0.040 C 
HETATM   19  C25 UNL     1      -1.713   8.913  13.189  1.00  0.00     0.092 C 
HETATM   20 CL1  UNL     1      -1.620  10.575  13.598  1.00  0.00    -0.096 Cl
ENDROOT
BRANCH  12  21
HETATM   21  C14 UNL     1      -8.701   6.386  13.371  1.00  0.00     0.046 C 
BRANCH  21  22
HETATM   22  C15 UNL     1      -9.707   7.036  14.349  1.00  0.00     0.150 C 
BRANCH  22  23
HETATM   23  O2  UNL     1      -9.867   6.243  15.518  1.00  0.00    -0.393 OA
HETATM   24  H21 UNL     1      -9.843   5.305  15.226  1.00  0.00     0.210 HD
ENDBRANCH  22  23
BRANCH  22  25
HETATM   25  C16 UNL     1     -11.071   7.280  13.654  1.00  0.00     0.182 C 
BRANCH  25  26
HETATM   26  O3  UNL     1     -10.907   7.094  12.229  1.00  0.00    -0.390 OA
HETATM   27  H23 UNL     1     -11.762   6.739  11.919  1.00  0.00     0.210 HD
ENDBRANCH  25  26
BRANCH  25  28
HETATM   28  C17 UNL     1     -11.705   8.681  13.893  1.00  0.00     0.103 C 
HETATM   29  C18 UNL     1     -12.499   8.767  15.203  1.00  0.00     0.051 C 
BRANCH  28  30
HETATM   30  O4  UNL     1     -10.609   9.624  14.029  1.00  0.00    -0.385 OA
HETATM   31  H27 UNL     1     -10.114   9.337  14.818  1.00  0.00     0.210 HD
ENDBRANCH  28  30
BRANCH  28  32
HETATM   32  C19 UNL     1     -12.586   9.166  12.721  1.00  0.00     0.204 C 
BRANCH  32  33
HETATM   33  O5  UNL     1     -11.798   9.667  11.639  1.00  0.00    -0.398 OA
HETATM   34  H30 UNL     1     -12.416  10.105  11.028  1.00  0.00     0.209 HD
ENDBRANCH  32  33
ENDBRANCH  28  32
ENDBRANCH  25  28
ENDBRANCH  22  25
ENDBRANCH  21  22
ENDBRANCH  12  21
BRANCH  11  35
HETATM   35  O1  UNL     1      -8.976   3.657  12.828  1.00  0.00    -0.395 OA
HETATM   36  H14 UNL     1      -9.077   2.690  12.758  1.00  0.00     0.210 HD
ENDBRANCH  11  35
TORSDOF 10
ENDMDL
MODEL 3
REMARK minimizedAffinity -9.32556629
REMARK  10 active torsions:
REMARK  status: ('A' for Active; 'I' for Inactive)
REMARK    1  A    between atoms: C11_11  and  O1_12 
REMARK    2  A    between atoms: C12_13  and  C14_15 
REMARK    3  A    between atoms: C14_15  and  C15_16 
REMARK    4  A    between atoms: C15_16  and  O2_17 
REMARK    5  A    between atoms: C15_16  and  C16_18 
REMARK    6  A    between atoms: C16_18  and  O3_19 
REMARK    7  A    between atoms: C16_18  and  C17_20 
REMARK    8  A    between atoms: C17_20  and  O4_22 
REMARK    9  A    between atoms: C17_20  and  C19_23 
REMARK   10  A    between atoms: C19_23  and  O5_24 
ROOT
HETATM    1  C1  UNL     1      -4.162   1.955  11.631  1.00  0.00     0.015 C 
HETATM    2  C2  UNL     1      -4.559   3.424  11.691  1.00  0.00     0.019 C 
HETATM    3  C3  UNL     1      -5.541   3.710  12.856  1.00  0.00     0.048 C 
HETATM    4  C4  UNL     1      -5.082   5.037  13.393  1.00  0.00    -0.043 C 
HETATM    5  C5  UNL     1      -3.903   5.377  12.863  1.00  0.00    -0.040 C 
HETATM    6  C6  UNL     1      -3.427   4.389  11.944  1.00  0.00    -0.050 C 
HETATM    7  C7  UNL     1      -2.160   4.380  11.518  1.00  0.00    -0.009 C 
HETATM    8  C8  UNL     1      -1.107   5.327  12.064  1.00  0.00    -0.018 C 
HETATM    9  C9  UNL     1      -0.087   4.414  12.791  1.00  0.00     0.020 C 
HETATM   10  C10 UNL     1      -0.437   6.111  10.930  1.00  0.00     0.046 C 
HETATM   11  C11 UNL     1       0.251   7.286  11.619  1.00  0.00     0.128 C 
HETATM   12  C12 UNL     1      -0.749   7.751  12.719  1.00  0.00    -0.010 C 
HETATM   13  C13 UNL     1      -1.581   8.900  12.103  1.00  0.00     0.018 C 
HETATM   14  C20 UNL     1      -1.605   6.442  13.058  1.00  0.00     0.017 C 
HETATM   15  C21 UNL     1      -3.149   6.642  13.100  1.00  0.00     0.026 C 
HETATM   16  C22 UNL     1      -3.630   7.250  14.436  1.00  0.00     0.014 C 
HETATM   17  C23 UNL     1      -5.167   7.260  14.535  1.00  0.00     0.040 C 
HETATM   18  C24 UNL     1      -5.788   5.884  14.335  1.00  0.00    -0.040 C 
HETATM   19  C25 UNL     1      -6.898   5.466  14.962  1.00  0.00     0.092 C 
HETATM   20 CL1  UNL     1      -7.822   6.392  16.070  1.00  0.00    -0.096 Cl
ENDROOT
BRANCH  12  21
HETATM   21  C14 UNL     1      -0.067   8.245  14.032  1.00  0.00     0.046 C 
BRANCH  21  22
HETATM   22  C15 UNL     1       0.686   7.198  14.883  1.00  0.00     0.150 C 
BRANCH  22  23
HETATM   23  O2  UNL     1       0.072   7.037  16.155  1.00  0.00    -0.393 OA
HETATM   24  H21 UNL     1      -0.225   7.930  16.438  1.00  0.00     0.210 HD
ENDBRANCH  22  23
BRANCH  22  25
HETATM   25  C16 UNL     1       2.180   7.581  15.034  1.00  0.00     0.182 C 
BRANCH  25  26
HETATM   26  O3  UNL     1       2.868   6.511  15.722  1.00  0.00    -0.390 OA
HETATM   27  H23 UNL     1       3.772   6.511  15.354  1.00  0.00     0.210 HD
ENDBRANCH  25  26
BRANCH  25  28
HETATM   28  C17 UNL     1       2.460   8.909  15.796  1.00  0.00     0.103 C 
HETATM   29  C18 UNL     1       1.434  10.008  15.487  1.00  0.00     0.051 C 
BRANCH  28  30
HETATM   30  O4  UNL     1       2.320   8.621  17.213  1.00  0.00    -0.385 OA
HETATM   31  H27 UNL     1       1.392   8.350  17.333  1.00  0.00     0.210 HD
ENDBRANCH  28  30
BRANCH  28  32
HETATM   32  C19 UNL     1       3.886   9.456  15.577  1.00  0.00     0.204 C 
BRANCH  32  33
HETATM   33  O5  UNL     1       4.881   8.468  15.855  1.00  0.00    -0.398 OA
HETATM   34  H30 UNL     1       5.736   8.933  15.863  1.00  0.00     0.209 HD
ENDBRANCH  32  33
ENDBRANCH  28  32
ENDBRANCH  25  28
ENDBRANCH  22  25
ENDBRANCH  21  22
ENDBRANCH  12  21
BRANCH  11  35
HETATM   35  O1  UNL     1       1.508   6.886  12.163  1.00  0.00    -0.395 OA
HETATM   36  H14 UNL     1       2.026   6.498  11.434  1.00  0.00     0.210 HD
ENDBRANCH  11  35
TORSDOF 10
ENDMDL
MODEL 4
REMARK minimizedAffinity -9.28737926
REMARK  10 active torsions:
REMARK  status: ('A' for Active; 'I' for Inactive)
REMARK    1  A    between atoms: C11_11  and  O1_12 
REMARK    2  A    between atoms: C12_13  and  C14_15 
REMARK    3  A    between atoms: C14_15  and  C15_16 
REMARK    4  A    between atoms: C15_16  and  O2_17 
REMARK    5  A    between atoms: C15_16  and  C16_18 
REMARK    6  A    between atoms: C16_18  and  O3_19 
REMARK    7  A    between atoms: C16_18  and  C17_20 
REMARK    8  A    between atoms: C17_20  and  O4_22 
REMARK    9  A    between atoms: C17_20  and  C19_23 
REMARK   10  A    between atoms: C19_23  and  O5_24 
ROOT
HETATM    1  C1  UNL     1      -5.739   5.117  12.869  1.00  0.00     0.015 C 
HETATM    2  C2  UNL     1      -4.377   4.579  13.290  1.00  0.00     0.019 C 
HETATM    3  C3  UNL     1      -3.867   3.480  12.323  1.00  0.00     0.048 C 
HETATM    4  C4  UNL     1      -2.396   3.765  12.204  1.00  0.00    -0.043 C 
HETATM    5  C5  UNL     1      -2.099   4.947  12.753  1.00  0.00    -0.040 C 
HETATM    6  C6  UNL     1      -3.257   5.590  13.293  1.00  0.00    -0.050 C 
HETATM    7  C7  UNL     1      -3.248   6.882  13.631  1.00  0.00    -0.009 C 
HETATM    8  C8  UNL     1      -2.065   7.792  13.355  1.00  0.00    -0.018 C 
HETATM    9  C9  UNL     1      -2.589   8.830  12.329  1.00  0.00     0.020 C 
HETATM   10  C10 UNL     1      -1.590   8.478  14.641  1.00  0.00     0.046 C 
HETATM   11  C11 UNL     1      -0.191   8.991  14.319  1.00  0.00     0.128 C 
HETATM   12  C12 UNL     1       0.467   7.863  13.471  1.00  0.00    -0.010 C 
HETATM   13  C13 UNL     1       1.270   6.980  14.454  1.00  0.00     0.018 C 
HETATM   14  C20 UNL     1      -0.766   7.109  12.784  1.00  0.00     0.017 C 
HETATM   15  C21 UNL     1      -0.743   5.555  12.884  1.00  0.00     0.026 C 
HETATM   16  C22 UNL     1       0.182   4.909  11.830  1.00  0.00     0.014 C 
HETATM   17  C23 UNL     1       0.043   3.375  11.816  1.00  0.00     0.040 C 
HETATM   18  C24 UNL     1      -1.390   2.906  11.609  1.00  0.00    -0.040 C 
HETATM   19  C25 UNL     1      -1.723   1.792  10.939  1.00  0.00     0.092 C 
HETATM   20 CL1  UNL     1      -0.618   0.695  10.223  1.00  0.00    -0.096 Cl
ENDROOT
BRANCH  12  21
HETATM   21  C14 UNL     1       1.414   8.383  12.345  1.00  0.00     0.046 C 
BRANCH  21  22
HETATM   22  C15 UNL     1       1.334   7.685  10.967  1.00  0.00     0.150 C 
BRANCH  22  23
HETATM   23  O2  UNL     1       0.002   7.285  10.674  1.00  0.00    -0.393 OA
HETATM   24  H21 UNL     1      -0.391   6.976  11.521  1.00  0.00     0.210 HD
ENDBRANCH  22  23
BRANCH  22  25
HETATM   25  C16 UNL     1       2.301   6.476  10.905  1.00  0.00     0.182 C 
BRANCH  25  26
HETATM   26  O3  UNL     1       3.250   6.583  11.991  1.00  0.00    -0.390 OA
HETATM   27  H23 UNL     1       3.454   5.662  12.243  1.00  0.00     0.210 HD
ENDBRANCH  25  26
BRANCH  25  28
HETATM   28  C17 UNL     1       3.097   6.319   9.576  1.00  0.00     0.103 C 
HETATM   29  C18 UNL     1       2.457   7.069   8.400  1.00  0.00     0.051 C 
BRANCH  28  30
HETATM   30  O4  UNL     1       4.394   6.939   9.786  1.00  0.00    -0.385 OA
HETATM   31  H27 UNL     1       4.209   7.879   9.961  1.00  0.00     0.210 HD
ENDBRANCH  28  30
BRANCH  28  32
HETATM   32  C19 UNL     1       3.348   4.849   9.179  1.00  0.00     0.204 C 
BRANCH  32  33
HETATM   33  O5  UNL     1       3.435   4.692   7.761  1.00  0.00    -0.398 OA
HETATM   34  H30 UNL     1       3.418   3.734   7.588  1.00  0.00     0.209 HD
ENDBRANCH  32  33
ENDBRANCH  28  32
ENDBRANCH  25  28
ENDBRANCH  22  25
ENDBRANCH  21  22
ENDBRANCH  12  21
BRANCH  11  35
HETATM   35  O1  UNL     1      -0.258  10.230  13.615  1.00  0.00    -0.395 OA
HETATM   36  H14 UNL     1      -0.786  10.841  14.160  1.00  0.00     0.210 HD
ENDBRANCH  11  35
TORSDOF 10
ENDMDL
MODEL 5
REMARK minimizedAffinity -9.19237423
REMARK  10 active torsions:
REMARK  status: ('A' for Active; 'I' for Inactive)
REMARK    1  A    between atoms: C11_11  and  O1_12 
REMARK    2  A    between atoms: C12_13  and  C14_15 
REMARK    3  A    between atoms: C14_15  and  C15_16 
REMARK    4  A    between atoms: C15_16  and  O2_17 
REMARK    5  A    between atoms: C15_16  and  C16_18 
REMARK    6  A    between atoms: C16_18  and  O3_19 
REMARK    7  A    between atoms: C16_18  and  C17_20 
REMARK    8  A    between atoms: C17_20  and  O4_22 
REMARK    9  A    between atoms: C17_20  and  C19_23 
REMARK   10  A    between atoms: C19_23  and  O5_24 
ROOT
HETATM    1  C1  UNL     1      -3.626   1.722  11.739  1.00  0.00     0.015 C 
HETATM    2  C2  UNL     1      -4.155   3.141  11.570  1.00  0.00     0.019 C 
HETATM    3  C3  UNL     1      -5.324   3.440  12.544  1.00  0.00     0.048 C 
HETATM    4  C4  UNL     1      -5.070   4.855  12.981  1.00  0.00    -0.043 C 
HETATM    5  C5  UNL     1      -3.859   5.260  12.587  1.00  0.00    -0.040 C 
HETATM    6  C6  UNL     1      -3.164   4.239  11.866  1.00  0.00    -0.050 C 
HETATM    7  C7  UNL     1      -1.852   4.319  11.627  1.00  0.00    -0.009 C 
HETATM    8  C8  UNL     1      -0.981   5.421  12.202  1.00  0.00    -0.018 C 
HETATM    9  C9  UNL     1      -0.006   4.699  13.166  1.00  0.00     0.020 C 
HETATM   10  C10 UNL     1      -0.218   6.152  11.090  1.00  0.00     0.046 C 
HETATM   11  C11 UNL     1       0.251   7.455  11.727  1.00  0.00     0.128 C 
HETATM   12  C12 UNL     1      -0.941   7.924  12.613  1.00  0.00    -0.010 C 
HETATM   13  C13 UNL     1      -1.769   8.910  11.757  1.00  0.00     0.018 C 
HETATM   14  C20 UNL     1      -1.720   6.574  12.978  1.00  0.00     0.017 C 
HETATM   15  C21 UNL     1      -3.264   6.615  12.779  1.00  0.00     0.026 C 
HETATM   16  C22 UNL     1      -3.994   7.303  13.954  1.00  0.00     0.014 C 
HETATM   17  C23 UNL     1      -5.523   7.162  13.833  1.00  0.00     0.040 C 
HETATM   18  C24 UNL     1      -5.983   5.716  13.710  1.00  0.00    -0.040 C 
HETATM   19  C25 UNL     1      -7.133   5.251  14.219  1.00  0.00     0.092 C 
HETATM   20 CL1  UNL     1      -8.293   6.184  15.069  1.00  0.00    -0.096 Cl
ENDROOT
BRANCH  12  21
HETATM   21  C14 UNL     1      -0.513   8.619  13.942  1.00  0.00     0.046 C 
BRANCH  21  22
HETATM   22  C15 UNL     1      -1.445   9.716  14.506  1.00  0.00     0.150 C 
BRANCH  22  23
HETATM   23  O2  UNL     1      -1.233  10.955  13.844  1.00  0.00    -0.393 OA
HETATM   24  H21 UNL     1      -0.266  11.024  13.679  1.00  0.00     0.210 HD
ENDBRANCH  22  23
BRANCH  22  25
HETATM   25  C16 UNL     1      -1.256   9.866  16.037  1.00  0.00     0.182 C 
BRANCH  25  26
HETATM   26  O3  UNL     1      -0.105   9.090  16.442  1.00  0.00    -0.390 OA
HETATM   27  H23 UNL     1       0.283   9.580  17.192  1.00  0.00     0.210 HD
ENDBRANCH  25  26
BRANCH  25  28
HETATM   28  C17 UNL     1      -2.468   9.431  16.910  1.00  0.00     0.103 C 
HETATM   29  C18 UNL     1      -3.822   9.773  16.272  1.00  0.00     0.051 C 
BRANCH  28  30
HETATM   30  O4  UNL     1      -2.425   7.982  17.001  1.00  0.00    -0.385 OA
HETATM   31  H27 UNL     1      -2.532   7.660  16.088  1.00  0.00     0.210 HD
ENDBRANCH  28  30
BRANCH  28  32
HETATM   32  C19 UNL     1      -2.420   9.984  18.350  1.00  0.00     0.204 C 
BRANCH  32  33
HETATM   33  O5  UNL     1      -3.728  10.114  18.913  1.00  0.00    -0.398 OA
HETATM   34  H30 UNL     1      -3.625  10.622  19.736  1.00  0.00     0.209 HD
ENDBRANCH  32  33
ENDBRANCH  28  32
ENDBRANCH  25  28
ENDBRANCH  22  25
ENDBRANCH  21  22
ENDBRANCH  12  21
BRANCH  11  35
HETATM   35  O1  UNL     1       1.441   7.247  12.485  1.00  0.00    -0.395 OA
HETATM   36  H14 UNL     1       2.095   6.842  11.887  1.00  0.00     0.210 HD
ENDBRANCH  11  35
TORSDOF 10
ENDMDL
MODEL 6
REMARK minimizedAffinity -9.09597969
REMARK  10 active torsions:
REMARK  status: ('A' for Active; 'I' for Inactive)
REMARK    1  A    between atoms: C11_11  and  O1_12 
REMARK    2  A    between atoms: C12_13  and  C14_15 
REMARK    3  A    between atoms: C14_15  and  C15_16 
REMARK    4  A    between atoms: C15_16  and  O2_17 
REMARK    5  A    between atoms: C15_16  and  C16_18 
REMARK    6  A    between atoms: C16_18  and  O3_19 
REMARK    7  A    between atoms: C16_18  and  C17_20 
REMARK    8  A    between atoms: C17_20  and  O4_22 
REMARK    9  A    between atoms: C17_20  and  C19_23 
REMARK   10  A    between atoms: C19_23  and  O5_24 
ROOT
HETATM    1  C1  UNL     1      -5.746   2.054  11.053  1.00  0.00     0.015 C 
HETATM    2  C2  UNL     1      -5.666   3.534  11.408  1.00  0.00     0.019 C 
HETATM    3  C3  UNL     1      -6.441   3.858  12.711  1.00  0.00     0.048 C 
HETATM    4  C4  UNL     1      -5.564   4.859  13.409  1.00  0.00    -0.043 C 
HETATM    5  C5  UNL     1      -4.371   4.937  12.811  1.00  0.00    -0.040 C 
HETATM    6  C6  UNL     1      -4.279   4.055  11.689  1.00  0.00    -0.050 C 
HETATM    7  C7  UNL     1      -3.104   3.762  11.123  1.00  0.00    -0.009 C 
HETATM    8  C8  UNL     1      -1.779   4.232  11.696  1.00  0.00    -0.018 C 
HETATM    9  C9  UNL     1      -1.050   2.936  12.132  1.00  0.00     0.020 C 
HETATM   10  C10 UNL     1      -0.968   4.995  10.642  1.00  0.00     0.046 C 
HETATM   11  C11 UNL     1       0.088   5.756  11.436  1.00  0.00     0.128 C 
HETATM   12  C12 UNL     1      -0.652   6.266  12.707  1.00  0.00    -0.010 C 
HETATM   13  C13 UNL     1      -1.124   7.706  12.398  1.00  0.00     0.018 C 
HETATM   14  C20 UNL     1      -1.849   5.225  12.916  1.00  0.00     0.017 C 
HETATM   15  C21 UNL     1      -3.251   5.854  13.171  1.00  0.00     0.026 C 
HETATM   16  C22 UNL     1      -3.441   6.300  14.638  1.00  0.00     0.014 C 
HETATM   17  C23 UNL     1      -4.891   6.738  14.915  1.00  0.00     0.040 C 
HETATM   18  C24 UNL     1      -5.917   5.671  14.557  1.00  0.00    -0.040 C 
HETATM   19  C25 UNL     1      -7.062   5.480  15.229  1.00  0.00     0.092 C 
HETATM   20 CL1  UNL     1      -7.589   6.398  16.578  1.00  0.00    -0.096 Cl
ENDROOT
BRANCH  12  21
HETATM   21  C14 UNL     1       0.225   6.271  13.997  1.00  0.00     0.046 C 
BRANCH  21  22
HETATM   22  C15 UNL     1       1.259   7.410  14.153  1.00  0.00     0.150 C 
BRANCH  22  23
HETATM   23  O2  UNL     1       2.539   7.005  13.686  1.00  0.00    -0.393 OA
HETATM   24  H21 UNL     1       2.648   6.063  13.946  1.00  0.00     0.210 HD
ENDBRANCH  22  23
BRANCH  22  25
HETATM   25  C16 UNL     1       1.333   7.889  15.625  1.00  0.00     0.182 C 
BRANCH  25  26
HETATM   26  O3  UNL     1       0.737   6.880  16.473  1.00  0.00    -0.390 OA
HETATM   27  H23 UNL     1       1.233   6.928  17.313  1.00  0.00     0.210 HD
ENDBRANCH  25  26
BRANCH  25  28
HETATM   28  C17 UNL     1       0.640   9.250  15.925  1.00  0.00     0.103 C 
HETATM   29  C18 UNL     1       0.549  10.162  14.694  1.00  0.00     0.051 C 
BRANCH  28  30
HETATM   30  O4  UNL     1      -0.731   8.951  16.302  1.00  0.00    -0.385 OA
HETATM   31  H27 UNL     1      -1.132   8.532  15.519  1.00  0.00     0.210 HD
ENDBRANCH  28  30
BRANCH  28  32
HETATM   32  C19 UNL     1       1.281  10.023  17.097  1.00  0.00     0.204 C 
BRANCH  32  33
HETATM   33  O5  UNL     1       2.258   9.234  17.780  1.00  0.00    -0.398 OA
HETATM   34  H30 UNL     1       2.483   9.718  18.594  1.00  0.00     0.209 HD
ENDBRANCH  32  33
ENDBRANCH  28  32
ENDBRANCH  25  28
ENDBRANCH  22  25
ENDBRANCH  21  22
ENDBRANCH  12  21
BRANCH  11  35
HETATM   35  O1  UNL     1       1.190   4.908  11.754  1.00  0.00    -0.395 OA
HETATM   36  H14 UNL     1       1.518   4.537  10.915  1.00  0.00     0.210 HD
ENDBRANCH  11  35
TORSDOF 10
ENDMDL
MODEL 7
REMARK minimizedAffinity -8.80755615
REMARK  10 active torsions:
REMARK  status: ('A' for Active; 'I' for Inactive)
REMARK    1  A    between atoms: C11_11  and  O1_12 
REMARK    2  A    between atoms: C12_13  and  C14_15 
REMARK    3  A    between atoms: C14_15  and  C15_16 
REMARK    4  A    between atoms: C15_16  and  O2_17 
REMARK    5  A    between atoms: C15_16  and  C16_18 
REMARK    6  A    between atoms: C16_18  and  O3_19 
REMARK    7  A    between atoms: C16_18  and  C17_20 
REMARK    8  A    between atoms: C17_20  and  O4_22 
REMARK    9  A    between atoms: C17_20  and  C19_23 
REMARK   10  A    between atoms: C19_23  and  O5_24 
ROOT
HETATM    1  C1  UNL     1      -6.802   4.287  12.675  1.00  0.00     0.015 C 
HETATM    2  C2  UNL     1      -5.402   3.956  13.176  1.00  0.00     0.019 C 
HETATM    3  C3  UNL     1      -4.640   3.031  12.193  1.00  0.00     0.048 C 
HETATM    4  C4  UNL     1      -3.236   3.567  12.214  1.00  0.00    -0.043 C 
HETATM    5  C5  UNL     1      -3.189   4.740  12.854  1.00  0.00    -0.040 C 
HETATM    6  C6  UNL     1      -4.477   5.138  13.331  1.00  0.00    -0.050 C 
HETATM    7  C7  UNL     1      -4.717   6.387  13.744  1.00  0.00    -0.009 C 
HETATM    8  C8  UNL     1      -3.692   7.500  13.620  1.00  0.00    -0.018 C 
HETATM    9  C9  UNL     1      -4.313   8.505  12.617  1.00  0.00     0.020 C 
HETATM   10  C10 UNL     1      -3.438   8.162  14.980  1.00  0.00     0.046 C 
HETATM   11  C11 UNL     1      -2.129   8.925  14.806  1.00  0.00     0.128 C 
HETATM   12  C12 UNL     1      -1.225   7.987  13.951  1.00  0.00    -0.010 C 
HETATM   13  C13 UNL     1      -0.355   7.184  14.946  1.00  0.00     0.018 C 
HETATM   14  C20 UNL     1      -2.256   7.088  13.122  1.00  0.00     0.017 C 
HETATM   15  C21 UNL     1      -1.972   5.557  13.133  1.00  0.00     0.026 C 
HETATM   16  C22 UNL     1      -0.875   5.152  12.124  1.00  0.00     0.014 C 
HETATM   17  C23 UNL     1      -0.744   3.621  12.010  1.00  0.00     0.040 C 
HETATM   18  C24 UNL     1      -2.056   2.934  11.657  1.00  0.00    -0.040 C 
HETATM   19  C25 UNL     1      -2.142   1.831  10.898  1.00  0.00     0.092 C 
HETATM   20 CL1  UNL     1      -0.814   0.989  10.214  1.00  0.00    -0.096 Cl
ENDROOT
BRANCH  12  21
HETATM   21  C14 UNL     1      -0.304   8.738  12.940  1.00  0.00     0.046 C 
BRANCH  21  22
HETATM   22  C15 UNL     1       1.214   8.454  13.011  1.00  0.00     0.150 C 
BRANCH  22  23
HETATM   23  O2  UNL     1       1.965   9.598  12.630  1.00  0.00    -0.393 OA
HETATM   24  H21 UNL     1       1.474  10.024  11.893  1.00  0.00     0.210 HD
ENDBRANCH  22  23
BRANCH  22  25
HETATM   25  C16 UNL     1       1.587   7.230  12.137  1.00  0.00     0.182 C 
BRANCH  25  26
HETATM   26  O3  UNL     1       2.862   6.712  12.582  1.00  0.00    -0.390 OA
HETATM   27  H23 UNL     1       2.814   5.749  12.428  1.00  0.00     0.210 HD
ENDBRANCH  25  26
BRANCH  25  28
HETATM   28  C17 UNL     1       1.678   7.499  10.607  1.00  0.00     0.103 C 
HETATM   29  C18 UNL     1       3.008   8.137  10.186  1.00  0.00     0.051 C 
BRANCH  28  30
HETATM   30  O4  UNL     1       1.629   6.205   9.947  1.00  0.00    -0.385 OA
HETATM   31  H27 UNL     1       2.420   5.726  10.254  1.00  0.00     0.210 HD
ENDBRANCH  28  30
BRANCH  28  32
HETATM   32  C19 UNL     1       0.504   8.339  10.059  1.00  0.00     0.204 C 
BRANCH  32  33
HETATM   33  O5  UNL     1       0.746   8.777   8.720  1.00  0.00    -0.398 OA
HETATM   34  H30 UNL     1       0.056   9.431   8.515  1.00  0.00     0.209 HD
ENDBRANCH  32  33
ENDBRANCH  28  32
ENDBRANCH  25  28
ENDBRANCH  22  25
ENDBRANCH  21  22
ENDBRANCH  12  21
BRANCH  11  35
HETATM   35  O1  UNL     1      -2.358  10.182  14.171  1.00  0.00    -0.395 OA
HETATM   36  H14 UNL     1      -3.023  10.655  14.704  1.00  0.00     0.210 HD
ENDBRANCH  11  35
TORSDOF 10
ENDMDL
MODEL 8
REMARK minimizedAffinity -8.72233009
REMARK  10 active torsions:
REMARK  status: ('A' for Active; 'I' for Inactive)
REMARK    1  A    between atoms: C11_11  and  O1_12 
REMARK    2  A    between atoms: C12_13  and  C14_15 
REMARK    3  A    between atoms: C14_15  and  C15_16 
REMARK    4  A    between atoms: C15_16  and  O2_17 
REMARK    5  A    between atoms: C15_16  and  C16_18 
REMARK    6  A    between atoms: C16_18  and  O3_19 
REMARK    7  A    between atoms: C16_18  and  C17_20 
REMARK    8  A    between atoms: C17_20  and  O4_22 
REMARK    9  A    between atoms: C17_20  and  C19_23 
REMARK   10  A    between atoms: C19_23  and  O5_24 
ROOT
HETATM    1  C1  UNL     1      -1.477   1.755  10.683  1.00  0.00     0.015 C 
HETATM    2  C2  UNL     1      -2.451   2.927  10.680  1.00  0.00     0.019 C 
HETATM    3  C3  UNL     1      -3.776   2.578  11.404  1.00  0.00     0.048 C 
HETATM    4  C4  UNL     1      -4.114   3.835  12.156  1.00  0.00    -0.043 C 
HETATM    5  C5  UNL     1      -3.085   4.688  12.134  1.00  0.00    -0.040 C 
HETATM    6  C6  UNL     1      -1.973   4.163  11.402  1.00  0.00    -0.050 C 
HETATM    7  C7  UNL     1      -0.758   4.711  11.486  1.00  0.00    -0.009 C 
HETATM    8  C8  UNL     1      -0.433   5.840  12.448  1.00  0.00    -0.018 C 
HETATM    9  C9  UNL     1       0.585   5.234  13.446  1.00  0.00     0.020 C 
HETATM   10  C10 UNL     1       0.168   7.037  11.702  1.00  0.00     0.046 C 
HETATM   11  C11 UNL     1       0.041   8.208  12.671  1.00  0.00     0.128 C 
HETATM   12  C12 UNL     1      -1.354   8.028  13.339  1.00  0.00    -0.010 C 
HETATM   13  C13 UNL     1      -2.348   8.893  12.529  1.00  0.00     0.018 C 
HETATM   14  C20 UNL     1      -1.641   6.457  13.248  1.00  0.00     0.017 C 
HETATM   15  C21 UNL     1      -3.051   6.061  12.717  1.00  0.00     0.026 C 
HETATM   16  C22 UNL     1      -4.140   6.152  13.807  1.00  0.00     0.014 C 
HETATM   17  C23 UNL     1      -5.483   5.574  13.319  1.00  0.00     0.040 C 
HETATM   18  C24 UNL     1      -5.369   4.143  12.814  1.00  0.00    -0.040 C 
HETATM   19  C25 UNL     1      -6.337   3.223  12.949  1.00  0.00     0.092 C 
HETATM   20 CL1  UNL     1      -7.864   3.488  13.681  1.00  0.00    -0.096 Cl
ENDROOT
BRANCH  12  21
HETATM   21  C14 UNL     1      -1.401   8.449  14.841  1.00  0.00     0.046 C 
BRANCH  21  22
HETATM   22  C15 UNL     1      -0.084   8.365  15.647  1.00  0.00     0.150 C 
BRANCH  22  23
HETATM   23  O2  UNL     1       0.024   7.117  16.319  1.00  0.00    -0.393 OA
HETATM   24  H21 UNL     1      -0.879   6.887  16.631  1.00  0.00     0.210 HD
ENDBRANCH  22  23
BRANCH  22  25
HETATM   25  C16 UNL     1       0.026   9.544  16.646  1.00  0.00     0.182 C 
BRANCH  25  26
HETATM   26  O3  UNL     1      -0.841  10.613  16.203  1.00  0.00    -0.390 OA
HETATM   27  H23 UNL     1      -1.150  11.047  17.021  1.00  0.00     0.210 HD
ENDBRANCH  25  26
BRANCH  25  28
HETATM   28  C17 UNL     1       1.456  10.127  16.843  1.00  0.00     0.103 C 
HETATM   29  C18 UNL     1       1.479  11.378  17.732  1.00  0.00     0.051 C 
BRANCH  28  30
HETATM   30  O4  UNL     1       2.228   9.121  17.551  1.00  0.00    -0.385 OA
HETATM   31  H27 UNL     1       1.786   9.011  18.412  1.00  0.00     0.210 HD
ENDBRANCH  28  30
BRANCH  28  32
HETATM   32  C19 UNL     1       2.189  10.420  15.517  1.00  0.00     0.204 C 
BRANCH  32  33
HETATM   33  O5  UNL     1       1.369  11.161  14.611  1.00  0.00    -0.398 OA
HETATM   34  H30 UNL     1       1.829  11.153  13.753  1.00  0.00     0.209 HD
ENDBRANCH  32  33
ENDBRANCH  28  32
ENDBRANCH  25  28
ENDBRANCH  22  25
ENDBRANCH  21  22
ENDBRANCH  12  21
BRANCH  11  35
HETATM   35  O1  UNL     1       1.104   8.192  13.623  1.00  0.00    -0.395 OA
HETATM   36  H14 UNL     1       1.938   8.185  13.121  1.00  0.00     0.210 HD
ENDBRANCH  11  35
TORSDOF 10
ENDMDL
MODEL 9
REMARK minimizedAffinity -8.66715145
REMARK  10 active torsions:
REMARK  status: ('A' for Active; 'I' for Inactive)
REMARK    1  A    between atoms: C11_11  and  O1_12 
REMARK    2  A    between atoms: C12_13  and  C14_15 
REMARK    3  A    between atoms: C14_15  and  C15_16 
REMARK    4  A    between atoms: C15_16  and  O2_17 
REMARK    5  A    between atoms: C15_16  and  C16_18 
REMARK    6  A    between atoms: C16_18  and  O3_19 
REMARK    7  A    between atoms: C16_18  and  C17_20 
REMARK    8  A    between atoms: C17_20  and  O4_22 
REMARK    9  A    between atoms: C17_20  and  C19_23 
REMARK   10  A    between atoms: C19_23  and  O5_24 
ROOT
HETATM    1  C1  UNL     1      -6.294   1.437  10.728  1.00  0.00     0.015 C 
HETATM    2  C2  UNL     1      -5.347   1.869  11.840  1.00  0.00     0.019 C 
HETATM    3  C3  UNL     1      -3.909   2.109  11.313  1.00  0.00     0.048 C 
HETATM    4  C4  UNL     1      -3.451   3.325  12.068  1.00  0.00    -0.043 C 
HETATM    5  C5  UNL     1      -4.473   3.889  12.719  1.00  0.00    -0.040 C 
HETATM    6  C6  UNL     1      -5.695   3.174  12.513  1.00  0.00    -0.050 C 
HETATM    7  C7  UNL     1      -6.880   3.705  12.829  1.00  0.00    -0.009 C 
HETATM    8  C8  UNL     1      -7.033   5.138  13.307  1.00  0.00    -0.018 C 
HETATM    9  C9  UNL     1      -7.848   5.845  12.194  1.00  0.00     0.020 C 
HETATM   10  C10 UNL     1      -7.769   5.190  14.650  1.00  0.00     0.046 C 
HETATM   11  C11 UNL     1      -7.477   6.581  15.204  1.00  0.00     0.128 C 
HETATM   12  C12 UNL     1      -5.983   6.848  14.858  1.00  0.00    -0.010 C 
HETATM   13  C13 UNL     1      -5.160   6.434  16.100  1.00  0.00     0.018 C 
HETATM   14  C20 UNL     1      -5.705   5.942  13.568  1.00  0.00     0.017 C 
HETATM   15  C21 UNL     1      -4.412   5.076  13.621  1.00  0.00     0.026 C 
HETATM   16  C22 UNL     1      -3.143   5.884  13.273  1.00  0.00     0.014 C 
HETATM   17  C23 UNL     1      -1.907   4.974  13.141  1.00  0.00     0.040 C 
HETATM   18  C24 UNL     1      -2.099   3.847  12.136  1.00  0.00    -0.040 C 
HETATM   19  C25 UNL     1      -1.116   3.356  11.367  1.00  0.00     0.092 C 
HETATM   20 CL1  UNL     1       0.517   3.878  11.387  1.00  0.00    -0.096 Cl
ENDROOT
BRANCH  12  21
HETATM   21  C14 UNL     1      -5.667   8.331  14.493  1.00  0.00     0.046 C 
BRANCH  21  22
HETATM   22  C15 UNL     1      -4.923   9.182  15.548  1.00  0.00     0.150 C 
BRANCH  22  23
HETATM   23  O2  UNL     1      -4.875  10.549  15.159  1.00  0.00    -0.393 OA
HETATM   24  H21 UNL     1      -4.741  10.559  14.185  1.00  0.00     0.210 HD
ENDBRANCH  22  23
BRANCH  22  25
HETATM   25  C16 UNL     1      -3.498   8.627  15.798  1.00  0.00     0.182 C 
BRANCH  25  26
HETATM   26  O3  UNL     1      -3.138   8.875  17.177  1.00  0.00    -0.390 OA
HETATM   27  H23 UNL     1      -2.565   8.125  17.430  1.00  0.00     0.210 HD
ENDBRANCH  25  26
BRANCH  25  28
HETATM   28  C17 UNL     1      -2.379   9.213  14.889  1.00  0.00     0.103 C 
HETATM   29  C18 UNL     1      -2.777   9.274  13.409  1.00  0.00     0.051 C 
BRANCH  28  30
HETATM   30  O4  UNL     1      -2.176  10.591  15.304  1.00  0.00    -0.385 OA
HETATM   31  H27 UNL     1      -3.023  11.042  15.133  1.00  0.00     0.210 HD
ENDBRANCH  28  30
BRANCH  28  32
HETATM   32  C19 UNL     1      -1.025   8.486  15.033  1.00  0.00     0.204 C 
BRANCH  32  33
HETATM   33  O5  UNL     1      -1.078   7.460  16.026  1.00  0.00    -0.398 OA
HETATM   34  H30 UNL     1      -0.160   7.174  16.177  1.00  0.00     0.209 HD
ENDBRANCH  32  33
ENDBRANCH  28  32
ENDBRANCH  25  28
ENDBRANCH  22  25
ENDBRANCH  21  22
ENDBRANCH  12  21
BRANCH  11  35
HETATM   35  O1  UNL     1      -8.349   7.549  14.622  1.00  0.00    -0.395 OA
HETATM   36  H14 UNL     1      -9.261   7.245  14.780  1.00  0.00     0.210 HD
ENDBRANCH  11  35
TORSDOF 10
ENDMDL
