MODEL 1
REMARK minimizedAffinity -8.10510635
REMARK  12 active torsions:
REMARK  status: ('A' for Active; 'I' for Inactive)
REMARK    1  A    between atoms: C2_2  and  C3_3 
REMARK    2  A    between atoms: C3_3  and  O1_4 
REMARK    3  A    between atoms: C3_3  and  C5_6 
REMARK    4  A    between atoms: C5_6  and  C7_8 
REMARK    5  A    between atoms: C8_10  and  C10_12 
REMARK    6  A    between atoms: C10_12  and  C11_13 
REMARK    7  A    between atoms: C11_13  and  C13_15 
REMARK    8  A    between atoms: C14_16  and  C15_17 
REMARK    9  A    between atoms: C16_18  and  C18_20 
REMARK   10  A    between atoms: C19_22  and  C20_23 
REMARK   11  A    between atoms: C20_23  and  C21_24 
REMARK   12  A    between atoms: C21_24  and  O5_26 
ROOT
HETATM    1  C13 UNL     1      -1.499   5.372  12.462  1.00  0.00    -0.022 C 
HETATM    2  C14 UNL     1      -0.725   6.451  12.261  1.00  0.00    -0.003 C 
ENDROOT
BRANCH   2   3
HETATM    3  C15 UNL     1       0.401   6.452  11.353  1.00  0.00     0.005 C 
HETATM    4  C16 UNL     1       0.649   7.329  10.356  1.00  0.00    -0.055 C 
HETATM    5  C17 UNL     1      -0.226   8.518  10.029  1.00  0.00     0.046 C 
BRANCH   4   6
HETATM    6  C18 UNL     1       1.875   7.247   9.443  1.00  0.00     0.154 C 
HETATM    7  O3  UNL     1       2.056   5.840   9.198  1.00  0.00    -0.375 OA
HETATM    8  C19 UNL     1       3.082   5.564   8.245  1.00  0.00     0.132 C 
HETATM    9  C22 UNL     1       2.598   6.001   6.858  1.00  0.00     0.033 C 
HETATM   10  C23 UNL     1       1.605   7.162   6.918  1.00  0.00     0.009 C 
HETATM   11  C24 UNL     1       1.841   8.074   8.124  1.00  0.00     0.015 C 
HETATM   12  C25 UNL     1       3.129   8.895   7.944  1.00  0.00     0.012 C 
BRANCH   8  13
HETATM   13  C20 UNL     1       3.386   4.067   8.271  1.00  0.00     0.141 C 
BRANCH  13  14
HETATM   14  C21 UNL     1       4.191   3.657   7.070  1.00  0.00     0.141 C 
HETATM   15  O4  UNL     1       3.819   3.589   5.910  1.00  0.00    -0.650 OA
BRANCH  14  16
HETATM   16  O5  UNL     1       5.439   3.270   7.407  1.00  0.00    -0.776 OA
HETATM   17  H34 UNL     1       5.849   3.024   6.551  1.00  0.00     0.167 HD
ENDBRANCH  14  16
ENDBRANCH  13  14
ENDBRANCH   8  13
ENDBRANCH   4   6
ENDBRANCH   2   3
BRANCH   1  18
HETATM   18  C11 UNL     1      -2.686   5.310  13.403  1.00  0.00     0.007 C 
HETATM   19  C12 UNL     1      -2.343   5.945  14.758  1.00  0.00     0.014 C 
BRANCH  18  20
HETATM   20  C10 UNL     1      -3.960   5.953  12.814  1.00  0.00     0.048 C 
BRANCH  20  21
HETATM   21  C8  UNL     1      -5.243   5.227  13.167  1.00  0.00     0.085 A 
HETATM   22  C7  UNL     1      -6.486   6.087  13.431  1.00  0.00     0.163 A 
HETATM   23  O2  UNL     1      -5.718   5.502  14.492  1.00  0.00    -0.369 OA
HETATM   24  C9  UNL     1      -5.348   3.782  12.783  1.00  0.00     0.049 C 
BRANCH  22  25
HETATM   25  C5  UNL     1      -7.911   5.593  13.342  1.00  0.00     0.042 C 
HETATM   26  C6  UNL     1      -8.385   5.615  11.886  1.00  0.00     0.015 C 
BRANCH  25  27
HETATM   27  C3  UNL     1      -8.879   6.385  14.275  1.00  0.00     0.126 C 
BRANCH  27  28
HETATM   28  C2  UNL     1     -10.127   6.943  13.563  1.00  0.00     0.028 C 
HETATM   29  C1  UNL     1     -11.352   6.957  14.473  1.00  0.00     0.007 C 
ENDBRANCH  27  28
BRANCH  27  30
HETATM   30  O1  UNL     1      -8.222   7.491  14.912  1.00  0.00    -0.390 OA
HETATM   31  C4  UNL     1      -8.138   7.378  16.326  1.00  0.00     0.202 C 
ENDBRANCH  27  30
ENDBRANCH  25  27
ENDBRANCH  22  25
ENDBRANCH  20  21
ENDBRANCH  18  20
ENDBRANCH   1  18
TORSDOF 12
ENDMDL
MODEL 2
REMARK minimizedAffinity -8.03130531
REMARK  12 active torsions:
REMARK  status: ('A' for Active; 'I' for Inactive)
REMARK    1  A    between atoms: C2_2  and  C3_3 
REMARK    2  A    between atoms: C3_3  and  O1_4 
REMARK    3  A    between atoms: C3_3  and  C5_6 
REMARK    4  A    between atoms: C5_6  and  C7_8 
REMARK    5  A    between atoms: C8_10  and  C10_12 
REMARK    6  A    between atoms: C10_12  and  C11_13 
REMARK    7  A    between atoms: C11_13  and  C13_15 
REMARK    8  A    between atoms: C14_16  and  C15_17 
REMARK    9  A    between atoms: C16_18  and  C18_20 
REMARK   10  A    between atoms: C19_22  and  C20_23 
REMARK   11  A    between atoms: C20_23  and  C21_24 
REMARK   12  A    between atoms: C21_24  and  O5_26 
ROOT
HETATM    1  C13 UNL     1      -4.711   3.652  11.704  1.00  0.00    -0.022 C 
HETATM    2  C14 UNL     1      -3.474   3.345  11.282  1.00  0.00    -0.003 C 
ENDROOT
BRANCH   2   3
HETATM    3  C15 UNL     1      -2.329   4.200  11.512  1.00  0.00     0.005 C 
HETATM    4  C16 UNL     1      -1.032   3.831  11.583  1.00  0.00    -0.055 C 
HETATM    5  C17 UNL     1      -0.536   2.414  11.398  1.00  0.00     0.046 C 
BRANCH   4   6
HETATM    6  C18 UNL     1       0.114   4.815  11.831  1.00  0.00     0.154 C 
HETATM    7  O3  UNL     1       0.842   4.851  10.589  1.00  0.00    -0.375 OA
HETATM    8  C19 UNL     1       1.882   5.828  10.576  1.00  0.00     0.132 C 
HETATM    9  C22 UNL     1       1.248   7.224  10.537  1.00  0.00     0.033 C 
HETATM   10  C23 UNL     1      -0.126   7.266  11.205  1.00  0.00     0.009 C 
HETATM   11  C24 UNL     1      -0.263   6.240  12.332  1.00  0.00     0.015 C 
HETATM   12  C25 UNL     1       0.585   6.649  13.548  1.00  0.00     0.012 C 
BRANCH   8  13
HETATM   13  C20 UNL     1       2.761   5.593   9.349  1.00  0.00     0.141 C 
BRANCH  13  14
HETATM   14  C21 UNL     1       3.697   4.438   9.566  1.00  0.00     0.141 C 
HETATM   15  O4  UNL     1       4.911   4.429   9.441  1.00  0.00    -0.650 OA
BRANCH  14  16
HETATM   16  O5  UNL     1       3.036   3.300   9.864  1.00  0.00    -0.776 OA
HETATM   17  H34 UNL     1       3.748   2.636   9.970  1.00  0.00     0.167 HD
ENDBRANCH  14  16
ENDBRANCH  13  14
ENDBRANCH   8  13
ENDBRANCH   4   6
ENDBRANCH   2   3
BRANCH   1  18
HETATM   18  C11 UNL     1      -5.946   2.800  11.488  1.00  0.00     0.007 C 
HETATM   19  C12 UNL     1      -5.574   1.313  11.389  1.00  0.00     0.014 C 
BRANCH  18  20
HETATM   20  C10 UNL     1      -7.026   3.013  12.570  1.00  0.00     0.048 C 
BRANCH  20  21
HETATM   21  C8  UNL     1      -7.214   4.459  12.984  1.00  0.00     0.085 A 
HETATM   22  C7  UNL     1      -6.059   5.128  13.741  1.00  0.00     0.163 A 
HETATM   23  O2  UNL     1      -7.239   4.655  14.405  1.00  0.00    -0.369 OA
HETATM   24  C9  UNL     1      -8.249   5.260  12.253  1.00  0.00     0.049 C 
BRANCH  22  25
HETATM   25  C5  UNL     1      -5.840   6.620  13.836  1.00  0.00     0.042 C 
HETATM   26  C6  UNL     1      -4.508   6.998  13.181  1.00  0.00     0.015 C 
BRANCH  25  27
HETATM   27  C3  UNL     1      -5.930   7.146  15.302  1.00  0.00     0.126 C 
BRANCH  27  28
HETATM   28  C2  UNL     1      -7.193   7.980  15.598  1.00  0.00     0.028 C 
HETATM   29  C1  UNL     1      -8.155   7.256  16.536  1.00  0.00     0.007 C 
ENDBRANCH  27  28
BRANCH  27  30
HETATM   30  O1  UNL     1      -4.796   7.953  15.651  1.00  0.00    -0.390 OA
HETATM   31  C4  UNL     1      -5.045   9.352  15.603  1.00  0.00     0.202 C 
ENDBRANCH  27  30
ENDBRANCH  25  27
ENDBRANCH  22  25
ENDBRANCH  20  21
ENDBRANCH  18  20
ENDBRANCH   1  18
TORSDOF 12
ENDMDL
MODEL 3
REMARK minimizedAffinity -7.78817225
REMARK  12 active torsions:
REMARK  status: ('A' for Active; 'I' for Inactive)
REMARK    1  A    between atoms: C2_2  and  C3_3 
REMARK    2  A    between atoms: C3_3  and  O1_4 
REMARK    3  A    between atoms: C3_3  and  C5_6 
REMARK    4  A    between atoms: C5_6  and  C7_8 
REMARK    5  A    between atoms: C8_10  and  C10_12 
REMARK    6  A    between atoms: C10_12  and  C11_13 
REMARK    7  A    between atoms: C11_13  and  C13_15 
REMARK    8  A    between atoms: C14_16  and  C15_17 
REMARK    9  A    between atoms: C16_18  and  C18_20 
REMARK   10  A    between atoms: C19_22  and  C20_23 
REMARK   11  A    between atoms: C20_23  and  C21_24 
REMARK   12  A    between atoms: C21_24  and  O5_26 
ROOT
HETATM    1  C13 UNL     1      -1.170   5.339  12.920  1.00  0.00    -0.022 C 
HETATM    2  C14 UNL     1      -2.302   5.764  12.337  1.00  0.00    -0.003 C 
ENDROOT
BRANCH   2   3
HETATM    3  C15 UNL     1      -3.608   5.586  12.934  1.00  0.00     0.005 C 
HETATM    4  C16 UNL     1      -4.537   4.660  12.612  1.00  0.00    -0.055 C 
HETATM    5  C17 UNL     1      -4.350   3.597  11.553  1.00  0.00     0.046 C 
BRANCH   4   6
HETATM    6  C18 UNL     1      -5.897   4.550  13.307  1.00  0.00     0.154 C 
HETATM    7  O3  UNL     1      -6.196   5.890  13.742  1.00  0.00    -0.375 OA
HETATM    8  C19 UNL     1      -7.503   6.020  14.299  1.00  0.00     0.132 C 
HETATM    9  C22 UNL     1      -8.535   5.886  13.173  1.00  0.00     0.033 C 
HETATM   10  C23 UNL     1      -8.045   5.003  12.025  1.00  0.00     0.009 C 
HETATM   11  C24 UNL     1      -7.067   3.922  12.492  1.00  0.00     0.015 C 
HETATM   12  C25 UNL     1      -7.797   2.840  13.304  1.00  0.00     0.012 C 
BRANCH   8  13
HETATM   13  C20 UNL     1      -7.613   7.383  14.980  1.00  0.00     0.141 C 
BRANCH  13  14
HETATM   14  C21 UNL     1      -8.782   7.425  15.924  1.00  0.00     0.141 C 
HETATM   15  O4  UNL     1      -9.307   8.409  16.416  1.00  0.00    -0.650 OA
BRANCH  14  16
HETATM   16  O5  UNL     1      -9.196   6.189  16.271  1.00  0.00    -0.776 OA
HETATM   17  H34 UNL     1      -9.942   6.353  16.884  1.00  0.00     0.167 HD
ENDBRANCH  14  16
ENDBRANCH  13  14
ENDBRANCH   8  13
ENDBRANCH   4   6
ENDBRANCH   2   3
BRANCH   1  18
HETATM   18  C11 UNL     1       0.223   5.492  12.341  1.00  0.00     0.007 C 
HETATM   19  C12 UNL     1       0.164   5.673  10.817  1.00  0.00     0.014 C 
BRANCH  18  20
HETATM   20  C10 UNL     1       1.025   6.642  12.988  1.00  0.00     0.048 C 
BRANCH  20  21
HETATM   21  C8  UNL     1       2.011   7.314  12.054  1.00  0.00     0.085 A 
HETATM   22  C7  UNL     1       3.186   6.468  11.546  1.00  0.00     0.163 A 
HETATM   23  O2  UNL     1       3.333   7.433  12.596  1.00  0.00    -0.369 OA
HETATM   24  C9  UNL     1       1.550   8.544  11.330  1.00  0.00     0.049 C 
BRANCH  22  25
HETATM   25  C5  UNL     1       3.989   6.766  10.302  1.00  0.00     0.042 C 
HETATM   26  C6  UNL     1       4.153   8.279  10.133  1.00  0.00     0.015 C 
BRANCH  25  27
HETATM   27  C3  UNL     1       3.381   6.107   9.025  1.00  0.00     0.126 C 
BRANCH  27  28
HETATM   28  C2  UNL     1       2.176   6.866   8.434  1.00  0.00     0.028 C 
HETATM   29  C1  UNL     1       2.160   6.823   6.908  1.00  0.00     0.007 C 
ENDBRANCH  27  28
BRANCH  27  30
HETATM   30  O1  UNL     1       2.955   4.758   9.270  1.00  0.00    -0.390 OA
HETATM   31  C4  UNL     1       3.978   3.787   9.091  1.00  0.00     0.202 C 
ENDBRANCH  27  30
ENDBRANCH  25  27
ENDBRANCH  22  25
ENDBRANCH  20  21
ENDBRANCH  18  20
ENDBRANCH   1  18
TORSDOF 12
ENDMDL
MODEL 4
REMARK minimizedAffinity -7.61450148
REMARK  12 active torsions:
REMARK  status: ('A' for Active; 'I' for Inactive)
REMARK    1  A    between atoms: C2_2  and  C3_3 
REMARK    2  A    between atoms: C3_3  and  O1_4 
REMARK    3  A    between atoms: C3_3  and  C5_6 
REMARK    4  A    between atoms: C5_6  and  C7_8 
REMARK    5  A    between atoms: C8_10  and  C10_12 
REMARK    6  A    between atoms: C10_12  and  C11_13 
REMARK    7  A    between atoms: C11_13  and  C13_15 
REMARK    8  A    between atoms: C14_16  and  C15_17 
REMARK    9  A    between atoms: C16_18  and  C18_20 
REMARK   10  A    between atoms: C19_22  and  C20_23 
REMARK   11  A    between atoms: C20_23  and  C21_24 
REMARK   12  A    between atoms: C21_24  and  O5_26 
ROOT
HETATM    1  C13 UNL     1      -1.992   7.594  13.382  1.00  0.00    -0.022 C 
HETATM    2  C14 UNL     1      -2.580   6.526  13.944  1.00  0.00    -0.003 C 
ENDROOT
BRANCH   2   3
HETATM    3  C15 UNL     1      -3.705   5.841  13.344  1.00  0.00     0.005 C 
HETATM    4  C16 UNL     1      -5.017   6.080  13.557  1.00  0.00    -0.055 C 
HETATM    5  C17 UNL     1      -5.551   7.162  14.469  1.00  0.00     0.046 C 
BRANCH   4   6
HETATM    6  C18 UNL     1      -6.140   5.299  12.870  1.00  0.00     0.154 C 
HETATM    7  O3  UNL     1      -5.544   4.037  12.513  1.00  0.00    -0.375 OA
HETATM    8  C19 UNL     1      -6.482   3.106  11.976  1.00  0.00     0.132 C 
HETATM    9  C22 UNL     1      -7.410   2.635  13.103  1.00  0.00     0.033 C 
HETATM   10  C23 UNL     1      -7.593   3.688  14.195  1.00  0.00     0.009 C 
HETATM   11  C24 UNL     1      -7.470   5.117  13.660  1.00  0.00     0.015 C 
HETATM   12  C25 UNL     1      -8.688   5.482  12.795  1.00  0.00     0.012 C 
BRANCH   8  13
HETATM   13  C20 UNL     1      -5.716   1.930  11.374  1.00  0.00     0.141 C 
BRANCH  13  14
HETATM   14  C21 UNL     1      -4.251   2.243  11.250  1.00  0.00     0.141 C 
HETATM   15  O4  UNL     1      -3.331   1.775  11.900  1.00  0.00    -0.650 OA
BRANCH  14  16
HETATM   16  O5  UNL     1      -4.016   3.213  10.342  1.00  0.00    -0.776 OA
HETATM   17  H34 UNL     1      -3.044   3.326  10.364  1.00  0.00     0.167 HD
ENDBRANCH  14  16
ENDBRANCH  13  14
ENDBRANCH   8  13
ENDBRANCH   4   6
ENDBRANCH   2   3
BRANCH   1  18
HETATM   18  C11 UNL     1      -0.817   8.354  13.964  1.00  0.00     0.007 C 
HETATM   19  C12 UNL     1      -0.070   7.497  14.998  1.00  0.00     0.014 C 
BRANCH  18  20
HETATM   20  C10 UNL     1       0.163   8.873  12.889  1.00  0.00     0.048 C 
BRANCH  20  21
HETATM   21  C8  UNL     1       1.025   7.796  12.262  1.00  0.00     0.085 A 
HETATM   22  C7  UNL     1       0.742   7.435  10.797  1.00  0.00     0.163 A 
HETATM   23  O2  UNL     1       0.298   6.617  11.889  1.00  0.00    -0.369 OA
HETATM   24  C9  UNL     1       2.346   7.504  12.907  1.00  0.00     0.049 C 
BRANCH  22  25
HETATM   25  C5  UNL     1       1.726   6.763   9.869  1.00  0.00     0.042 C 
HETATM   26  C6  UNL     1       2.213   5.447  10.484  1.00  0.00     0.015 C 
BRANCH  25  27
HETATM   27  C3  UNL     1       2.916   7.694   9.483  1.00  0.00     0.126 C 
BRANCH  27  28
HETATM   28  C2  UNL     1       2.842   8.253   8.048  1.00  0.00     0.028 C 
HETATM   29  C1  UNL     1       2.015   7.364   7.125  1.00  0.00     0.007 C 
ENDBRANCH  27  28
BRANCH  27  30
HETATM   30  O1  UNL     1       4.181   7.028   9.615  1.00  0.00    -0.390 OA
HETATM   31  C4  UNL     1       5.102   7.697  10.466  1.00  0.00     0.202 C 
ENDBRANCH  27  30
ENDBRANCH  25  27
ENDBRANCH  22  25
ENDBRANCH  20  21
ENDBRANCH  18  20
ENDBRANCH   1  18
TORSDOF 12
ENDMDL
MODEL 5
REMARK minimizedAffinity -7.60394478
REMARK  12 active torsions:
REMARK  status: ('A' for Active; 'I' for Inactive)
REMARK    1  A    between atoms: C2_2  and  C3_3 
REMARK    2  A    between atoms: C3_3  and  O1_4 
REMARK    3  A    between atoms: C3_3  and  C5_6 
REMARK    4  A    between atoms: C5_6  and  C7_8 
REMARK    5  A    between atoms: C8_10  and  C10_12 
REMARK    6  A    between atoms: C10_12  and  C11_13 
REMARK    7  A    between atoms: C11_13  and  C13_15 
REMARK    8  A    between atoms: C14_16  and  C15_17 
REMARK    9  A    between atoms: C16_18  and  C18_20 
REMARK   10  A    between atoms: C19_22  and  C20_23 
REMARK   11  A    between atoms: C20_23  and  C21_24 
REMARK   12  A    between atoms: C21_24  and  O5_26 
ROOT
HETATM    1  C13 UNL     1      -4.682   4.187  12.189  1.00  0.00    -0.022 C 
HETATM    2  C14 UNL     1      -3.569   3.943  11.478  1.00  0.00    -0.003 C 
ENDROOT
BRANCH   2   3
HETATM    3  C15 UNL     1      -2.304   4.590  11.752  1.00  0.00     0.005 C 
HETATM    4  C16 UNL     1      -1.078   4.023  11.761  1.00  0.00    -0.055 C 
HETATM    5  C17 UNL     1      -0.809   2.568  11.446  1.00  0.00     0.046 C 
BRANCH   4   6
HETATM    6  C18 UNL     1       0.209   4.795  12.063  1.00  0.00     0.154 C 
HETATM    7  O3  UNL     1       0.888   4.884  10.796  1.00  0.00    -0.375 OA
HETATM    8  C19 UNL     1       2.060   5.698  10.844  1.00  0.00     0.132 C 
HETATM    9  C22 UNL     1       1.637   7.163  11.006  1.00  0.00     0.033 C 
HETATM   10  C23 UNL     1       0.309   7.315  11.749  1.00  0.00     0.009 C 
HETATM   11  C24 UNL     1       0.063   6.185  12.751  1.00  0.00     0.015 C 
HETATM   12  C25 UNL     1       1.006   6.312  13.959  1.00  0.00     0.012 C 
BRANCH   8  13
HETATM   13  C20 UNL     1       2.849   5.498   9.552  1.00  0.00     0.141 C 
BRANCH  13  14
HETATM   14  C21 UNL     1       4.305   5.255   9.838  1.00  0.00     0.141 C 
HETATM   15  O4  UNL     1       5.125   6.053  10.262  1.00  0.00    -0.650 OA
BRANCH  14  16
HETATM   16  O5  UNL     1       4.685   4.007   9.497  1.00  0.00    -0.776 OA
HETATM   17  H34 UNL     1       5.638   3.981   9.722  1.00  0.00     0.167 HD
ENDBRANCH  14  16
ENDBRANCH  13  14
ENDBRANCH   8  13
ENDBRANCH   4   6
ENDBRANCH   2   3
BRANCH   1  18
HETATM   18  C11 UNL     1      -6.033   3.545  11.946  1.00  0.00     0.007 C 
HETATM   19  C12 UNL     1      -5.881   2.042  11.665  1.00  0.00     0.014 C 
BRANCH  18  20
HETATM   20  C10 UNL     1      -7.031   3.778  13.100  1.00  0.00     0.048 C 
BRANCH  20  21
HETATM   21  C8  UNL     1      -7.077   5.208  13.603  1.00  0.00     0.085 A 
HETATM   22  C7  UNL     1      -8.457   5.789  13.939  1.00  0.00     0.163 A 
HETATM   23  O2  UNL     1      -7.766   6.108  12.724  1.00  0.00    -0.369 OA
HETATM   24  C9  UNL     1      -5.816   5.781  14.175  1.00  0.00     0.049 C 
BRANCH  22  25
HETATM   25  C5  UNL     1      -8.696   6.968  14.853  1.00  0.00     0.042 C 
HETATM   26  C6  UNL     1      -8.402   6.576  16.304  1.00  0.00     0.015 C 
BRANCH  25  27
HETATM   27  C3  UNL     1     -10.128   7.566  14.697  1.00  0.00     0.126 C 
BRANCH  27  28
HETATM   28  C2  UNL     1     -11.030   6.797  13.711  1.00  0.00     0.028 C 
HETATM   29  C1  UNL     1     -12.394   6.469  14.312  1.00  0.00     0.007 C 
ENDBRANCH  27  28
BRANCH  27  30
HETATM   30  O1  UNL     1     -10.092   8.933  14.262  1.00  0.00    -0.390 OA
HETATM   31  C4  UNL     1      -9.521   9.827  15.209  1.00  0.00     0.202 C 
ENDBRANCH  27  30
ENDBRANCH  25  27
ENDBRANCH  22  25
ENDBRANCH  20  21
ENDBRANCH  18  20
ENDBRANCH   1  18
TORSDOF 12
ENDMDL
MODEL 6
REMARK minimizedAffinity -7.55939198
REMARK  12 active torsions:
REMARK  status: ('A' for Active; 'I' for Inactive)
REMARK    1  A    between atoms: C2_2  and  C3_3 
REMARK    2  A    between atoms: C3_3  and  O1_4 
REMARK    3  A    between atoms: C3_3  and  C5_6 
REMARK    4  A    between atoms: C5_6  and  C7_8 
REMARK    5  A    between atoms: C8_10  and  C10_12 
REMARK    6  A    between atoms: C10_12  and  C11_13 
REMARK    7  A    between atoms: C11_13  and  C13_15 
REMARK    8  A    between atoms: C14_16  and  C15_17 
REMARK    9  A    between atoms: C16_18  and  C18_20 
REMARK   10  A    between atoms: C19_22  and  C20_23 
REMARK   11  A    between atoms: C20_23  and  C21_24 
REMARK   12  A    between atoms: C21_24  and  O5_26 
ROOT
HETATM    1  C13 UNL     1      -2.617   8.248  13.255  1.00  0.00    -0.022 C 
HETATM    2  C14 UNL     1      -2.971   6.958  13.134  1.00  0.00    -0.003 C 
ENDROOT
BRANCH   2   3
HETATM    3  C15 UNL     1      -4.304   6.479  13.433  1.00  0.00     0.005 C 
HETATM    4  C16 UNL     1      -4.768   5.217  13.303  1.00  0.00    -0.055 C 
HETATM    5  C17 UNL     1      -3.935   4.045  12.835  1.00  0.00     0.046 C 
BRANCH   4   6
HETATM    6  C18 UNL     1      -6.201   4.804  13.648  1.00  0.00     0.154 C 
HETATM    7  O3  UNL     1      -6.809   5.998  14.175  1.00  0.00    -0.375 OA
HETATM    8  C19 UNL     1      -8.205   5.850  14.431  1.00  0.00     0.132 C 
HETATM    9  C22 UNL     1      -8.946   5.761  13.091  1.00  0.00     0.033 C 
HETATM   10  C23 UNL     1      -8.086   5.158  11.981  1.00  0.00     0.009 C 
HETATM   11  C24 UNL     1      -7.053   4.163  12.513  1.00  0.00     0.015 C 
HETATM   12  C25 UNL     1      -7.736   2.869  12.988  1.00  0.00     0.012 C 
BRANCH   8  13
HETATM   13  C20 UNL     1      -8.686   7.053  15.241  1.00  0.00     0.141 C 
BRANCH  13  14
HETATM   14  C21 UNL     1      -7.540   7.953  15.607  1.00  0.00     0.141 C 
HETATM   15  O4  UNL     1      -7.297   9.066  15.170  1.00  0.00    -0.650 OA
BRANCH  14  16
HETATM   16  O5  UNL     1      -6.690   7.363  16.472  1.00  0.00    -0.776 OA
HETATM   17  H34 UNL     1      -5.997   8.039  16.620  1.00  0.00     0.167 HD
ENDBRANCH  14  16
ENDBRANCH  13  14
ENDBRANCH   8  13
ENDBRANCH   4   6
ENDBRANCH   2   3
BRANCH   1  18
HETATM   18  C11 UNL     1      -1.239   8.807  12.963  1.00  0.00     0.007 C 
HETATM   19  C12 UNL     1      -0.186   8.182  13.890  1.00  0.00     0.014 C 
BRANCH  18  20
HETATM   20  C10 UNL     1      -0.819   8.644  11.485  1.00  0.00     0.048 C 
BRANCH  20  21
HETATM   21  C8  UNL     1       0.656   8.356  11.287  1.00  0.00     0.085 A 
HETATM   22  C7  UNL     1       1.076   7.740   9.946  1.00  0.00     0.163 A 
HETATM   23  O2  UNL     1       0.959   6.962  11.145  1.00  0.00    -0.369 OA
HETATM   24  C9  UNL     1       1.628   9.093  12.158  1.00  0.00     0.049 C 
BRANCH  22  25
HETATM   25  C5  UNL     1       2.470   7.799   9.369  1.00  0.00     0.042 C 
HETATM   26  C6  UNL     1       2.404   7.888   7.842  1.00  0.00     0.015 C 
BRANCH  25  27
HETATM   27  C3  UNL     1       3.363   6.608   9.838  1.00  0.00     0.126 C 
BRANCH  27  28
HETATM   28  C2  UNL     1       4.746   7.028  10.376  1.00  0.00     0.028 C 
HETATM   29  C1  UNL     1       4.892   8.545  10.469  1.00  0.00     0.007 C 
ENDBRANCH  27  28
BRANCH  27  30
HETATM   30  O1  UNL     1       3.587   5.660   8.784  1.00  0.00    -0.390 OA
HETATM   31  C4  UNL     1       3.756   4.322   9.235  1.00  0.00     0.202 C 
ENDBRANCH  27  30
ENDBRANCH  25  27
ENDBRANCH  22  25
ENDBRANCH  20  21
ENDBRANCH  18  20
ENDBRANCH   1  18
TORSDOF 12
ENDMDL
MODEL 7
REMARK minimizedAffinity -7.40249825
REMARK  12 active torsions:
REMARK  status: ('A' for Active; 'I' for Inactive)
REMARK    1  A    between atoms: C2_2  and  C3_3 
REMARK    2  A    between atoms: C3_3  and  O1_4 
REMARK    3  A    between atoms: C3_3  and  C5_6 
REMARK    4  A    between atoms: C5_6  and  C7_8 
REMARK    5  A    between atoms: C8_10  and  C10_12 
REMARK    6  A    between atoms: C10_12  and  C11_13 
REMARK    7  A    between atoms: C11_13  and  C13_15 
REMARK    8  A    between atoms: C14_16  and  C15_17 
REMARK    9  A    between atoms: C16_18  and  C18_20 
REMARK   10  A    between atoms: C19_22  and  C20_23 
REMARK   11  A    between atoms: C20_23  and  C21_24 
REMARK   12  A    between atoms: C21_24  and  O5_26 
ROOT
HETATM    1  C13 UNL     1      -3.374   4.635  12.534  1.00  0.00    -0.022 C 
HETATM    2  C14 UNL     1      -4.566   4.410  13.110  1.00  0.00    -0.003 C 
ENDROOT
BRANCH   2   3
HETATM    3  C15 UNL     1      -5.447   5.476  13.534  1.00  0.00     0.005 C 
HETATM    4  C16 UNL     1      -6.782   5.560  13.345  1.00  0.00    -0.055 C 
HETATM    5  C17 UNL     1      -7.615   4.500  12.659  1.00  0.00     0.046 C 
BRANCH   4   6
HETATM    6  C18 UNL     1      -7.633   6.735  13.834  1.00  0.00     0.154 C 
HETATM    7  O3  UNL     1      -8.987   6.244  13.802  1.00  0.00    -0.375 OA
HETATM    8  C19 UNL     1      -9.928   7.161  14.359  1.00  0.00     0.132 C 
HETATM    9  C22 UNL     1      -9.720   7.222  15.877  1.00  0.00     0.033 C 
HETATM   10  C23 UNL     1      -8.275   6.936  16.285  1.00  0.00     0.009 C 
HETATM   11  C24 UNL     1      -7.267   7.357  15.214  1.00  0.00     0.015 C 
HETATM   12  C25 UNL     1      -7.171   8.890  15.128  1.00  0.00     0.012 C 
BRANCH   8  13
HETATM   13  C20 UNL     1     -11.339   6.681  14.021  1.00  0.00     0.141 C 
BRANCH  13  14
HETATM   14  C21 UNL     1     -11.996   7.589  13.021  1.00  0.00     0.141 C 
HETATM   15  O4  UNL     1     -11.528   8.590  12.502  1.00  0.00    -0.650 OA
BRANCH  14  16
HETATM   16  O5  UNL     1     -13.272   7.229  12.771  1.00  0.00    -0.776 OA
HETATM   17  H34 UNL     1     -13.582   7.894  12.123  1.00  0.00     0.167 HD
ENDBRANCH  14  16
ENDBRANCH  13  14
ENDBRANCH   8  13
ENDBRANCH   4   6
ENDBRANCH   2   3
BRANCH   1  18
HETATM   18  C11 UNL     1      -2.408   3.561  12.075  1.00  0.00     0.007 C 
HETATM   19  C12 UNL     1      -3.166   2.331  11.554  1.00  0.00     0.014 C 
BRANCH  18  20
HETATM   20  C10 UNL     1      -1.403   4.062  11.015  1.00  0.00     0.048 C 
BRANCH  20  21
HETATM   21  C8  UNL     1      -0.201   4.784  11.591  1.00  0.00     0.085 A 
HETATM   22  C7  UNL     1       0.475   5.839  10.705  1.00  0.00     0.163 A 
HETATM   23  O2  UNL     1       1.021   4.525  10.887  1.00  0.00    -0.369 OA
HETATM   24  C9  UNL     1      -0.043   4.785  13.082  1.00  0.00     0.049 C 
BRANCH  22  25
HETATM   25  C5  UNL     1       1.351   6.959  11.213  1.00  0.00     0.042 C 
HETATM   26  C6  UNL     1       0.577   8.280  11.197  1.00  0.00     0.015 C 
BRANCH  25  27
HETATM   27  C3  UNL     1       2.696   7.070  10.430  1.00  0.00     0.126 C 
BRANCH  27  28
HETATM   28  C2  UNL     1       2.561   6.862   8.909  1.00  0.00     0.028 C 
HETATM   29  C1  UNL     1       2.815   8.147   8.126  1.00  0.00     0.007 C 
ENDBRANCH  27  28
BRANCH  27  30
HETATM   30  O1  UNL     1       3.670   6.127  10.903  1.00  0.00    -0.390 OA
HETATM   31  C4  UNL     1       5.011   6.593  10.826  1.00  0.00     0.202 C 
ENDBRANCH  27  30
ENDBRANCH  25  27
ENDBRANCH  22  25
ENDBRANCH  20  21
ENDBRANCH  18  20
ENDBRANCH   1  18
TORSDOF 12
ENDMDL
MODEL 8
REMARK minimizedAffinity -7.33189535
REMARK  12 active torsions:
REMARK  status: ('A' for Active; 'I' for Inactive)
REMARK    1  A    between atoms: C2_2  and  C3_3 
REMARK    2  A    between atoms: C3_3  and  O1_4 
REMARK    3  A    between atoms: C3_3  and  C5_6 
REMARK    4  A    between atoms: C5_6  and  C7_8 
REMARK    5  A    between atoms: C8_10  and  C10_12 
REMARK    6  A    between atoms: C10_12  and  C11_13 
REMARK    7  A    between atoms: C11_13  and  C13_15 
REMARK    8  A    between atoms: C14_16  and  C15_17 
REMARK    9  A    between atoms: C16_18  and  C18_20 
REMARK   10  A    between atoms: C19_22  and  C20_23 
REMARK   11  A    between atoms: C20_23  and  C21_24 
REMARK   12  A    between atoms: C21_24  and  O5_26 
ROOT
HETATM    1  C13 UNL     1      -1.492   4.875  12.836  1.00  0.00    -0.022 C 
HETATM    2  C14 UNL     1      -2.525   5.727  12.935  1.00  0.00    -0.003 C 
ENDROOT
BRANCH   2   3
HETATM    3  C15 UNL     1      -3.863   5.301  13.288  1.00  0.00     0.005 C 
HETATM    4  C16 UNL     1      -4.936   6.086  13.525  1.00  0.00    -0.055 C 
HETATM    5  C17 UNL     1      -4.926   7.596  13.431  1.00  0.00     0.046 C 
BRANCH   4   6
HETATM    6  C18 UNL     1      -6.318   5.540  13.893  1.00  0.00     0.154 C 
HETATM    7  O3  UNL     1      -7.129   6.711  14.108  1.00  0.00    -0.375 OA
HETATM    8  C19 UNL     1      -8.505   6.406  14.330  1.00  0.00     0.132 C 
HETATM    9  C22 UNL     1      -9.120   5.912  13.015  1.00  0.00     0.033 C 
HETATM   10  C23 UNL     1      -8.100   5.223  12.109  1.00  0.00     0.009 C 
HETATM   11  C24 UNL     1      -6.979   4.542  12.897  1.00  0.00     0.015 C 
HETATM   12  C25 UNL     1      -7.506   3.293  13.625  1.00  0.00     0.012 C 
BRANCH   8  13
HETATM   13  C20 UNL     1      -9.213   7.666  14.824  1.00  0.00     0.141 C 
BRANCH  13  14
HETATM   14  C21 UNL     1     -10.667   7.655  14.445  1.00  0.00     0.141 C 
HETATM   15  O4  UNL     1     -11.239   8.393  13.659  1.00  0.00    -0.650 OA
BRANCH  14  16
HETATM   16  O5  UNL     1     -11.366   6.740  15.147  1.00  0.00    -0.776 OA
HETATM   17  H34 UNL     1     -12.283   6.839  14.818  1.00  0.00     0.167 HD
ENDBRANCH  14  16
ENDBRANCH  13  14
ENDBRANCH   8  13
ENDBRANCH   4   6
ENDBRANCH   2   3
BRANCH   1  18
HETATM   18  C11 UNL     1      -0.073   5.260  12.466  1.00  0.00     0.007 C 
HETATM   19  C12 UNL     1       0.131   5.201  10.945  1.00  0.00     0.014 C 
BRANCH  18  20
HETATM   20  C10 UNL     1       0.341   6.644  13.011  1.00  0.00     0.048 C 
BRANCH  20  21
HETATM   21  C8  UNL     1       1.156   7.475  12.040  1.00  0.00     0.085 A 
HETATM   22  C7  UNL     1       2.604   7.034  11.783  1.00  0.00     0.163 A 
HETATM   23  O2  UNL     1       2.278   8.134  12.644  1.00  0.00    -0.369 OA
HETATM   24  C9  UNL     1       0.408   8.338  11.069  1.00  0.00     0.049 C 
BRANCH  22  25
HETATM   25  C5  UNL     1       3.415   7.409  10.566  1.00  0.00     0.042 C 
HETATM   26  C6  UNL     1       3.394   6.265   9.548  1.00  0.00     0.015 C 
BRANCH  25  27
HETATM   27  C3  UNL     1       4.873   7.833  10.925  1.00  0.00     0.126 C 
BRANCH  27  28
HETATM   28  C2  UNL     1       5.263   9.239  10.427  1.00  0.00     0.028 C 
HETATM   29  C1  UNL     1       5.568  10.194  11.578  1.00  0.00     0.007 C 
ENDBRANCH  27  28
BRANCH  27  30
HETATM   30  O1  UNL     1       5.842   6.912  10.402  1.00  0.00    -0.390 OA
HETATM   31  C4  UNL     1       6.803   6.480  11.356  1.00  0.00     0.202 C 
ENDBRANCH  27  30
ENDBRANCH  25  27
ENDBRANCH  22  25
ENDBRANCH  20  21
ENDBRANCH  18  20
ENDBRANCH   1  18
TORSDOF 12
ENDMDL
MODEL 9
REMARK minimizedAffinity -7.31699371
REMARK  12 active torsions:
REMARK  status: ('A' for Active; 'I' for Inactive)
REMARK    1  A    between atoms: C2_2  and  C3_3 
REMARK    2  A    between atoms: C3_3  and  O1_4 
REMARK    3  A    between atoms: C3_3  and  C5_6 
REMARK    4  A    between atoms: C5_6  and  C7_8 
REMARK    5  A    between atoms: C8_10  and  C10_12 
REMARK    6  A    between atoms: C10_12  and  C11_13 
REMARK    7  A    between atoms: C11_13  and  C13_15 
REMARK    8  A    between atoms: C14_16  and  C15_17 
REMARK    9  A    between atoms: C16_18  and  C18_20 
REMARK   10  A    between atoms: C19_22  and  C20_23 
REMARK   11  A    between atoms: C20_23  and  C21_24 
REMARK   12  A    between atoms: C21_24  and  O5_26 
ROOT
HETATM    1  C13 UNL     1      -2.444   7.325  12.688  1.00  0.00    -0.022 C 
HETATM    2  C14 UNL     1      -2.862   6.222  13.329  1.00  0.00    -0.003 C 
ENDROOT
BRANCH   2   3
HETATM    3  C15 UNL     1      -4.249   5.990  13.671  1.00  0.00     0.005 C 
HETATM    4  C16 UNL     1      -5.042   4.985  13.241  1.00  0.00    -0.055 C 
HETATM    5  C17 UNL     1      -4.589   3.876  12.318  1.00  0.00     0.046 C 
BRANCH   4   6
HETATM    6  C18 UNL     1      -6.505   4.823  13.661  1.00  0.00     0.154 C 
HETATM    7  O3  UNL     1      -6.798   6.005  14.431  1.00  0.00    -0.375 OA
HETATM    8  C19 UNL     1      -8.172   6.106  14.802  1.00  0.00     0.132 C 
HETATM    9  C22 UNL     1      -9.001   6.410  13.549  1.00  0.00     0.033 C 
HETATM   10  C23 UNL     1      -8.372   5.849  12.275  1.00  0.00     0.009 C 
HETATM   11  C24 UNL     1      -7.551   4.583  12.533  1.00  0.00     0.015 C 
HETATM   12  C25 UNL     1      -8.470   3.395  12.865  1.00  0.00     0.012 C 
BRANCH   8  13
HETATM   13  C20 UNL     1      -8.320   7.219  15.838  1.00  0.00     0.141 C 
BRANCH  13  14
HETATM   14  C21 UNL     1      -8.141   8.572  15.208  1.00  0.00     0.141 C 
HETATM   15  O4  UNL     1      -9.000   9.409  14.984  1.00  0.00    -0.650 OA
BRANCH  14  16
HETATM   16  O5  UNL     1      -6.869   8.781  14.811  1.00  0.00    -0.776 OA
HETATM   17  H34 UNL     1      -6.890   9.678  14.417  1.00  0.00     0.167 HD
ENDBRANCH  14  16
ENDBRANCH  13  14
ENDBRANCH   8  13
ENDBRANCH   4   6
ENDBRANCH   2   3
BRANCH   1  18
HETATM   18  C11 UNL     1      -1.007   7.625  12.309  1.00  0.00     0.007 C 
HETATM   19  C12 UNL     1      -0.637   9.072  12.667  1.00  0.00     0.014 C 
BRANCH  18  20
HETATM   20  C10 UNL     1       0.003   6.640  12.936  1.00  0.00     0.048 C 
BRANCH  20  21
HETATM   21  C8  UNL     1       1.322   6.547  12.196  1.00  0.00     0.085 A 
HETATM   22  C7  UNL     1       1.267   6.165  10.710  1.00  0.00     0.163 A 
HETATM   23  O2  UNL     1       1.633   5.226  11.731  1.00  0.00    -0.369 OA
HETATM   24  C9  UNL     1       2.499   7.265  12.785  1.00  0.00     0.049 C 
BRANCH  22  25
HETATM   25  C5  UNL     1       2.357   6.455   9.705  1.00  0.00     0.042 C 
HETATM   26  C6  UNL     1       3.675   5.824  10.161  1.00  0.00     0.015 C 
BRANCH  25  27
HETATM   27  C3  UNL     1       2.517   7.981   9.419  1.00  0.00     0.126 C 
BRANCH  27  28
HETATM   28  C2  UNL     1       2.492   8.350   7.923  1.00  0.00     0.028 C 
HETATM   29  C1  UNL     1       1.932   7.223   7.060  1.00  0.00     0.007 C 
ENDBRANCH  27  28
BRANCH  27  30
HETATM   30  O1  UNL     1       3.738   8.501   9.965  1.00  0.00    -0.390 OA
HETATM   31  C4  UNL     1       4.788   7.546  10.050  1.00  0.00     0.202 C 
ENDBRANCH  27  30
ENDBRANCH  25  27
ENDBRANCH  22  25
ENDBRANCH  20  21
ENDBRANCH  18  20
ENDBRANCH   1  18
TORSDOF 12
ENDMDL
