MODEL 1
REMARK minimizedAffinity -7.08136559
REMARK CNNscore 0.323619008
REMARK CNNaffinity 5.61954641
REMARK  6 active torsions:
REMARK  status: ('A' for Active; 'I' for Inactive)
REMARK    1  A    between atoms: C9_10  and  C10_11 
REMARK    2  A    between atoms: C11_13  and  O3_14 
REMARK    3  A    between atoms: C12_15  and  C13_16 
REMARK    4  A    between atoms: C14_18  and  O5_19 
REMARK    5  A    between atoms: C16_21  and  C17_22 
REMARK    6  A    between atoms: C17_22  and  C18_23 
ROOT
HETATM    1  C1  UNL     1       7.300  18.543  22.672  1.00  0.00     0.043 C 
HETATM    2  C2  UNL     1       6.570  17.273  23.064  1.00  0.00    -0.087 C 
HETATM    3  C3  UNL     1       5.224  17.307  23.120  1.00  0.00    -0.024 C 
HETATM    4  C4  UNL     1       4.244  16.237  23.494  1.00  0.00     0.030 C 
HETATM    5  C5  UNL     1       3.530  15.673  22.262  1.00  0.00     0.042 C 
HETATM    6  C6  UNL     1       2.907  14.255  22.423  1.00  0.00     0.069 C 
HETATM    7  C7  UNL     1       2.337  14.070  23.845  1.00  0.00     0.047 C 
HETATM    8  O1  UNL     1       1.746  14.308  21.566  1.00  0.00    -0.338 OA
HETATM    9  C8  UNL     1       1.356  13.246  20.803  1.00  0.00     0.095 A 
HETATM   10  C9  UNL     1       0.284  13.498  19.922  1.00  0.00     0.070 A 
HETATM   11  C11 UNL     1      -0.125  12.519  19.016  1.00  0.00     0.097 A 
HETATM   12  C12 UNL     1       0.560  11.307  18.956  1.00  0.00     0.069 A 
HETATM   13  C14 UNL     1       1.613  11.046  19.860  1.00  0.00     0.091 A 
HETATM   14  C15 UNL     1       2.009  11.994  20.828  1.00  0.00     0.015 A 
HETATM   15  C16 UNL     1       3.079  11.789  21.914  1.00  0.00     0.032 C 
HETATM   16  C21 UNL     1       3.899  13.123  21.953  1.00  0.00     0.034 C 
HETATM   17  C22 UNL     1       5.184  13.065  22.773  1.00  0.00     0.006 A 
HETATM   18  C23 UNL     1       6.336  14.034  22.510  1.00  0.00    -0.001 A 
HETATM   19  C24 UNL     1       7.075  14.698  23.645  1.00  0.00     0.010 C 
HETATM   20  C25 UNL     1       7.538  16.128  23.328  1.00  0.00     0.034 C 
HETATM   21  C26 UNL     1       6.522  12.558  22.208  1.00  0.00    -0.039 A 
HETATM   22  C27 UNL     1       6.713  12.218  20.748  1.00  0.00     0.015 C 
HETATM   23  C28 UNL     1       7.364  11.693  23.121  1.00  0.00     0.015 C 
ENDROOT
BRANCH  15  24
HETATM   24  C17 UNL     1       3.936  10.499  21.887  1.00  0.00     0.014 C 
BRANCH  24  25
HETATM   25  C18 UNL     1       3.646   9.510  23.048  1.00  0.00    -0.022 C 
HETATM   26  C19 UNL     1       2.731   8.363  22.605  1.00  0.00     0.009 C 
HETATM   27  C20 UNL     1       2.989  10.258  24.212  1.00  0.00     0.009 C 
ENDBRANCH  24  25
ENDBRANCH  15  24
BRANCH  13  28
HETATM   28  O5  UNL     1       2.292   9.861  19.772  1.00  0.00    -0.359 OA
HETATM   29  H15 UNL     1       1.900   9.293  19.071  1.00  0.00     0.217 HD
ENDBRANCH  13  28
BRANCH  10  30
HETATM   30  C10 UNL     1      -0.443  14.794  19.918  1.00  0.00     0.275 C 
HETATM   31  O2  UNL     1      -0.745  15.408  18.902  1.00  0.00    -0.301 OA
ENDBRANCH  10  30
BRANCH  12  32
HETATM   32  C13 UNL     1       0.190  10.321  17.918  1.00  0.00     0.275 C 
HETATM   33  O4  UNL     1       1.050   9.676  17.324  1.00  0.00    -0.301 OA
ENDBRANCH  12  32
BRANCH  11  34
HETATM   34  O3  UNL     1      -1.189  12.770  18.190  1.00  0.00    -0.359 OA
HETATM   35  H13 UNL     1      -1.909  12.153  18.425  1.00  0.00     0.217 HD
ENDBRANCH  11  34
TORSDOF 6
ENDMDL
MODEL 2
REMARK minimizedAffinity -6.16091776
REMARK CNNscore 0.293479681
REMARK CNNaffinity 5.35460472
REMARK  6 active torsions:
REMARK  status: ('A' for Active; 'I' for Inactive)
REMARK    1  A    between atoms: C9_10  and  C10_11 
REMARK    2  A    between atoms: C11_13  and  O3_14 
REMARK    3  A    between atoms: C12_15  and  C13_16 
REMARK    4  A    between atoms: C14_18  and  O5_19 
REMARK    5  A    between atoms: C16_21  and  C17_22 
REMARK    6  A    between atoms: C17_22  and  C18_23 
ROOT
HETATM    1  C1  UNL     1     -17.269  -7.751   6.383  1.00  0.00     0.043 C 
HETATM    2  C2  UNL     1     -16.166  -7.075   7.173  1.00  0.00    -0.087 C 
HETATM    3  C3  UNL     1     -16.175  -5.729   7.249  1.00  0.00    -0.024 C 
HETATM    4  C4  UNL     1     -15.221  -4.792   7.924  1.00  0.00     0.030 C 
HETATM    5  C5  UNL     1     -15.813  -4.220   9.216  1.00  0.00     0.042 C 
HETATM    6  C6  UNL     1     -14.788  -3.678  10.256  1.00  0.00     0.069 C 
HETATM    7  C7  UNL     1     -13.596  -3.004   9.544  1.00  0.00     0.047 C 
HETATM    8  O1  UNL     1     -15.503  -2.591  10.883  1.00  0.00    -0.338 OA
HETATM    9  C8  UNL     1     -15.408  -2.334  12.220  1.00  0.00     0.095 A 
HETATM   10  C9  UNL     1     -16.268  -1.325  12.702  1.00  0.00     0.070 A 
HETATM   11  C11 UNL     1     -16.336  -1.057  14.070  1.00  0.00     0.097 A 
HETATM   12  C12 UNL     1     -15.584  -1.820  14.960  1.00  0.00     0.069 A 
HETATM   13  C14 UNL     1     -14.702  -2.809  14.472  1.00  0.00     0.091 A 
HETATM   14  C15 UNL     1     -14.566  -3.061  13.090  1.00  0.00     0.015 A 
HETATM   15  C16 UNL     1     -13.582  -4.049  12.441  1.00  0.00     0.032 C 
HETATM   16  C21 UNL     1     -14.395  -4.776  11.317  1.00  0.00     0.034 C 
HETATM   17  C22 UNL     1     -13.702  -5.989  10.704  1.00  0.00     0.006 A 
HETATM   18  C23 UNL     1     -14.503  -7.095  10.017  1.00  0.00    -0.001 A 
HETATM   19  C24 UNL     1     -14.049  -7.693   8.709  1.00  0.00     0.010 C 
HETATM   20  C25 UNL     1     -15.204  -8.088   7.777  1.00  0.00     0.034 C 
HETATM   21  C26 UNL     1     -13.776  -7.399  11.315  1.00  0.00    -0.039 A 
HETATM   22  C27 UNL     1     -14.668  -7.732  12.490  1.00  0.00     0.015 C 
HETATM   23  C28 UNL     1     -12.503  -8.216  11.302  1.00  0.00     0.015 C 
ENDROOT
BRANCH  15  24
HETATM   24  C17 UNL     1     -12.750  -4.986  13.352  1.00  0.00     0.014 C 
BRANCH  24  25
HETATM   25  C18 UNL     1     -13.445  -5.371  14.685  1.00  0.00    -0.022 C 
HETATM   26  C19 UNL     1     -12.514  -6.174  15.602  1.00  0.00     0.009 C 
HETATM   27  C20 UNL     1     -14.700  -6.199  14.393  1.00  0.00     0.009 C 
ENDBRANCH  24  25
ENDBRANCH  15  24
BRANCH  13  28
HETATM   28  O5  UNL     1     -13.989  -3.567  15.361  1.00  0.00    -0.359 OA
HETATM   29  H15 UNL     1     -14.166  -3.271  16.283  1.00  0.00     0.217 HD
ENDBRANCH  13  28
BRANCH  10  30
HETATM   30  C10 UNL     1     -17.123  -0.519  11.793  1.00  0.00     0.275 C 
HETATM   31  O2  UNL     1     -17.810  -0.996  10.898  1.00  0.00    -0.301 OA
ENDBRANCH  10  30
BRANCH  12  32
HETATM   32  C13 UNL     1     -15.749  -1.601  16.414  1.00  0.00     0.275 C 
HETATM   33  O4  UNL     1     -15.968  -2.540  17.174  1.00  0.00    -0.301 OA
ENDBRANCH  12  32
BRANCH  11  34
HETATM   34  O3  UNL     1     -17.152  -0.050  14.516  1.00  0.00    -0.359 OA
HETATM   35  H13 UNL     1     -16.590   0.646  14.910  1.00  0.00     0.217 HD
ENDBRANCH  11  34
TORSDOF 6
ENDMDL
MODEL 3
REMARK minimizedAffinity -8.60521317
REMARK CNNscore 0.282294422
REMARK CNNaffinity 6.3359108
REMARK  6 active torsions:
REMARK  status: ('A' for Active; 'I' for Inactive)
REMARK    1  A    between atoms: C9_10  and  C10_11 
REMARK    2  A    between atoms: C11_13  and  O3_14 
REMARK    3  A    between atoms: C12_15  and  C13_16 
REMARK    4  A    between atoms: C14_18  and  O5_19 
REMARK    5  A    between atoms: C16_21  and  C17_22 
REMARK    6  A    between atoms: C17_22  and  C18_23 
ROOT
HETATM    1  C1  UNL     1      -3.983  13.429  15.431  1.00  0.00     0.043 C 
HETATM    2  C2  UNL     1      -3.369  12.043  15.434  1.00  0.00    -0.087 C 
HETATM    3  C3  UNL     1      -4.054  11.047  16.033  1.00  0.00    -0.024 C 
HETATM    4  C4  UNL     1      -3.700   9.604  16.216  1.00  0.00     0.030 C 
HETATM    5  C5  UNL     1      -4.498   8.704  15.266  1.00  0.00     0.042 C 
HETATM    6  C6  UNL     1      -3.883   7.303  14.975  1.00  0.00     0.069 C 
HETATM    7  C7  UNL     1      -3.193   6.740  16.235  1.00  0.00     0.047 C 
HETATM    8  O1  UNL     1      -5.047   6.468  14.789  1.00  0.00    -0.338 OA
HETATM    9  C8  UNL     1      -5.092   5.484  13.846  1.00  0.00     0.095 A 
HETATM   10  C9  UNL     1      -6.342   4.846  13.699  1.00  0.00     0.070 A 
HETATM   11  C11 UNL     1      -6.534   3.903  12.689  1.00  0.00     0.097 A 
HETATM   12  C12 UNL     1      -5.499   3.627  11.798  1.00  0.00     0.069 A 
HETATM   13  C14 UNL     1      -4.240   4.244  11.966  1.00  0.00     0.091 A 
HETATM   14  C15 UNL     1      -3.997   5.156  13.015  1.00  0.00     0.015 A 
HETATM   15  C16 UNL     1      -2.651   5.821  13.346  1.00  0.00     0.032 C 
HETATM   16  C21 UNL     1      -2.989   7.315  13.676  1.00  0.00     0.034 C 
HETATM   17  C22 UNL     1      -1.781   8.240  13.781  1.00  0.00     0.006 A 
HETATM   18  C23 UNL     1      -1.918   9.748  13.569  1.00  0.00    -0.001 A 
HETATM   19  C24 UNL     1      -1.226  10.732  14.480  1.00  0.00     0.010 C 
HETATM   20  C25 UNL     1      -2.027  12.021  14.717  1.00  0.00     0.034 C 
HETATM   21  C26 UNL     1      -1.135   8.923  12.564  1.00  0.00    -0.039 A 
HETATM   22  C27 UNL     1      -1.736   8.856  11.178  1.00  0.00     0.015 C 
HETATM   23  C28 UNL     1       0.377   8.986  12.539  1.00  0.00     0.015 C 
ENDROOT
BRANCH  15  24
HETATM   24  C17 UNL     1      -1.459   5.623  12.376  1.00  0.00     0.014 C 
BRANCH  24  25
HETATM   25  C18 UNL     1      -0.304   4.756  12.944  1.00  0.00    -0.022 C 
HETATM   26  C19 UNL     1       0.858   5.617  13.455  1.00  0.00     0.009 C 
HETATM   27  C20 UNL     1       0.212   3.806  11.859  1.00  0.00     0.009 C 
ENDBRANCH  24  25
ENDBRANCH  15  24
BRANCH  13  28
HETATM   28  O5  UNL     1      -3.240   3.981  11.068  1.00  0.00    -0.359 OA
HETATM   29  H15 UNL     1      -3.541   3.317  10.407  1.00  0.00     0.217 HD
ENDBRANCH  13  28
BRANCH  10  30
HETATM   30  C10 UNL     1      -7.488   5.146  14.596  1.00  0.00     0.275 C 
HETATM   31  O2  UNL     1      -7.451   5.039  15.815  1.00  0.00    -0.301 OA
ENDBRANCH  10  30
BRANCH  12  32
HETATM   32  C13 UNL     1      -5.748   2.709  10.665  1.00  0.00     0.275 C 
HETATM   33  O4  UNL     1      -5.964   1.515  10.854  1.00  0.00    -0.301 OA
ENDBRANCH  12  32
BRANCH  11  34
HETATM   34  O3  UNL     1      -7.745   3.270  12.583  1.00  0.00    -0.359 OA
HETATM   35  H13 UNL     1      -7.609   2.319  12.765  1.00  0.00     0.217 HD
ENDBRANCH  11  34
TORSDOF 6
ENDMDL
MODEL 4
REMARK minimizedAffinity -5.89314604
REMARK CNNscore 0.2503905
REMARK CNNaffinity 4.94493961
REMARK  6 active torsions:
REMARK  status: ('A' for Active; 'I' for Inactive)
REMARK    1  A    between atoms: C9_10  and  C10_11 
REMARK    2  A    between atoms: C11_13  and  O3_14 
REMARK    3  A    between atoms: C12_15  and  C13_16 
REMARK    4  A    between atoms: C14_18  and  O5_19 
REMARK    5  A    between atoms: C16_21  and  C17_22 
REMARK    6  A    between atoms: C17_22  and  C18_23 
ROOT
HETATM    1  C1  UNL     1     -13.271 -15.053   9.871  1.00  0.00     0.043 C 
HETATM    2  C2  UNL     1     -12.795 -13.695   9.391  1.00  0.00    -0.087 C 
HETATM    3  C3  UNL     1     -12.104 -12.924  10.255  1.00  0.00    -0.024 C 
HETATM    4  C4  UNL     1     -11.536 -11.549  10.083  1.00  0.00     0.030 C 
HETATM    5  C5  UNL     1     -10.014 -11.587   9.912  1.00  0.00     0.042 C 
HETATM    6  C6  UNL     1      -9.373 -10.348   9.220  1.00  0.00     0.069 C 
HETATM    7  C7  UNL     1     -10.110  -9.055   9.630  1.00  0.00     0.047 C 
HETATM    8  O1  UNL     1      -8.080 -10.251   9.856  1.00  0.00    -0.338 OA
HETATM    9  C8  UNL     1      -6.955  -9.906   9.165  1.00  0.00     0.095 A 
HETATM   10  C9  UNL     1      -5.751  -9.984   9.897  1.00  0.00     0.070 A 
HETATM   11  C11 UNL     1      -4.528  -9.763   9.262  1.00  0.00     0.097 A 
HETATM   12  C12 UNL     1      -4.500  -9.508   7.893  1.00  0.00     0.069 A 
HETATM   13  C14 UNL     1      -5.708  -9.400   7.170  1.00  0.00     0.091 A 
HETATM   14  C15 UNL     1      -6.962  -9.559   7.796  1.00  0.00     0.015 A 
HETATM   15  C16 UNL     1      -8.337  -9.381   7.132  1.00  0.00     0.032 C 
HETATM   16  C21 UNL     1      -9.218 -10.562   7.666  1.00  0.00     0.034 C 
HETATM   17  C22 UNL     1     -10.549 -10.748   6.944  1.00  0.00     0.006 A 
HETATM   18  C23 UNL     1     -11.270 -12.096   6.948  1.00  0.00    -0.001 A 
HETATM   19  C24 UNL     1     -12.760 -12.187   7.167  1.00  0.00     0.010 C 
HETATM   20  C25 UNL     1     -13.194 -13.438   7.945  1.00  0.00     0.034 C 
HETATM   21  C26 UNL     1     -10.698 -11.561   5.647  1.00  0.00    -0.039 A 
HETATM   22  C27 UNL     1      -9.565 -12.372   5.060  1.00  0.00     0.015 C 
HETATM   23  C28 UNL     1     -11.617 -10.993   4.587  1.00  0.00     0.015 C 
ENDROOT
BRANCH  15  24
HETATM   24  C17 UNL     1      -8.406  -9.158   5.600  1.00  0.00     0.014 C 
BRANCH  24  25
HETATM   25  C18 UNL     1      -7.235  -9.794   4.804  1.00  0.00    -0.022 C 
HETATM   26  C19 UNL     1      -7.174  -9.269   3.364  1.00  0.00     0.009 C 
HETATM   27  C20 UNL     1      -7.394 -11.317   4.778  1.00  0.00     0.009 C 
ENDBRANCH  24  25
ENDBRANCH  15  24
BRANCH  13  28
HETATM   28  O5  UNL     1      -5.661  -9.174   5.820  1.00  0.00    -0.359 OA
HETATM   29  H15 UNL     1      -4.730  -9.066   5.523  1.00  0.00     0.217 HD
ENDBRANCH  13  28
BRANCH  10  30
HETATM   30  C10 UNL     1      -5.732 -10.302  11.349  1.00  0.00     0.275 C 
HETATM   31  O2  UNL     1      -5.560 -11.426  11.802  1.00  0.00    -0.301 OA
ENDBRANCH  10  30
BRANCH  12  32
HETATM   32  C13 UNL     1      -3.193  -9.385   7.210  1.00  0.00     0.275 C 
HETATM   33  O4  UNL     1      -2.936  -8.412   6.508  1.00  0.00    -0.301 OA
ENDBRANCH  12  32
BRANCH  11  34
HETATM   34  O3  UNL     1      -3.372  -9.811   9.996  1.00  0.00    -0.359 OA
HETATM   35  H13 UNL     1      -2.973  -8.918   9.995  1.00  0.00     0.217 HD
ENDBRANCH  11  34
TORSDOF 6
ENDMDL
MODEL 5
REMARK minimizedAffinity -5.70269632
REMARK CNNscore 0.242625222
REMARK CNNaffinity 5.27487516
REMARK  6 active torsions:
REMARK  status: ('A' for Active; 'I' for Inactive)
REMARK    1  A    between atoms: C9_10  and  C10_11 
REMARK    2  A    between atoms: C11_13  and  O3_14 
REMARK    3  A    between atoms: C12_15  and  C13_16 
REMARK    4  A    between atoms: C14_18  and  O5_19 
REMARK    5  A    between atoms: C16_21  and  C17_22 
REMARK    6  A    between atoms: C17_22  and  C18_23 
ROOT
HETATM    1  C1  UNL     1     -14.092 -11.318  16.126  1.00  0.00     0.043 C 
HETATM    2  C2  UNL     1     -14.883 -10.267  15.371  1.00  0.00    -0.087 C 
HETATM    3  C3  UNL     1     -15.762  -9.516  16.064  1.00  0.00    -0.024 C 
HETATM    4  C4  UNL     1     -16.689  -8.436  15.598  1.00  0.00     0.030 C 
HETATM    5  C5  UNL     1     -16.180  -7.047  15.998  1.00  0.00     0.042 C 
HETATM    6  C6  UNL     1     -16.728  -5.852  15.162  1.00  0.00     0.069 C 
HETATM    7  C7  UNL     1     -18.201  -6.093  14.771  1.00  0.00     0.047 C 
HETATM    8  O1  UNL     1     -16.775  -4.775  16.123  1.00  0.00    -0.338 OA
HETATM    9  C8  UNL     1     -16.446  -3.493  15.794  1.00  0.00     0.095 A 
HETATM   10  C9  UNL     1     -16.414  -2.583  16.873  1.00  0.00     0.070 A 
HETATM   11  C11 UNL     1     -15.981  -1.272  16.672  1.00  0.00     0.097 A 
HETATM   12  C12 UNL     1     -15.539  -0.879  15.411  1.00  0.00     0.069 A 
HETATM   13  C14 UNL     1     -15.601  -1.782  14.327  1.00  0.00     0.091 A 
HETATM   14  C15 UNL     1     -16.091  -3.096  14.486  1.00  0.00     0.015 A 
HETATM   15  C16 UNL     1     -16.283  -4.134  13.368  1.00  0.00     0.032 C 
HETATM   16  C21 UNL     1     -15.772  -5.491  13.962  1.00  0.00     0.034 C 
HETATM   17  C22 UNL     1     -15.619  -6.620  12.948  1.00  0.00     0.006 A 
HETATM   18  C23 UNL     1     -14.674  -7.793  13.205  1.00  0.00    -0.001 A 
HETATM   19  C24 UNL     1     -15.089  -9.213  12.907  1.00  0.00     0.010 C 
HETATM   20  C25 UNL     1     -14.518 -10.243  13.893  1.00  0.00     0.034 C 
HETATM   21  C26 UNL     1     -14.359  -6.815  12.088  1.00  0.00    -0.039 A 
HETATM   22  C27 UNL     1     -13.104  -5.996  12.285  1.00  0.00     0.015 C 
HETATM   23  C28 UNL     1     -14.573  -7.214  10.644  1.00  0.00     0.015 C 
ENDROOT
BRANCH  15  24
HETATM   24  C17 UNL     1     -15.762  -3.809  11.946  1.00  0.00     0.014 C 
BRANCH  24  25
HETATM   25  C18 UNL     1     -14.222  -3.911  11.785  1.00  0.00    -0.022 C 
HETATM   26  C19 UNL     1     -13.481  -3.151  12.893  1.00  0.00     0.009 C 
HETATM   27  C20 UNL     1     -13.806  -3.347  10.423  1.00  0.00     0.009 C 
ENDBRANCH  24  25
ENDBRANCH  15  24
BRANCH  13  28
HETATM   28  O5  UNL     1     -15.139  -1.387  13.100  1.00  0.00    -0.359 OA
HETATM   29  H15 UNL     1     -14.848  -0.448  13.130  1.00  0.00     0.217 HD
ENDBRANCH  13  28
BRANCH  10  30
HETATM   30  C10 UNL     1     -16.830  -2.975  18.244  1.00  0.00     0.275 C 
HETATM   31  O2  UNL     1     -16.441  -2.419  19.263  1.00  0.00    -0.301 OA
ENDBRANCH  10  30
BRANCH  12  32
HETATM   32  C13 UNL     1     -14.979   0.479  15.235  1.00  0.00     0.275 C 
HETATM   33  O4  UNL     1     -14.194   0.950  16.053  1.00  0.00    -0.301 OA
ENDBRANCH  12  32
BRANCH  11  34
HETATM   34  O3  UNL     1     -15.988  -0.394  17.724  1.00  0.00    -0.359 OA
HETATM   35  H13 UNL     1     -16.635   0.312  17.527  1.00  0.00     0.217 HD
ENDBRANCH  11  34
TORSDOF 6
ENDMDL
MODEL 6
REMARK minimizedAffinity -6.02860832
REMARK CNNscore 0.179239914
REMARK CNNaffinity 5.51538229
REMARK  6 active torsions:
REMARK  status: ('A' for Active; 'I' for Inactive)
REMARK    1  A    between atoms: C9_10  and  C10_11 
REMARK    2  A    between atoms: C11_13  and  O3_14 
REMARK    3  A    between atoms: C12_15  and  C13_16 
REMARK    4  A    between atoms: C14_18  and  O5_19 
REMARK    5  A    between atoms: C16_21  and  C17_22 
REMARK    6  A    between atoms: C17_22  and  C18_23 
ROOT
HETATM    1  C1  UNL     1      -6.401  15.321  20.234  1.00  0.00     0.043 C 
HETATM    2  C2  UNL     1      -5.166  14.912  19.455  1.00  0.00    -0.087 C 
HETATM    3  C3  UNL     1      -4.011  15.559  19.713  1.00  0.00    -0.024 C 
HETATM    4  C4  UNL     1      -2.655  15.398  19.099  1.00  0.00     0.030 C 
HETATM    5  C5  UNL     1      -1.696  14.661  20.040  1.00  0.00     0.042 C 
HETATM    6  C6  UNL     1      -0.470  13.977  19.366  1.00  0.00     0.069 C 
HETATM    7  C7  UNL     1       0.047  14.827  18.186  1.00  0.00     0.047 C 
HETATM    8  O1  UNL     1       0.559  14.084  20.374  1.00  0.00    -0.338 OA
HETATM    9  C8  UNL     1       1.455  13.082  20.608  1.00  0.00     0.095 A 
HETATM   10  C9  UNL     1       2.311  13.284  21.711  1.00  0.00     0.070 A 
HETATM   11  C11 UNL     1       3.189  12.276  22.111  1.00  0.00     0.097 A 
HETATM   12  C12 UNL     1       3.186  11.054  21.442  1.00  0.00     0.069 A 
HETATM   13  C14 UNL     1       2.350  10.866  20.320  1.00  0.00     0.091 A 
HETATM   14  C15 UNL     1       1.495  11.887  19.855  1.00  0.00     0.015 A 
HETATM   15  C16 UNL     1       0.608  11.827  18.600  1.00  0.00     0.032 C 
HETATM   16  C21 UNL     1      -0.759  12.466  19.020  1.00  0.00     0.034 C 
HETATM   17  C22 UNL     1      -1.892  12.281  18.015  1.00  0.00     0.006 A 
HETATM   18  C23 UNL     1      -3.355  12.350  18.450  1.00  0.00    -0.001 A 
HETATM   19  C24 UNL     1      -4.380  13.099  17.634  1.00  0.00     0.010 C 
HETATM   20  C25 UNL     1      -5.464  13.781  18.481  1.00  0.00     0.034 C 
HETATM   21  C26 UNL     1      -2.783  11.028  17.970  1.00  0.00    -0.039 A 
HETATM   22  C27 UNL     1      -2.711   9.940  19.017  1.00  0.00     0.015 C 
HETATM   23  C28 UNL     1      -3.141  10.494  16.600  1.00  0.00     0.015 C 
ENDROOT
BRANCH  15  24
HETATM   24  C17 UNL     1       0.491  10.489  17.829  1.00  0.00     0.014 C 
BRANCH  24  25
HETATM   25  C18 UNL     1       1.106  10.511  16.404  1.00  0.00    -0.022 C 
HETATM   26  C19 UNL     1       0.103  10.041  15.343  1.00  0.00     0.009 C 
HETATM   27  C20 UNL     1       2.343   9.610  16.360  1.00  0.00     0.009 C 
ENDBRANCH  24  25
ENDBRANCH  15  24
BRANCH  13  28
HETATM   28  O5  UNL     1       2.340   9.651  19.689  1.00  0.00    -0.359 OA
HETATM   29  H15 UNL     1       2.994   9.044  20.104  1.00  0.00     0.217 HD
ENDBRANCH  13  28
BRANCH  10  30
HETATM   30  C10 UNL     1       2.313  14.553  22.483  1.00  0.00     0.275 C 
HETATM   31  O2  UNL     1       1.451  15.417  22.383  1.00  0.00    -0.301 OA
ENDBRANCH  10  30
BRANCH  12  32
HETATM   32  C13 UNL     1       4.041   9.956  21.944  1.00  0.00     0.275 C 
HETATM   33  O4  UNL     1       4.211   9.786  23.148  1.00  0.00    -0.301 OA
ENDBRANCH  12  32
BRANCH  11  34
HETATM   34  O3  UNL     1       4.036  12.503  23.164  1.00  0.00    -0.359 OA
HETATM   35  H13 UNL     1       4.953  12.487  22.827  1.00  0.00     0.217 HD
ENDBRANCH  11  34
TORSDOF 6
ENDMDL
MODEL 7
REMARK minimizedAffinity -6.41518736
REMARK CNNscore 0.177339777
REMARK CNNaffinity 5.46821833
REMARK  6 active torsions:
REMARK  status: ('A' for Active; 'I' for Inactive)
REMARK    1  A    between atoms: C9_10  and  C10_11 
REMARK    2  A    between atoms: C11_13  and  O3_14 
REMARK    3  A    between atoms: C12_15  and  C13_16 
REMARK    4  A    between atoms: C14_18  and  O5_19 
REMARK    5  A    between atoms: C16_21  and  C17_22 
REMARK    6  A    between atoms: C17_22  and  C18_23 
ROOT
HETATM    1  C1  UNL     1      -8.993  -6.940  -1.730  1.00  0.00     0.043 C 
HETATM    2  C2  UNL     1      -8.933  -8.152  -0.821  1.00  0.00    -0.087 C 
HETATM    3  C3  UNL     1      -7.763  -8.815  -0.724  1.00  0.00    -0.024 C 
HETATM    4  C4  UNL     1      -7.408 -10.041   0.059  1.00  0.00     0.030 C 
HETATM    5  C5  UNL     1      -6.568  -9.696   1.293  1.00  0.00     0.042 C 
HETATM    6  C6  UNL     1      -6.575 -10.748   2.441  1.00  0.00     0.069 C 
HETATM    7  C7  UNL     1      -6.619 -12.180   1.865  1.00  0.00     0.047 C 
HETATM    8  O1  UNL     1      -5.254 -10.622   3.010  1.00  0.00    -0.338 OA
HETATM    9  C8  UNL     1      -5.030 -10.704   4.353  1.00  0.00     0.095 A 
HETATM   10  C9  UNL     1      -3.708 -10.428   4.761  1.00  0.00     0.070 A 
HETATM   11  C11 UNL     1      -3.390 -10.372   6.119  1.00  0.00     0.097 A 
HETATM   12  C12 UNL     1      -4.394 -10.547   7.069  1.00  0.00     0.069 A 
HETATM   13  C14 UNL     1      -5.710 -10.853   6.657  1.00  0.00     0.091 A 
HETATM   14  C15 UNL     1      -6.048 -10.976   5.293  1.00  0.00     0.015 A 
HETATM   15  C16 UNL     1      -7.420 -11.386   4.732  1.00  0.00     0.032 C 
HETATM   16  C21 UNL     1      -7.681 -10.431   3.519  1.00  0.00     0.034 C 
HETATM   17  C22 UNL     1      -9.101 -10.473   2.961  1.00  0.00     0.006 A 
HETATM   18  C23 UNL     1      -9.679  -9.295   2.178  1.00  0.00    -0.001 A 
HETATM   19  C24 UNL     1     -10.473  -9.510   0.913  1.00  0.00     0.010 C 
HETATM   20  C25 UNL     1     -10.269  -8.409  -0.139  1.00  0.00     0.034 C 
HETATM   21  C26 UNL     1     -10.258  -9.641   3.538  1.00  0.00    -0.039 A 
HETATM   22  C27 UNL     1     -10.053  -8.594   4.610  1.00  0.00     0.015 C 
HETATM   23  C28 UNL     1     -11.605 -10.324   3.641  1.00  0.00     0.015 C 
ENDROOT
BRANCH  15  24
HETATM   24  C17 UNL     1      -8.613 -11.541   5.708  1.00  0.00     0.014 C 
BRANCH  24  25
HETATM   25  C18 UNL     1      -8.539 -10.632   6.964  1.00  0.00    -0.022 C 
HETATM   26  C19 UNL     1      -9.559 -11.049   8.030  1.00  0.00     0.009 C 
HETATM   27  C20 UNL     1      -8.795  -9.176   6.565  1.00  0.00     0.009 C 
ENDBRANCH  24  25
ENDBRANCH  15  24
BRANCH  13  28
HETATM   28  O5  UNL     1      -6.690 -10.998   7.602  1.00  0.00    -0.359 OA
HETATM   29  H15 UNL     1      -6.310 -10.906   8.505  1.00  0.00     0.217 HD
ENDBRANCH  13  28
BRANCH  10  30
HETATM   30  C10 UNL     1      -2.616 -10.186   3.782  1.00  0.00     0.275 C 
HETATM   31  O2  UNL     1      -2.799  -9.986   2.588  1.00  0.00    -0.301 OA
ENDBRANCH  10  30
BRANCH  12  32
HETATM   32  C13 UNL     1      -4.068 -10.376   8.502  1.00  0.00     0.275 C 
HETATM   33  O4  UNL     1      -4.711  -9.605   9.209  1.00  0.00    -0.301 OA
ENDBRANCH  12  32
BRANCH  11  34
HETATM   34  O3  UNL     1      -2.094 -10.135   6.496  1.00  0.00    -0.359 OA
HETATM   35  H13 UNL     1      -1.760 -10.931   6.956  1.00  0.00     0.217 HD
ENDBRANCH  11  34
TORSDOF 6
ENDMDL
MODEL 8
REMARK minimizedAffinity -6.19528198
REMARK CNNscore 0.171935707
REMARK CNNaffinity 5.03009081
REMARK  6 active torsions:
REMARK  status: ('A' for Active; 'I' for Inactive)
REMARK    1  A    between atoms: C9_10  and  C10_11 
REMARK    2  A    between atoms: C11_13  and  O3_14 
REMARK    3  A    between atoms: C12_15  and  C13_16 
REMARK    4  A    between atoms: C14_18  and  O5_19 
REMARK    5  A    between atoms: C16_21  and  C17_22 
REMARK    6  A    between atoms: C17_22  and  C18_23 
ROOT
HETATM    1  C1  UNL     1      -7.270  -7.826   9.597  1.00  0.00     0.043 C 
HETATM    2  C2  UNL     1      -6.991  -8.997   8.675  1.00  0.00    -0.087 C 
HETATM    3  C3  UNL     1      -7.943  -9.345   7.786  1.00  0.00    -0.024 C 
HETATM    4  C4  UNL     1      -7.968 -10.453   6.779  1.00  0.00     0.030 C 
HETATM    5  C5  UNL     1      -7.750  -9.926   5.357  1.00  0.00     0.042 C 
HETATM    6  C6  UNL     1      -7.238 -10.964   4.315  1.00  0.00     0.069 C 
HETATM    7  C7  UNL     1      -7.861 -12.351   4.578  1.00  0.00     0.047 C 
HETATM    8  O1  UNL     1      -7.845 -10.517   3.083  1.00  0.00    -0.338 OA
HETATM    9  C8  UNL     1      -7.184 -10.559   1.890  1.00  0.00     0.095 A 
HETATM   10  C9  UNL     1      -7.862  -9.965   0.804  1.00  0.00     0.070 A 
HETATM   11  C11 UNL     1      -7.234  -9.851  -0.437  1.00  0.00     0.097 A 
HETATM   12  C12 UNL     1      -5.919 -10.288  -0.586  1.00  0.00     0.069 A 
HETATM   13  C14 UNL     1      -5.255 -10.910   0.493  1.00  0.00     0.091 A 
HETATM   14  C15 UNL     1      -5.885 -11.094   1.742  1.00  0.00     0.015 A 
HETATM   15  C16 UNL     1      -5.294 -11.829   2.958  1.00  0.00     0.032 C 
HETATM   16  C21 UNL     1      -5.666 -10.952   4.201  1.00  0.00     0.034 C 
HETATM   17  C22 UNL     1      -4.962 -11.342   5.497  1.00  0.00     0.006 A 
HETATM   18  C23 UNL     1      -4.779 -10.337   6.633  1.00  0.00    -0.001 A 
HETATM   19  C24 UNL     1      -5.024 -10.726   8.070  1.00  0.00     0.010 C 
HETATM   20  C25 UNL     1      -5.613  -9.594   8.924  1.00  0.00     0.034 C 
HETATM   21  C26 UNL     1      -3.560 -10.837   5.880  1.00  0.00    -0.039 A 
HETATM   22  C27 UNL     1      -2.824  -9.789   5.076  1.00  0.00     0.015 C 
HETATM   23  C28 UNL     1      -2.626 -11.839   6.523  1.00  0.00     0.015 C 
ENDROOT
BRANCH  15  24
HETATM   24  C17 UNL     1      -3.817 -12.294   2.907  1.00  0.00     0.014 C 
BRANCH  24  25
HETATM   25  C18 UNL     1      -2.877 -11.363   2.096  1.00  0.00    -0.022 C 
HETATM   26  C19 UNL     1      -1.423 -11.847   2.134  1.00  0.00     0.009 C 
HETATM   27  C20 UNL     1      -2.948  -9.939   2.658  1.00  0.00     0.009 C 
ENDBRANCH  24  25
ENDBRANCH  15  24
BRANCH  13  28
HETATM   28  O5  UNL     1      -3.955 -11.311   0.338  1.00  0.00    -0.359 OA
HETATM   29  H15 UNL     1      -3.652 -11.140  -0.583  1.00  0.00     0.217 HD
ENDBRANCH  13  28
BRANCH  10  30
HETATM   30  C10 UNL     1      -9.246  -9.441   0.932  1.00  0.00     0.275 C 
HETATM   31  O2  UNL     1      -9.631  -8.391   0.434  1.00  0.00    -0.301 OA
ENDBRANCH  10  30
BRANCH  12  32
HETATM   32  C13 UNL     1      -5.227 -10.062  -1.874  1.00  0.00     0.275 C 
HETATM   33  O4  UNL     1      -4.697 -10.990  -2.479  1.00  0.00    -0.301 OA
ENDBRANCH  12  32
BRANCH  11  34
HETATM   34  O3  UNL     1      -7.919  -9.301  -1.488  1.00  0.00    -0.359 OA
HETATM   35  H13 UNL     1      -8.043  -9.993  -2.167  1.00  0.00     0.217 HD
ENDBRANCH  11  34
TORSDOF 6
ENDMDL
MODEL 9
REMARK minimizedAffinity -6.31745625
REMARK CNNscore 0.144231021
REMARK CNNaffinity 4.35542583
REMARK  6 active torsions:
REMARK  status: ('A' for Active; 'I' for Inactive)
REMARK    1  A    between atoms: C9_10  and  C10_11 
REMARK    2  A    between atoms: C11_13  and  O3_14 
REMARK    3  A    between atoms: C12_15  and  C13_16 
REMARK    4  A    between atoms: C14_18  and  O5_19 
REMARK    5  A    between atoms: C16_21  and  C17_22 
REMARK    6  A    between atoms: C17_22  and  C18_23 
ROOT
HETATM    1  C1  UNL     1       9.805  17.358  25.257  1.00  0.00     0.043 C 
HETATM    2  C2  UNL     1       8.940  16.916  24.092  1.00  0.00    -0.087 C 
HETATM    3  C3  UNL     1       9.436  17.052  22.846  1.00  0.00    -0.024 C 
HETATM    4  C4  UNL     1       8.819  16.734  21.519  1.00  0.00     0.030 C 
HETATM    5  C5  UNL     1       9.412  15.457  20.915  1.00  0.00     0.042 C 
HETATM    6  C6  UNL     1       8.537  14.737  19.846  1.00  0.00     0.069 C 
HETATM    7  C7  UNL     1       7.779  15.766  18.981  1.00  0.00     0.047 C 
HETATM    8  O1  UNL     1       9.517  14.160  18.956  1.00  0.00    -0.338 OA
HETATM    9  C8  UNL     1       9.355  12.926  18.399  1.00  0.00     0.095 A 
HETATM   10  C9  UNL     1      10.459  12.449  17.660  1.00  0.00     0.070 A 
HETATM   11  C11 UNL     1      10.448  11.154  17.140  1.00  0.00     0.097 A 
HETATM   12  C12 UNL     1       9.361  10.320  17.392  1.00  0.00     0.069 A 
HETATM   13  C14 UNL     1       8.245  10.810  18.105  1.00  0.00     0.091 A 
HETATM   14  C15 UNL     1       8.202  12.134  18.591  1.00  0.00     0.015 A 
HETATM   15  C16 UNL     1       7.013  12.801  19.303  1.00  0.00     0.032 C 
HETATM   16  C21 UNL     1       7.635  13.615  20.488  1.00  0.00     0.034 C 
HETATM   17  C22 UNL     1       6.626  14.153  21.498  1.00  0.00     0.006 A 
HETATM   18  C23 UNL     1       7.041  14.487  22.931  1.00  0.00    -0.001 A 
HETATM   19  C24 UNL     1       6.568  15.748  23.610  1.00  0.00     0.010 C 
HETATM   20  C25 UNL     1       7.603  16.362  24.564  1.00  0.00     0.034 C 
HETATM   21  C26 UNL     1       6.096  13.326  22.682  1.00  0.00    -0.039 A 
HETATM   22  C27 UNL     1       6.645  11.961  23.032  1.00  0.00     0.015 C 
HETATM   23  C28 UNL     1       4.623  13.460  23.003  1.00  0.00     0.015 C 
ENDROOT
BRANCH  15  24
HETATM   24  C17 UNL     1       5.785  11.935  19.682  1.00  0.00     0.014 C 
BRANCH  24  25
HETATM   25  C18 UNL     1       4.489  12.279  18.901  1.00  0.00    -0.022 C 
HETATM   26  C19 UNL     1       3.928  13.648  19.301  1.00  0.00     0.009 C 
HETATM   27  C20 UNL     1       3.428  11.205  19.161  1.00  0.00     0.009 C 
ENDBRANCH  24  25
ENDBRANCH  15  24
BRANCH  13  28
HETATM   28  O5  UNL     1       7.195   9.970  18.366  1.00  0.00    -0.359 OA
HETATM   29  H15 UNL     1       7.352   9.090  17.954  1.00  0.00     0.217 HD
ENDBRANCH  13  28
BRANCH  10  30
HETATM   30  C10 UNL     1      11.659  13.288  17.409  1.00  0.00     0.275 C 
HETATM   31  O2  UNL     1      12.791  12.988  17.767  1.00  0.00    -0.301 OA
ENDBRANCH  10  30
BRANCH  12  32
HETATM   32  C13 UNL     1       9.409   8.915  16.931  1.00  0.00     0.275 C 
HETATM   33  O4  UNL     1       8.426   8.185  17.026  1.00  0.00    -0.301 OA
ENDBRANCH  12  32
BRANCH  11  34
HETATM   34  O3  UNL     1      11.514  10.720  16.397  1.00  0.00    -0.359 OA
HETATM   35  H13 UNL     1      11.205  10.559  15.484  1.00  0.00     0.217 HD
ENDBRANCH  11  34
TORSDOF 6
ENDMDL
