MODEL 1
REMARK minimizedAffinity -7.65440273
REMARK  2 active torsions:
REMARK  status: ('A' for Active; 'I' for Inactive)
REMARK    1  A    between atoms: C2_2  and  C3_3 
REMARK    2  A    between atoms: C3_3  and  C4_4 
ROOT
HETATM    1  C3  UNL     1       0.336  52.575 -25.131  1.00  0.00     0.011 C 
HETATM    2  C7  UNL     1       0.756  53.696 -24.125  1.00  0.00     0.055 C 
HETATM    3  C8  UNL     1       0.610  53.024 -22.793  1.00  0.00    -0.051 A 
HETATM    4  C9  UNL     1       1.132  53.424 -21.573  1.00  0.00     0.011 A 
HETATM    5  C10 UNL     1       0.832  52.659 -20.444  1.00  0.00     0.043 A 
HETATM    6  C11 UNL     1       0.012  51.530 -20.558  1.00  0.00     0.117 A 
HETATM    7  F1  UNL     1      -0.268  50.814 -19.461  1.00  0.00    -0.206 F 
HETATM    8  C12 UNL     1      -0.522  51.137 -21.782  1.00  0.00     0.049 A 
HETATM    9  C13 UNL     1      -0.207  51.894 -22.897  1.00  0.00    -0.048 A 
HETATM   10  C14 UNL     1      -0.676  51.703 -24.308  1.00  0.00     0.055 C 
ENDROOT
BRANCH   1  11
HETATM   11  C2  UNL     1       1.552  51.678 -25.534  1.00  0.00     0.012 C 
HETATM   12  C1  UNL     1       1.972  51.752 -26.999  1.00  0.00     0.006 C 
ENDBRANCH   1  11
BRANCH   1  13
HETATM   13  C4  UNL     1      -0.337  53.121 -26.368  1.00  0.00     0.035 A 
HETATM   14  C5  UNL     1      -1.376  52.606 -27.119  1.00  0.00     0.114 A 
HETATM   15  N1  UNL     1      -1.595  53.520 -28.112  1.00  0.00    -0.360 N 
HETATM   16  C6  UNL     1      -0.712  54.543 -27.932  1.00  0.00     0.180 A 
HETATM   17  H7  UNL     1      -2.290  53.458 -28.845  1.00  0.00     0.166 HD
HETATM   18  N2  UNL     1       0.056  54.336 -26.889  1.00  0.00    -0.354 N 
ATOM     19  H2  UNL     1       0.792  54.946 -26.537  1.00  0.00     0.166 HD
ENDBRANCH   1  13
TORSDOF 2
ENDMDL
MODEL 2
REMARK minimizedAffinity -7.54006529
REMARK  2 active torsions:
REMARK  status: ('A' for Active; 'I' for Inactive)
REMARK    1  A    between atoms: C2_2  and  C3_3 
REMARK    2  A    between atoms: C3_3  and  C4_4 
ROOT
HETATM    1  C3  UNL     1      -0.681  51.805 -26.389  1.00  0.00     0.011 C 
HETATM    2  C7  UNL     1      -1.285  51.187 -25.086  1.00  0.00     0.055 C 
HETATM    3  C8  UNL     1      -2.250  50.168 -25.615  1.00  0.00    -0.051 A 
HETATM    4  C9  UNL     1      -2.835  49.113 -24.933  1.00  0.00     0.011 A 
HETATM    5  C10 UNL     1      -3.744  48.305 -25.622  1.00  0.00     0.043 A 
HETATM    6  C11 UNL     1      -4.052  48.578 -26.959  1.00  0.00     0.117 A 
HETATM    7  F1  UNL     1      -4.932  47.795 -27.599  1.00  0.00    -0.206 F 
HETATM    8  C12 UNL     1      -3.473  49.646 -27.639  1.00  0.00     0.049 A 
HETATM    9  C13 UNL     1      -2.564  50.432 -26.951  1.00  0.00    -0.048 A 
HETATM   10  C14 UNL     1      -1.834  51.646 -27.441  1.00  0.00     0.055 C 
ENDROOT
BRANCH   1  11
HETATM   11  C2  UNL     1       0.562  50.998 -26.887  1.00  0.00     0.012 C 
HETATM   12  C1  UNL     1       1.912  51.464 -26.352  1.00  0.00     0.006 C 
ENDBRANCH   1  11
BRANCH   1  13
HETATM   13  C4  UNL     1      -0.322  53.264 -26.231  1.00  0.00     0.035 A 
HETATM   14  C5  UNL     1       0.067  53.971 -25.111  1.00  0.00     0.114 A 
HETATM   15  N1  UNL     1       0.287  55.249 -25.544  1.00  0.00    -0.360 N 
HETATM   16  C6  UNL     1       0.042  55.277 -26.885  1.00  0.00     0.180 A 
HETATM   17  H7  UNL     1       0.585  56.034 -24.980  1.00  0.00     0.166 HD
HETATM   18  N2  UNL     1      -0.322  54.098 -27.330  1.00  0.00    -0.354 N 
ATOM     19  H2  UNL     1      -0.558  53.849 -28.290  1.00  0.00     0.166 HD
ENDBRANCH   1  13
TORSDOF 2
ENDMDL
MODEL 3
REMARK minimizedAffinity -7.42979765
REMARK  2 active torsions:
REMARK  status: ('A' for Active; 'I' for Inactive)
REMARK    1  A    between atoms: C2_2  and  C3_3 
REMARK    2  A    between atoms: C3_3  and  C4_4 
ROOT
HETATM    1  C3  UNL     1      -0.113  51.930 -25.585  1.00  0.00     0.011 C 
HETATM    2  C7  UNL     1       0.116  53.463 -25.380  1.00  0.00     0.055 C 
HETATM    3  C8  UNL     1       0.611  53.541 -23.967  1.00  0.00    -0.051 A 
HETATM    4  C9  UNL     1       1.262  54.597 -23.348  1.00  0.00     0.011 A 
HETATM    5  C10 UNL     1       1.600  54.464 -21.999  1.00  0.00     0.043 A 
HETATM    6  C11 UNL     1       1.268  53.295 -21.304  1.00  0.00     0.117 A 
HETATM    7  F1  UNL     1       1.595  53.192 -20.008  1.00  0.00    -0.206 F 
HETATM    8  C12 UNL     1       0.603  52.241 -21.923  1.00  0.00     0.049 A 
HETATM    9  C13 UNL     1       0.285  52.378 -23.264  1.00  0.00    -0.048 A 
HETATM   10  C14 UNL     1      -0.450  51.412 -24.143  1.00  0.00     0.055 C 
ENDROOT
BRANCH   1  11
HETATM   11  C2  UNL     1       1.186  51.214 -26.080  1.00  0.00     0.012 C 
HETATM   12  C1  UNL     1       1.826  51.798 -27.335  1.00  0.00     0.006 C 
ENDBRANCH   1  11
BRANCH   1  13
HETATM   13  C4  UNL     1      -1.259  51.631 -26.523  1.00  0.00     0.035 A 
HETATM   14  C5  UNL     1      -1.965  52.468 -27.364  1.00  0.00     0.114 A 
HETATM   15  N1  UNL     1      -2.876  51.667 -27.996  1.00  0.00    -0.360 N 
HETATM   16  C6  UNL     1      -2.692  50.395 -27.539  1.00  0.00     0.180 A 
HETATM   17  H7  UNL     1      -3.559  51.957 -28.683  1.00  0.00     0.166 HD
HETATM   18  N2  UNL     1      -1.724  50.339 -26.656  1.00  0.00    -0.354 N 
ATOM     19  H2  UNL     1      -1.385  49.511 -26.167  1.00  0.00     0.166 HD
ENDBRANCH   1  13
TORSDOF 2
ENDMDL
MODEL 4
REMARK minimizedAffinity -7.30475569
REMARK  2 active torsions:
REMARK  status: ('A' for Active; 'I' for Inactive)
REMARK    1  A    between atoms: C2_2  and  C3_3 
REMARK    2  A    between atoms: C3_3  and  C4_4 
ROOT
HETATM    1  C3  UNL     1      -2.774  50.431 -25.535  1.00  0.00     0.011 C 
HETATM    2  C7  UNL     1      -2.634  51.293 -26.831  1.00  0.00     0.055 C 
HETATM    3  C8  UNL     1      -1.149  51.395 -27.007  1.00  0.00    -0.051 A 
HETATM    4  C9  UNL     1      -0.447  51.772 -28.142  1.00  0.00     0.011 A 
HETATM    5  C10 UNL     1       0.946  51.833 -28.065  1.00  0.00     0.043 A 
HETATM    6  C11 UNL     1       1.598  51.533 -26.864  1.00  0.00     0.117 A 
HETATM    7  F1  UNL     1       2.935  51.606 -26.812  1.00  0.00    -0.206 F 
HETATM    8  C12 UNL     1       0.892  51.167 -25.722  1.00  0.00     0.049 A 
HETATM    9  C13 UNL     1      -0.488  51.095 -25.812  1.00  0.00    -0.048 A 
HETATM   10  C14 UNL     1      -1.469  50.761 -24.730  1.00  0.00     0.055 C 
ENDROOT
BRANCH   1  11
HETATM   11  C2  UNL     1      -2.785  48.901 -25.860  1.00  0.00     0.012 C 
HETATM   12  C1  UNL     1      -3.418  48.511 -27.192  1.00  0.00     0.006 C 
ENDBRANCH   1  11
BRANCH   1  13
HETATM   13  C4  UNL     1      -3.992  50.795 -24.719  1.00  0.00     0.035 A 
HETATM   14  C5  UNL     1      -4.549  52.030 -24.450  1.00  0.00     0.114 A 
HETATM   15  N1  UNL     1      -5.651  51.773 -23.681  1.00  0.00    -0.360 N 
HETATM   16  C6  UNL     1      -5.734  50.422 -23.519  1.00  0.00     0.180 A 
HETATM   17  H7  UNL     1      -6.294  52.456 -23.304  1.00  0.00     0.166 HD
HETATM   18  N2  UNL     1      -4.754  49.805 -24.135  1.00  0.00    -0.354 N 
ATOM     19  H2  UNL     1      -4.588  48.799 -24.173  1.00  0.00     0.166 HD
ENDBRANCH   1  13
TORSDOF 2
ENDMDL
MODEL 5
REMARK minimizedAffinity -6.92028189
REMARK  2 active torsions:
REMARK  status: ('A' for Active; 'I' for Inactive)
REMARK    1  A    between atoms: C2_2  and  C3_3 
REMARK    2  A    between atoms: C3_3  and  C4_4 
ROOT
HETATM    1  C3  UNL     1       5.118  64.433 -34.249  1.00  0.00     0.011 C 
HETATM    2  C7  UNL     1       5.175  62.992 -34.852  1.00  0.00     0.055 C 
HETATM    3  C8  UNL     1       6.591  62.574 -34.587  1.00  0.00    -0.051 A 
HETATM    4  C9  UNL     1       7.123  61.294 -34.620  1.00  0.00     0.011 A 
HETATM    5  C10 UNL     1       8.490  61.143 -34.377  1.00  0.00     0.043 A 
HETATM    6  C11 UNL     1       9.288  62.264 -34.123  1.00  0.00     0.117 A 
HETATM    7  F1  UNL     1      10.598  62.096 -33.899  1.00  0.00    -0.206 F 
HETATM    8  C12 UNL     1       8.753  63.549 -34.102  1.00  0.00     0.049 A 
HETATM    9  C13 UNL     1       7.395  63.688 -34.331  1.00  0.00    -0.048 A 
HETATM   10  C14 UNL     1       6.592  64.951 -34.394  1.00  0.00     0.055 C 
ENDROOT
BRANCH   1  11
HETATM   11  C2  UNL     1       4.747  64.408 -32.730  1.00  0.00     0.012 C 
HETATM   12  C1  UNL     1       4.045  63.145 -32.241  1.00  0.00     0.006 C 
ENDBRANCH   1  11
BRANCH   1  13
HETATM   13  C4  UNL     1       4.173  65.343 -34.998  1.00  0.00     0.035 A 
HETATM   14  C5  UNL     1       4.388  66.588 -35.555  1.00  0.00     0.114 A 
HETATM   15  N1  UNL     1       3.197  66.942 -36.126  1.00  0.00    -0.360 N 
HETATM   16  C6  UNL     1       2.318  65.921 -35.913  1.00  0.00     0.180 A 
HETATM   17  H7  UNL     1       2.999  67.800 -36.624  1.00  0.00     0.166 HD
HETATM   18  N2  UNL     1       2.876  64.943 -35.241  1.00  0.00    -0.354 N 
ATOM     19  H2  UNL     1       2.440  64.066 -34.956  1.00  0.00     0.166 HD
ENDBRANCH   1  13
TORSDOF 2
ENDMDL
MODEL 6
REMARK minimizedAffinity -6.83292913
REMARK  2 active torsions:
REMARK  status: ('A' for Active; 'I' for Inactive)
REMARK    1  A    between atoms: C2_2  and  C3_3 
REMARK    2  A    between atoms: C3_3  and  C4_4 
ROOT
HETATM    1  C3  UNL     1      -0.428  52.485 -24.708  1.00  0.00     0.011 C 
HETATM    2  C7  UNL     1       0.508  52.514 -23.456  1.00  0.00     0.055 C 
HETATM    3  C8  UNL     1      -0.314  51.828 -22.407  1.00  0.00    -0.051 A 
HETATM    4  C9  UNL     1       0.114  51.294 -21.201  1.00  0.00     0.011 A 
HETATM    5  C10 UNL     1      -0.843  50.731 -20.353  1.00  0.00     0.043 A 
HETATM    6  C11 UNL     1      -2.193  50.727 -20.721  1.00  0.00     0.117 A 
HETATM    7  F1  UNL     1      -3.094  50.188 -19.888  1.00  0.00    -0.206 F 
HETATM    8  C12 UNL     1      -2.622  51.274 -21.926  1.00  0.00     0.049 A 
HETATM    9  C13 UNL     1      -1.665  51.818 -22.766  1.00  0.00    -0.048 A 
HETATM   10  C14 UNL     1      -1.870  52.490 -24.090  1.00  0.00     0.055 C 
ENDROOT
BRANCH   1  11
HETATM   11  C2  UNL     1      -0.245  51.169 -25.533  1.00  0.00     0.012 C 
HETATM   12  C1  UNL     1       1.124  50.976 -26.177  1.00  0.00     0.006 C 
ENDBRANCH   1  11
BRANCH   1  13
HETATM   13  C4  UNL     1      -0.244  53.687 -25.604  1.00  0.00     0.035 A 
HETATM   14  C5  UNL     1       0.305  54.925 -25.333  1.00  0.00     0.114 A 
HETATM   15  N1  UNL     1       0.236  55.619 -26.510  1.00  0.00    -0.360 N 
HETATM   16  C6  UNL     1      -0.329  54.798 -27.440  1.00  0.00     0.180 A 
HETATM   17  H7  UNL     1       0.552  56.567 -26.669  1.00  0.00     0.166 HD
HETATM   18  N2  UNL     1      -0.625  53.627 -26.928  1.00  0.00    -0.354 N 
ATOM     19  H2  UNL     1      -1.050  52.835 -27.409  1.00  0.00     0.166 HD
ENDBRANCH   1  13
TORSDOF 2
ENDMDL
MODEL 7
REMARK minimizedAffinity -6.8162384
REMARK  2 active torsions:
REMARK  status: ('A' for Active; 'I' for Inactive)
REMARK    1  A    between atoms: C2_2  and  C3_3 
REMARK    2  A    between atoms: C3_3  and  C4_4 
ROOT
HETATM    1  C3  UNL     1      -1.519  51.992 -24.554  1.00  0.00     0.011 C 
HETATM    2  C7  UNL     1      -1.746  50.466 -24.308  1.00  0.00     0.055 C 
HETATM    3  C8  UNL     1      -1.355  50.296 -22.870  1.00  0.00    -0.051 A 
HETATM    4  C9  UNL     1      -1.644  49.234 -22.027  1.00  0.00     0.011 A 
HETATM    5  C10 UNL     1      -1.139  49.270 -20.725  1.00  0.00     0.043 A 
HETATM    6  C11 UNL     1      -0.354  50.350 -20.305  1.00  0.00     0.117 A 
HETATM    7  F1  UNL     1       0.125  50.360 -19.054  1.00  0.00    -0.206 F 
HETATM    8  C12 UNL     1      -0.056  51.409 -21.157  1.00  0.00     0.049 A 
HETATM    9  C13 UNL     1      -0.572  51.370 -22.441  1.00  0.00    -0.048 A 
HETATM   10  C14 UNL     1      -0.371  52.360 -23.549  1.00  0.00     0.055 C 
ENDROOT
BRANCH   1  11
HETATM   11  C2  UNL     1      -2.788  52.830 -24.188  1.00  0.00     0.012 C 
HETATM   12  C1  UNL     1      -3.712  52.211 -23.144  1.00  0.00     0.006 C 
ENDBRANCH   1  11
BRANCH   1  13
HETATM   13  C4  UNL     1      -1.086  52.299 -25.968  1.00  0.00     0.035 A 
HETATM   14  C5  UNL     1      -1.125  51.513 -27.103  1.00  0.00     0.114 A 
HETATM   15  N1  UNL     1      -0.630  52.298 -28.107  1.00  0.00    -0.360 N 
HETATM   16  C6  UNL     1      -0.322  53.512 -27.567  1.00  0.00     0.180 A 
HETATM   17  H7  UNL     1      -0.516  52.035 -29.077  1.00  0.00     0.166 HD
HETATM   18  N2  UNL     1      -0.589  53.546 -26.283  1.00  0.00    -0.354 N 
ATOM     19  H2  UNL     1      -0.456  54.333 -25.648  1.00  0.00     0.166 HD
ENDBRANCH   1  13
TORSDOF 2
ENDMDL
MODEL 8
REMARK minimizedAffinity -6.79887819
REMARK  2 active torsions:
REMARK  status: ('A' for Active; 'I' for Inactive)
REMARK    1  A    between atoms: C2_2  and  C3_3 
REMARK    2  A    between atoms: C3_3  and  C4_4 
ROOT
HETATM    1  C3  UNL     1      -0.540  52.126 -24.010  1.00  0.00     0.011 C 
HETATM    2  C7  UNL     1      -0.722  50.816 -23.177  1.00  0.00     0.055 C 
HETATM    3  C8  UNL     1      -0.447  51.270 -21.775  1.00  0.00    -0.051 A 
HETATM    4  C9  UNL     1      -0.760  50.620 -20.590  1.00  0.00     0.011 A 
HETATM    5  C10 UNL     1      -0.368  51.216 -19.389  1.00  0.00     0.043 A 
HETATM    6  C11 UNL     1       0.331  52.427 -19.400  1.00  0.00     0.117 A 
HETATM    7  F1  UNL     1       0.703  52.977 -18.235  1.00  0.00    -0.206 F 
HETATM    8  C12 UNL     1       0.655  53.072 -20.590  1.00  0.00     0.049 A 
HETATM    9  C13 UNL     1       0.251  52.481 -21.775  1.00  0.00    -0.048 A 
HETATM   10  C14 UNL     1       0.502  52.951 -23.176  1.00  0.00     0.055 C 
ENDROOT
BRANCH   1  11
HETATM   11  C2  UNL     1      -1.870  52.945 -24.094  1.00  0.00     0.012 C 
HETATM   12  C1  UNL     1      -3.154  52.122 -24.119  1.00  0.00     0.006 C 
ENDBRANCH   1  11
BRANCH   1  13
HETATM   13  C4  UNL     1      -0.003  51.867 -25.398  1.00  0.00     0.035 A 
HETATM   14  C5  UNL     1      -0.349  50.900 -26.322  1.00  0.00     0.114 A 
HETATM   15  N1  UNL     1       0.437  51.142 -27.414  1.00  0.00    -0.360 N 
HETATM   16  C6  UNL     1       1.211  52.229 -27.132  1.00  0.00     0.180 A 
HETATM   17  H7  UNL     1       0.443  50.619 -28.280  1.00  0.00     0.166 HD
HETATM   18  N2  UNL     1       0.966  52.691 -25.929  1.00  0.00    -0.354 N 
ATOM     19  H2  UNL     1       1.404  53.494 -25.478  1.00  0.00     0.166 HD
ENDBRANCH   1  13
TORSDOF 2
ENDMDL
MODEL 9
REMARK minimizedAffinity -6.64693356
REMARK  2 active torsions:
REMARK  status: ('A' for Active; 'I' for Inactive)
REMARK    1  A    between atoms: C2_2  and  C3_3 
REMARK    2  A    between atoms: C3_3  and  C4_4 
ROOT
HETATM    1  C3  UNL     1      -2.484  51.525 -24.750  1.00  0.00     0.011 C 
HETATM    2  C7  UNL     1      -2.207  50.320 -23.794  1.00  0.00     0.055 C 
HETATM    3  C8  UNL     1      -1.191  50.874 -22.841  1.00  0.00    -0.051 A 
HETATM    4  C9  UNL     1      -0.812  50.368 -21.607  1.00  0.00     0.011 A 
HETATM    5  C10 UNL     1       0.192  51.035 -20.901  1.00  0.00     0.043 A 
HETATM    6  C11 UNL     1       0.798  52.172 -21.447  1.00  0.00     0.117 A 
HETATM    7  F1  UNL     1       1.765  52.791 -20.755  1.00  0.00    -0.206 F 
HETATM    8  C12 UNL     1       0.425  52.672 -22.691  1.00  0.00     0.049 A 
HETATM    9  C13 UNL     1      -0.581  52.012 -23.377  1.00  0.00    -0.048 A 
HETATM   10  C14 UNL     1      -1.135  52.326 -24.733  1.00  0.00     0.055 C 
ENDROOT
BRANCH   1  11
HETATM   11  C2  UNL     1      -3.618  52.449 -24.197  1.00  0.00     0.012 C 
HETATM   12  C1  UNL     1      -4.833  51.731 -23.618  1.00  0.00     0.006 C 
ENDBRANCH   1  11
BRANCH   1  13
HETATM   13  C4  UNL     1      -2.811  51.091 -26.159  1.00  0.00     0.035 A 
HETATM   14  C5  UNL     1      -2.620  51.744 -27.361  1.00  0.00     0.114 A 
HETATM   15  N1  UNL     1      -3.078  50.884 -28.320  1.00  0.00    -0.360 N 
HETATM   16  C6  UNL     1      -3.512  49.756 -27.689  1.00  0.00     0.180 A 
HETATM   17  H7  UNL     1      -3.087  51.046 -29.319  1.00  0.00     0.166 HD
HETATM   18  N2  UNL     1      -3.361  49.847 -26.389  1.00  0.00    -0.354 N 
ATOM     19  H2  UNL     1      -3.602  49.143 -25.692  1.00  0.00     0.166 HD
ENDBRANCH   1  13
TORSDOF 2
ENDMDL
