MODEL 1
REMARK minimizedAffinity -9.69258404
REMARK  4 active torsions:
REMARK  status: ('A' for Active; 'I' for Inactive)
REMARK    1  A    between atoms: C2_2  and  C4_4 
REMARK    2  A    between atoms: C4_4  and  O1_5 
REMARK    3  A    between atoms: C8_10  and  O2_11 
REMARK    4  A    between atoms: C21_27  and  O6_28 
ROOT
HETATM    1  C4  UNL     1      -1.020  51.491 -26.458  1.00  0.00     0.106 C 
HETATM    2  C5  UNL     1      -1.924  50.299 -26.859  1.00  0.00     0.126 C 
HETATM    3 CL1  UNL     1      -3.221  50.760 -28.021  1.00  0.00    -0.121 Cl
HETATM    4  C6  UNL     1      -2.461  49.486 -25.630  1.00  0.00     0.041 C 
HETATM    5  C7  UNL     1      -3.269  48.297 -26.210  1.00  0.00     0.015 C 
HETATM    6  C8  UNL     1      -3.208  50.383 -24.557  1.00  0.00     0.107 C 
HETATM    7  C9  UNL     1      -2.368  51.672 -24.308  1.00  0.00     0.148 A 
HETATM    8  O3  UNL     1      -2.962  52.603 -23.378  1.00  0.00    -0.363 OA
HETATM    9  C10 UNL     1      -1.753  51.971 -22.948  1.00  0.00     0.164 A 
HETATM   10  C11 UNL     1      -1.921  51.076 -21.775  1.00  0.00     0.045 C 
HETATM   11  C12 UNL     1      -2.294  49.657 -22.209  1.00  0.00     0.031 C 
HETATM   12  C13 UNL     1      -2.443  48.735 -21.026  1.00  0.00    -0.038 A 
HETATM   13  C14 UNL     1      -3.382  47.797 -20.935  1.00  0.00     0.022 A 
HETATM   14  C15 UNL     1      -4.396  47.474 -21.963  1.00  0.00     0.046 C 
HETATM   15  C16 UNL     1      -4.019  48.164 -23.291  1.00  0.00     0.018 C 
HETATM   16  C17 UNL     1      -3.568  49.656 -23.147  1.00  0.00    -0.002 C 
HETATM   17  C18 UNL     1      -4.783  50.383 -22.470  1.00  0.00     0.019 C 
HETATM   18  C19 UNL     1      -3.175  47.087 -19.676  1.00  0.00     0.289 A 
HETATM   19  O4  UNL     1      -3.850  46.163 -19.263  1.00  0.00    -0.260 OA
HETATM   20  O5  UNL     1      -2.094  47.629 -19.048  1.00  0.00    -0.313 OA
HETATM   21  C20 UNL     1      -1.560  48.691 -19.845  1.00  0.00     0.214 A 
HETATM   22  C21 UNL     1      -1.790  52.416 -25.491  1.00  0.00     0.194 C 
ENDROOT
BRANCH   1  23
HETATM   23  C2  UNL     1      -0.445  52.293 -27.687  1.00  0.00     0.016 C 
HETATM   24  C1  UNL     1       0.788  51.637 -28.333  1.00  0.00     0.012 C 
HETATM   25  C3  UNL     1      -0.067  53.741 -27.330  1.00  0.00     0.012 C 
ENDBRANCH   1  23
BRANCH   1  26
HETATM   26  O1  UNL     1       0.101  50.959 -25.703  1.00  0.00    -0.385 OA
HETATM   27  H8  UNL     1       0.647  50.420 -26.302  1.00  0.00     0.210 HD
ENDBRANCH   1  26
BRANCH  22  28
HETATM   28  O6  UNL     1      -2.828  53.166 -26.113  1.00  0.00    -0.389 OA
HETATM   29  H29 UNL     1      -3.147  53.796 -25.439  1.00  0.00     0.210 HD
ENDBRANCH  22  28
BRANCH   6  30
HETATM   30  O2  UNL     1      -4.460  50.755 -25.151  1.00  0.00    -0.385 OA
HETATM   31  H14 UNL     1      -4.516  51.734 -25.155  1.00  0.00     0.210 HD
ENDBRANCH   6  30
TORSDOF 4
ENDMDL
MODEL 2
REMARK minimizedAffinity -8.87793827
REMARK  4 active torsions:
REMARK  status: ('A' for Active; 'I' for Inactive)
REMARK    1  A    between atoms: C2_2  and  C4_4 
REMARK    2  A    between atoms: C4_4  and  O1_5 
REMARK    3  A    between atoms: C8_10  and  O2_11 
REMARK    4  A    between atoms: C21_27  and  O6_28 
ROOT
HETATM    1  C4  UNL     1      -2.625  47.372 -20.660  1.00  0.00     0.106 C 
HETATM    2  C5  UNL     1      -1.635  48.395 -20.049  1.00  0.00     0.126 C 
HETATM    3 CL1  UNL     1      -2.212  49.084 -18.487  1.00  0.00    -0.121 Cl
HETATM    4  C6  UNL     1      -1.166  49.491 -21.068  1.00  0.00     0.041 C 
HETATM    5  C7  UNL     1      -0.130  50.369 -20.321  1.00  0.00     0.015 C 
HETATM    6  C8  UNL     1      -2.365  50.261 -21.763  1.00  0.00     0.107 C 
HETATM    7  C9  UNL     1      -3.441  49.223 -22.204  1.00  0.00     0.148 A 
HETATM    8  O3  UNL     1      -4.613  49.800 -22.816  1.00  0.00    -0.363 OA
HETATM    9  C10 UNL     1      -3.784  49.008 -23.672  1.00  0.00     0.164 A 
HETATM   10  C11 UNL     1      -3.140  49.773 -24.769  1.00  0.00     0.045 C 
HETATM   11  C12 UNL     1      -1.802  50.365 -24.323  1.00  0.00     0.031 C 
HETATM   12  C13 UNL     1      -1.130  51.123 -25.437  1.00  0.00    -0.038 A 
HETATM   13  C14 UNL     1      -0.465  52.262 -25.259  1.00  0.00     0.022 A 
HETATM   14  C15 UNL     1      -0.243  52.950 -23.969  1.00  0.00     0.046 C 
HETATM   15  C16 UNL     1      -0.617  52.003 -22.810  1.00  0.00     0.018 C 
HETATM   16  C17 UNL     1      -1.964  51.230 -23.007  1.00  0.00    -0.002 C 
HETATM   17  C18 UNL     1      -3.051  52.348 -23.182  1.00  0.00     0.019 C 
HETATM   18  C19 UNL     1       0.076  52.663 -26.555  1.00  0.00     0.289 A 
HETATM   19  O4  UNL     1       0.741  53.659 -26.769  1.00  0.00    -0.260 OA
HETATM   20  O5  UNL     1      -0.281  51.729 -27.480  1.00  0.00    -0.313 OA
HETATM   21  C20 UNL     1      -1.055  50.703 -26.850  1.00  0.00     0.214 A 
HETATM   22  C21 UNL     1      -3.841  48.123 -21.247  1.00  0.00     0.194 C 
ENDROOT
BRANCH   1  23
HETATM   23  C2  UNL     1      -3.074  46.245 -19.655  1.00  0.00     0.016 C 
HETATM   24  C1  UNL     1      -4.034  45.212 -20.270  1.00  0.00     0.012 C 
HETATM   25  C3  UNL     1      -3.746  46.807 -18.390  1.00  0.00     0.012 C 
ENDBRANCH   1  23
BRANCH   1  26
HETATM   26  O1  UNL     1      -1.962  46.736 -21.784  1.00  0.00    -0.385 OA
HETATM   27  H8  UNL     1      -1.225  46.199 -21.442  1.00  0.00     0.210 HD
ENDBRANCH   1  26
BRANCH  22  28
HETATM   28  O6  UNL     1      -4.714  48.667 -20.262  1.00  0.00    -0.389 OA
HETATM   29  H29 UNL     1      -5.495  48.995 -20.746  1.00  0.00     0.210 HD
ENDBRANCH  22  28
BRANCH   6  30
HETATM   30  O2  UNL     1      -2.930  51.112 -20.756  1.00  0.00    -0.385 OA
HETATM   31  H14 UNL     1      -3.883  50.893 -20.672  1.00  0.00     0.210 HD
ENDBRANCH   6  30
TORSDOF 4
ENDMDL
MODEL 3
REMARK minimizedAffinity -8.46514988
REMARK  4 active torsions:
REMARK  status: ('A' for Active; 'I' for Inactive)
REMARK    1  A    between atoms: C2_2  and  C4_4 
REMARK    2  A    between atoms: C4_4  and  O1_5 
REMARK    3  A    between atoms: C8_10  and  O2_11 
REMARK    4  A    between atoms: C21_27  and  O6_28 
ROOT
HETATM    1  C4  UNL     1      -0.963  51.361 -24.183  1.00  0.00     0.106 C 
HETATM    2  C5  UNL     1      -1.534  50.379 -25.236  1.00  0.00     0.126 C 
HETATM    3 CL1  UNL     1      -1.914  51.177 -26.806  1.00  0.00    -0.121 Cl
HETATM    4  C6  UNL     1      -2.714  49.501 -24.691  1.00  0.00     0.041 C 
HETATM    5  C7  UNL     1      -3.104  48.532 -25.836  1.00  0.00     0.015 C 
HETATM    6  C8  UNL     1      -3.895  50.350 -24.060  1.00  0.00     0.107 C 
HETATM    7  C9  UNL     1      -3.286  51.457 -23.147  1.00  0.00     0.148 A 
HETATM    8  O3  UNL     1      -4.257  52.335 -22.541  1.00  0.00    -0.363 OA
HETATM    9  C10 UNL     1      -3.540  51.479 -21.646  1.00  0.00     0.164 A 
HETATM   10  C11 UNL     1      -4.389  50.473 -20.960  1.00  0.00     0.045 C 
HETATM   11  C12 UNL     1      -4.518  49.195 -21.790  1.00  0.00     0.031 C 
HETATM   12  C13 UNL     1      -5.357  48.158 -21.090  1.00  0.00    -0.038 A 
HETATM   13  C14 UNL     1      -6.225  47.366 -21.715  1.00  0.00     0.022 A 
HETATM   14  C15 UNL     1      -6.487  47.336 -23.170  1.00  0.00     0.046 C 
HETATM   15  C16 UNL     1      -5.389  48.130 -23.907  1.00  0.00     0.018 C 
HETATM   16  C17 UNL     1      -5.029  49.507 -23.254  1.00  0.00    -0.002 C 
HETATM   17  C18 UNL     1      -6.376  50.311 -23.235  1.00  0.00     0.019 C 
HETATM   18  C19 UNL     1      -6.807  46.475 -20.715  1.00  0.00     0.289 A 
HETATM   19  O4  UNL     1      -7.640  45.616 -20.930  1.00  0.00    -0.260 OA
HETATM   20  O5  UNL     1      -6.252  46.763 -19.505  1.00  0.00    -0.313 OA
HETATM   21  C20 UNL     1      -5.308  47.829 -19.652  1.00  0.00     0.214 A 
HETATM   22  C21 UNL     1      -2.101  52.255 -23.644  1.00  0.00     0.194 C 
ENDROOT
BRANCH   1  23
HETATM   23  C2  UNL     1       0.247  52.222 -24.708  1.00  0.00     0.016 C 
HETATM   24  C1  UNL     1      -0.153  53.630 -25.180  1.00  0.00     0.012 C 
HETATM   25  C3  UNL     1       1.006  51.542 -25.861  1.00  0.00     0.012 C 
ENDBRANCH   1  23
BRANCH   1  26
HETATM   26  O1  UNL     1      -0.499  50.574 -23.054  1.00  0.00    -0.385 OA
HETATM   27  H8  UNL     1       0.264  50.043 -23.342  1.00  0.00     0.210 HD
ENDBRANCH   1  26
BRANCH  22  28
HETATM   28  O6  UNL     1      -2.563  53.226 -24.578  1.00  0.00    -0.389 OA
HETATM   29  H29 UNL     1      -3.177  53.802 -24.086  1.00  0.00     0.210 HD
ENDBRANCH  22  28
BRANCH   6  30
HETATM   30  O2  UNL     1      -4.566  50.979 -25.161  1.00  0.00    -0.385 OA
HETATM   31  H14 UNL     1      -4.562  51.948 -25.008  1.00  0.00     0.210 HD
ENDBRANCH   6  30
TORSDOF 4
ENDMDL
MODEL 4
REMARK minimizedAffinity -8.44111824
REMARK  4 active torsions:
REMARK  status: ('A' for Active; 'I' for Inactive)
REMARK    1  A    between atoms: C2_2  and  C4_4 
REMARK    2  A    between atoms: C4_4  and  O1_5 
REMARK    3  A    between atoms: C8_10  and  O2_11 
REMARK    4  A    between atoms: C21_27  and  O6_28 
ROOT
HETATM    1  C4  UNL     1      -1.666  52.086 -26.780  1.00  0.00     0.106 C 
HETATM    2  C5  UNL     1      -1.701  52.630 -25.330  1.00  0.00     0.126 C 
HETATM    3 CL1  UNL     1      -0.069  52.715 -24.572  1.00  0.00    -0.121 Cl
HETATM    4  C6  UNL     1      -2.763  51.914 -24.424  1.00  0.00     0.041 C 
HETATM    5  C7  UNL     1      -2.720  52.629 -23.049  1.00  0.00     0.015 C 
HETATM    6  C8  UNL     1      -2.609  50.336 -24.397  1.00  0.00     0.107 C 
HETATM    7  C9  UNL     1      -2.386  49.828 -25.854  1.00  0.00     0.148 A 
HETATM    8  O3  UNL     1      -2.186  48.404 -25.967  1.00  0.00    -0.363 OA
HETATM    9  C10 UNL     1      -3.392  48.916 -26.542  1.00  0.00     0.164 A 
HETATM   10  C11 UNL     1      -4.631  48.439 -25.876  1.00  0.00     0.045 C 
HETATM   11  C12 UNL     1      -5.018  49.345 -24.706  1.00  0.00     0.031 C 
HETATM   12  C13 UNL     1      -6.287  48.883 -24.040  1.00  0.00    -0.038 A 
HETATM   13  C14 UNL     1      -6.484  48.913 -22.725  1.00  0.00     0.022 A 
HETATM   14  C15 UNL     1      -5.534  49.424 -21.712  1.00  0.00     0.046 C 
HETATM   15  C16 UNL     1      -4.408  50.211 -22.414  1.00  0.00     0.018 C 
HETATM   16  C17 UNL     1      -3.820  49.514 -23.686  1.00  0.00    -0.002 C 
HETATM   17  C18 UNL     1      -3.294  48.125 -23.181  1.00  0.00     0.019 C 
HETATM   18  C19 UNL     1      -7.838  48.430 -22.471  1.00  0.00     0.289 A 
HETATM   19  O4  UNL     1      -8.360  48.323 -21.377  1.00  0.00    -0.260 OA
HETATM   20  O5  UNL     1      -8.421  48.130 -23.665  1.00  0.00    -0.313 OA
HETATM   21  C20 UNL     1      -7.498  48.393 -24.727  1.00  0.00     0.214 A 
HETATM   22  C21 UNL     1      -1.415  50.563 -26.751  1.00  0.00     0.194 C 
ENDROOT
BRANCH   1  23
HETATM   23  C2  UNL     1      -0.628  52.823 -27.709  1.00  0.00     0.016 C 
HETATM   24  C1  UNL     1       0.555  51.940 -28.140  1.00  0.00     0.012 C 
HETATM   25  C3  UNL     1      -0.049  54.095 -27.064  1.00  0.00     0.012 C 
ENDBRANCH   1  23
BRANCH   1  26
HETATM   26  O1  UNL     1      -2.989  52.267 -27.350  1.00  0.00    -0.385 OA
HETATM   27  H8  UNL     1      -3.155  53.222 -27.444  1.00  0.00     0.210 HD
ENDBRANCH   1  26
BRANCH  22  28
HETATM   28  O6  UNL     1      -0.088  50.203 -26.381  1.00  0.00    -0.389 OA
HETATM   29  H29 UNL     1      -0.019  49.240 -26.524  1.00  0.00     0.210 HD
ENDBRANCH  22  28
BRANCH   6  30
HETATM   30  O2  UNL     1      -1.430  50.063 -23.627  1.00  0.00    -0.385 OA
HETATM   31  H14 UNL     1      -0.820  49.533 -24.183  1.00  0.00     0.210 HD
ENDBRANCH   6  30
TORSDOF 4
ENDMDL
MODEL 5
REMARK minimizedAffinity -8.39190102
REMARK  4 active torsions:
REMARK  status: ('A' for Active; 'I' for Inactive)
REMARK    1  A    between atoms: C2_2  and  C4_4 
REMARK    2  A    between atoms: C4_4  and  O1_5 
REMARK    3  A    between atoms: C8_10  and  O2_11 
REMARK    4  A    between atoms: C21_27  and  O6_28 
ROOT
HETATM    1  C4  UNL     1      -5.165  48.521 -21.978  1.00  0.00     0.106 C 
HETATM    2  C5  UNL     1      -3.882  48.604 -21.115  1.00  0.00     0.126 C 
HETATM    3 CL1  UNL     1      -4.189  49.255 -19.463  1.00  0.00    -0.121 Cl
HETATM    4  C6  UNL     1      -2.688  49.314 -21.843  1.00  0.00     0.041 C 
HETATM    5  C7  UNL     1      -1.478  49.237 -20.877  1.00  0.00     0.015 C 
HETATM    6  C8  UNL     1      -3.052  50.755 -22.395  1.00  0.00     0.107 C 
HETATM    7  C9  UNL     1      -4.440  50.687 -23.101  1.00  0.00     0.148 A 
HETATM    8  O3  UNL     1      -4.913  51.950 -23.614  1.00  0.00    -0.363 OA
HETATM    9  C10 UNL     1      -4.590  50.956 -24.591  1.00  0.00     0.164 A 
HETATM   10  C11 UNL     1      -3.442  51.315 -25.463  1.00  0.00     0.045 C 
HETATM   11  C12 UNL     1      -2.115  50.876 -24.842  1.00  0.00     0.031 C 
HETATM   12  C13 UNL     1      -0.946  51.213 -25.731  1.00  0.00    -0.038 A 
HETATM   13  C14 UNL     1       0.224  51.653 -25.276  1.00  0.00     0.022 A 
HETATM   14  C15 UNL     1       0.590  51.850 -23.856  1.00  0.00     0.046 C 
HETATM   15  C16 UNL     1      -0.464  51.175 -22.955  1.00  0.00     0.018 C 
HETATM   16  C17 UNL     1      -1.949  51.442 -23.374  1.00  0.00    -0.002 C 
HETATM   17  C18 UNL     1      -2.106  53.003 -23.338  1.00  0.00     0.019 C 
HETATM   18  C19 UNL     1       1.107  51.824 -26.426  1.00  0.00     0.289 A 
HETATM   19  O4  UNL     1       2.260  52.213 -26.384  1.00  0.00    -0.260 OA
HETATM   20  O5  UNL     1       0.427  51.466 -27.550  1.00  0.00    -0.313 OA
HETATM   21  C20 UNL     1      -0.899  51.058 -27.197  1.00  0.00     0.214 A 
HETATM   22  C21 UNL     1      -5.572  49.940 -22.431  1.00  0.00     0.194 C 
ENDROOT
BRANCH   1  23
HETATM   23  C2  UNL     1      -6.360  47.777 -21.270  1.00  0.00     0.016 C 
HETATM   24  C1  UNL     1      -6.326  46.248 -21.439  1.00  0.00     0.012 C 
HETATM   25  C3  UNL     1      -7.737  48.267 -21.752  1.00  0.00     0.012 C 
ENDBRANCH   1  23
BRANCH   1  26
HETATM   26  O1  UNL     1      -4.834  47.790 -23.189  1.00  0.00    -0.385 OA
HETATM   27  H8  UNL     1      -4.634  46.869 -22.947  1.00  0.00     0.210 HD
ENDBRANCH   1  26
BRANCH  22  28
HETATM   28  O6  UNL     1      -6.100  50.750 -21.385  1.00  0.00    -0.389 OA
HETATM   29  H29 UNL     1      -6.435  51.560 -21.814  1.00  0.00     0.210 HD
ENDBRANCH  22  28
BRANCH   6  30
HETATM   30  O2  UNL     1      -3.159  51.607 -21.247  1.00  0.00    -0.385 OA
HETATM   31  H14 UNL     1      -4.051  52.015 -21.252  1.00  0.00     0.210 HD
ENDBRANCH   6  30
TORSDOF 4
ENDMDL
MODEL 6
REMARK minimizedAffinity -8.38776779
REMARK  4 active torsions:
REMARK  status: ('A' for Active; 'I' for Inactive)
REMARK    1  A    between atoms: C2_2  and  C4_4 
REMARK    2  A    between atoms: C4_4  and  O1_5 
REMARK    3  A    between atoms: C8_10  and  O2_11 
REMARK    4  A    between atoms: C21_27  and  O6_28 
ROOT
HETATM    1  C4  UNL     1      -6.399  49.606 -21.528  1.00  0.00     0.106 C 
HETATM    2  C5  UNL     1      -5.928  50.234 -22.864  1.00  0.00     0.126 C 
HETATM    3 CL1  UNL     1      -6.082  49.107 -24.262  1.00  0.00    -0.121 Cl
HETATM    4  C6  UNL     1      -4.514  50.906 -22.770  1.00  0.00     0.041 C 
HETATM    5  C7  UNL     1      -4.240  51.547 -24.155  1.00  0.00     0.015 C 
HETATM    6  C8  UNL     1      -3.390  49.938 -22.211  1.00  0.00     0.107 C 
HETATM    7  C9  UNL     1      -3.953  49.175 -20.974  1.00  0.00     0.148 A 
HETATM    8  O3  UNL     1      -3.039  48.222 -20.392  1.00  0.00    -0.363 OA
HETATM    9  C10 UNL     1      -3.357  49.361 -19.586  1.00  0.00     0.164 A 
HETATM   10  C11 UNL     1      -2.202  50.256 -19.319  1.00  0.00     0.045 C 
HETATM   11  C12 UNL     1      -2.048  51.306 -20.421  1.00  0.00     0.031 C 
HETATM   12  C13 UNL     1      -0.894  52.234 -20.146  1.00  0.00    -0.038 A 
HETATM   13  C14 UNL     1      -0.072  52.689 -21.088  1.00  0.00     0.022 A 
HETATM   14  C15 UNL     1      -0.162  52.403 -22.537  1.00  0.00     0.046 C 
HETATM   15  C16 UNL     1      -1.528  51.759 -22.850  1.00  0.00     0.018 C 
HETATM   16  C17 UNL     1      -1.964  50.635 -21.851  1.00  0.00    -0.002 C 
HETATM   17  C18 UNL     1      -0.818  49.565 -21.919  1.00  0.00     0.019 C 
HETATM   18  C19 UNL     1       0.881  53.588 -20.445  1.00  0.00     0.289 A 
HETATM   19  O4  UNL     1       1.780  54.188 -21.004  1.00  0.00    -0.260 OA
HETATM   20  O5  UNL     1       0.588  53.650 -19.116  1.00  0.00    -0.313 OA
HETATM   21  C20 UNL     1      -0.539  52.814 -18.836  1.00  0.00     0.214 A 
HETATM   22  C21 UNL     1      -5.345  48.588 -21.040  1.00  0.00     0.194 C 
ENDROOT
BRANCH   1  23
HETATM   23  C2  UNL     1      -7.834  48.959 -21.602  1.00  0.00     0.016 C 
HETATM   24  C1  UNL     1      -8.314  48.361 -20.268  1.00  0.00     0.012 C 
HETATM   25  C3  UNL     1      -7.937  47.856 -22.670  1.00  0.00     0.012 C 
ENDBRANCH   1  23
BRANCH   1  26
HETATM   26  O1  UNL     1      -6.432  50.663 -20.533  1.00  0.00    -0.385 OA
HETATM   27  H8  UNL     1      -7.133  51.292 -20.776  1.00  0.00     0.210 HD
ENDBRANCH   1  26
BRANCH  22  28
HETATM   28  O6  UNL     1      -5.301  47.390 -21.808  1.00  0.00    -0.389 OA
HETATM   29  H29 UNL     1      -4.701  46.786 -21.331  1.00  0.00     0.210 HD
ENDBRANCH  22  28
BRANCH   6  30
HETATM   30  O2  UNL     1      -3.124  48.992 -23.256  1.00  0.00    -0.385 OA
HETATM   31  H14 UNL     1      -3.265  48.091 -22.894  1.00  0.00     0.210 HD
ENDBRANCH   6  30
TORSDOF 4
ENDMDL
MODEL 7
REMARK minimizedAffinity -8.22456741
REMARK  4 active torsions:
REMARK  status: ('A' for Active; 'I' for Inactive)
REMARK    1  A    between atoms: C2_2  and  C4_4 
REMARK    2  A    between atoms: C4_4  and  O1_5 
REMARK    3  A    between atoms: C8_10  and  O2_11 
REMARK    4  A    between atoms: C21_27  and  O6_28 
ROOT
HETATM    1  C4  UNL     1      -1.567  50.825 -23.371  1.00  0.00     0.106 C 
HETATM    2  C5  UNL     1      -2.103  50.205 -24.685  1.00  0.00     0.126 C 
HETATM    3 CL1  UNL     1      -2.380  51.431 -25.977  1.00  0.00    -0.121 Cl
HETATM    4  C6  UNL     1      -3.330  49.253 -24.469  1.00  0.00     0.041 C 
HETATM    5  C7  UNL     1      -3.680  48.665 -25.860  1.00  0.00     0.015 C 
HETATM    6  C8  UNL     1      -4.523  49.931 -23.675  1.00  0.00     0.107 C 
HETATM    7  C9  UNL     1      -3.939  50.708 -22.457  1.00  0.00     0.148 A 
HETATM    8  O3  UNL     1      -4.922  51.413 -21.669  1.00  0.00    -0.363 OA
HETATM    9  C10 UNL     1      -4.274  50.312 -21.025  1.00  0.00     0.164 A 
HETATM   10  C11 UNL     1      -5.181  49.184 -20.694  1.00  0.00     0.045 C 
HETATM   11  C12 UNL     1      -5.293  48.201 -21.861  1.00  0.00     0.031 C 
HETATM   12  C13 UNL     1      -6.192  47.040 -21.525  1.00  0.00    -0.038 A 
HETATM   13  C14 UNL     1      -7.043  46.491 -22.389  1.00  0.00     0.022 A 
HETATM   14  C15 UNL     1      -7.227  46.886 -23.803  1.00  0.00     0.046 C 
HETATM   15  C16 UNL     1      -6.073  47.816 -24.231  1.00  0.00     0.018 C 
HETATM   16  C17 UNL     1      -5.718  48.935 -23.196  1.00  0.00    -0.002 C 
HETATM   17  C18 UNL     1      -7.046  49.750 -23.009  1.00  0.00     0.019 C 
HETATM   18  C19 UNL     1      -7.698  45.374 -21.714  1.00  0.00     0.289 A 
HETATM   19  O4  UNL     1      -8.537  44.643 -22.203  1.00  0.00    -0.260 OA
HETATM   20  O5  UNL     1      -7.202  45.285 -20.448  1.00  0.00    -0.313 OA
HETATM   21  C20 UNL     1      -6.228  46.313 -20.241  1.00  0.00     0.214 A 
HETATM   22  C21 UNL     1      -2.712  51.571 -22.651  1.00  0.00     0.194 C 
ENDROOT
BRANCH   1  23
HETATM   23  C2  UNL     1      -0.311  51.755 -23.572  1.00  0.00     0.016 C 
HETATM   24  C1  UNL     1       0.226  52.364 -22.266  1.00  0.00     0.012 C 
HETATM   25  C3  UNL     1      -0.578  52.913 -24.550  1.00  0.00     0.012 C 
ENDBRANCH   1  23
BRANCH   1  26
HETATM   26  O1  UNL     1      -1.183  49.733 -22.495  1.00  0.00    -0.385 OA
HETATM   27  H8  UNL     1      -0.417  49.278 -22.888  1.00  0.00     0.210 HD
ENDBRANCH   1  26
BRANCH  22  28
HETATM   28  O6  UNL     1      -3.101  52.784 -23.288  1.00  0.00    -0.389 OA
HETATM   29  H29 UNL     1      -3.728  53.218 -22.680  1.00  0.00     0.210 HD
ENDBRANCH  22  28
BRANCH   6  30
HETATM   30  O2  UNL     1      -5.120  50.871 -24.579  1.00  0.00    -0.385 OA
HETATM   31  H14 UNL     1      -5.103  51.755 -24.155  1.00  0.00     0.210 HD
ENDBRANCH   6  30
TORSDOF 4
ENDMDL
MODEL 8
REMARK minimizedAffinity -8.17196178
REMARK  4 active torsions:
REMARK  status: ('A' for Active; 'I' for Inactive)
REMARK    1  A    between atoms: C2_2  and  C4_4 
REMARK    2  A    between atoms: C4_4  and  O1_5 
REMARK    3  A    between atoms: C8_10  and  O2_11 
REMARK    4  A    between atoms: C21_27  and  O6_28 
ROOT
HETATM    1  C4  UNL     1      -6.789  49.060 -19.754  1.00  0.00     0.106 C 
HETATM    2  C5  UNL     1      -7.115  47.974 -20.810  1.00  0.00     0.126 C 
HETATM    3 CL1  UNL     1      -6.938  46.298 -20.172  1.00  0.00    -0.121 Cl
HETATM    4  C6  UNL     1      -6.375  48.194 -22.175  1.00  0.00     0.041 C 
HETATM    5  C7  UNL     1      -6.874  47.078 -23.129  1.00  0.00     0.015 C 
HETATM    6  C8  UNL     1      -4.803  48.335 -22.026  1.00  0.00     0.107 C 
HETATM    7  C9  UNL     1      -4.496  49.290 -20.832  1.00  0.00     0.148 A 
HETATM    8  O3  UNL     1      -3.091  49.472 -20.558  1.00  0.00    -0.363 OA
HETATM    9  C10 UNL     1      -3.791  50.623 -21.040  1.00  0.00     0.164 A 
HETATM   10  C11 UNL     1      -3.337  51.093 -22.373  1.00  0.00     0.045 C 
HETATM   11  C12 UNL     1      -4.094  50.386 -23.499  1.00  0.00     0.031 C 
HETATM   12  C13 UNL     1      -3.658  50.875 -24.856  1.00  0.00    -0.038 A 
HETATM   13  C14 UNL     1      -3.513  50.082 -25.914  1.00  0.00     0.022 A 
HETATM   14  C15 UNL     1      -3.781  48.628 -25.959  1.00  0.00     0.046 C 
HETATM   15  C16 UNL     1      -4.555  48.209 -24.692  1.00  0.00     0.018 C 
HETATM   16  C17 UNL     1      -4.000  48.813 -23.358  1.00  0.00    -0.002 C 
HETATM   17  C18 UNL     1      -2.510  48.329 -23.282  1.00  0.00     0.019 C 
HETATM   18  C19 UNL     1      -3.125  50.922 -27.044  1.00  0.00     0.289 A 
HETATM   19  O4  UNL     1      -2.907  50.534 -28.176  1.00  0.00    -0.260 OA
HETATM   20  O5  UNL     1      -3.058  52.215 -26.618  1.00  0.00    -0.313 OA
HETATM   21  C20 UNL     1      -3.387  52.277 -25.226  1.00  0.00     0.214 A 
HETATM   22  C21 UNL     1      -5.261  49.123 -19.539  1.00  0.00     0.194 C 
ENDROOT
BRANCH   1  23
HETATM   23  C2  UNL     1      -7.556  48.870 -18.391  1.00  0.00     0.016 C 
HETATM   24  C1  UNL     1      -7.108  47.631 -17.595  1.00  0.00     0.012 C 
HETATM   25  C3  UNL     1      -9.081  48.779 -18.572  1.00  0.00     0.012 C 
ENDBRANCH   1  23
BRANCH   1  26
HETATM   26  O1  UNL     1      -7.173  50.345 -20.311  1.00  0.00    -0.385 OA
HETATM   27  H8  UNL     1      -8.142  50.364 -20.400  1.00  0.00     0.210 HD
ENDBRANCH   1  26
BRANCH  22  28
HETATM   28  O6  UNL     1      -4.731  48.006 -18.833  1.00  0.00    -0.389 OA
HETATM   29  H29 UNL     1      -3.797  48.222 -18.649  1.00  0.00     0.210 HD
ENDBRANCH  22  28
BRANCH   6  30
HETATM   30  O2  UNL     1      -4.313  47.025 -21.708  1.00  0.00    -0.385 OA
HETATM   31  H14 UNL     1      -3.816  47.083 -20.864  1.00  0.00     0.210 HD
ENDBRANCH   6  30
TORSDOF 4
ENDMDL
MODEL 9
REMARK minimizedAffinity -8.15942383
REMARK  4 active torsions:
REMARK  status: ('A' for Active; 'I' for Inactive)
REMARK    1  A    between atoms: C2_2  and  C4_4 
REMARK    2  A    between atoms: C4_4  and  O1_5 
REMARK    3  A    between atoms: C8_10  and  O2_11 
REMARK    4  A    between atoms: C21_27  and  O6_28 
ROOT
HETATM    1  C4  UNL     1      -5.821  49.247 -21.110  1.00  0.00     0.106 C 
HETATM    2  C5  UNL     1      -6.185  50.245 -22.237  1.00  0.00     0.126 C 
HETATM    3 CL1  UNL     1      -7.172  49.496 -23.546  1.00  0.00    -0.121 Cl
HETATM    4  C6  UNL     1      -4.950  51.046 -22.780  1.00  0.00     0.041 C 
HETATM    5  C7  UNL     1      -5.502  52.043 -23.830  1.00  0.00     0.015 C 
HETATM    6  C8  UNL     1      -3.755  50.119 -23.255  1.00  0.00     0.107 C 
HETATM    7  C9  UNL     1      -3.530  49.004 -22.190  1.00  0.00     0.148 A 
HETATM    8  O3  UNL     1      -2.491  48.059 -22.523  1.00  0.00    -0.363 OA
HETATM    9  C10 UNL     1      -2.231  48.908 -21.401  1.00  0.00     0.164 A 
HETATM   10  C11 UNL     1      -1.097  49.845 -21.601  1.00  0.00     0.045 C 
HETATM   11  C12 UNL     1      -1.564  51.150 -22.250  1.00  0.00     0.031 C 
HETATM   12  C13 UNL     1      -0.424  52.118 -22.434  1.00  0.00    -0.038 A 
HETATM   13  C14 UNL     1      -0.282  52.896 -23.504  1.00  0.00     0.022 A 
HETATM   14  C15 UNL     1      -1.209  52.975 -24.655  1.00  0.00     0.046 C 
HETATM   15  C16 UNL     1      -2.530  52.262 -24.301  1.00  0.00     0.018 C 
HETATM   16  C17 UNL     1      -2.356  50.877 -23.592  1.00  0.00    -0.002 C 
HETATM   17  C18 UNL     1      -1.511  50.013 -24.594  1.00  0.00     0.019 C 
HETATM   18  C19 UNL     1       0.907  53.717 -23.297  1.00  0.00     0.289 A 
HETATM   19  O4  UNL     1       1.340  54.547 -24.074  1.00  0.00    -0.260 OA
HETATM   20  O5  UNL     1       1.442  53.405 -22.084  1.00  0.00    -0.313 OA
HETATM   21  C20 UNL     1       0.650  52.389 -21.460  1.00  0.00     0.214 A 
HETATM   22  C21 UNL     1      -4.726  48.281 -21.613  1.00  0.00     0.194 C 
ENDROOT
BRANCH   1  23
HETATM   23  C2  UNL     1      -7.060  48.463 -20.532  1.00  0.00     0.016 C 
HETATM   24  C1  UNL     1      -8.280  48.455 -21.468  1.00  0.00     0.012 C 
HETATM   25  C3  UNL     1      -7.524  49.004 -19.168  1.00  0.00     0.012 C 
ENDBRANCH   1  23
BRANCH   1  26
HETATM   26  O1  UNL     1      -5.223  50.006 -20.026  1.00  0.00    -0.385 OA
HETATM   27  H8  UNL     1      -5.906  50.582 -19.641  1.00  0.00     0.210 HD
ENDBRANCH   1  26
BRANCH  22  28
HETATM   28  O6  UNL     1      -5.190  47.330 -22.567  1.00  0.00    -0.389 OA
HETATM   29  H29 UNL     1      -4.452  46.706 -22.706  1.00  0.00     0.210 HD
ENDBRANCH  22  28
BRANCH   6  30
HETATM   30  O2  UNL     1      -4.187  49.507 -24.479  1.00  0.00    -0.385 OA
HETATM   31  H14 UNL     1      -4.133  48.534 -24.369  1.00  0.00     0.210 HD
ENDBRANCH   6  30
TORSDOF 4
ENDMDL
