MODEL 1
REMARK minimizedAffinity -9.11685944
REMARK  4 active torsions:
REMARK  status: ('A' for Active; 'I' for Inactive)
REMARK    1  A    between atoms: C4_4  and  C5_5 
REMARK    2  A    between atoms: C5_5  and  C6_7 
REMARK    3  A    between atoms: C6_7  and  C7_8 
REMARK    4  A    between atoms: C7_8  and  C9_10 
ROOT
HETATM    1  C9  UNL     1      -1.852  51.415 -24.958  1.00  0.00    -0.001 C 
HETATM    2  C10 UNL     1      -1.912  52.672 -24.054  1.00  0.00     0.007 C 
HETATM    3  C11 UNL     1      -3.079  52.456 -23.061  1.00  0.00     0.015 C 
HETATM    4  C12 UNL     1      -3.793  51.174 -23.542  1.00  0.00    -0.013 C 
HETATM    5  C13 UNL     1      -4.824  51.639 -24.622  1.00  0.00     0.021 C 
HETATM    6  C14 UNL     1      -4.582  50.353 -22.530  1.00  0.00    -0.070 C 
HETATM    7  C15 UNL     1      -5.169  50.905 -21.457  1.00  0.00    -0.022 C 
HETATM    8  C16 UNL     1      -6.005  50.167 -20.460  1.00  0.00     0.034 C 
HETATM    9  C17 UNL     1      -6.256  48.660 -20.718  1.00  0.00     0.013 C 
HETATM   10  C18 UNL     1      -5.613  47.705 -19.647  1.00  0.00     0.018 C 
HETATM   11  C19 UNL     1      -6.168  48.029 -18.240  1.00  0.00     0.023 C 
HETATM   12  C20 UNL     1      -4.079  47.761 -19.596  1.00  0.00     0.023 C 
HETATM   13  C21 UNL     1      -6.019  46.250 -19.946  1.00  0.00     0.135 C 
HETATM   14  O2  UNL     1      -5.783  45.330 -19.160  1.00  0.00    -0.297 OA
HETATM   15  C22 UNL     1      -6.730  45.974 -21.248  1.00  0.00     0.080 C 
HETATM   16  C23 UNL     1      -5.980  46.689 -22.359  1.00  0.00     0.017 C 
HETATM   17  C24 UNL     1      -6.030  48.239 -22.227  1.00  0.00    -0.031 C 
HETATM   18  C25 UNL     1      -7.253  48.744 -23.045  1.00  0.00     0.016 C 
HETATM   19  C26 UNL     1      -4.698  48.857 -22.796  1.00  0.00     0.024 C 
HETATM   20  C27 UNL     1      -4.374  48.470 -24.264  1.00  0.00     0.010 C 
HETATM   21  C28 UNL     1      -3.100  49.112 -24.866  1.00  0.00     0.011 C 
HETATM   22  C29 UNL     1      -2.584  50.341 -24.089  1.00  0.00    -0.029 C 
HETATM   23  C30 UNL     1      -1.609  49.845 -22.974  1.00  0.00     0.016 C 
ENDROOT
BRANCH   1  24
HETATM   24  C7  UNL     1      -0.480  51.019 -25.577  1.00  0.00    -0.007 C 
HETATM   25  C8  UNL     1      -0.501  51.217 -27.103  1.00  0.00     0.011 C 
BRANCH  24  26
HETATM   26  C6  UNL     1       0.793  51.622 -24.947  1.00  0.00     0.087 C 
BRANCH  26  27
HETATM   27  C5  UNL     1       0.644  52.866 -24.072  1.00  0.00     0.149 C 
HETATM   28  O1  UNL     1       0.601  54.004 -24.524  1.00  0.00    -0.293 OA
BRANCH  27  29
HETATM   29  C4  UNL     1       0.551  52.600 -22.598  1.00  0.00     0.052 C 
HETATM   30  C2  UNL     1       1.063  53.338 -21.595  1.00  0.00    -0.084 C 
HETATM   31  C1  UNL     1       1.886  54.589 -21.743  1.00  0.00     0.043 C 
HETATM   32  C3  UNL     1       0.834  52.927 -20.160  1.00  0.00     0.043 C 
ENDBRANCH  27  29
ENDBRANCH  26  27
ENDBRANCH  24  26
ENDBRANCH   1  24
TORSDOF 4
ENDMDL
MODEL 2
REMARK minimizedAffinity -9.0958128
REMARK  4 active torsions:
REMARK  status: ('A' for Active; 'I' for Inactive)
REMARK    1  A    between atoms: C4_4  and  C5_5 
REMARK    2  A    between atoms: C5_5  and  C6_7 
REMARK    3  A    between atoms: C6_7  and  C7_8 
REMARK    4  A    between atoms: C7_8  and  C9_10 
ROOT
HETATM    1  C9  UNL     1      -3.000  51.879 -25.622  1.00  0.00    -0.001 C 
HETATM    2  C10 UNL     1      -2.426  52.913 -24.622  1.00  0.00     0.007 C 
HETATM    3  C11 UNL     1      -2.883  52.475 -23.210  1.00  0.00     0.015 C 
HETATM    4  C12 UNL     1      -3.876  51.315 -23.444  1.00  0.00    -0.013 C 
HETATM    5  C13 UNL     1      -5.270  51.985 -23.665  1.00  0.00     0.021 C 
HETATM    6  C14 UNL     1      -4.071  50.286 -22.338  1.00  0.00    -0.070 C 
HETATM    7  C15 UNL     1      -3.920  50.588 -21.038  1.00  0.00    -0.022 C 
HETATM    8  C16 UNL     1      -4.154  49.644 -19.904  1.00  0.00     0.034 C 
HETATM    9  C17 UNL     1      -4.664  48.222 -20.254  1.00  0.00     0.013 C 
HETATM   10  C18 UNL     1      -3.649  47.070 -19.916  1.00  0.00     0.018 C 
HETATM   11  C19 UNL     1      -3.314  47.079 -18.405  1.00  0.00     0.023 C 
HETATM   12  C20 UNL     1      -2.337  47.135 -20.711  1.00  0.00     0.023 C 
HETATM   13  C21 UNL     1      -4.305  45.707 -20.203  1.00  0.00     0.135 C 
HETATM   14  O2  UNL     1      -3.780  44.644 -19.865  1.00  0.00    -0.297 OA
HETATM   15  C22 UNL     1      -5.633  45.705 -20.920  1.00  0.00     0.080 C 
HETATM   16  C23 UNL     1      -5.534  46.651 -22.104  1.00  0.00     0.017 C 
HETATM   17  C24 UNL     1      -5.339  48.137 -21.682  1.00  0.00    -0.031 C 
HETATM   18  C25 UNL     1      -6.748  48.787 -21.578  1.00  0.00     0.016 C 
HETATM   19  C26 UNL     1      -4.472  48.880 -22.766  1.00  0.00     0.024 C 
HETATM   20  C27 UNL     1      -5.039  48.819 -24.210  1.00  0.00     0.010 C 
HETATM   21  C28 UNL     1      -4.236  49.592 -25.284  1.00  0.00     0.011 C 
HETATM   22  C29 UNL     1      -3.253  50.634 -24.711  1.00  0.00    -0.029 C 
HETATM   23  C30 UNL     1      -1.889  49.925 -24.435  1.00  0.00     0.016 C 
ENDROOT
BRANCH   1  24
HETATM   24  C7  UNL     1      -2.234  51.643 -26.957  1.00  0.00    -0.007 C 
HETATM   25  C8  UNL     1      -3.009  50.663 -27.855  1.00  0.00     0.011 C 
BRANCH  24  26
HETATM   26  C6  UNL     1      -1.768  52.885 -27.747  1.00  0.00     0.087 C 
BRANCH  26  27
HETATM   27  C5  UNL     1      -0.415  53.498 -27.391  1.00  0.00     0.149 C 
HETATM   28  O1  UNL     1      -0.254  54.696 -27.187  1.00  0.00    -0.293 OA
BRANCH  27  29
HETATM   29  C4  UNL     1       0.723  52.524 -27.306  1.00  0.00     0.052 C 
HETATM   30  C2  UNL     1       1.311  52.042 -26.194  1.00  0.00    -0.084 C 
HETATM   31  C1  UNL     1       0.972  52.414 -24.777  1.00  0.00     0.043 C 
HETATM   32  C3  UNL     1       2.428  51.032 -26.308  1.00  0.00     0.043 C 
ENDBRANCH  27  29
ENDBRANCH  26  27
ENDBRANCH  24  26
ENDBRANCH   1  24
TORSDOF 4
ENDMDL
MODEL 3
REMARK minimizedAffinity -9.07904911
REMARK  4 active torsions:
REMARK  status: ('A' for Active; 'I' for Inactive)
REMARK    1  A    between atoms: C4_4  and  C5_5 
REMARK    2  A    between atoms: C5_5  and  C6_7 
REMARK    3  A    between atoms: C6_7  and  C7_8 
REMARK    4  A    between atoms: C7_8  and  C9_10 
ROOT
HETATM    1  C9  UNL     1      -1.515  50.103 -18.885  1.00  0.00    -0.001 C 
HETATM    2  C10 UNL     1      -2.186  48.728 -18.644  1.00  0.00     0.007 C 
HETATM    3  C11 UNL     1      -3.135  48.476 -19.840  1.00  0.00     0.015 C 
HETATM    4  C12 UNL     1      -3.142  49.797 -20.642  1.00  0.00    -0.013 C 
HETATM    5  C13 UNL     1      -4.243  50.689 -19.983  1.00  0.00     0.021 C 
HETATM    6  C14 UNL     1      -3.470  49.748 -22.129  1.00  0.00    -0.070 C 
HETATM    7  C15 UNL     1      -4.276  48.813 -22.658  1.00  0.00    -0.022 C 
HETATM    8  C16 UNL     1      -4.685  48.745 -24.094  1.00  0.00     0.034 C 
HETATM    9  C17 UNL     1      -4.183  49.872 -25.032  1.00  0.00     0.013 C 
HETATM   10  C18 UNL     1      -3.190  49.388 -26.151  1.00  0.00     0.018 C 
HETATM   11  C19 UNL     1      -3.867  48.317 -27.040  1.00  0.00     0.023 C 
HETATM   12  C20 UNL     1      -1.869  48.817 -25.614  1.00  0.00     0.023 C 
HETATM   13  C21 UNL     1      -2.849  50.567 -27.081  1.00  0.00     0.135 C 
HETATM   14  O2  UNL     1      -2.224  50.411 -28.132  1.00  0.00    -0.297 OA
HETATM   15  C22 UNL     1      -3.311  51.942 -26.666  1.00  0.00     0.080 C 
HETATM   16  C23 UNL     1      -2.964  52.138 -25.200  1.00  0.00     0.017 C 
HETATM   17  C24 UNL     1      -3.748  51.180 -24.256  1.00  0.00    -0.031 C 
HETATM   18  C25 UNL     1      -5.043  51.915 -23.807  1.00  0.00     0.016 C 
HETATM   19  C26 UNL     1      -2.856  50.830 -23.006  1.00  0.00     0.024 C 
HETATM   20  C27 UNL     1      -2.351  52.057 -22.201  1.00  0.00     0.010 C 
HETATM   21  C28 UNL     1      -1.521  51.737 -20.934  1.00  0.00     0.011 C 
HETATM   22  C29 UNL     1      -1.669  50.287 -20.430  1.00  0.00    -0.029 C 
HETATM   23  C30 UNL     1      -0.604  49.403 -21.153  1.00  0.00     0.016 C 
ENDROOT
BRANCH   1  24
HETATM   24  C7  UNL     1      -0.104  50.349 -18.274  1.00  0.00    -0.007 C 
HETATM   25  C8  UNL     1       0.295  51.828 -18.421  1.00  0.00     0.011 C 
BRANCH  24  26
HETATM   26  C6  UNL     1       0.159  49.833 -16.843  1.00  0.00     0.087 C 
BRANCH  26  27
HETATM   27  C5  UNL     1       0.639  50.834 -15.794  1.00  0.00     0.149 C 
HETATM   28  O1  UNL     1       0.075  51.002 -14.719  1.00  0.00    -0.293 OA
BRANCH  27  29
HETATM   29  C4  UNL     1       1.867  51.610 -16.169  1.00  0.00     0.052 C 
HETATM   30  C2  UNL     1       3.024  51.699 -15.487  1.00  0.00    -0.084 C 
HETATM   31  C1  UNL     1       3.326  51.059 -14.160  1.00  0.00     0.043 C 
HETATM   32  C3  UNL     1       4.171  52.508 -16.046  1.00  0.00     0.043 C 
ENDBRANCH  27  29
ENDBRANCH  26  27
ENDBRANCH  24  26
ENDBRANCH   1  24
TORSDOF 4
ENDMDL
MODEL 4
REMARK minimizedAffinity -9.00149441
REMARK  4 active torsions:
REMARK  status: ('A' for Active; 'I' for Inactive)
REMARK    1  A    between atoms: C4_4  and  C5_5 
REMARK    2  A    between atoms: C5_5  and  C6_7 
REMARK    3  A    between atoms: C6_7  and  C7_8 
REMARK    4  A    between atoms: C7_8  and  C9_10 
ROOT
HETATM    1  C9  UNL     1      -3.584  50.356 -25.260  1.00  0.00    -0.001 C 
HETATM    2  C10 UNL     1      -3.892  51.863 -25.083  1.00  0.00     0.007 C 
HETATM    3  C11 UNL     1      -4.071  52.110 -23.566  1.00  0.00     0.015 C 
HETATM    4  C12 UNL     1      -4.063  50.707 -22.920  1.00  0.00    -0.013 C 
HETATM    5  C13 UNL     1      -5.538  50.195 -22.991  1.00  0.00     0.021 C 
HETATM    6  C14 UNL     1      -3.639  50.575 -21.463  1.00  0.00    -0.070 C 
HETATM    7  C15 UNL     1      -3.822  51.559 -20.568  1.00  0.00    -0.022 C 
HETATM    8  C16 UNL     1      -3.484  51.473 -19.114  1.00  0.00     0.034 C 
HETATM    9  C17 UNL     1      -2.931  50.123 -18.591  1.00  0.00     0.013 C 
HETATM   10  C18 UNL     1      -1.444  50.187 -18.084  1.00  0.00     0.018 C 
HETATM   11  C19 UNL     1      -1.315  51.214 -16.933  1.00  0.00     0.023 C 
HETATM   12  C20 UNL     1      -0.423  50.542 -19.175  1.00  0.00     0.023 C 
HETATM   13  C21 UNL     1      -1.044  48.824 -17.491  1.00  0.00     0.135 C 
HETATM   14  O2  UNL     1       0.013  48.663 -16.876  1.00  0.00    -0.297 OA
HETATM   15  C22 UNL     1      -1.996  47.670 -17.683  1.00  0.00     0.080 C 
HETATM   16  C23 UNL     1      -2.435  47.652 -19.137  1.00  0.00     0.017 C 
HETATM   17  C24 UNL     1      -3.275  48.901 -19.534  1.00  0.00    -0.031 C 
HETATM   18  C25 UNL     1      -4.775  48.548 -19.321  1.00  0.00     0.016 C 
HETATM   19  C26 UNL     1      -3.006  49.254 -21.045  1.00  0.00     0.024 C 
HETATM   20  C27 UNL     1      -3.283  48.100 -22.045  1.00  0.00     0.010 C 
HETATM   21  C28 UNL     1      -3.082  48.441 -23.542  1.00  0.00     0.011 C 
HETATM   22  C29 UNL     1      -3.049  49.953 -23.848  1.00  0.00    -0.029 C 
HETATM   23  C30 UNL     1      -1.577  50.453 -23.703  1.00  0.00     0.016 C 
ENDROOT
BRANCH   1  24
HETATM   24  C7  UNL     1      -2.742  49.917 -26.494  1.00  0.00    -0.007 C 
HETATM   25  C8  UNL     1      -3.177  48.521 -26.973  1.00  0.00     0.011 C 
BRANCH  24  26
HETATM   26  C6  UNL     1      -2.625  50.907 -27.672  1.00  0.00     0.087 C 
BRANCH  26  27
HETATM   27  C5  UNL     1      -1.601  52.036 -27.566  1.00  0.00     0.149 C 
HETATM   28  O1  UNL     1      -1.904  53.223 -27.605  1.00  0.00    -0.293 OA
BRANCH  27  29
HETATM   29  C4  UNL     1      -0.178  51.591 -27.408  1.00  0.00     0.052 C 
HETATM   30  C2  UNL     1       0.697  51.956 -26.452  1.00  0.00    -0.084 C 
HETATM   31  C1  UNL     1       0.440  52.937 -25.340  1.00  0.00     0.043 C 
HETATM   32  C3  UNL     1       2.089  51.370 -26.436  1.00  0.00     0.043 C 
ENDBRANCH  27  29
ENDBRANCH  26  27
ENDBRANCH  24  26
ENDBRANCH   1  24
TORSDOF 4
ENDMDL
MODEL 5
REMARK minimizedAffinity -8.9781208
REMARK  4 active torsions:
REMARK  status: ('A' for Active; 'I' for Inactive)
REMARK    1  A    between atoms: C4_4  and  C5_5 
REMARK    2  A    between atoms: C5_5  and  C6_7 
REMARK    3  A    between atoms: C6_7  and  C7_8 
REMARK    4  A    between atoms: C7_8  and  C9_10 
ROOT
HETATM    1  C9  UNL     1      -2.021  51.617 -23.319  1.00  0.00    -0.001 C 
HETATM    2  C10 UNL     1      -3.008  52.772 -23.622  1.00  0.00     0.007 C 
HETATM    3  C11 UNL     1      -4.434  52.177 -23.538  1.00  0.00     0.015 C 
HETATM    4  C12 UNL     1      -4.233  50.653 -23.388  1.00  0.00    -0.013 C 
HETATM    5  C13 UNL     1      -4.108  50.094 -24.842  1.00  0.00     0.021 C 
HETATM    6  C14 UNL     1      -5.326  49.834 -22.713  1.00  0.00    -0.070 C 
HETATM    7  C15 UNL     1      -6.621  50.187 -22.756  1.00  0.00    -0.022 C 
HETATM    8  C16 UNL     1      -7.746  49.399 -22.167  1.00  0.00     0.034 C 
HETATM    9  C17 UNL     1      -7.396  48.043 -21.503  1.00  0.00     0.013 C 
HETATM   10  C18 UNL     1      -7.649  47.998 -19.952  1.00  0.00     0.018 C 
HETATM   11  C19 UNL     1      -9.137  48.289 -19.645  1.00  0.00     0.023 C 
HETATM   12  C20 UNL     1      -6.781  48.975 -19.145  1.00  0.00     0.023 C 
HETATM   13  C21 UNL     1      -7.370  46.578 -19.427  1.00  0.00     0.135 C 
HETATM   14  O2  UNL     1      -7.654  46.239 -18.276  1.00  0.00    -0.297 OA
HETATM   15  C22 UNL     1      -6.732  45.593 -20.375  1.00  0.00     0.080 C 
HETATM   16  C23 UNL     1      -5.565  46.282 -21.060  1.00  0.00     0.017 C 
HETATM   17  C24 UNL     1      -6.007  47.455 -21.982  1.00  0.00    -0.031 C 
HETATM   18  C25 UNL     1      -6.207  46.882 -23.414  1.00  0.00     0.016 C 
HETATM   19  C26 UNL     1      -4.891  48.566 -21.989  1.00  0.00     0.024 C 
HETATM   20  C27 UNL     1      -3.482  48.073 -22.414  1.00  0.00     0.010 C 
HETATM   21  C28 UNL     1      -2.380  49.158 -22.485  1.00  0.00     0.011 C 
HETATM   22  C29 UNL     1      -2.918  50.603 -22.537  1.00  0.00    -0.029 C 
HETATM   23  C30 UNL     1      -3.099  51.115 -21.073  1.00  0.00     0.016 C 
ENDROOT
BRANCH   1  24
HETATM   24  C7  UNL     1      -0.639  51.975 -22.698  1.00  0.00    -0.007 C 
HETATM   25  C8  UNL     1      -0.363  51.100 -21.462  1.00  0.00     0.011 C 
BRANCH  24  26
HETATM   26  C6  UNL     1       0.582  52.023 -23.641  1.00  0.00     0.087 C 
BRANCH  26  27
HETATM   27  C5  UNL     1       0.676  53.175 -24.639  1.00  0.00     0.149 C 
HETATM   28  O1  UNL     1       0.972  54.320 -24.316  1.00  0.00    -0.293 OA
BRANCH  27  29
HETATM   29  C4  UNL     1       0.378  52.810 -26.063  1.00  0.00     0.052 C 
HETATM   30  C2  UNL     1       1.142  52.087 -26.904  1.00  0.00    -0.084 C 
HETATM   31  C1  UNL     1       2.500  51.513 -26.601  1.00  0.00     0.043 C 
HETATM   32  C3  UNL     1       0.655  51.790 -28.302  1.00  0.00     0.043 C 
ENDBRANCH  27  29
ENDBRANCH  26  27
ENDBRANCH  24  26
ENDBRANCH   1  24
TORSDOF 4
ENDMDL
MODEL 6
REMARK minimizedAffinity -8.86692142
REMARK  4 active torsions:
REMARK  status: ('A' for Active; 'I' for Inactive)
REMARK    1  A    between atoms: C4_4  and  C5_5 
REMARK    2  A    between atoms: C5_5  and  C6_7 
REMARK    3  A    between atoms: C6_7  and  C7_8 
REMARK    4  A    between atoms: C7_8  and  C9_10 
ROOT
HETATM    1  C9  UNL     1      -1.147  50.628 -22.626  1.00  0.00    -0.001 C 
HETATM    2  C10 UNL     1      -1.571  50.162 -24.041  1.00  0.00     0.007 C 
HETATM    3  C11 UNL     1      -2.716  49.138 -23.852  1.00  0.00     0.015 C 
HETATM    4  C12 UNL     1      -2.791  48.884 -22.330  1.00  0.00    -0.013 C 
HETATM    5  C13 UNL     1      -1.755  47.751 -22.035  1.00  0.00     0.021 C 
HETATM    6  C14 UNL     1      -4.111  48.418 -21.731  1.00  0.00    -0.070 C 
HETATM    7  C15 UNL     1      -4.999  47.688 -22.425  1.00  0.00    -0.022 C 
HETATM    8  C16 UNL     1      -6.282  47.149 -21.879  1.00  0.00     0.034 C 
HETATM    9  C17 UNL     1      -6.584  47.409 -20.381  1.00  0.00     0.013 C 
HETATM   10  C18 UNL     1      -7.826  48.338 -20.123  1.00  0.00     0.018 C 
HETATM   11  C19 UNL     1      -9.097  47.716 -20.747  1.00  0.00     0.023 C 
HETATM   12  C20 UNL     1      -7.663  49.768 -20.661  1.00  0.00     0.023 C 
HETATM   13  C21 UNL     1      -8.090  48.434 -18.609  1.00  0.00     0.135 C 
HETATM   14  O2  UNL     1      -9.106  48.966 -18.155  1.00  0.00    -0.297 OA
HETATM   15  C22 UNL     1      -7.058  47.846 -17.679  1.00  0.00     0.080 C 
HETATM   16  C23 UNL     1      -5.686  48.310 -18.137  1.00  0.00     0.017 C 
HETATM   17  C24 UNL     1      -5.291  47.752 -19.536  1.00  0.00    -0.031 C 
HETATM   18  C25 UNL     1      -4.510  46.426 -19.311  1.00  0.00     0.016 C 
HETATM   19  C26 UNL     1      -4.384  48.801 -20.282  1.00  0.00     0.024 C 
HETATM   20  C27 UNL     1      -3.107  49.225 -19.510  1.00  0.00     0.010 C 
HETATM   21  C28 UNL     1      -2.169  50.212 -20.249  1.00  0.00     0.011 C 
HETATM   22  C29 UNL     1      -2.412  50.298 -21.770  1.00  0.00    -0.029 C 
HETATM   23  C30 UNL     1      -3.499  51.389 -22.033  1.00  0.00     0.016 C 
ENDROOT
BRANCH   1  24
HETATM   24  C7  UNL     1      -0.532  52.050 -22.474  1.00  0.00    -0.007 C 
HETATM   25  C8  UNL     1      -0.371  52.410 -20.986  1.00  0.00     0.011 C 
BRANCH  24  26
HETATM   26  C6  UNL     1       0.748  52.368 -23.274  1.00  0.00     0.087 C 
BRANCH  26  27
HETATM   27  C5  UNL     1       0.653  53.382 -24.413  1.00  0.00     0.149 C 
HETATM   28  O1  UNL     1       0.938  54.567 -24.283  1.00  0.00    -0.293 OA
BRANCH  27  29
HETATM   29  C4  UNL     1       0.180  52.825 -25.723  1.00  0.00     0.052 C 
HETATM   30  C2  UNL     1       0.858  52.028 -26.571  1.00  0.00    -0.084 C 
HETATM   31  C1  UNL     1       2.274  51.549 -26.400  1.00  0.00     0.043 C 
HETATM   32  C3  UNL     1       0.197  51.534 -27.836  1.00  0.00     0.043 C 
ENDBRANCH  27  29
ENDBRANCH  26  27
ENDBRANCH  24  26
ENDBRANCH   1  24
TORSDOF 4
ENDMDL
MODEL 7
REMARK minimizedAffinity -8.79793358
REMARK  4 active torsions:
REMARK  status: ('A' for Active; 'I' for Inactive)
REMARK    1  A    between atoms: C4_4  and  C5_5 
REMARK    2  A    between atoms: C5_5  and  C6_7 
REMARK    3  A    between atoms: C6_7  and  C7_8 
REMARK    4  A    between atoms: C7_8  and  C9_10 
ROOT
HETATM    1  C9  UNL     1      -2.334  51.237 -23.912  1.00  0.00    -0.001 C 
HETATM    2  C10 UNL     1      -2.420  52.029 -22.584  1.00  0.00     0.007 C 
HETATM    3  C11 UNL     1      -3.766  51.650 -21.921  1.00  0.00     0.015 C 
HETATM    4  C12 UNL     1      -4.516  50.805 -22.973  1.00  0.00    -0.013 C 
HETATM    5  C13 UNL     1      -5.274  51.827 -23.881  1.00  0.00     0.021 C 
HETATM    6  C14 UNL     1      -5.562  49.805 -22.497  1.00  0.00    -0.070 C 
HETATM    7  C15 UNL     1      -6.273  49.986 -21.372  1.00  0.00    -0.022 C 
HETATM    8  C16 UNL     1      -7.352  49.076 -20.882  1.00  0.00     0.034 C 
HETATM    9  C17 UNL     1      -7.716  47.859 -21.770  1.00  0.00     0.013 C 
HETATM   10  C18 UNL     1      -7.389  46.465 -21.120  1.00  0.00     0.018 C 
HETATM   11  C19 UNL     1      -8.153  46.304 -19.785  1.00  0.00     0.023 C 
HETATM   12  C20 UNL     1      -5.893  46.227 -20.862  1.00  0.00     0.023 C 
HETATM   13  C21 UNL     1      -7.891  45.338 -22.043  1.00  0.00     0.135 C 
HETATM   14  O2  UNL     1      -7.905  44.158 -21.685  1.00  0.00    -0.297 OA
HETATM   15  C22 UNL     1      -8.376  45.723 -23.418  1.00  0.00     0.080 C 
HETATM   16  C23 UNL     1      -7.362  46.672 -24.032  1.00  0.00     0.017 C 
HETATM   17  C24 UNL     1      -7.265  48.030 -23.276  1.00  0.00    -0.031 C 
HETATM   18  C25 UNL     1      -8.254  49.020 -23.955  1.00  0.00     0.016 C 
HETATM   19  C26 UNL     1      -5.791  48.578 -23.371  1.00  0.00     0.024 C 
HETATM   20  C27 UNL     1      -5.248  48.745 -24.815  1.00  0.00     0.010 C 
HETATM   21  C28 UNL     1      -3.823  49.338 -24.936  1.00  0.00     0.011 C 
HETATM   22  C29 UNL     1      -3.326  50.054 -23.663  1.00  0.00    -0.029 C 
HETATM   23  C30 UNL     1      -2.633  48.999 -22.743  1.00  0.00     0.016 C 
ENDROOT
BRANCH   1  24
HETATM   24  C7  UNL     1      -0.923  50.881 -24.466  1.00  0.00    -0.007 C 
HETATM   25  C8  UNL     1      -1.004  50.544 -25.965  1.00  0.00     0.011 C 
BRANCH  24  26
HETATM   26  C6  UNL     1       0.233  51.859 -24.168  1.00  0.00     0.087 C 
BRANCH  26  27
HETATM   27  C5  UNL     1       0.403  53.072 -25.080  1.00  0.00     0.149 C 
HETATM   28  O1  UNL     1       0.537  54.215 -24.660  1.00  0.00    -0.293 OA
BRANCH  27  29
HETATM   29  C4  UNL     1       0.395  52.769 -26.550  1.00  0.00     0.052 C 
HETATM   30  C2  UNL     1       1.339  52.124 -27.262  1.00  0.00    -0.084 C 
HETATM   31  C1  UNL     1       2.643  51.593 -26.733  1.00  0.00     0.043 C 
HETATM   32  C3  UNL     1       1.136  51.879 -28.738  1.00  0.00     0.043 C 
ENDBRANCH  27  29
ENDBRANCH  26  27
ENDBRANCH  24  26
ENDBRANCH   1  24
TORSDOF 4
ENDMDL
MODEL 8
REMARK minimizedAffinity -8.65850449
REMARK  4 active torsions:
REMARK  status: ('A' for Active; 'I' for Inactive)
REMARK    1  A    between atoms: C4_4  and  C5_5 
REMARK    2  A    between atoms: C5_5  and  C6_7 
REMARK    3  A    between atoms: C6_7  and  C7_8 
REMARK    4  A    between atoms: C7_8  and  C9_10 
ROOT
HETATM    1  C9  UNL     1      -0.756  51.176 -21.023  1.00  0.00    -0.001 C 
HETATM    2  C10 UNL     1       0.120  49.907 -21.167  1.00  0.00     0.007 C 
HETATM    3  C11 UNL     1      -0.799  48.693 -20.890  1.00  0.00     0.015 C 
HETATM    4  C12 UNL     1      -2.134  49.295 -20.396  1.00  0.00    -0.013 C 
HETATM    5  C13 UNL     1      -1.967  49.495 -18.855  1.00  0.00     0.021 C 
HETATM    6  C14 UNL     1      -3.413  48.489 -20.583  1.00  0.00    -0.070 C 
HETATM    7  C15 UNL     1      -3.422  47.147 -20.600  1.00  0.00    -0.022 C 
HETATM    8  C16 UNL     1      -4.646  46.297 -20.719  1.00  0.00     0.034 C 
HETATM    9  C17 UNL     1      -6.014  47.023 -20.771  1.00  0.00     0.013 C 
HETATM   10  C18 UNL     1      -6.779  46.864 -22.137  1.00  0.00     0.018 C 
HETATM   11  C19 UNL     1      -7.041  45.367 -22.430  1.00  0.00     0.023 C 
HETATM   12  C20 UNL     1      -6.051  47.481 -23.340  1.00  0.00     0.023 C 
HETATM   13  C21 UNL     1      -8.162  47.531 -22.032  1.00  0.00     0.135 C 
HETATM   14  O2  UNL     1      -9.019  47.400 -22.908  1.00  0.00    -0.297 OA
HETATM   15  C22 UNL     1      -8.449  48.361 -20.805  1.00  0.00     0.080 C 
HETATM   16  C23 UNL     1      -7.259  49.272 -20.559  1.00  0.00     0.017 C 
HETATM   17  C24 UNL     1      -5.962  48.494 -20.190  1.00  0.00    -0.031 C 
HETATM   18  C25 UNL     1      -5.902  48.385 -18.639  1.00  0.00     0.016 C 
HETATM   19  C26 UNL     1      -4.708  49.276 -20.732  1.00  0.00     0.024 C 
HETATM   20  C27 UNL     1      -4.592  50.744 -20.241  1.00  0.00     0.010 C 
HETATM   21  C28 UNL     1      -3.336  51.516 -20.714  1.00  0.00     0.011 C 
HETATM   22  C29 UNL     1      -2.199  50.615 -21.238  1.00  0.00    -0.029 C 
HETATM   23  C30 UNL     1      -2.425  50.375 -22.765  1.00  0.00     0.016 C 
ENDROOT
BRANCH   1  24
HETATM   24  C7  UNL     1      -0.354  52.442 -21.835  1.00  0.00    -0.007 C 
HETATM   25  C8  UNL     1       1.044  52.930 -21.413  1.00  0.00     0.011 C 
BRANCH  24  26
HETATM   26  C6  UNL     1      -0.492  52.385 -23.371  1.00  0.00     0.087 C 
BRANCH  26  27
HETATM   27  C5  UNL     1       0.563  53.097 -24.216  1.00  0.00     0.149 C 
HETATM   28  O1  UNL     1       0.942  54.241 -23.992  1.00  0.00    -0.293 OA
BRANCH  27  29
HETATM   29  C4  UNL     1       1.114  52.293 -25.357  1.00  0.00     0.052 C 
HETATM   30  C2  UNL     1       0.871  52.458 -26.671  1.00  0.00    -0.084 C 
HETATM   31  C1  UNL     1      -0.051  53.476 -27.285  1.00  0.00     0.043 C 
HETATM   32  C3  UNL     1       1.552  51.566 -27.682  1.00  0.00     0.043 C 
ENDBRANCH  27  29
ENDBRANCH  26  27
ENDBRANCH  24  26
ENDBRANCH   1  24
TORSDOF 4
ENDMDL
MODEL 9
REMARK minimizedAffinity -8.61819744
REMARK  4 active torsions:
REMARK  status: ('A' for Active; 'I' for Inactive)
REMARK    1  A    between atoms: C4_4  and  C5_5 
REMARK    2  A    between atoms: C5_5  and  C6_7 
REMARK    3  A    between atoms: C6_7  and  C7_8 
REMARK    4  A    between atoms: C7_8  and  C9_10 
ROOT
HETATM    1  C9  UNL     1      -2.135  49.769 -17.613  1.00  0.00    -0.001 C 
HETATM    2  C10 UNL     1      -1.366  48.444 -17.843  1.00  0.00     0.007 C 
HETATM    3  C11 UNL     1      -1.599  48.040 -19.318  1.00  0.00     0.015 C 
HETATM    4  C12 UNL     1      -2.657  49.031 -19.852  1.00  0.00    -0.013 C 
HETATM    5  C13 UNL     1      -4.044  48.412 -19.485  1.00  0.00     0.021 C 
HETATM    6  C14 UNL     1      -2.703  49.317 -21.347  1.00  0.00    -0.070 C 
HETATM    7  C15 UNL     1      -2.328  48.412 -22.265  1.00  0.00    -0.022 C 
HETATM    8  C16 UNL     1      -2.404  48.607 -23.745  1.00  0.00     0.034 C 
HETATM    9  C17 UNL     1      -3.015  49.935 -24.258  1.00  0.00     0.013 C 
HETATM   10  C18 UNL     1      -1.999  50.861 -25.022  1.00  0.00     0.018 C 
HETATM   11  C19 UNL     1      -1.418  50.119 -26.249  1.00  0.00     0.023 C 
HETATM   12  C20 UNL     1      -0.835  51.366 -24.157  1.00  0.00     0.023 C 
HETATM   13  C21 UNL     1      -2.741  52.092 -25.575  1.00  0.00     0.135 C 
HETATM   14  O2  UNL     1      -2.205  52.884 -26.353  1.00  0.00    -0.297 OA
HETATM   15  C22 UNL     1      -4.169  52.305 -25.135  1.00  0.00     0.080 C 
HETATM   16  C23 UNL     1      -4.235  52.119 -23.629  1.00  0.00     0.017 C 
HETATM   17  C24 UNL     1      -3.919  50.662 -23.182  1.00  0.00    -0.031 C 
HETATM   18  C25 UNL     1      -5.267  49.890 -23.102  1.00  0.00     0.016 C 
HETATM   19  C26 UNL     1      -3.218  50.686 -21.772  1.00  0.00     0.024 C 
HETATM   20  C27 UNL     1      -4.019  51.411 -20.658  1.00  0.00     0.010 C 
HETATM   21  C28 UNL     1      -3.377  51.397 -19.249  1.00  0.00     0.011 C 
HETATM   22  C29 UNL     1      -2.277  50.332 -19.064  1.00  0.00    -0.029 C 
HETATM   23  C30 UNL     1      -0.912  50.952 -19.501  1.00  0.00     0.016 C 
ENDROOT
BRANCH   1  24
HETATM   24  C7  UNL     1      -1.610  50.743 -16.518  1.00  0.00    -0.007 C 
HETATM   25  C8  UNL     1      -2.680  50.959 -15.433  1.00  0.00     0.011 C 
BRANCH  24  26
HETATM   26  C6  UNL     1      -0.228  50.448 -15.897  1.00  0.00     0.087 C 
BRANCH  26  27
HETATM   27  C5  UNL     1       0.485  51.578 -15.157  1.00  0.00     0.149 C 
HETATM   28  O1  UNL     1       0.090  52.037 -14.091  1.00  0.00    -0.293 OA
BRANCH  27  29
HETATM   29  C4  UNL     1       1.721  52.098 -15.828  1.00  0.00     0.052 C 
HETATM   30  C2  UNL     1       3.003  51.877 -15.478  1.00  0.00    -0.084 C 
HETATM   31  C1  UNL     1       3.476  51.079 -14.294  1.00  0.00     0.043 C 
HETATM   32  C3  UNL     1       4.124  52.462 -16.305  1.00  0.00     0.043 C 
ENDBRANCH  27  29
ENDBRANCH  26  27
ENDBRANCH  24  26
ENDBRANCH   1  24
TORSDOF 4
ENDMDL
