MODEL 1
REMARK minimizedAffinity -7.70276213
REMARK CNNscore 0.292920411
REMARK CNNaffinity 5.34942627
REMARK  2 active torsions:
REMARK  status: ('A' for Active; 'I' for Inactive)
REMARK    1  A    between atoms: C13_16  and  C14_17 
REMARK    2  A    between atoms: C14_17  and  O4_19 
ROOT
HETATM    1  C1  UNL     1       3.055   9.599  23.870  1.00  0.00     0.046 C 
HETATM    2  C2  UNL     1       2.880  10.504  22.685  1.00  0.00    -0.054 C 
HETATM    3  C3  UNL     1       3.304  11.779  22.702  1.00  0.00     0.011 C 
HETATM    4  C4  UNL     1       3.165  12.694  21.514  1.00  0.00     0.159 C 
HETATM    5  O1  UNL     1       1.977  13.460  21.789  1.00  0.00    -0.372 OA
HETATM    6  C5  UNL     1       1.475  14.225  20.694  1.00  0.00     0.162 C 
HETATM    7  C6  UNL     1       0.426  13.356  19.942  1.00  0.00     0.068 C 
HETATM    8  C7  UNL     1       1.120  13.033  18.604  1.00  0.00     0.147 C 
HETATM    9  O2  UNL     1       0.754  11.814  17.957  1.00  0.00    -0.312 OA
HETATM   10  C8  UNL     1       0.717  11.866  16.597  1.00  0.00     0.283 C 
HETATM   11  O3  UNL     1       0.530  12.867  15.923  1.00  0.00    -0.260 OA
HETATM   12  C9  UNL     1       1.051  10.534  16.054  1.00  0.00     0.082 C 
HETATM   13  C10 UNL     1       1.163  10.384  14.726  1.00  0.00     0.006 C 
HETATM   14  C11 UNL     1       1.473   9.138  14.072  1.00  0.00    -0.001 C 
HETATM   15  C12 UNL     1       2.671   8.557  13.882  1.00  0.00     0.007 C 
HETATM   16  C13 UNL     1       4.076   8.994  14.276  1.00  0.00     0.172 C 
HETATM   17  O5  UNL     1       3.990   9.589  15.576  1.00  0.00    -0.379 OA
HETATM   18  C16 UNL     1       5.182  10.131  16.157  1.00  0.00     0.173 C 
HETATM   19  C17 UNL     1       5.722  11.365  15.421  1.00  0.00     0.060 C 
HETATM   20  C18 UNL     1       6.668  12.358  16.101  1.00  0.00    -0.076 C 
HETATM   21  C19 UNL     1       7.249  13.349  15.114  1.00  0.00     0.043 C 
HETATM   22  C20 UNL     1       7.016  12.486  17.400  1.00  0.00     0.084 C 
HETATM   23  C21 UNL     1       6.534  11.657  18.514  1.00  0.00     0.283 C 
HETATM   24  O6  UNL     1       6.946  10.533  18.748  1.00  0.00    -0.260 OA
HETATM   25  O7  UNL     1       5.523  12.314  19.146  1.00  0.00    -0.317 OA
HETATM   26  C22 UNL     1       4.633  11.431  19.833  1.00  0.00     0.195 C 
HETATM   27  C23 UNL     1       3.171  11.982  20.081  1.00  0.00     0.053 C 
HETATM   28  C24 UNL     1       2.242  10.726  20.217  1.00  0.00     0.170 A 
HETATM   29  O8  UNL     1       2.894   9.452  20.375  1.00  0.00    -0.370 OA
HETATM   30  C25 UNL     1       2.196   9.935  21.520  1.00  0.00     0.180 A 
HETATM   31  C26 UNL     1       2.650  13.096  18.959  1.00  0.00     0.034 C 
HETATM   32  C27 UNL     1       3.418  13.169  17.640  1.00  0.00     0.022 C 
HETATM   33  C28 UNL     1       2.550  14.424  19.676  1.00  0.00     0.119 A 
HETATM   34  C29 UNL     1       2.853  15.788  19.088  1.00  0.00     0.210 A 
HETATM   35  O9  UNL     1       3.735  15.134  20.019  1.00  0.00    -0.371 OA
ENDROOT
BRANCH  16  36
HETATM   36  C14 UNL     1       5.145   7.843  14.238  1.00  0.00     0.146 C 
HETATM   37  C15 UNL     1       6.582   8.266  13.936  1.00  0.00     0.042 C 
BRANCH  36  38
HETATM   38  O4  UNL     1       5.200   7.191  15.522  1.00  0.00    -0.393 OA
HETATM   39  H19 UNL     1       5.593   7.811  16.160  1.00  0.00     0.210 HD
ENDBRANCH  36  38
ENDBRANCH  16  36
TORSDOF 2
ENDMDL
MODEL 2
REMARK minimizedAffinity -6.15308809
REMARK CNNscore 0.27184099
REMARK CNNaffinity 5.42736292
REMARK  2 active torsions:
REMARK  status: ('A' for Active; 'I' for Inactive)
REMARK    1  A    between atoms: C13_16  and  C14_17 
REMARK    2  A    between atoms: C14_17  and  O4_19 
ROOT
HETATM    1  C1  UNL     1     -11.576  14.253   4.258  1.00  0.00     0.046 C 
HETATM    2  C2  UNL     1     -11.968  14.362   2.813  1.00  0.00    -0.054 C 
HETATM    3  C3  UNL     1     -11.113  14.050   1.824  1.00  0.00     0.011 C 
HETATM    4  C4  UNL     1     -11.496  14.124   0.370  1.00  0.00     0.159 C 
HETATM    5  O1  UNL     1     -10.983  15.396  -0.071  1.00  0.00    -0.372 OA
HETATM    6  C5  UNL     1     -11.437  15.827  -1.353  1.00  0.00     0.162 C 
HETATM    7  C6  UNL     1     -12.704  16.706  -1.143  1.00  0.00     0.068 C 
HETATM    8  C7  UNL     1     -13.842  15.836  -1.711  1.00  0.00     0.147 C 
HETATM    9  O2  UNL     1     -15.144  16.021  -1.155  1.00  0.00    -0.312 OA
HETATM   10  C8  UNL     1     -16.175  15.903  -2.037  1.00  0.00     0.283 C 
HETATM   11  O3  UNL     1     -16.113  16.092  -3.242  1.00  0.00    -0.260 OA
HETATM   12  C9  UNL     1     -17.365  15.400  -1.323  1.00  0.00     0.082 C 
HETATM   13  C10 UNL     1     -18.474  15.120  -2.025  1.00  0.00     0.006 C 
HETATM   14  C11 UNL     1     -19.701  14.634  -1.447  1.00  0.00    -0.001 C 
HETATM   15  C12 UNL     1     -20.033  13.378  -1.100  1.00  0.00     0.007 C 
HETATM   16  C13 UNL     1     -19.259  12.070  -1.189  1.00  0.00     0.172 C 
HETATM   17  O5  UNL     1     -17.896  12.357  -0.854  1.00  0.00    -0.379 OA
HETATM   18  C16 UNL     1     -16.941  11.290  -0.912  1.00  0.00     0.173 C 
HETATM   19  C17 UNL     1     -16.680  10.771  -2.332  1.00  0.00     0.060 C 
HETATM   20  C18 UNL     1     -15.408   9.997  -2.686  1.00  0.00    -0.076 C 
HETATM   21  C19 UNL     1     -15.485   9.387  -4.070  1.00  0.00     0.043 C 
HETATM   22  C20 UNL     1     -14.270   9.814  -1.981  1.00  0.00     0.084 C 
HETATM   23  C21 UNL     1     -13.981  10.353  -0.644  1.00  0.00     0.283 C 
HETATM   24  O6  UNL     1     -14.429   9.880   0.387  1.00  0.00    -0.260 OA
HETATM   25  O7  UNL     1     -13.231  11.482  -0.777  1.00  0.00    -0.317 OA
HETATM   26  C22 UNL     1     -13.366  12.370   0.334  1.00  0.00     0.195 C 
HETATM   27  C23 UNL     1     -13.045  13.892   0.044  1.00  0.00     0.053 C 
HETATM   28  C24 UNL     1     -13.842  14.724   1.108  1.00  0.00     0.170 A 
HETATM   29  O8  UNL     1     -14.406  13.992   2.212  1.00  0.00    -0.370 OA
HETATM   30  C25 UNL     1     -13.320  14.856   2.535  1.00  0.00     0.180 A 
HETATM   31  C26 UNL     1     -13.310  14.368  -1.529  1.00  0.00     0.034 C 
HETATM   32  C27 UNL     1     -14.180  13.460  -2.396  1.00  0.00     0.022 C 
HETATM   33  C28 UNL     1     -11.952  14.661  -2.131  1.00  0.00     0.119 A 
HETATM   34  C29 UNL     1     -11.531  14.405  -3.564  1.00  0.00     0.210 A 
HETATM   35  O9  UNL     1     -11.082  13.587  -2.468  1.00  0.00    -0.371 OA
ENDROOT
BRANCH  16  36
HETATM   36  C14 UNL     1     -19.840  10.912  -0.300  1.00  0.00     0.146 C 
HETATM   37  C15 UNL     1     -21.077  11.252   0.528  1.00  0.00     0.042 C 
BRANCH  36  38
HETATM   38  O4  UNL     1     -20.231   9.808  -1.139  1.00  0.00    -0.393 OA
HETATM   39  H19 UNL     1     -21.012  10.079  -1.652  1.00  0.00     0.210 HD
ENDBRANCH  36  38
ENDBRANCH  16  36
TORSDOF 2
ENDMDL
MODEL 3
REMARK minimizedAffinity -6.36597729
REMARK CNNscore 0.265704393
REMARK CNNaffinity 5.64374304
REMARK  2 active torsions:
REMARK  status: ('A' for Active; 'I' for Inactive)
REMARK    1  A    between atoms: C13_16  and  C14_17 
REMARK    2  A    between atoms: C14_17  and  O4_19 
ROOT
HETATM    1  C1  UNL     1     -11.227   0.983  24.899  1.00  0.00     0.046 C 
HETATM    2  C2  UNL     1     -12.339   1.775  25.523  1.00  0.00    -0.054 C 
HETATM    3  C3  UNL     1     -13.353   2.267  24.790  1.00  0.00     0.011 C 
HETATM    4  C4  UNL     1     -14.493   3.038  25.401  1.00  0.00     0.159 C 
HETATM    5  O1  UNL     1     -14.143   4.420  25.192  1.00  0.00    -0.372 OA
HETATM    6  C5  UNL     1     -14.936   5.366  25.908  1.00  0.00     0.162 C 
HETATM    7  C6  UNL     1     -14.226   5.661  27.261  1.00  0.00     0.068 C 
HETATM    8  C7  UNL     1     -15.157   5.012  28.304  1.00  0.00     0.147 C 
HETATM    9  O2  UNL     1     -14.558   4.552  29.516  1.00  0.00    -0.312 OA
HETATM   10  C8  UNL     1     -15.320   4.704  30.634  1.00  0.00     0.283 C 
HETATM   11  O3  UNL     1     -16.203   5.534  30.794  1.00  0.00    -0.260 OA
HETATM   12  C9  UNL     1     -14.989   3.631  31.593  1.00  0.00     0.082 C 
HETATM   13  C10 UNL     1     -15.693   3.537  32.731  1.00  0.00     0.006 C 
HETATM   14  C11 UNL     1     -15.463   2.545  33.750  1.00  0.00    -0.001 C 
HETATM   15  C12 UNL     1     -15.885   1.269  33.799  1.00  0.00     0.007 C 
HETATM   16  C13 UNL     1     -16.727   0.448  32.831  1.00  0.00     0.172 C 
HETATM   17  O5  UNL     1     -16.327   0.810  31.504  1.00  0.00    -0.379 OA
HETATM   18  C16 UNL     1     -17.010   0.207  30.399  1.00  0.00     0.173 C 
HETATM   19  C17 UNL     1     -18.479   0.634  30.274  1.00  0.00     0.060 C 
HETATM   20  C18 UNL     1     -19.248   0.502  28.957  1.00  0.00    -0.076 C 
HETATM   21  C19 UNL     1     -20.729   0.757  29.139  1.00  0.00     0.043 C 
HETATM   22  C20 UNL     1     -18.805   0.231  27.710  1.00  0.00     0.084 C 
HETATM   23  C21 UNL     1     -17.409  -0.005  27.316  1.00  0.00     0.283 C 
HETATM   24  O6  UNL     1     -16.820  -1.056  27.508  1.00  0.00    -0.260 OA
HETATM   25  O7  UNL     1     -16.894   1.147  26.804  1.00  0.00    -0.317 OA
HETATM   26  C22 UNL     1     -15.472   1.217  26.918  1.00  0.00     0.195 C 
HETATM   27  C23 UNL     1     -14.850   2.672  26.917  1.00  0.00     0.053 C 
HETATM   28  C24 UNL     1     -13.479   2.569  27.672  1.00  0.00     0.170 A 
HETATM   29  O8  UNL     1     -12.975   1.243  27.922  1.00  0.00    -0.370 OA
HETATM   30  C25 UNL     1     -12.248   2.011  26.967  1.00  0.00     0.180 A 
HETATM   31  C26 UNL     1     -15.861   3.858  27.501  1.00  0.00     0.034 C 
HETATM   32  C27 UNL     1     -17.066   3.405  28.323  1.00  0.00     0.022 C 
HETATM   33  C28 UNL     1     -16.226   4.738  26.326  1.00  0.00     0.119 A 
HETATM   34  C29 UNL     1     -17.559   5.420  26.093  1.00  0.00     0.210 A 
HETATM   35  O9  UNL     1     -17.140   4.265  25.344  1.00  0.00    -0.371 OA
ENDROOT
BRANCH  16  36
HETATM   36  C14 UNL     1     -16.643  -1.104  33.056  1.00  0.00     0.146 C 
HETATM   37  C15 UNL     1     -15.849  -1.568  34.276  1.00  0.00     0.042 C 
BRANCH  36  38
HETATM   38  O4  UNL     1     -17.969  -1.640  33.235  1.00  0.00    -0.393 OA
HETATM   39  H19 UNL     1     -18.307  -1.330  34.093  1.00  0.00     0.210 HD
ENDBRANCH  36  38
ENDBRANCH  16  36
TORSDOF 2
ENDMDL
MODEL 4
REMARK minimizedAffinity -6.23465157
REMARK CNNscore 0.255624771
REMARK CNNaffinity 5.43143272
REMARK  2 active torsions:
REMARK  status: ('A' for Active; 'I' for Inactive)
REMARK    1  A    between atoms: C13_16  and  C14_17 
REMARK    2  A    between atoms: C14_17  and  O4_19 
ROOT
HETATM    1  C1  UNL     1      -1.706  17.828  11.133  1.00  0.00     0.046 C 
HETATM    2  C2  UNL     1      -1.264  17.144  12.393  1.00  0.00    -0.054 C 
HETATM    3  C3  UNL     1      -1.181  17.802  13.563  1.00  0.00     0.011 C 
HETATM    4  C4  UNL     1      -0.769  17.127  14.844  1.00  0.00     0.159 C 
HETATM    5  O1  UNL     1       0.631  17.439  14.978  1.00  0.00    -0.372 OA
HETATM    6  C5  UNL     1       1.328  16.701  15.981  1.00  0.00     0.162 C 
HETATM    7  C6  UNL     1       1.941  15.439  15.309  1.00  0.00     0.068 C 
HETATM    8  C7  UNL     1       1.114  14.281  15.900  1.00  0.00     0.147 C 
HETATM    9  O2  UNL     1       0.967  13.108  15.099  1.00  0.00    -0.312 OA
HETATM   10  C8  UNL     1       0.956  11.932  15.786  1.00  0.00     0.283 C 
HETATM   11  O3  UNL     1       1.470  11.733  16.876  1.00  0.00    -0.260 OA
HETATM   12  C9  UNL     1       0.125  10.955  15.054  1.00  0.00     0.082 C 
HETATM   13  C10 UNL     1      -0.099   9.752  15.606  1.00  0.00     0.006 C 
HETATM   14  C11 UNL     1      -0.881   8.710  14.992  1.00  0.00    -0.001 C 
HETATM   15  C12 UNL     1      -2.217   8.555  14.972  1.00  0.00     0.007 C 
HETATM   16  C13 UNL     1      -3.338   9.395  15.569  1.00  0.00     0.172 C 
HETATM   17  O5  UNL     1      -2.974  10.771  15.405  1.00  0.00    -0.379 OA
HETATM   18  C16 UNL     1      -3.849  11.774  15.934  1.00  0.00     0.173 C 
HETATM   19  C17 UNL     1      -3.925  11.782  17.467  1.00  0.00     0.060 C 
HETATM   20  C18 UNL     1      -4.400  13.012  18.245  1.00  0.00    -0.076 C 
HETATM   21  C19 UNL     1      -4.617  12.704  19.711  1.00  0.00     0.043 C 
HETATM   22  C20 UNL     1      -4.613  14.280  17.830  1.00  0.00     0.084 C 
HETATM   23  C21 UNL     1      -4.422  14.791  16.465  1.00  0.00     0.283 C 
HETATM   24  O6  UNL     1      -5.210  14.601  15.555  1.00  0.00    -0.260 OA
HETATM   25  O7  UNL     1      -3.210  15.408  16.392  1.00  0.00    -0.317 OA
HETATM   26  C22 UNL     1      -2.680  15.432  15.065  1.00  0.00     0.195 C 
HETATM   27  C23 UNL     1      -1.108  15.567  14.951  1.00  0.00     0.053 C 
HETATM   28  C24 UNL     1      -0.708  14.940  13.570  1.00  0.00     0.170 A 
HETATM   29  O8  UNL     1      -1.779  14.671  12.646  1.00  0.00    -0.370 OA
HETATM   30  C25 UNL     1      -0.898  15.729  12.279  1.00  0.00     0.180 A 
HETATM   31  C26 UNL     1      -0.265  14.952  16.248  1.00  0.00     0.034 C 
HETATM   32  C27 UNL     1      -1.012  13.998  17.177  1.00  0.00     0.022 C 
HETATM   33  C28 UNL     1       0.357  16.132  16.963  1.00  0.00     0.119 A 
HETATM   34  C29 UNL     1       0.556  16.273  18.459  1.00  0.00     0.210 A 
HETATM   35  O9  UNL     1      -0.461  16.998  17.743  1.00  0.00    -0.371 OA
ENDROOT
BRANCH  16  36
HETATM   36  C14 UNL     1      -4.759   9.099  14.969  1.00  0.00     0.146 C 
HETATM   37  C15 UNL     1      -4.786   8.455  13.584  1.00  0.00     0.042 C 
BRANCH  36  38
HETATM   38  O4  UNL     1      -5.468   8.187  15.830  1.00  0.00    -0.393 OA
HETATM   39  H19 UNL     1      -5.037   7.316  15.768  1.00  0.00     0.210 HD
ENDBRANCH  36  38
ENDBRANCH  16  36
TORSDOF 2
ENDMDL
MODEL 5
REMARK minimizedAffinity -5.92689371
REMARK CNNscore 0.228975773
REMARK CNNaffinity 5.37594366
REMARK  2 active torsions:
REMARK  status: ('A' for Active; 'I' for Inactive)
REMARK    1  A    between atoms: C13_16  and  C14_17 
REMARK    2  A    between atoms: C14_17  and  O4_19 
ROOT
HETATM    1  C1  UNL     1     -13.228  12.268  -1.923  1.00  0.00     0.046 C 
HETATM    2  C2  UNL     1     -12.965  13.535  -1.163  1.00  0.00    -0.054 C 
HETATM    3  C3  UNL     1     -13.664  13.856  -0.061  1.00  0.00     0.011 C 
HETATM    4  C4  UNL     1     -13.396  15.108   0.732  1.00  0.00     0.159 C 
HETATM    5  O1  UNL     1     -14.385  16.046   0.265  1.00  0.00    -0.372 OA
HETATM    6  C5  UNL     1     -14.186  17.398   0.673  1.00  0.00     0.162 C 
HETATM    7  C6  UNL     1     -13.361  18.117  -0.433  1.00  0.00     0.068 C 
HETATM    8  C7  UNL     1     -11.994  18.356   0.238  1.00  0.00     0.147 C 
HETATM    9  O2  UNL     1     -10.850  18.415  -0.615  1.00  0.00    -0.312 OA
HETATM   10  C8  UNL     1      -9.890  19.305  -0.239  1.00  0.00     0.283 C 
HETATM   11  O3  UNL     1     -10.067  20.310   0.432  1.00  0.00    -0.260 OA
HETATM   12  C9  UNL     1      -8.572  18.806  -0.679  1.00  0.00     0.082 C 
HETATM   13  C10 UNL     1      -7.470  19.487  -0.329  1.00  0.00     0.006 C 
HETATM   14  C11 UNL     1      -6.130  19.112  -0.702  1.00  0.00    -0.001 C 
HETATM   15  C12 UNL     1      -5.317  18.202  -0.135  1.00  0.00     0.007 C 
HETATM   16  C13 UNL     1      -5.516  17.278   1.059  1.00  0.00     0.172 C 
HETATM   17  O5  UNL     1      -6.868  16.807   1.013  1.00  0.00    -0.379 OA
HETATM   18  C16 UNL     1      -7.327  15.951   2.066  1.00  0.00     0.173 C 
HETATM   19  C17 UNL     1      -7.416  16.645   3.432  1.00  0.00     0.060 C 
HETATM   20  C18 UNL     1      -8.292  16.094   4.560  1.00  0.00    -0.076 C 
HETATM   21  C19 UNL     1      -8.034  16.803   5.873  1.00  0.00     0.043 C 
HETATM   22  C20 UNL     1      -9.239  15.131   4.541  1.00  0.00     0.084 C 
HETATM   23  C21 UNL     1      -9.666  14.356   3.368  1.00  0.00     0.283 C 
HETATM   24  O6  UNL     1      -9.030  13.424   2.903  1.00  0.00    -0.260 OA
HETATM   25  O7  UNL     1     -10.805  14.909   2.866  1.00  0.00    -0.317 OA
HETATM   26  C22 UNL     1     -10.989  14.632   1.476  1.00  0.00     0.195 C 
HETATM   27  C23 UNL     1     -11.894  15.657   0.682  1.00  0.00     0.053 C 
HETATM   28  C24 UNL     1     -11.450  15.570  -0.820  1.00  0.00     0.170 A 
HETATM   29  O8  UNL     1     -10.602  14.463  -1.181  1.00  0.00    -0.370 OA
HETATM   30  C25 UNL     1     -11.928  14.421  -1.702  1.00  0.00     0.180 A 
HETATM   31  C26 UNL     1     -11.898  17.202   1.301  1.00  0.00     0.034 C 
HETATM   32  C27 UNL     1     -10.773  17.569   2.267  1.00  0.00     0.022 C 
HETATM   33  C28 UNL     1     -13.282  17.444   1.862  1.00  0.00     0.119 A 
HETATM   34  C29 UNL     1     -13.623  18.257   3.095  1.00  0.00     0.210 A 
HETATM   35  O9  UNL     1     -13.672  16.819   3.080  1.00  0.00    -0.371 OA
ENDROOT
BRANCH  16  36
HETATM   36  C14 UNL     1      -4.493  16.088   1.134  1.00  0.00     0.146 C 
HETATM   37  C15 UNL     1      -3.991  15.717   2.527  1.00  0.00     0.042 C 
BRANCH  36  38
HETATM   38  O4  UNL     1      -5.105  14.891   0.615  1.00  0.00    -0.393 OA
HETATM   39  H19 UNL     1      -5.792  14.606   1.242  1.00  0.00     0.210 HD
ENDBRANCH  36  38
ENDBRANCH  16  36
TORSDOF 2
ENDMDL
MODEL 6
REMARK minimizedAffinity -7.55525637
REMARK CNNscore 0.214874476
REMARK CNNaffinity 5.2189641
REMARK  2 active torsions:
REMARK  status: ('A' for Active; 'I' for Inactive)
REMARK    1  A    between atoms: C13_16  and  C14_17 
REMARK    2  A    between atoms: C14_17  and  O4_19 
ROOT
HETATM    1  C1  UNL     1       2.650   8.838  23.544  1.00  0.00     0.046 C 
HETATM    2  C2  UNL     1       3.004  10.098  22.810  1.00  0.00    -0.054 C 
HETATM    3  C3  UNL     1       2.795  11.312  23.350  1.00  0.00     0.011 C 
HETATM    4  C4  UNL     1       3.171  12.587  22.643  1.00  0.00     0.159 C 
HETATM    5  O1  UNL     1       1.942  13.037  22.040  1.00  0.00    -0.372 OA
HETATM    6  C5  UNL     1       2.078  14.095  21.093  1.00  0.00     0.162 C 
HETATM    7  C6  UNL     1       2.232  13.459  19.681  1.00  0.00     0.068 C 
HETATM    8  C7  UNL     1       3.697  13.761  19.310  1.00  0.00     0.147 C 
HETATM    9  O2  UNL     1       4.348  12.848  18.426  1.00  0.00    -0.312 OA
HETATM   10  C8  UNL     1       5.222  13.412  17.547  1.00  0.00     0.283 C 
HETATM   11  O3  UNL     1       5.188  14.564  17.142  1.00  0.00    -0.260 OA
HETATM   12  C9  UNL     1       6.291  12.441  17.241  1.00  0.00     0.082 C 
HETATM   13  C10 UNL     1       7.315  12.827  16.463  1.00  0.00     0.006 C 
HETATM   14  C11 UNL     1       8.412  11.975  16.082  1.00  0.00    -0.001 C 
HETATM   15  C12 UNL     1       9.521  11.663  16.776  1.00  0.00     0.007 C 
HETATM   16  C13 UNL     1       9.995  12.084  18.161  1.00  0.00     0.172 C 
HETATM   17  O5  UNL     1       8.844  12.120  19.013  1.00  0.00    -0.379 OA
HETATM   18  C16 UNL     1       9.016  12.540  20.372  1.00  0.00     0.173 C 
HETATM   19  C17 UNL     1       9.404  14.017  20.517  1.00  0.00     0.060 C 
HETATM   20  C18 UNL     1       9.187  14.783  21.825  1.00  0.00    -0.076 C 
HETATM   21  C19 UNL     1       9.860  16.139  21.805  1.00  0.00     0.043 C 
HETATM   22  C20 UNL     1       8.487  14.445  22.931  1.00  0.00     0.084 C 
HETATM   23  C21 UNL     1       7.733  13.200  23.134  1.00  0.00     0.283 C 
HETATM   24  O6  UNL     1       8.252  12.131  23.411  1.00  0.00    -0.260 OA
HETATM   25  O7  UNL     1       6.417  13.435  22.874  1.00  0.00    -0.317 OA
HETATM   26  C22 UNL     1       5.709  12.255  22.489  1.00  0.00     0.195 C 
HETATM   27  C23 UNL     1       4.403  12.485  21.627  1.00  0.00     0.053 C 
HETATM   28  C24 UNL     1       4.177  11.169  20.804  1.00  0.00     0.170 A 
HETATM   29  O8  UNL     1       4.957  10.022  21.190  1.00  0.00    -0.370 OA
HETATM   30  C25 UNL     1       3.561   9.940  21.463  1.00  0.00     0.180 A 
HETATM   31  C26 UNL     1       4.416  13.870  20.704  1.00  0.00     0.034 C 
HETATM   32  C27 UNL     1       5.769  14.537  20.465  1.00  0.00     0.022 C 
HETATM   33  C28 UNL     1       3.379  14.800  21.298  1.00  0.00     0.119 A 
HETATM   34  C29 UNL     1       3.468  16.311  21.378  1.00  0.00     0.210 A 
HETATM   35  O9  UNL     1       3.646  15.464  22.528  1.00  0.00    -0.371 OA
ENDROOT
BRANCH  16  36
HETATM   36  C14 UNL     1      11.128  11.176  18.761  1.00  0.00     0.146 C 
HETATM   37  C15 UNL     1      12.564  11.591  18.445  1.00  0.00     0.042 C 
BRANCH  36  38
HETATM   38  O4  UNL     1      11.037  11.174  20.199  1.00  0.00    -0.393 OA
HETATM   39  H19 UNL     1      11.294  12.056  20.519  1.00  0.00     0.210 HD
ENDBRANCH  36  38
ENDBRANCH  16  36
TORSDOF 2
ENDMDL
MODEL 7
REMARK minimizedAffinity -7.26642084
REMARK CNNscore 0.205875054
REMARK CNNaffinity 5.28989553
REMARK  2 active torsions:
REMARK  status: ('A' for Active; 'I' for Inactive)
REMARK    1  A    between atoms: C13_16  and  C14_17 
REMARK    2  A    between atoms: C14_17  and  O4_19 
ROOT
HETATM    1  C1  UNL     1       7.656   7.732  13.943  1.00  0.00     0.046 C 
HETATM    2  C2  UNL     1       7.232   9.057  14.507  1.00  0.00    -0.054 C 
HETATM    3  C3  UNL     1       6.465   9.909  13.805  1.00  0.00     0.011 C 
HETATM    4  C4  UNL     1       6.004  11.229  14.364  1.00  0.00     0.159 C 
HETATM    5  O1  UNL     1       6.935  12.189  13.827  1.00  0.00    -0.372 OA
HETATM    6  C5  UNL     1       6.877  13.490  14.410  1.00  0.00     0.162 C 
HETATM    7  C6  UNL     1       7.902  13.538  15.580  1.00  0.00     0.068 C 
HETATM    8  C7  UNL     1       7.011  13.604  16.836  1.00  0.00     0.147 C 
HETATM    9  O2  UNL     1       7.543  13.055  18.042  1.00  0.00    -0.312 OA
HETATM   10  C8  UNL     1       7.203  13.720  19.182  1.00  0.00     0.283 C 
HETATM   11  O3  UNL     1       6.897  14.899  19.260  1.00  0.00    -0.260 OA
HETATM   12  C9  UNL     1       7.156  12.760  20.303  1.00  0.00     0.082 C 
HETATM   13  C10 UNL     1       6.748  13.188  21.507  1.00  0.00     0.006 C 
HETATM   14  C11 UNL     1       6.667  12.357  22.681  1.00  0.00    -0.001 C 
HETATM   15  C12 UNL     1       5.693  11.505  23.049  1.00  0.00     0.007 C 
HETATM   16  C13 UNL     1       4.378  11.129  22.380  1.00  0.00     0.172 C 
HETATM   17  O5  UNL     1       4.620  11.061  20.970  1.00  0.00    -0.379 OA
HETATM   18  C16 UNL     1       3.518  10.770  20.103  1.00  0.00     0.173 C 
HETATM   19  C17 UNL     1       2.458  11.879  20.058  1.00  0.00     0.060 C 
HETATM   20  C18 UNL     1       1.470  12.003  18.895  1.00  0.00    -0.076 C 
HETATM   21  C19 UNL     1       0.380  13.012  19.185  1.00  0.00     0.043 C 
HETATM   22  C20 UNL     1       1.454  11.389  17.691  1.00  0.00     0.084 C 
HETATM   23  C21 UNL     1       2.439  10.414  17.201  1.00  0.00     0.283 C 
HETATM   24  O6  UNL     1       2.461   9.244  17.545  1.00  0.00    -0.260 OA
HETATM   25  O7  UNL     1       3.334  11.056  16.401  1.00  0.00    -0.317 OA
HETATM   26  C22 UNL     1       4.596  10.389  16.335  1.00  0.00     0.195 C 
HETATM   27  C23 UNL     1       5.836  11.295  15.954  1.00  0.00     0.053 C 
HETATM   28  C24 UNL     1       7.101  10.588  16.553  1.00  0.00     0.170 A 
HETATM   29  O8  UNL     1       6.929   9.237  17.020  1.00  0.00    -0.370 OA
HETATM   30  C25 UNL     1       7.724   9.388  15.848  1.00  0.00     0.180 A 
HETATM   31  C26 UNL     1       5.683  12.896  16.383  1.00  0.00     0.034 C 
HETATM   32  C27 UNL     1       4.610  13.243  17.414  1.00  0.00     0.022 C 
HETATM   33  C28 UNL     1       5.563  13.683  15.096  1.00  0.00     0.119 A 
HETATM   34  C29 UNL     1       4.721  14.924  14.876  1.00  0.00     0.210 A 
HETATM   35  O9  UNL     1       4.353  13.636  14.348  1.00  0.00    -0.371 OA
ENDROOT
BRANCH  16  36
HETATM   36  C14 UNL     1       3.734   9.801  22.919  1.00  0.00     0.146 C 
HETATM   37  C15 UNL     1       2.884   9.927  24.181  1.00  0.00     0.042 C 
BRANCH  36  38
HETATM   38  O4  UNL     1       2.857   9.248  21.919  1.00  0.00    -0.393 OA
HETATM   39  H19 UNL     1       2.082   9.830  21.840  1.00  0.00     0.210 HD
ENDBRANCH  36  38
ENDBRANCH  16  36
TORSDOF 2
ENDMDL
MODEL 8
REMARK minimizedAffinity -6.36883211
REMARK CNNscore 0.198753566
REMARK CNNaffinity 4.87859774
REMARK  2 active torsions:
REMARK  status: ('A' for Active; 'I' for Inactive)
REMARK    1  A    between atoms: C13_16  and  C14_17 
REMARK    2  A    between atoms: C14_17  and  O4_19 
ROOT
HETATM    1  C1  UNL     1     -15.484   3.657  14.799  1.00  0.00     0.046 C 
HETATM    2  C2  UNL     1     -16.124   2.343  14.459  1.00  0.00    -0.054 C 
HETATM    3  C3  UNL     1     -15.412   1.320  13.954  1.00  0.00     0.011 C 
HETATM    4  C4  UNL     1     -16.030  -0.015  13.634  1.00  0.00     0.159 C 
HETATM    5  O1  UNL     1     -16.285   0.039  12.217  1.00  0.00    -0.372 OA
HETATM    6  C5  UNL     1     -17.107  -1.008  11.704  1.00  0.00     0.162 C 
HETATM    7  C6  UNL     1     -18.582  -0.514  11.724  1.00  0.00     0.068 C 
HETATM    8  C7  UNL     1     -19.233  -1.374  12.825  1.00  0.00     0.147 C 
HETATM    9  O2  UNL     1     -20.342  -0.808  13.525  1.00  0.00    -0.312 OA
HETATM   10  C8  UNL     1     -21.321  -1.688  13.872  1.00  0.00     0.283 C 
HETATM   11  O3  UNL     1     -21.569  -2.744  13.309  1.00  0.00    -0.260 OA
HETATM   12  C9  UNL     1     -21.971  -1.221  15.113  1.00  0.00     0.082 C 
HETATM   13  C10 UNL     1     -22.907  -1.993  15.686  1.00  0.00     0.006 C 
HETATM   14  C11 UNL     1     -23.621  -1.647  16.888  1.00  0.00    -0.001 C 
HETATM   15  C12 UNL     1     -23.235  -1.780  18.169  1.00  0.00     0.007 C 
HETATM   16  C13 UNL     1     -21.951  -2.323  18.784  1.00  0.00     0.172 C 
HETATM   17  O5  UNL     1     -20.865  -1.887  17.958  1.00  0.00    -0.379 OA
HETATM   18  C16 UNL     1     -19.539  -2.311  18.296  1.00  0.00     0.173 C 
HETATM   19  C17 UNL     1     -19.311  -3.819  18.126  1.00  0.00     0.060 C 
HETATM   20  C18 UNL     1     -17.907  -4.409  17.975  1.00  0.00    -0.076 C 
HETATM   21  C19 UNL     1     -17.917  -5.921  18.064  1.00  0.00     0.043 C 
HETATM   22  C20 UNL     1     -16.721  -3.801  17.756  1.00  0.00     0.084 C 
HETATM   23  C21 UNL     1     -16.502  -2.355  17.600  1.00  0.00     0.283 C 
HETATM   24  O6  UNL     1     -16.477  -1.570  18.532  1.00  0.00    -0.260 OA
HETATM   25  O7  UNL     1     -16.432  -2.062  16.272  1.00  0.00    -0.317 OA
HETATM   26  C22 UNL     1     -16.785  -0.708  15.984  1.00  0.00     0.195 C 
HETATM   27  C23 UNL     1     -17.300  -0.426  14.516  1.00  0.00     0.053 C 
HETATM   28  C24 UNL     1     -18.201   0.855  14.599  1.00  0.00     0.170 A 
HETATM   29  O8  UNL     1     -18.137   1.613  15.822  1.00  0.00    -0.370 OA
HETATM   30  C25 UNL     1     -17.571   2.241  14.675  1.00  0.00     0.180 A 
HETATM   31  C26 UNL     1     -18.032  -1.726  13.776  1.00  0.00     0.034 C 
HETATM   32  C27 UNL     1     -18.487  -2.874  14.675  1.00  0.00     0.022 C 
HETATM   33  C28 UNL     1     -17.116  -2.162  12.653  1.00  0.00     0.119 A 
HETATM   34  C29 UNL     1     -16.881  -3.585  12.187  1.00  0.00     0.210 A 
HETATM   35  O9  UNL     1     -15.907  -2.850  12.953  1.00  0.00    -0.371 OA
ENDROOT
BRANCH  16  36
HETATM   36  C14 UNL     1     -21.732  -1.919  20.286  1.00  0.00     0.146 C 
HETATM   37  C15 UNL     1     -21.354  -3.049  21.241  1.00  0.00     0.042 C 
BRANCH  36  38
HETATM   38  O4  UNL     1     -20.656  -0.964  20.378  1.00  0.00    -0.393 OA
HETATM   39  H19 UNL     1     -19.824  -1.424  20.169  1.00  0.00     0.210 HD
ENDBRANCH  36  38
ENDBRANCH  16  36
TORSDOF 2
ENDMDL
MODEL 9
REMARK minimizedAffinity -6.12405491
REMARK CNNscore 0.189504892
REMARK CNNaffinity 5.20435619
REMARK  2 active torsions:
REMARK  status: ('A' for Active; 'I' for Inactive)
REMARK    1  A    between atoms: C13_16  and  C14_17 
REMARK    2  A    between atoms: C14_17  and  O4_19 
ROOT
HETATM    1  C1  UNL     1     -19.935  -6.084  15.600  1.00  0.00     0.046 C 
HETATM    2  C2  UNL     1     -18.585  -5.648  15.111  1.00  0.00    -0.054 C 
HETATM    3  C3  UNL     1     -17.484  -5.769  15.873  1.00  0.00     0.011 C 
HETATM    4  C4  UNL     1     -16.117  -5.366  15.389  1.00  0.00     0.159 C 
HETATM    5  O1  UNL     1     -15.918  -4.048  15.938  1.00  0.00    -0.372 OA
HETATM    6  C5  UNL     1     -14.800  -3.332  15.415  1.00  0.00     0.162 C 
HETATM    7  C6  UNL     1     -15.298  -2.473  14.217  1.00  0.00     0.068 C 
HETATM    8  C7  UNL     1     -14.653  -3.155  12.995  1.00  0.00     0.147 C 
HETATM    9  O2  UNL     1     -15.342  -3.047  11.748  1.00  0.00    -0.312 OA
HETATM   10  C8  UNL     1     -14.544  -2.932  10.651  1.00  0.00     0.283 C 
HETATM   11  O3  UNL     1     -13.406  -2.487  10.636  1.00  0.00    -0.260 OA
HETATM   12  C9  UNL     1     -15.230  -3.534   9.490  1.00  0.00     0.082 C 
HETATM   13  C10 UNL     1     -14.578  -3.612   8.320  1.00  0.00     0.006 C 
HETATM   14  C11 UNL     1     -15.138  -4.166   7.114  1.00  0.00    -0.001 C 
HETATM   15  C12 UNL     1     -15.234  -5.455   6.740  1.00  0.00     0.007 C 
HETATM   16  C13 UNL     1     -14.803  -6.740   7.434  1.00  0.00     0.172 C 
HETATM   17  O5  UNL     1     -15.078  -6.584   8.831  1.00  0.00    -0.379 OA
HETATM   18  C16 UNL     1     -14.714  -7.647   9.719  1.00  0.00     0.173 C 
HETATM   19  C17 UNL     1     -13.198  -7.853   9.848  1.00  0.00     0.060 C 
HETATM   20  C18 UNL     1     -12.582  -8.579  11.046  1.00  0.00    -0.076 C 
HETATM   21  C19 UNL     1     -11.111  -8.869  10.836  1.00  0.00     0.043 C 
HETATM   22  C20 UNL     1     -13.135  -8.953  12.221  1.00  0.00     0.084 C 
HETATM   23  C21 UNL     1     -14.528  -8.730  12.635  1.00  0.00     0.283 C 
HETATM   24  O6  UNL     1     -15.467  -9.399  12.239  1.00  0.00    -0.260 OA
HETATM   25  O7  UNL     1     -14.578  -7.628  13.434  1.00  0.00    -0.317 OA
HETATM   26  C22 UNL     1     -15.861  -6.998  13.429  1.00  0.00     0.195 C 
HETATM   27  C23 UNL     1     -15.878  -5.464  13.810  1.00  0.00     0.053 C 
HETATM   28  C24 UNL     1     -17.158  -4.854  13.140  1.00  0.00     0.170 A 
HETATM   29  O8  UNL     1     -18.123  -5.788  12.619  1.00  0.00    -0.370 OA
HETATM   30  C25 UNL     1     -18.532  -5.055  13.770  1.00  0.00     0.180 A 
HETATM   31  C26 UNL     1     -14.471  -4.646  13.458  1.00  0.00     0.034 C 
HETATM   32  C27 UNL     1     -13.505  -5.310  12.479  1.00  0.00     0.022 C 
HETATM   33  C28 UNL     1     -13.836  -4.281  14.782  1.00  0.00     0.119 A 
HETATM   34  C29 UNL     1     -12.351  -4.233  15.084  1.00  0.00     0.210 A 
HETATM   35  O9  UNL     1     -13.205  -5.287  15.566  1.00  0.00    -0.371 OA
ENDROOT
BRANCH  16  36
HETATM   36  C14 UNL     1     -15.469  -8.041   6.857  1.00  0.00     0.146 C 
HETATM   37  C15 UNL     1     -16.946  -7.935   6.483  1.00  0.00     0.042 C 
BRANCH  36  38
HETATM   38  O4  UNL     1     -14.794  -8.433   5.645  1.00  0.00    -0.393 OA
HETATM   39  H19 UNL     1     -15.002  -7.778   4.957  1.00  0.00     0.210 HD
ENDBRANCH  36  38
ENDBRANCH  16  36
TORSDOF 2
ENDMDL
