MODEL 1
REMARK minimizedAffinity -10.4356861
REMARK CNNscore 0.378212959
REMARK CNNaffinity 6.03607035
REMARK  12 active torsions:
REMARK  status: ('A' for Active; 'I' for Inactive)
REMARK    1  A    between atoms: C3_3  and  O1_4 
REMARK    2  A    between atoms: N1_14  and  O2_16 
REMARK    3  A    between atoms: O2_16  and  C13_17 
REMARK    4  A    between atoms: C13_17  and  C14_18 
REMARK       I    between atoms: C14_18  and  N2_20 
REMARK    5  A    between atoms: N2_20  and  C15_21 
REMARK    6  A    between atoms: C15_21  and  C16_22 
REMARK    7  A    between atoms: C15_21  and  C26_36 
REMARK       I    between atoms: C16_22  and  N3_24 
REMARK    8  A    between atoms: N3_24  and  C17_25 
REMARK    9  A    between atoms: C17_25  and  C18_26 
REMARK   10  A    between atoms: C17_25  and  C25_33 
REMARK   11  A    between atoms: C18_26  and  C19_27 
REMARK   12  A    between atoms: C25_33  and  O6_35 
ROOT
HETATM    1  C1  UNL     1       1.969  51.800 -26.419  1.00  0.00     0.015 C 
HETATM    2  C2  UNL     1       0.819  52.110 -26.269  1.00  0.00    -0.078 C 
HETATM    3  C3  UNL     1      -0.597  52.504 -26.088  1.00  0.00     0.128 C 
HETATM    4  C4  UNL     1      -1.416  52.103 -27.324  1.00  0.00     0.052 C 
HETATM    5  C5  UNL     1      -1.994  50.714 -27.020  1.00  0.00     0.010 C 
HETATM    6  C6  UNL     1      -1.582  50.369 -25.574  1.00  0.00     0.002 C 
HETATM    7  C7  UNL     1      -2.508  49.425 -24.762  1.00  0.00    -0.004 C 
HETATM    8  C8  UNL     1      -3.099  48.285 -25.622  1.00  0.00     0.010 C 
HETATM    9  C9  UNL     1      -4.575  48.467 -25.954  1.00  0.00     0.035 C 
HETATM   10  C10 UNL     1      -5.440  48.677 -24.738  1.00  0.00    -0.069 C 
HETATM   11  C11 UNL     1      -6.756  48.396 -24.811  1.00  0.00     0.030 C 
HETATM   12  C12 UNL     1      -7.682  48.627 -23.659  1.00  0.00     0.032 C 
HETATM   13  N1  UNL     1      -8.954  48.366 -23.641  1.00  0.00    -0.271 N 
ATOM     14  H1  UNL     1      -9.560  48.537 -22.838  1.00  0.00     0.194 HD
HETATM   15  C29 UNL     1      -7.095  49.204 -22.384  1.00  0.00     0.060 C 
HETATM   16  C30 UNL     1      -5.852  50.033 -22.679  1.00  0.00     0.020 C 
HETATM   17  C31 UNL     1      -4.781  49.245 -23.486  1.00  0.00    -0.016 C 
HETATM   18  C32 UNL     1      -4.289  48.074 -22.587  1.00  0.00     0.020 C 
HETATM   19  C33 UNL     1      -3.548  50.154 -23.851  1.00  0.00     0.002 C 
HETATM   20  C34 UNL     1      -3.890  51.531 -24.438  1.00  0.00     0.007 C 
HETATM   21  C35 UNL     1      -2.667  52.449 -24.556  1.00  0.00     0.014 C 
HETATM   22  C36 UNL     1      -1.326  51.749 -24.928  1.00  0.00     0.003 C 
HETATM   23  C37 UNL     1      -0.456  51.646 -23.659  1.00  0.00     0.020 C 
ENDROOT
BRANCH   3  24
HETATM   24  O1  UNL     1      -0.639  53.914 -25.915  1.00  0.00    -0.377 OA
HETATM   25  H2  UNL     1      -0.025  54.130 -25.195  1.00  0.00     0.211 HD
ENDBRANCH   3  24
BRANCH  13  26
HETATM   26  O2  UNL     1      -9.398  47.822 -24.855  1.00  0.00    -0.271 OA
BRANCH  26  27
HETATM   27  C13 UNL     1     -10.519  46.985 -24.596  1.00  0.00     0.303 C 
BRANCH  27  28
HETATM   28  C14 UNL     1     -11.619  47.269 -25.609  1.00  0.00     0.244 C 
HETATM   29  O3  UNL     1     -11.648  48.290 -26.292  1.00  0.00    -0.271 OA
HETATM   30  N2  UNL     1     -12.615  46.313 -25.649  1.00  0.00    -0.346 N 
HETATM   31  H16 UNL     1     -12.674  45.714 -24.832  1.00  0.00     0.163 HD
BRANCH  30  32
HETATM   32  C15 UNL     1     -13.866  46.572 -26.354  1.00  0.00     0.180 C 
BRANCH  32  33
HETATM   33  C16 UNL     1     -14.936  46.729 -25.250  1.00  0.00     0.241 C 
HETATM   34  O4  UNL     1     -14.780  47.473 -24.283  1.00  0.00    -0.271 OA
HETATM   35  N3  UNL     1     -16.069  45.967 -25.435  1.00  0.00    -0.345 N 
HETATM   36  H18 UNL     1     -16.008  45.172 -26.061  1.00  0.00     0.163 HD
BRANCH  35  37
HETATM   37  C17 UNL     1     -17.149  45.956 -24.439  1.00  0.00     0.186 C 
BRANCH  37  38
HETATM   38  C18 UNL     1     -16.744  46.790 -23.216  1.00  0.00     0.074 C 
BRANCH  38  39
HETATM   39  C19 UNL     1     -17.280  46.255 -21.911  1.00  0.00    -0.056 A 
HETATM   40  C20 UNL     1     -18.605  45.805 -21.821  1.00  0.00     0.007 A 
HETATM   41  C21 UNL     1     -19.108  45.322 -20.613  1.00  0.00     0.001 A 
HETATM   42  C22 UNL     1     -18.294  45.287 -19.483  1.00  0.00     0.000 A 
HETATM   43  C23 UNL     1     -16.976  45.732 -19.561  1.00  0.00     0.001 A 
HETATM   44  C24 UNL     1     -16.468  46.213 -20.769  1.00  0.00     0.007 A 
ENDBRANCH  38  39
ENDBRANCH  37  38
BRANCH  37  45
HETATM   45  C25 UNL     1     -18.392  46.561 -25.089  1.00  0.00     0.163 C 
HETATM   46  O5  UNL     1     -18.953  47.590 -24.739  1.00  0.00    -0.648 OA
BRANCH  45  47
HETATM   47  O6  UNL     1     -18.865  45.841 -26.124  1.00  0.00    -0.775 OA
HETATM   48  H27 UNL     1     -19.636  46.345 -26.456  1.00  0.00     0.167 HD
ENDBRANCH  45  47
ENDBRANCH  37  45
ENDBRANCH  35  37
ENDBRANCH  32  33
BRANCH  32  49
HETATM   49  C26 UNL     1     -14.208  45.413 -27.315  1.00  0.00     0.009 C 
HETATM   50  C27 UNL     1     -15.561  44.774 -26.991  1.00  0.00     0.012 C 
HETATM   51  C28 UNL     1     -14.221  45.893 -28.772  1.00  0.00     0.012 C 
ENDBRANCH  32  49
ENDBRANCH  30  32
ENDBRANCH  27  28
ENDBRANCH  26  27
ENDBRANCH  13  26
TORSDOF 12
ENDMDL
MODEL 2
REMARK minimizedAffinity -8.78782368
REMARK CNNscore 0.341858894
REMARK CNNaffinity 6.54136324
REMARK  12 active torsions:
REMARK  status: ('A' for Active; 'I' for Inactive)
REMARK    1  A    between atoms: C3_3  and  O1_4 
REMARK    2  A    between atoms: N1_14  and  O2_16 
REMARK    3  A    between atoms: O2_16  and  C13_17 
REMARK    4  A    between atoms: C13_17  and  C14_18 
REMARK       I    between atoms: C14_18  and  N2_20 
REMARK    5  A    between atoms: N2_20  and  C15_21 
REMARK    6  A    between atoms: C15_21  and  C16_22 
REMARK    7  A    between atoms: C15_21  and  C26_36 
REMARK       I    between atoms: C16_22  and  N3_24 
REMARK    8  A    between atoms: N3_24  and  C17_25 
REMARK    9  A    between atoms: C17_25  and  C18_26 
REMARK   10  A    between atoms: C17_25  and  C25_33 
REMARK   11  A    between atoms: C18_26  and  C19_27 
REMARK   12  A    between atoms: C25_33  and  O6_35 
ROOT
HETATM    1  C1  UNL     1       0.453  51.088 -26.628  1.00  0.00     0.015 C 
HETATM    2  C2  UNL     1      -0.728  51.179 -26.432  1.00  0.00    -0.078 C 
HETATM    3  C3  UNL     1      -2.185  51.298 -26.200  1.00  0.00     0.128 C 
HETATM    4  C4  UNL     1      -2.906  50.051 -26.732  1.00  0.00     0.052 C 
HETATM    5  C5  UNL     1      -3.020  49.085 -25.544  1.00  0.00     0.010 C 
HETATM    6  C6  UNL     1      -2.450  49.825 -24.316  1.00  0.00     0.002 C 
HETATM    7  C7  UNL     1      -3.006  49.442 -22.918  1.00  0.00    -0.004 C 
HETATM    8  C8  UNL     1      -3.266  47.925 -22.775  1.00  0.00     0.010 C 
HETATM    9  C9  UNL     1      -4.742  47.550 -22.802  1.00  0.00     0.035 C 
HETATM   10  C10 UNL     1      -5.568  48.298 -21.786  1.00  0.00    -0.069 C 
HETATM   11  C11 UNL     1      -6.739  47.772 -21.375  1.00  0.00     0.030 C 
HETATM   12  C12 UNL     1      -7.632  48.484 -20.408  1.00  0.00     0.032 C 
HETATM   13  N1  UNL     1      -8.763  48.039 -19.950  1.00  0.00    -0.271 N 
ATOM     14  H1  UNL     1      -9.351  48.550 -19.290  1.00  0.00     0.194 HD
HETATM   15  C29 UNL     1      -7.184  49.840 -19.897  1.00  0.00     0.060 C 
HETATM   16  C30 UNL     1      -6.267  50.528 -20.900  1.00  0.00     0.020 C 
HETATM   17  C31 UNL     1      -5.050  49.648 -21.304  1.00  0.00    -0.016 C 
HETATM   18  C32 UNL     1      -4.181  49.440 -20.030  1.00  0.00     0.020 C 
HETATM   19  C33 UNL     1      -4.170  50.349 -22.406  1.00  0.00     0.002 C 
HETATM   20  C34 UNL     1      -4.942  50.939 -23.594  1.00  0.00     0.007 C 
HETATM   21  C35 UNL     1      -4.062  51.802 -24.508  1.00  0.00     0.014 C 
HETATM   22  C36 UNL     1      -2.592  51.317 -24.690  1.00  0.00     0.003 C 
HETATM   23  C37 UNL     1      -1.669  52.219 -23.846  1.00  0.00     0.020 C 
ENDROOT
BRANCH   3  24
HETATM   24  O1  UNL     1      -2.644  52.453 -26.889  1.00  0.00    -0.377 OA
HETATM   25  H2  UNL     1      -2.089  53.196 -26.600  1.00  0.00     0.211 HD
ENDBRANCH   3  24
BRANCH  13  26
HETATM   26  O2  UNL     1      -9.082  46.775 -20.466  1.00  0.00    -0.271 OA
BRANCH  26  27
HETATM   27  C13 UNL     1     -10.197  46.908 -21.339  1.00  0.00     0.303 C 
BRANCH  27  28
HETATM   28  C14 UNL     1     -11.439  46.320 -20.683  1.00  0.00     0.244 C 
HETATM   29  O3  UNL     1     -11.463  45.194 -20.192  1.00  0.00    -0.271 OA
HETATM   30  N2  UNL     1     -12.552  47.136 -20.742  1.00  0.00    -0.346 N 
HETATM   31  H16 UNL     1     -12.519  47.865 -21.447  1.00  0.00     0.163 HD
BRANCH  30  32
HETATM   32  C15 UNL     1     -13.874  46.612 -20.414  1.00  0.00     0.180 C 
BRANCH  32  33
HETATM   33  C16 UNL     1     -14.427  46.032 -21.736  1.00  0.00     0.241 C 
HETATM   34  O4  UNL     1     -14.668  44.834 -21.878  1.00  0.00    -0.271 OA
HETATM   35  N3  UNL     1     -14.622  46.960 -22.734  1.00  0.00    -0.345 N 
HETATM   36  H18 UNL     1     -14.132  47.844 -22.661  1.00  0.00     0.163 HD
BRANCH  35  37
HETATM   37  C17 UNL     1     -15.081  46.555 -24.070  1.00  0.00     0.186 C 
BRANCH  37  38
HETATM   38  C18 UNL     1     -16.353  47.327 -24.444  1.00  0.00     0.074 C 
BRANCH  38  39
HETATM   39  C19 UNL     1     -17.628  46.570 -24.162  1.00  0.00    -0.056 A 
HETATM   40  C20 UNL     1     -18.487  46.215 -25.212  1.00  0.00     0.007 A 
HETATM   41  C21 UNL     1     -19.673  45.527 -24.954  1.00  0.00     0.001 A 
HETATM   42  C22 UNL     1     -20.014  45.189 -23.646  1.00  0.00     0.000 A 
HETATM   43  C23 UNL     1     -19.166  45.536 -22.595  1.00  0.00     0.001 A 
HETATM   44  C24 UNL     1     -17.977  46.223 -22.850  1.00  0.00     0.007 A 
ENDBRANCH  38  39
ENDBRANCH  37  38
BRANCH  37  45
HETATM   45  C25 UNL     1     -13.968  46.879 -25.065  1.00  0.00     0.163 C 
HETATM   46  O5  UNL     1     -12.848  47.277 -24.781  1.00  0.00    -0.648 OA
BRANCH  45  47
HETATM   47  O6  UNL     1     -14.325  46.699 -26.351  1.00  0.00    -0.775 OA
HETATM   48  H27 UNL     1     -13.525  46.917 -26.872  1.00  0.00     0.167 HD
ENDBRANCH  45  47
ENDBRANCH  37  45
ENDBRANCH  35  37
ENDBRANCH  32  33
BRANCH  32  49
HETATM   49  C26 UNL     1     -14.787  47.728 -19.859  1.00  0.00     0.009 C 
HETATM   50  C27 UNL     1     -16.152  47.193 -19.422  1.00  0.00     0.012 C 
HETATM   51  C28 UNL     1     -14.125  48.436 -18.670  1.00  0.00     0.012 C 
ENDBRANCH  32  49
ENDBRANCH  30  32
ENDBRANCH  27  28
ENDBRANCH  26  27
ENDBRANCH  13  26
TORSDOF 12
ENDMDL
MODEL 3
REMARK minimizedAffinity -9.10943317
REMARK CNNscore 0.319431514
REMARK CNNaffinity 7.32616663
REMARK  12 active torsions:
REMARK  status: ('A' for Active; 'I' for Inactive)
REMARK    1  A    between atoms: C3_3  and  O1_4 
REMARK    2  A    between atoms: N1_14  and  O2_16 
REMARK    3  A    between atoms: O2_16  and  C13_17 
REMARK    4  A    between atoms: C13_17  and  C14_18 
REMARK       I    between atoms: C14_18  and  N2_20 
REMARK    5  A    between atoms: N2_20  and  C15_21 
REMARK    6  A    between atoms: C15_21  and  C16_22 
REMARK    7  A    between atoms: C15_21  and  C26_36 
REMARK       I    between atoms: C16_22  and  N3_24 
REMARK    8  A    between atoms: N3_24  and  C17_25 
REMARK    9  A    between atoms: C17_25  and  C18_26 
REMARK   10  A    between atoms: C17_25  and  C25_33 
REMARK   11  A    between atoms: C18_26  and  C19_27 
REMARK   12  A    between atoms: C25_33  and  O6_35 
ROOT
HETATM    1  C1  UNL     1       2.626  51.807 -27.532  1.00  0.00     0.015 C 
HETATM    2  C2  UNL     1       1.573  52.231 -27.140  1.00  0.00    -0.078 C 
HETATM    3  C3  UNL     1       0.278  52.765 -26.661  1.00  0.00     0.128 C 
HETATM    4  C4  UNL     1      -0.799  52.579 -27.741  1.00  0.00     0.052 C 
HETATM    5  C5  UNL     1      -1.488  51.243 -27.429  1.00  0.00     0.010 C 
HETATM    6  C6  UNL     1      -0.865  50.718 -26.119  1.00  0.00     0.002 C 
HETATM    7  C7  UNL     1      -1.743  49.814 -25.212  1.00  0.00    -0.004 C 
HETATM    8  C8  UNL     1      -2.624  48.836 -26.021  1.00  0.00     0.010 C 
HETATM    9  C9  UNL     1      -4.099  49.216 -26.047  1.00  0.00     0.035 C 
HETATM   10  C10 UNL     1      -4.693  49.408 -24.674  1.00  0.00    -0.069 C 
HETATM   11  C11 UNL     1      -6.025  49.287 -24.511  1.00  0.00     0.030 C 
HETATM   12  C12 UNL     1      -6.685  49.513 -23.188  1.00  0.00     0.032 C 
HETATM   13  N1  UNL     1      -7.956  49.399 -22.944  1.00  0.00    -0.271 N 
ATOM     14  H1  UNL     1      -8.377  49.561 -22.028  1.00  0.00     0.194 HD
HETATM   15  C29 UNL     1      -5.805  49.897 -22.013  1.00  0.00     0.060 C 
HETATM   16  C30 UNL     1      -4.540  50.602 -22.484  1.00  0.00     0.020 C 
HETATM   17  C31 UNL     1      -3.747  49.776 -23.537  1.00  0.00    -0.016 C 
HETATM   18  C32 UNL     1      -3.255  48.477 -22.836  1.00  0.00     0.020 C 
HETATM   19  C33 UNL     1      -2.494  50.568 -24.068  1.00  0.00     0.002 C 
HETATM   20  C34 UNL     1      -2.755  52.024 -24.478  1.00  0.00     0.007 C 
HETATM   21  C35 UNL     1      -1.465  52.804 -24.765  1.00  0.00     0.014 C 
HETATM   22  C36 UNL     1      -0.318  51.993 -25.439  1.00  0.00     0.003 C 
HETATM   23  C37 UNL     1       0.749  51.671 -24.373  1.00  0.00     0.020 C 
ENDROOT
BRANCH   3  24
HETATM   24  O1  UNL     1       0.452  54.148 -26.384  1.00  0.00    -0.377 OA
HETATM   25  H2  UNL     1       1.211  54.223 -25.782  1.00  0.00     0.211 HD
ENDBRANCH   3  24
BRANCH  13  26
HETATM   26  O2  UNL     1      -8.682  49.027 -24.083  1.00  0.00    -0.271 OA
BRANCH  26  27
HETATM   27  C13 UNL     1      -8.672  47.608 -24.187  1.00  0.00     0.303 C 
BRANCH  27  28
HETATM   28  C14 UNL     1      -8.768  47.197 -25.649  1.00  0.00     0.244 C 
HETATM   29  O3  UNL     1      -8.741  46.024 -26.014  1.00  0.00    -0.271 OA
HETATM   30  N2  UNL     1      -8.825  48.255 -26.534  1.00  0.00    -0.346 N 
HETATM   31  H16 UNL     1      -8.502  49.145 -26.168  1.00  0.00     0.163 HD
BRANCH  30  32
HETATM   32  C15 UNL     1      -8.639  48.038 -27.965  1.00  0.00     0.180 C 
BRANCH  32  33
HETATM   33  C16 UNL     1     -10.045  47.708 -28.517  1.00  0.00     0.241 C 
HETATM   34  O4  UNL     1     -10.444  48.135 -29.600  1.00  0.00    -0.271 OA
HETATM   35  N3  UNL     1     -10.809  46.904 -27.700  1.00  0.00    -0.345 N 
HETATM   36  H18 UNL     1     -10.552  46.845 -26.721  1.00  0.00     0.163 HD
BRANCH  35  37
HETATM   37  C17 UNL     1     -12.192  46.555 -28.054  1.00  0.00     0.186 C 
BRANCH  37  38
HETATM   38  C18 UNL     1     -12.331  45.033 -28.188  1.00  0.00     0.074 C 
BRANCH  38  39
HETATM   39  C19 UNL     1     -11.439  44.432 -29.246  1.00  0.00    -0.056 A 
HETATM   40  C20 UNL     1     -11.535  44.858 -30.578  1.00  0.00     0.007 A 
HETATM   41  C21 UNL     1     -10.721  44.295 -31.561  1.00  0.00     0.001 A 
HETATM   42  C22 UNL     1      -9.807  43.299 -31.224  1.00  0.00     0.000 A 
HETATM   43  C23 UNL     1      -9.703  42.868 -29.903  1.00  0.00     0.001 A 
HETATM   44  C24 UNL     1     -10.514  43.432 -28.916  1.00  0.00     0.007 A 
ENDBRANCH  38  39
ENDBRANCH  37  38
BRANCH  37  45
HETATM   45  C25 UNL     1     -13.103  47.062 -26.938  1.00  0.00     0.163 C 
HETATM   46  O5  UNL     1     -14.308  46.871 -26.856  1.00  0.00    -0.648 OA
BRANCH  45  47
HETATM   47  O6  UNL     1     -12.459  47.785 -26.001  1.00  0.00    -0.775 OA
HETATM   48  H27 UNL     1     -13.146  48.024 -25.345  1.00  0.00     0.167 HD
ENDBRANCH  45  47
ENDBRANCH  37  45
ENDBRANCH  35  37
ENDBRANCH  32  33
BRANCH  32  49
HETATM   49  C26 UNL     1      -7.644  46.886 -28.224  1.00  0.00     0.009 C 
HETATM   50  C27 UNL     1      -7.915  46.175 -29.552  1.00  0.00     0.012 C 
HETATM   51  C28 UNL     1      -6.198  47.400 -28.219  1.00  0.00     0.012 C 
ENDBRANCH  32  49
ENDBRANCH  30  32
ENDBRANCH  27  28
ENDBRANCH  26  27
ENDBRANCH  13  26
TORSDOF 12
ENDMDL
MODEL 4
REMARK minimizedAffinity -8.97253513
REMARK CNNscore 0.23051843
REMARK CNNaffinity 6.80211973
REMARK  12 active torsions:
REMARK  status: ('A' for Active; 'I' for Inactive)
REMARK    1  A    between atoms: C3_3  and  O1_4 
REMARK    2  A    between atoms: N1_14  and  O2_16 
REMARK    3  A    between atoms: O2_16  and  C13_17 
REMARK    4  A    between atoms: C13_17  and  C14_18 
REMARK       I    between atoms: C14_18  and  N2_20 
REMARK    5  A    between atoms: N2_20  and  C15_21 
REMARK    6  A    between atoms: C15_21  and  C16_22 
REMARK    7  A    between atoms: C15_21  and  C26_36 
REMARK       I    between atoms: C16_22  and  N3_24 
REMARK    8  A    between atoms: N3_24  and  C17_25 
REMARK    9  A    between atoms: C17_25  and  C18_26 
REMARK   10  A    between atoms: C17_25  and  C25_33 
REMARK   11  A    between atoms: C18_26  and  C19_27 
REMARK   12  A    between atoms: C25_33  and  O6_35 
ROOT
HETATM    1  C1  UNL     1      -2.954  52.720 -24.637  1.00  0.00     0.015 C 
HETATM    2  C2  UNL     1      -2.206  51.991 -24.044  1.00  0.00    -0.078 C 
HETATM    3  C3  UNL     1      -1.280  51.088 -23.325  1.00  0.00     0.128 C 
HETATM    4  C4  UNL     1       0.055  51.802 -23.066  1.00  0.00     0.052 C 
HETATM    5  C5  UNL     1      -0.061  52.432 -21.671  1.00  0.00     0.010 C 
HETATM    6  C6  UNL     1      -1.426  51.995 -21.100  1.00  0.00     0.002 C 
HETATM    7  C7  UNL     1      -1.562  51.879 -19.558  1.00  0.00    -0.004 C 
HETATM    8  C8  UNL     1      -0.804  52.998 -18.808  1.00  0.00     0.010 C 
HETATM    9  C9  UNL     1       0.475  52.526 -18.129  1.00  0.00     0.035 C 
HETATM   10  C10 UNL     1       0.264  51.355 -17.203  1.00  0.00    -0.069 C 
HETATM   11  C11 UNL     1       1.153  51.128 -16.217  1.00  0.00     0.030 C 
HETATM   12  C12 UNL     1       1.032  49.957 -15.293  1.00  0.00     0.032 C 
HETATM   13  N1  UNL     1       1.834  49.679 -14.309  1.00  0.00    -0.271 N 
ATOM     14  H1  UNL     1       1.725  48.870 -13.696  1.00  0.00     0.194 HD
HETATM   15  C29 UNL     1      -0.133  49.008 -15.502  1.00  0.00     0.060 C 
HETATM   16  C30 UNL     1      -0.598  49.022 -16.952  1.00  0.00     0.020 C 
HETATM   17  C31 UNL     1      -0.937  50.452 -17.461  1.00  0.00    -0.016 C 
HETATM   18  C32 UNL     1      -2.153  50.964 -16.637  1.00  0.00     0.020 C 
HETATM   19  C33 UNL     1      -1.329  50.444 -18.986  1.00  0.00     0.002 C 
HETATM   20  C34 UNL     1      -0.390  49.655 -19.909  1.00  0.00     0.007 C 
HETATM   21  C35 UNL     1      -0.945  49.493 -21.329  1.00  0.00     0.014 C 
HETATM   22  C36 UNL     1      -1.753  50.704 -21.884  1.00  0.00     0.003 C 
HETATM   23  C37 UNL     1      -3.255  50.358 -21.834  1.00  0.00     0.020 C 
ENDROOT
BRANCH   3  24
HETATM   24  O1  UNL     1      -1.067  49.942 -24.138  1.00  0.00    -0.377 OA
HETATM   25  H2  UNL     1      -1.943  49.588 -24.363  1.00  0.00     0.211 HD
ENDBRANCH   3  24
BRANCH  13  26
HETATM   26  O2  UNL     1       2.866  50.619 -14.187  1.00  0.00    -0.271 OA
BRANCH  26  27
HETATM   27  C13 UNL     1       2.359  51.769 -13.520  1.00  0.00     0.303 C 
BRANCH  27  28
HETATM   28  C14 UNL     1       3.035  51.919 -12.164  1.00  0.00     0.244 C 
HETATM   29  O3  UNL     1       3.540  50.974 -11.564  1.00  0.00    -0.271 OA
HETATM   30  N2  UNL     1       2.978  53.195 -11.639  1.00  0.00    -0.346 N 
HETATM   31  H16 UNL     1       2.265  53.797 -12.038  1.00  0.00     0.163 HD
BRANCH  30  32
HETATM   32  C15 UNL     1       3.327  53.441 -10.244  1.00  0.00     0.180 C 
BRANCH  32  33
HETATM   33  C16 UNL     1       1.980  53.519  -9.490  1.00  0.00     0.241 C 
HETATM   34  O4  UNL     1       1.692  52.750  -8.574  1.00  0.00    -0.271 OA
HETATM   35  N3  UNL     1       1.132  54.512  -9.930  1.00  0.00    -0.345 N 
HETATM   36  H18 UNL     1       1.291  54.894 -10.855  1.00  0.00     0.163 HD
BRANCH  35  37
HETATM   37  C17 UNL     1      -0.212  54.672  -9.358  1.00  0.00     0.186 C 
BRANCH  37  38
HETATM   38  C18 UNL     1      -0.740  53.317  -8.871  1.00  0.00     0.074 C 
BRANCH  38  39
HETATM   39  C19 UNL     1      -2.027  52.892  -9.535  1.00  0.00    -0.056 A 
HETATM   40  C20 UNL     1      -2.465  51.563  -9.444  1.00  0.00     0.007 A 
HETATM   41  C21 UNL     1      -3.646  51.163 -10.067  1.00  0.00     0.001 A 
HETATM   42  C22 UNL     1      -4.401  52.085 -10.791  1.00  0.00     0.000 A 
HETATM   43  C23 UNL     1      -3.975  53.408 -10.887  1.00  0.00     0.001 A 
HETATM   44  C24 UNL     1      -2.793  53.813 -10.262  1.00  0.00     0.007 A 
ENDBRANCH  38  39
ENDBRANCH  37  38
BRANCH  37  45
HETATM   45  C25 UNL     1      -0.108  55.640  -8.181  1.00  0.00     0.163 C 
HETATM   46  O5  UNL     1      -0.578  56.768  -8.138  1.00  0.00    -0.648 OA
BRANCH  45  47
HETATM   47  O6  UNL     1       0.586  55.148  -7.137  1.00  0.00    -0.775 OA
HETATM   48  H27 UNL     1       0.556  55.850  -6.455  1.00  0.00     0.167 HD
ENDBRANCH  45  47
ENDBRANCH  37  45
ENDBRANCH  35  37
ENDBRANCH  32  33
BRANCH  32  49
HETATM   49  C26 UNL     1       4.135  54.749 -10.099  1.00  0.00     0.009 C 
HETATM   50  C27 UNL     1       3.514  55.901 -10.893  1.00  0.00     0.012 C 
HETATM   51  C28 UNL     1       4.247  55.163  -8.626  1.00  0.00     0.012 C 
ENDBRANCH  32  49
ENDBRANCH  30  32
ENDBRANCH  27  28
ENDBRANCH  26  27
ENDBRANCH  13  26
TORSDOF 12
ENDMDL
MODEL 5
REMARK minimizedAffinity -9.97234726
REMARK CNNscore 0.228673652
REMARK CNNaffinity 6.88036346
REMARK  12 active torsions:
REMARK  status: ('A' for Active; 'I' for Inactive)
REMARK    1  A    between atoms: C3_3  and  O1_4 
REMARK    2  A    between atoms: N1_14  and  O2_16 
REMARK    3  A    between atoms: O2_16  and  C13_17 
REMARK    4  A    between atoms: C13_17  and  C14_18 
REMARK       I    between atoms: C14_18  and  N2_20 
REMARK    5  A    between atoms: N2_20  and  C15_21 
REMARK    6  A    between atoms: C15_21  and  C16_22 
REMARK    7  A    between atoms: C15_21  and  C26_36 
REMARK       I    between atoms: C16_22  and  N3_24 
REMARK    8  A    between atoms: N3_24  and  C17_25 
REMARK    9  A    between atoms: C17_25  and  C18_26 
REMARK   10  A    between atoms: C17_25  and  C25_33 
REMARK   11  A    between atoms: C18_26  and  C19_27 
REMARK   12  A    between atoms: C25_33  and  O6_35 
ROOT
HETATM    1  C1  UNL     1      -5.150  48.080 -25.992  1.00  0.00     0.015 C 
HETATM    2  C2  UNL     1      -5.153  48.794 -25.027  1.00  0.00    -0.078 C 
HETATM    3  C3  UNL     1      -5.168  49.677 -23.839  1.00  0.00     0.128 C 
HETATM    4  C4  UNL     1      -5.341  48.839 -22.563  1.00  0.00     0.052 C 
HETATM    5  C5  UNL     1      -3.924  48.545 -22.051  1.00  0.00     0.010 C 
HETATM    6  C6  UNL     1      -2.951  49.296 -22.982  1.00  0.00     0.002 C 
HETATM    7  C7  UNL     1      -1.592  49.755 -22.390  1.00  0.00    -0.004 C 
HETATM    8  C8  UNL     1      -0.985  48.718 -21.418  1.00  0.00     0.010 C 
HETATM    9  C9  UNL     1      -1.078  49.123 -19.952  1.00  0.00     0.035 C 
HETATM   10  C10 UNL     1      -0.490  50.482 -19.668  1.00  0.00    -0.069 C 
HETATM   11  C11 UNL     1      -0.085  50.774 -18.416  1.00  0.00     0.030 C 
HETATM   12  C12 UNL     1       0.462  52.118 -18.053  1.00  0.00     0.032 C 
HETATM   13  N1  UNL     1       0.890  52.473 -16.879  1.00  0.00    -0.271 N 
ATOM     14  H1  UNL     1       1.258  53.400 -16.662  1.00  0.00     0.194 HD
HETATM   15  C29 UNL     1       0.544  53.168 -19.145  1.00  0.00     0.060 C 
HETATM   16  C30 UNL     1      -0.501  52.918 -20.225  1.00  0.00     0.020 C 
HETATM   17  C31 UNL     1      -0.424  51.482 -20.816  1.00  0.00    -0.016 C 
HETATM   18  C32 UNL     1       0.949  51.348 -21.536  1.00  0.00     0.020 C 
HETATM   19  C33 UNL     1      -1.571  51.226 -21.864  1.00  0.00     0.002 C 
HETATM   20  C34 UNL     1      -2.979  51.649 -21.423  1.00  0.00     0.007 C 
HETATM   21  C35 UNL     1      -4.004  51.589 -22.562  1.00  0.00     0.014 C 
HETATM   22  C36 UNL     1      -3.818  50.426 -23.582  1.00  0.00     0.003 C 
HETATM   23  C37 UNL     1      -3.212  51.000 -24.878  1.00  0.00     0.020 C 
ENDROOT
BRANCH   3  24
HETATM   24  O1  UNL     1      -6.258  50.578 -23.978  1.00  0.00    -0.377 OA
HETATM   25  H2  UNL     1      -6.163  51.006 -24.845  1.00  0.00     0.211 HD
ENDBRANCH   3  24
BRANCH  13  26
HETATM   26  O2  UNL     1       0.790  51.433 -15.944  1.00  0.00    -0.271 OA
BRANCH  26  27
HETATM   27  C13 UNL     1       1.489  51.812 -14.764  1.00  0.00     0.303 C 
BRANCH  27  28
HETATM   28  C14 UNL     1       0.500  52.294 -13.711  1.00  0.00     0.244 C 
HETATM   29  O3  UNL     1      -0.716  52.286 -13.887  1.00  0.00    -0.271 OA
HETATM   30  N2  UNL     1       1.089  52.798 -12.568  1.00  0.00    -0.346 N 
HETATM   31  H16 UNL     1       2.062  53.070 -12.665  1.00  0.00     0.163 HD
BRANCH  30  32
HETATM   32  C15 UNL     1       0.300  53.547 -11.595  1.00  0.00     0.180 C 
BRANCH  32  33
HETATM   33  C16 UNL     1       1.277  53.881 -10.444  1.00  0.00     0.241 C 
HETATM   34  O4  UNL     1       2.191  53.125 -10.117  1.00  0.00    -0.271 OA
HETATM   35  N3  UNL     1       1.037  55.084  -9.817  1.00  0.00    -0.345 N 
HETATM   36  H18 UNL     1       0.118  55.497  -9.923  1.00  0.00     0.163 HD
BRANCH  35  37
HETATM   37  C17 UNL     1       1.838  55.512  -8.662  1.00  0.00     0.186 C 
BRANCH  37  38
HETATM   38  C18 UNL     1       2.927  56.494  -9.113  1.00  0.00     0.074 C 
BRANCH  38  39
HETATM   39  C19 UNL     1       4.331  55.988  -8.893  1.00  0.00    -0.056 A 
HETATM   40  C20 UNL     1       5.020  56.304  -7.713  1.00  0.00     0.007 A 
HETATM   41  C21 UNL     1       6.323  55.849  -7.511  1.00  0.00     0.001 A 
HETATM   42  C22 UNL     1       6.952  55.077  -8.486  1.00  0.00     0.000 A 
HETATM   43  C23 UNL     1       6.276  54.757  -9.662  1.00  0.00     0.001 A 
HETATM   44  C24 UNL     1       4.970  55.209  -9.866  1.00  0.00     0.007 A 
ENDBRANCH  38  39
ENDBRANCH  37  38
BRANCH  37  45
HETATM   45  C25 UNL     1       0.900  56.199  -7.671  1.00  0.00     0.163 C 
HETATM   46  O5  UNL     1      -0.305  56.012  -7.579  1.00  0.00    -0.648 OA
BRANCH  45  47
HETATM   47  O6  UNL     1       1.519  57.084  -6.866  1.00  0.00    -0.775 OA
HETATM   48  H27 UNL     1       0.818  57.429  -6.276  1.00  0.00     0.167 HD
ENDBRANCH  45  47
ENDBRANCH  37  45
ENDBRANCH  35  37
ENDBRANCH  32  33
BRANCH  32  49
HETATM   49  C26 UNL     1      -0.899  52.712 -11.097  1.00  0.00     0.009 C 
HETATM   50  C27 UNL     1      -0.523  51.804  -9.924  1.00  0.00     0.012 C 
HETATM   51  C28 UNL     1      -2.060  53.620 -10.673  1.00  0.00     0.012 C 
ENDBRANCH  32  49
ENDBRANCH  30  32
ENDBRANCH  27  28
ENDBRANCH  26  27
ENDBRANCH  13  26
TORSDOF 12
ENDMDL
MODEL 6
REMARK minimizedAffinity -9.69457531
REMARK CNNscore 0.20613113
REMARK CNNaffinity 6.50742865
REMARK  12 active torsions:
REMARK  status: ('A' for Active; 'I' for Inactive)
REMARK    1  A    between atoms: C3_3  and  O1_4 
REMARK    2  A    between atoms: N1_14  and  O2_16 
REMARK    3  A    between atoms: O2_16  and  C13_17 
REMARK    4  A    between atoms: C13_17  and  C14_18 
REMARK       I    between atoms: C14_18  and  N2_20 
REMARK    5  A    between atoms: N2_20  and  C15_21 
REMARK    6  A    between atoms: C15_21  and  C16_22 
REMARK    7  A    between atoms: C15_21  and  C26_36 
REMARK       I    between atoms: C16_22  and  N3_24 
REMARK    8  A    between atoms: N3_24  and  C17_25 
REMARK    9  A    between atoms: C17_25  and  C18_26 
REMARK   10  A    between atoms: C17_25  and  C25_33 
REMARK   11  A    between atoms: C18_26  and  C19_27 
REMARK   12  A    between atoms: C25_33  and  O6_35 
ROOT
HETATM    1  C1  UNL     1      -3.014  50.582 -28.264  1.00  0.00     0.015 C 
HETATM    2  C2  UNL     1      -2.798  51.260 -27.297  1.00  0.00    -0.078 C 
HETATM    3  C3  UNL     1      -2.532  52.106 -26.112  1.00  0.00     0.128 C 
HETATM    4  C4  UNL     1      -3.847  52.412 -25.379  1.00  0.00     0.052 C 
HETATM    5  C5  UNL     1      -3.994  51.332 -24.299  1.00  0.00     0.010 C 
HETATM    6  C6  UNL     1      -2.716  50.470 -24.357  1.00  0.00     0.002 C 
HETATM    7  C7  UNL     1      -2.251  49.776 -23.049  1.00  0.00    -0.004 C 
HETATM    8  C8  UNL     1      -3.431  49.241 -22.206  1.00  0.00     0.010 C 
HETATM    9  C9  UNL     1      -3.719  50.065 -20.958  1.00  0.00     0.035 C 
HETATM   10  C10 UNL     1      -2.514  50.251 -20.072  1.00  0.00    -0.069 C 
HETATM   11  C11 UNL     1      -2.695  50.535 -18.767  1.00  0.00     0.030 C 
HETATM   12  C12 UNL     1      -1.545  50.780 -17.842  1.00  0.00     0.032 C 
HETATM   13  N1  UNL     1      -1.633  51.040 -16.572  1.00  0.00    -0.271 N 
ATOM     14  H1  UNL     1      -0.828  51.204 -15.966  1.00  0.00     0.194 HD
HETATM   15  C29 UNL     1      -0.143  50.709 -18.419  1.00  0.00     0.060 C 
HETATM   16  C30 UNL     1      -0.147  51.036 -19.907  1.00  0.00     0.020 C 
HETATM   17  C31 UNL     1      -1.136  50.150 -20.716  1.00  0.00    -0.016 C 
HETATM   18  C32 UNL     1      -0.630  48.681 -20.620  1.00  0.00     0.020 C 
HETATM   19  C33 UNL     1      -1.181  50.570 -22.232  1.00  0.00     0.002 C 
HETATM   20  C34 UNL     1      -1.323  52.075 -22.499  1.00  0.00     0.007 C 
HETATM   21  C35 UNL     1      -1.130  52.440 -23.977  1.00  0.00     0.014 C 
HETATM   22  C36 UNL     1      -1.673  51.406 -25.007  1.00  0.00     0.003 C 
HETATM   23  C37 UNL     1      -0.481  50.628 -25.599  1.00  0.00     0.020 C 
ENDROOT
BRANCH   3  24
HETATM   24  O1  UNL     1      -1.936  53.315 -26.563  1.00  0.00    -0.377 OA
HETATM   25  H2  UNL     1      -1.172  53.068 -27.109  1.00  0.00     0.211 HD
ENDBRANCH   3  24
BRANCH  13  26
HETATM   26  O2  UNL     1      -2.963  51.069 -16.130  1.00  0.00    -0.271 OA
BRANCH  26  27
HETATM   27  C13 UNL     1      -3.007  50.606 -14.785  1.00  0.00     0.303 C 
BRANCH  27  28
HETATM   28  C14 UNL     1      -3.085  51.792 -13.834  1.00  0.00     0.244 C 
HETATM   29  O3  UNL     1      -3.741  52.801 -14.081  1.00  0.00    -0.271 OA
HETATM   30  N2  UNL     1      -2.307  51.663 -12.700  1.00  0.00    -0.346 N 
HETATM   31  H16 UNL     1      -1.565  50.974 -12.759  1.00  0.00     0.163 HD
BRANCH  30  32
HETATM   32  C15 UNL     1      -2.056  52.813 -11.837  1.00  0.00     0.180 C 
BRANCH  32  33
HETATM   33  C16 UNL     1      -0.544  52.766 -11.518  1.00  0.00     0.241 C 
HETATM   34  O4  UNL     1       0.214  51.950 -12.042  1.00  0.00    -0.271 OA
HETATM   35  N3  UNL     1      -0.120  53.704 -10.603  1.00  0.00    -0.345 N 
HETATM   36  H18 UNL     1      -0.817  54.125 -10.000  1.00  0.00     0.163 HD
BRANCH  35  37
HETATM   37  C17 UNL     1       1.276  53.744 -10.148  1.00  0.00     0.186 C 
BRANCH  37  38
HETATM   38  C18 UNL     1       1.728  55.199  -9.967  1.00  0.00     0.074 C 
BRANCH  38  39
HETATM   39  C19 UNL     1       3.170  55.340  -9.545  1.00  0.00    -0.056 A 
HETATM   40  C20 UNL     1       4.180  54.655 -10.235  1.00  0.00     0.007 A 
HETATM   41  C21 UNL     1       5.512  54.772  -9.840  1.00  0.00     0.001 A 
HETATM   42  C22 UNL     1       5.849  55.571  -8.749  1.00  0.00     0.000 A 
HETATM   43  C23 UNL     1       4.853  56.256  -8.055  1.00  0.00     0.001 A 
HETATM   44  C24 UNL     1       3.518  56.144  -8.451  1.00  0.00     0.007 A 
ENDBRANCH  38  39
ENDBRANCH  37  38
BRANCH  37  45
HETATM   45  C25 UNL     1       1.354  53.009  -8.811  1.00  0.00     0.163 C 
HETATM   46  O5  UNL     1       1.708  51.850  -8.651  1.00  0.00    -0.648 OA
BRANCH  45  47
HETATM   47  O6  UNL     1       0.974  53.760  -7.759  1.00  0.00    -0.775 OA
HETATM   48  H27 UNL     1       1.092  53.183  -6.976  1.00  0.00     0.167 HD
ENDBRANCH  45  47
ENDBRANCH  37  45
ENDBRANCH  35  37
ENDBRANCH  32  33
BRANCH  32  49
HETATM   49  C26 UNL     1      -2.909  52.735 -10.552  1.00  0.00     0.009 C 
HETATM   50  C27 UNL     1      -4.112  53.679 -10.599  1.00  0.00     0.012 C 
HETATM   51  C28 UNL     1      -3.408  51.304 -10.312  1.00  0.00     0.012 C 
ENDBRANCH  32  49
ENDBRANCH  30  32
ENDBRANCH  27  28
ENDBRANCH  26  27
ENDBRANCH  13  26
TORSDOF 12
ENDMDL
MODEL 7
REMARK minimizedAffinity -9.54686165
REMARK CNNscore 0.204332575
REMARK CNNaffinity 6.75074959
REMARK  12 active torsions:
REMARK  status: ('A' for Active; 'I' for Inactive)
REMARK    1  A    between atoms: C3_3  and  O1_4 
REMARK    2  A    between atoms: N1_14  and  O2_16 
REMARK    3  A    between atoms: O2_16  and  C13_17 
REMARK    4  A    between atoms: C13_17  and  C14_18 
REMARK       I    between atoms: C14_18  and  N2_20 
REMARK    5  A    between atoms: N2_20  and  C15_21 
REMARK    6  A    between atoms: C15_21  and  C16_22 
REMARK    7  A    between atoms: C15_21  and  C26_36 
REMARK       I    between atoms: C16_22  and  N3_24 
REMARK    8  A    between atoms: N3_24  and  C17_25 
REMARK    9  A    between atoms: C17_25  and  C18_26 
REMARK   10  A    between atoms: C17_25  and  C25_33 
REMARK   11  A    between atoms: C18_26  and  C19_27 
REMARK   12  A    between atoms: C25_33  and  O6_35 
ROOT
HETATM    1  C1  UNL     1      -4.921  48.111 -26.261  1.00  0.00     0.015 C 
HETATM    2  C2  UNL     1      -5.019  48.686 -25.212  1.00  0.00    -0.078 C 
HETATM    3  C3  UNL     1      -5.152  49.399 -23.921  1.00  0.00     0.128 C 
HETATM    4  C4  UNL     1      -5.366  48.389 -22.784  1.00  0.00     0.052 C 
HETATM    5  C5  UNL     1      -3.972  48.083 -22.217  1.00  0.00     0.010 C 
HETATM    6  C6  UNL     1      -2.979  48.992 -22.971  1.00  0.00     0.002 C 
HETATM    7  C7  UNL     1      -1.684  49.418 -22.230  1.00  0.00    -0.004 C 
HETATM    8  C8  UNL     1      -1.091  48.284 -21.364  1.00  0.00     0.010 C 
HETATM    9  C9  UNL     1      -1.296  48.481 -19.868  1.00  0.00     0.035 C 
HETATM   10  C10 UNL     1      -0.793  49.811 -19.365  1.00  0.00    -0.069 C 
HETATM   11  C11 UNL     1      -0.483  49.946 -18.061  1.00  0.00     0.030 C 
HETATM   12  C12 UNL     1      -0.026  51.249 -17.485  1.00  0.00     0.032 C 
HETATM   13  N1  UNL     1       0.309  51.457 -16.247  1.00  0.00    -0.271 N 
ATOM     14  H1  UNL     1       0.617  52.360 -15.884  1.00  0.00     0.194 HD
HETATM   15  C29 UNL     1       0.075  52.440 -18.420  1.00  0.00     0.060 C 
HETATM   16  C30 UNL     1      -0.886  52.298 -19.593  1.00  0.00     0.020 C 
HETATM   17  C31 UNL     1      -0.702  50.960 -20.363  1.00  0.00    -0.016 C 
HETATM   18  C32 UNL     1       0.718  50.979 -20.997  1.00  0.00     0.020 C 
HETATM   19  C33 UNL     1      -1.767  50.804 -21.513  1.00  0.00     0.002 C 
HETATM   20  C34 UNL     1      -3.219  51.108 -21.118  1.00  0.00     0.007 C 
HETATM   21  C35 UNL     1      -4.166  51.163 -22.324  1.00  0.00     0.014 C 
HETATM   22  C36 UNL     1      -3.859  50.157 -23.474  1.00  0.00     0.003 C 
HETATM   23  C37 UNL     1      -3.200  50.925 -24.636  1.00  0.00     0.020 C 
ENDROOT
BRANCH   3  24
HETATM   24  O1  UNL     1      -6.273  50.267 -24.015  1.00  0.00    -0.377 OA
HETATM   25  H2  UNL     1      -6.144  50.812 -24.808  1.00  0.00     0.211 HD
ENDBRANCH   3  24
BRANCH  13  26
HETATM   26  O2  UNL     1       0.200  50.297 -15.468  1.00  0.00    -0.271 OA
BRANCH  26  27
HETATM   27  C13 UNL     1      -1.050  50.321 -14.789  1.00  0.00     0.303 C 
BRANCH  27  28
HETATM   28  C14 UNL     1      -1.152  51.580 -13.940  1.00  0.00     0.244 C 
HETATM   29  O3  UNL     1      -0.314  52.477 -13.976  1.00  0.00    -0.271 OA
HETATM   30  N2  UNL     1      -2.234  51.601 -13.081  1.00  0.00    -0.346 N 
HETATM   31  H16 UNL     1      -2.650  50.696 -12.887  1.00  0.00     0.163 HD
BRANCH  30  32
HETATM   32  C15 UNL     1      -2.318  52.595 -12.016  1.00  0.00     0.180 C 
BRANCH  32  33
HETATM   33  C16 UNL     1      -1.182  52.237 -11.029  1.00  0.00     0.241 C 
HETATM   34  O4  UNL     1      -0.875  51.074 -10.773  1.00  0.00    -0.271 OA
HETATM   35  N3  UNL     1      -0.550  53.323 -10.463  1.00  0.00    -0.345 N 
HETATM   36  H18 UNL     1      -1.035  54.212 -10.476  1.00  0.00     0.163 HD
BRANCH  35  37
HETATM   37  C17 UNL     1       0.506  53.147  -9.456  1.00  0.00     0.186 C 
BRANCH  37  38
HETATM   38  C18 UNL     1       1.049  54.515  -9.022  1.00  0.00     0.074 C 
BRANCH  38  39
HETATM   39  C19 UNL     1       2.442  54.803  -9.527  1.00  0.00    -0.056 A 
HETATM   40  C20 UNL     1       3.547  54.141  -8.973  1.00  0.00     0.007 A 
HETATM   41  C21 UNL     1       4.836  54.415  -9.428  1.00  0.00     0.001 A 
HETATM   42  C22 UNL     1       5.036  55.355 -10.437  1.00  0.00     0.000 A 
HETATM   43  C23 UNL     1       3.945  56.019 -10.994  1.00  0.00     0.001 A 
HETATM   44  C24 UNL     1       2.652  55.745 -10.543  1.00  0.00     0.007 A 
ENDBRANCH  38  39
ENDBRANCH  37  38
BRANCH  37  45
HETATM   45  C25 UNL     1      -0.107  52.429  -8.255  1.00  0.00     0.163 C 
HETATM   46  O5  UNL     1      -1.049  52.829  -7.586  1.00  0.00    -0.648 OA
BRANCH  45  47
HETATM   47  O6  UNL     1       0.499  51.264  -7.956  1.00  0.00    -0.775 OA
HETATM   48  H27 UNL     1       0.001  50.904  -7.194  1.00  0.00     0.167 HD
ENDBRANCH  45  47
ENDBRANCH  37  45
ENDBRANCH  35  37
ENDBRANCH  32  33
BRANCH  32  49
HETATM   49  C26 UNL     1      -3.700  52.551 -11.329  1.00  0.00     0.009 C 
HETATM   50  C27 UNL     1      -3.829  51.369 -10.366  1.00  0.00     0.012 C 
HETATM   51  C28 UNL     1      -3.971  53.851 -10.562  1.00  0.00     0.012 C 
ENDBRANCH  32  49
ENDBRANCH  30  32
ENDBRANCH  27  28
ENDBRANCH  26  27
ENDBRANCH  13  26
TORSDOF 12
ENDMDL
MODEL 8
REMARK minimizedAffinity -9.04090786
REMARK CNNscore 0.187102482
REMARK CNNaffinity 6.32160521
REMARK  12 active torsions:
REMARK  status: ('A' for Active; 'I' for Inactive)
REMARK    1  A    between atoms: C3_3  and  O1_4 
REMARK    2  A    between atoms: N1_14  and  O2_16 
REMARK    3  A    between atoms: O2_16  and  C13_17 
REMARK    4  A    between atoms: C13_17  and  C14_18 
REMARK       I    between atoms: C14_18  and  N2_20 
REMARK    5  A    between atoms: N2_20  and  C15_21 
REMARK    6  A    between atoms: C15_21  and  C16_22 
REMARK    7  A    between atoms: C15_21  and  C26_36 
REMARK       I    between atoms: C16_22  and  N3_24 
REMARK    8  A    between atoms: N3_24  and  C17_25 
REMARK    9  A    between atoms: C17_25  and  C18_26 
REMARK   10  A    between atoms: C17_25  and  C25_33 
REMARK   11  A    between atoms: C18_26  and  C19_27 
REMARK   12  A    between atoms: C25_33  and  O6_35 
ROOT
HETATM    1  C1  UNL     1       2.160  51.844 -26.810  1.00  0.00     0.015 C 
HETATM    2  C2  UNL     1       1.072  52.207 -26.452  1.00  0.00    -0.078 C 
HETATM    3  C3  UNL     1      -0.266  52.665 -26.018  1.00  0.00     0.128 C 
HETATM    4  C4  UNL     1      -1.349  52.046 -26.914  1.00  0.00     0.052 C 
HETATM    5  C5  UNL     1      -1.804  50.762 -26.207  1.00  0.00     0.010 C 
HETATM    6  C6  UNL     1      -1.047  50.703 -24.864  1.00  0.00     0.002 C 
HETATM    7  C7  UNL     1      -1.728  49.965 -23.681  1.00  0.00    -0.004 C 
HETATM    8  C8  UNL     1      -2.481  48.692 -24.127  1.00  0.00     0.010 C 
HETATM    9  C9  UNL     1      -3.997  48.841 -24.123  1.00  0.00     0.035 C 
HETATM   10  C10 UNL     1      -4.549  49.313 -22.802  1.00  0.00    -0.069 C 
HETATM   11  C11 UNL     1      -5.837  49.057 -22.498  1.00  0.00     0.030 C 
HETATM   12  C12 UNL     1      -6.463  49.538 -21.227  1.00  0.00     0.032 C 
HETATM   13  N1  UNL     1      -7.687  49.318 -20.852  1.00  0.00    -0.271 N 
ATOM     14  H1  UNL     1      -8.085  49.662 -19.978  1.00  0.00     0.194 HD
HETATM   15  C29 UNL     1      -5.600  50.344 -20.274  1.00  0.00     0.060 C 
HETATM   16  C30 UNL     1      -4.485  51.064 -21.020  1.00  0.00     0.020 C 
HETATM   17  C31 UNL     1      -3.622  50.103 -21.886  1.00  0.00    -0.016 C 
HETATM   18  C32 UNL     1      -2.899  49.124 -20.916  1.00  0.00     0.020 C 
HETATM   19  C33 UNL     1      -2.535  50.888 -22.712  1.00  0.00     0.002 C 
HETATM   20  C34 UNL     1      -3.041  52.128 -23.463  1.00  0.00     0.007 C 
HETATM   21  C35 UNL     1      -1.904  52.972 -24.054  1.00  0.00     0.014 C 
HETATM   22  C36 UNL     1      -0.676  52.177 -24.590  1.00  0.00     0.003 C 
HETATM   23  C37 UNL     1       0.476  52.308 -23.574  1.00  0.00     0.020 C 
ENDROOT
BRANCH   3  24
HETATM   24  O1  UNL     1      -0.299  54.082 -26.127  1.00  0.00    -0.377 OA
HETATM   25  H2  UNL     1       0.465  54.422 -25.633  1.00  0.00     0.211 HD
ENDBRANCH   3  24
BRANCH  13  26
HETATM   26  O2  UNL     1      -8.397  48.554 -21.788  1.00  0.00    -0.271 OA
BRANCH  26  27
HETATM   27  C13 UNL     1      -8.485  47.217 -21.312  1.00  0.00     0.303 C 
BRANCH  27  28
HETATM   28  C14 UNL     1      -9.251  46.363 -22.312  1.00  0.00     0.244 C 
HETATM   29  O3  UNL     1      -8.726  45.871 -23.308  1.00  0.00    -0.271 OA
HETATM   30  N2  UNL     1     -10.600  46.240 -22.039  1.00  0.00    -0.346 N 
HETATM   31  H16 UNL     1     -10.982  46.943 -21.415  1.00  0.00     0.163 HD
BRANCH  30  32
HETATM   32  C15 UNL     1     -11.514  45.695 -23.039  1.00  0.00     0.180 C 
BRANCH  32  33
HETATM   33  C16 UNL     1     -12.771  46.593 -22.979  1.00  0.00     0.241 C 
HETATM   34  O4  UNL     1     -13.095  47.334 -23.906  1.00  0.00    -0.271 OA
HETATM   35  N3  UNL     1     -13.490  46.498 -21.808  1.00  0.00    -0.345 N 
HETATM   36  H18 UNL     1     -13.020  46.120 -20.993  1.00  0.00     0.163 HD
BRANCH  35  37
HETATM   37  C17 UNL     1     -14.674  47.336 -21.572  1.00  0.00     0.186 C 
BRANCH  37  38
HETATM   38  C18 UNL     1     -15.903  46.452 -21.328  1.00  0.00     0.074 C 
BRANCH  38  39
HETATM   39  C19 UNL     1     -16.915  46.494 -22.447  1.00  0.00    -0.056 A 
HETATM   40  C20 UNL     1     -16.526  46.882 -23.738  1.00  0.00     0.007 A 
HETATM   41  C21 UNL     1     -17.460  46.935 -24.772  1.00  0.00     0.001 A 
HETATM   42  C22 UNL     1     -18.792  46.606 -24.527  1.00  0.00     0.000 A 
HETATM   43  C23 UNL     1     -19.189  46.220 -23.248  1.00  0.00     0.001 A 
HETATM   44  C24 UNL     1     -18.255  46.162 -22.211  1.00  0.00     0.007 A 
ENDBRANCH  38  39
ENDBRANCH  37  38
BRANCH  37  45
HETATM   45  C25 UNL     1     -14.401  48.195 -20.338  1.00  0.00     0.163 C 
HETATM   46  O5  UNL     1     -13.600  49.116 -20.271  1.00  0.00    -0.648 OA
BRANCH  45  47
HETATM   47  O6  UNL     1     -15.134  47.845 -19.264  1.00  0.00    -0.775 OA
HETATM   48  H27 UNL     1     -14.881  48.479 -18.563  1.00  0.00     0.167 HD
ENDBRANCH  45  47
ENDBRANCH  37  45
ENDBRANCH  35  37
ENDBRANCH  32  33
BRANCH  32  49
HETATM   49  C26 UNL     1     -11.855  44.221 -22.730  1.00  0.00     0.009 C 
HETATM   50  C27 UNL     1     -11.232  43.260 -23.744  1.00  0.00     0.012 C 
HETATM   51  C28 UNL     1     -11.384  43.834 -21.322  1.00  0.00     0.012 C 
ENDBRANCH  32  49
ENDBRANCH  30  32
ENDBRANCH  27  28
ENDBRANCH  26  27
ENDBRANCH  13  26
TORSDOF 12
ENDMDL
MODEL 9
REMARK minimizedAffinity -9.66579437
REMARK CNNscore 0.179418862
REMARK CNNaffinity 6.25021935
REMARK  12 active torsions:
REMARK  status: ('A' for Active; 'I' for Inactive)
REMARK    1  A    between atoms: C3_3  and  O1_4 
REMARK    2  A    between atoms: N1_14  and  O2_16 
REMARK    3  A    between atoms: O2_16  and  C13_17 
REMARK    4  A    between atoms: C13_17  and  C14_18 
REMARK       I    between atoms: C14_18  and  N2_20 
REMARK    5  A    between atoms: N2_20  and  C15_21 
REMARK    6  A    between atoms: C15_21  and  C16_22 
REMARK    7  A    between atoms: C15_21  and  C26_36 
REMARK       I    between atoms: C16_22  and  N3_24 
REMARK    8  A    between atoms: N3_24  and  C17_25 
REMARK    9  A    between atoms: C17_25  and  C18_26 
REMARK   10  A    between atoms: C17_25  and  C25_33 
REMARK   11  A    between atoms: C18_26  and  C19_27 
REMARK   12  A    between atoms: C25_33  and  O6_35 
ROOT
HETATM    1  C1  UNL     1       2.135  51.843 -26.878  1.00  0.00     0.015 C 
HETATM    2  C2  UNL     1       0.988  52.153 -26.710  1.00  0.00    -0.078 C 
HETATM    3  C3  UNL     1      -0.425  52.546 -26.507  1.00  0.00     0.128 C 
HETATM    4  C4  UNL     1      -1.262  52.150 -27.732  1.00  0.00     0.052 C 
HETATM    5  C5  UNL     1      -1.837  50.760 -27.424  1.00  0.00     0.010 C 
HETATM    6  C6  UNL     1      -1.403  50.410 -25.986  1.00  0.00     0.002 C 
HETATM    7  C7  UNL     1      -2.318  49.463 -25.164  1.00  0.00    -0.004 C 
HETATM    8  C8  UNL     1      -2.922  48.327 -26.020  1.00  0.00     0.010 C 
HETATM    9  C9  UNL     1      -4.402  48.510 -26.330  1.00  0.00     0.035 C 
HETATM   10  C10 UNL     1      -5.250  48.716 -25.100  1.00  0.00    -0.069 C 
HETATM   11  C11 UNL     1      -6.567  48.436 -25.155  1.00  0.00     0.030 C 
HETATM   12  C12 UNL     1      -7.475  48.663 -23.989  1.00  0.00     0.032 C 
HETATM   13  N1  UNL     1      -8.748  48.402 -23.954  1.00  0.00    -0.271 N 
ATOM     14  H1  UNL     1      -9.342  48.570 -23.142  1.00  0.00     0.194 HD
HETATM   15  C29 UNL     1      -6.870  49.235 -22.720  1.00  0.00     0.060 C 
HETATM   16  C30 UNL     1      -5.631  50.065 -23.031  1.00  0.00     0.020 C 
HETATM   17  C31 UNL     1      -4.572  49.279 -23.856  1.00  0.00    -0.016 C 
HETATM   18  C32 UNL     1      -4.068  48.105 -22.969  1.00  0.00     0.020 C 
HETATM   19  C33 UNL     1      -3.344  50.189 -24.236  1.00  0.00     0.002 C 
HETATM   20  C34 UNL     1      -3.694  51.568 -24.812  1.00  0.00     0.007 C 
HETATM   21  C35 UNL     1      -2.473  52.487 -24.945  1.00  0.00     0.014 C 
HETATM   22  C36 UNL     1      -1.137  51.787 -25.339  1.00  0.00     0.003 C 
HETATM   23  C37 UNL     1      -0.249  51.679 -24.083  1.00  0.00     0.020 C 
ENDROOT
BRANCH   3  24
HETATM   24  O1  UNL     1      -0.464  53.955 -26.328  1.00  0.00    -0.377 OA
HETATM   25  H2  UNL     1       0.160  54.169 -25.615  1.00  0.00     0.211 HD
ENDBRANCH   3  24
BRANCH  13  26
HETATM   26  O2  UNL     1      -9.209  47.863 -25.163  1.00  0.00    -0.271 OA
BRANCH  26  27
HETATM   27  C13 UNL     1     -10.312  47.007 -24.888  1.00  0.00     0.303 C 
BRANCH  27  28
HETATM   28  C14 UNL     1     -11.506  47.415 -25.739  1.00  0.00     0.244 C 
HETATM   29  O3  UNL     1     -11.544  48.467 -26.372  1.00  0.00    -0.271 OA
HETATM   30  N2  UNL     1     -12.567  46.532 -25.689  1.00  0.00    -0.346 N 
HETATM   31  H16 UNL     1     -12.568  45.899 -24.896  1.00  0.00     0.163 HD
BRANCH  30  32
HETATM   32  C15 UNL     1     -13.874  46.911 -26.217  1.00  0.00     0.180 C 
BRANCH  32  33
HETATM   33  C16 UNL     1     -14.800  47.021 -24.983  1.00  0.00     0.241 C 
HETATM   34  O4  UNL     1     -14.454  47.593 -23.950  1.00  0.00    -0.271 OA
HETATM   35  N3  UNL     1     -16.033  46.427 -25.134  1.00  0.00    -0.345 N 
HETATM   36  H18 UNL     1     -16.136  45.731 -25.864  1.00  0.00     0.163 HD
BRANCH  35  37
HETATM   37  C17 UNL     1     -17.000  46.389 -24.029  1.00  0.00     0.186 C 
BRANCH  37  38
HETATM   38  C18 UNL     1     -18.431  46.416 -24.582  1.00  0.00     0.074 C 
BRANCH  38  39
HETATM   39  C19 UNL     1     -18.766  45.233 -25.458  1.00  0.00    -0.056 A 
HETATM   40  C20 UNL     1     -18.424  45.241 -26.818  1.00  0.00     0.007 A 
HETATM   41  C21 UNL     1     -18.744  44.156 -27.633  1.00  0.00     0.001 A 
HETATM   42  C22 UNL     1     -19.412  43.054 -27.100  1.00  0.00     0.000 A 
HETATM   43  C23 UNL     1     -19.756  43.037 -25.750  1.00  0.00     0.001 A 
HETATM   44  C24 UNL     1     -19.434  44.121 -24.929  1.00  0.00     0.007 A 
ENDBRANCH  38  39
ENDBRANCH  37  38
BRANCH  37  45
HETATM   45  C25 UNL     1     -16.771  45.095 -23.250  1.00  0.00     0.163 C 
HETATM   46  O5  UNL     1     -17.305  44.792 -22.193  1.00  0.00    -0.648 OA
BRANCH  45  47
HETATM   47  O6  UNL     1     -15.882  44.266 -23.830  1.00  0.00    -0.775 OA
HETATM   48  H27 UNL     1     -15.847  43.479 -23.248  1.00  0.00     0.167 HD
ENDBRANCH  45  47
ENDBRANCH  37  45
ENDBRANCH  35  37
ENDBRANCH  32  33
BRANCH  32  49
HETATM   49  C26 UNL     1     -14.391  45.857 -27.220  1.00  0.00     0.009 C 
HETATM   50  C27 UNL     1     -13.931  46.149 -28.651  1.00  0.00     0.012 C 
HETATM   51  C28 UNL     1     -13.926  44.450 -26.824  1.00  0.00     0.012 C 
ENDBRANCH  32  49
ENDBRANCH  30  32
ENDBRANCH  27  28
ENDBRANCH  26  27
ENDBRANCH  13  26
TORSDOF 12
ENDMDL
