MODEL 1
REMARK minimizedAffinity -5.80394316
REMARK CNNscore 0.598176479
REMARK CNNaffinity 6.19536829
REMARK  13 active torsions:
REMARK  status: ('A' for Active; 'I' for Inactive)
REMARK    1  A    between atoms: C4_4  and  C5_5 
REMARK    2  A    between atoms: C5_5  and  C6_6 
REMARK    3  A    between atoms: C6_6  and  C7_7 
REMARK    4  A    between atoms: C9_9  and  C10_10 
REMARK    5  A    between atoms: C11_11  and  C12_12 
REMARK    6  A    between atoms: C14_14  and  C15_15 
REMARK    7  A    between atoms: C18_18  and  O1_19 
REMARK    8  A    between atoms: C19_21  and  C20_22 
REMARK    9  A    between atoms: C20_22  and  C21_23 
REMARK   10  A    between atoms: C21_23  and  C22_24 
REMARK   11  A    between atoms: C22_24  and  O3_25 
REMARK   12  A    between atoms: C24_27  and  C26_29 
REMARK   13  A    between atoms: C29_33  and  O5_35 
ROOT
HETATM    1  C15 UNL     1     -13.948   3.614  24.495  1.00  0.00     0.149 C 
HETATM    2  C16 UNL     1     -13.412   5.014  24.180  1.00  0.00     0.054 C 
HETATM    3  C17 UNL     1     -14.610   5.781  23.558  1.00  0.00     0.050 C 
HETATM    4  C18 UNL     1     -15.756   5.053  24.284  1.00  0.00     0.270 C 
HETATM    5  O2  UNL     1     -15.377   3.682  24.390  1.00  0.00    -0.351 OA
HETATM    6  C19 UNL     1     -14.497   7.320  23.931  1.00  0.00     0.032 C 
HETATM    7  C23 UNL     1     -13.288   7.932  23.190  1.00  0.00    -0.066 C 
HETATM    8  C24 UNL     1     -12.263   8.581  23.794  1.00  0.00    -0.021 C 
HETATM    9  C25 UNL     1     -11.060   9.131  23.082  1.00  0.00     0.052 C 
HETATM   10  C27 UNL     1     -13.370   7.765  21.687  1.00  0.00     0.038 C 
HETATM   11  C28 UNL     1     -13.513   6.304  21.280  1.00  0.00     0.042 C 
HETATM   12  C29 UNL     1     -14.679   5.576  21.990  1.00  0.00     0.067 C 
HETATM   13  C30 UNL     1     -14.688   4.123  21.482  1.00  0.00     0.047 C 
ENDROOT
BRANCH   4  14
HETATM   14  O1  UNL     1     -15.906   5.496  25.622  1.00  0.00    -0.370 OA
HETATM   15  H26 UNL     1     -16.621   4.937  25.976  1.00  0.00     0.212 HD
ENDBRANCH   4  14
BRANCH   6  16
HETATM   16  C20 UNL     1     -15.712   8.257  23.682  1.00  0.00     0.012 C 
BRANCH  16  17
HETATM   17  C21 UNL     1     -15.990   9.364  24.705  1.00  0.00     0.027 C 
BRANCH  17  18
HETATM   18  C22 UNL     1     -16.415   8.880  26.089  1.00  0.00     0.164 C 
BRANCH  18  19
HETATM   19  O3  UNL     1     -15.311   8.869  26.984  1.00  0.00    -0.401 OA
HETATM   20  H34 UNL     1     -14.869   7.999  26.864  1.00  0.00     0.209 HD
ENDBRANCH  18  19
ENDBRANCH  17  18
ENDBRANCH  16  17
ENDBRANCH   6  16
BRANCH  12  21
HETATM   21  O5  UNL     1     -15.910   6.140  21.516  1.00  0.00    -0.389 OA
HETATM   22  H46 UNL     1     -15.957   6.026  20.550  1.00  0.00     0.210 HD
ENDBRANCH  12  21
BRANCH   1  23
HETATM   23  C14 UNL     1     -13.592   3.135  25.875  1.00  0.00     0.011 C 
HETATM   24  C12 UNL     1     -12.683   2.204  26.240  1.00  0.00    -0.063 C 
HETATM   25  C13 UNL     1     -11.824   1.431  25.271  1.00  0.00     0.048 C 
BRANCH  24  26
HETATM   26  C11 UNL     1     -12.505   1.930  27.670  1.00  0.00     0.006 C 
HETATM   27  C10 UNL     1     -12.309   2.841  28.638  1.00  0.00     0.001 C 
BRANCH  27  28
HETATM   28  C9  UNL     1     -12.197   2.484  30.036  1.00  0.00     0.002 C 
HETATM   29  C7  UNL     1     -12.896   3.015  31.059  1.00  0.00    -0.084 C 
HETATM   30  C8  UNL     1     -13.858   4.169  30.940  1.00  0.00     0.043 C 
BRANCH  29  31
HETATM   31  C6  UNL     1     -12.720   2.464  32.467  1.00  0.00     0.037 C 
BRANCH  31  32
HETATM   32  C5  UNL     1     -13.827   2.872  33.457  1.00  0.00     0.031 C 
BRANCH  32  33
HETATM   33  C4  UNL     1     -14.242   1.754  34.379  1.00  0.00    -0.024 C 
HETATM   34  C2  UNL     1     -15.273   0.894  34.249  1.00  0.00    -0.091 C 
HETATM   35  C1  UNL     1     -16.258   0.872  33.113  1.00  0.00     0.042 C 
HETATM   36  C3  UNL     1     -15.512  -0.170  35.290  1.00  0.00     0.042 C 
ENDBRANCH  32  33
ENDBRANCH  31  32
ENDBRANCH  29  31
ENDBRANCH  27  28
ENDBRANCH  24  26
ENDBRANCH   1  23
BRANCH   8  37
HETATM   37  C26 UNL     1     -12.259   8.857  25.262  1.00  0.00     0.265 C 
HETATM   38  O4  UNL     1     -12.720   9.878  25.758  1.00  0.00    -0.302 OA
ENDBRANCH   8  37
TORSDOF 13
ENDMDL
MODEL 2
REMARK minimizedAffinity -6.02694321
REMARK CNNscore 0.580090284
REMARK CNNaffinity 6.62223005
REMARK  13 active torsions:
REMARK  status: ('A' for Active; 'I' for Inactive)
REMARK    1  A    between atoms: C4_4  and  C5_5 
REMARK    2  A    between atoms: C5_5  and  C6_6 
REMARK    3  A    between atoms: C6_6  and  C7_7 
REMARK    4  A    between atoms: C9_9  and  C10_10 
REMARK    5  A    between atoms: C11_11  and  C12_12 
REMARK    6  A    between atoms: C14_14  and  C15_15 
REMARK    7  A    between atoms: C18_18  and  O1_19 
REMARK    8  A    between atoms: C19_21  and  C20_22 
REMARK    9  A    between atoms: C20_22  and  C21_23 
REMARK   10  A    between atoms: C21_23  and  C22_24 
REMARK   11  A    between atoms: C22_24  and  O3_25 
REMARK   12  A    between atoms: C24_27  and  C26_29 
REMARK   13  A    between atoms: C29_33  and  O5_35 
ROOT
HETATM    1  C15 UNL     1     -16.724  -0.293  27.767  1.00  0.00     0.149 C 
HETATM    2  C16 UNL     1     -15.651   0.492  27.006  1.00  0.00     0.054 C 
HETATM    3  C17 UNL     1     -15.779   1.956  27.509  1.00  0.00     0.050 C 
HETATM    4  C18 UNL     1     -16.296   1.669  28.931  1.00  0.00     0.270 C 
HETATM    5  O2  UNL     1     -17.177   0.550  28.836  1.00  0.00    -0.351 OA
HETATM    6  C19 UNL     1     -14.351   2.646  27.479  1.00  0.00     0.032 C 
HETATM    7  C23 UNL     1     -13.912   2.836  26.011  1.00  0.00    -0.066 C 
HETATM    8  C24 UNL     1     -12.755   2.362  25.486  1.00  0.00    -0.021 C 
HETATM    9  C25 UNL     1     -12.350   2.499  24.046  1.00  0.00     0.052 C 
HETATM   10  C27 UNL     1     -14.899   3.647  25.199  1.00  0.00     0.038 C 
HETATM   11  C28 UNL     1     -16.296   3.040  25.224  1.00  0.00     0.042 C 
HETATM   12  C29 UNL     1     -16.829   2.774  26.652  1.00  0.00     0.067 C 
HETATM   13  C30 UNL     1     -18.233   2.162  26.510  1.00  0.00     0.047 C 
ENDROOT
BRANCH   4  14
HETATM   14  O1  UNL     1     -15.260   1.246  29.801  1.00  0.00    -0.370 OA
HETATM   15  H26 UNL     1     -15.718   1.059  30.639  1.00  0.00     0.212 HD
ENDBRANCH   4  14
BRANCH   6  16
HETATM   16  C20 UNL     1     -14.146   4.007  28.200  1.00  0.00     0.012 C 
BRANCH  16  17
HETATM   17  C21 UNL     1     -12.917   4.168  29.102  1.00  0.00     0.027 C 
BRANCH  17  18
HETATM   18  C22 UNL     1     -13.187   4.051  30.599  1.00  0.00     0.164 C 
BRANCH  18  19
HETATM   19  O3  UNL     1     -12.146   3.335  31.249  1.00  0.00    -0.401 OA
HETATM   20  H34 UNL     1     -12.380   2.382  31.177  1.00  0.00     0.209 HD
ENDBRANCH  18  19
ENDBRANCH  17  18
ENDBRANCH  16  17
ENDBRANCH   6  16
BRANCH  12  21
HETATM   21  O5  UNL     1     -17.041   4.041  27.292  1.00  0.00    -0.389 OA
HETATM   22  H46 UNL     1     -17.680   4.555  26.766  1.00  0.00     0.210 HD
ENDBRANCH  12  21
BRANCH   1  23
HETATM   23  C14 UNL     1     -16.217  -1.581  28.356  1.00  0.00     0.011 C 
HETATM   24  C12 UNL     1     -16.397  -2.844  27.911  1.00  0.00    -0.063 C 
HETATM   25  C13 UNL     1     -17.194  -3.205  26.683  1.00  0.00     0.048 C 
BRANCH  24  26
HETATM   26  C11 UNL     1     -15.773  -3.939  28.660  1.00  0.00     0.006 C 
HETATM   27  C10 UNL     1     -14.930  -4.862  28.166  1.00  0.00     0.001 C 
BRANCH  27  28
HETATM   28  C9  UNL     1     -14.316  -5.881  28.991  1.00  0.00     0.002 C 
HETATM   29  C7  UNL     1     -13.093  -5.829  29.553  1.00  0.00    -0.084 C 
HETATM   30  C8  UNL     1     -12.086  -4.729  29.330  1.00  0.00     0.043 C 
BRANCH  29  31
HETATM   31  C6  UNL     1     -12.629  -6.952  30.470  1.00  0.00     0.037 C 
BRANCH  31  32
HETATM   32  C5  UNL     1     -13.277  -8.320  30.185  1.00  0.00     0.031 C 
BRANCH  32  33
HETATM   33  C4  UNL     1     -13.588  -8.538  28.726  1.00  0.00    -0.024 C 
HETATM   34  C2  UNL     1     -13.224  -9.566  27.933  1.00  0.00    -0.091 C 
HETATM   35  C1  UNL     1     -12.403 -10.752  28.356  1.00  0.00     0.042 C 
HETATM   36  C3  UNL     1     -13.651  -9.599  26.487  1.00  0.00     0.042 C 
ENDBRANCH  32  33
ENDBRANCH  31  32
ENDBRANCH  29  31
ENDBRANCH  27  28
ENDBRANCH  24  26
ENDBRANCH   1  23
BRANCH   8  37
HETATM   37  C26 UNL     1     -11.727   1.679  26.328  1.00  0.00     0.265 C 
HETATM   38  O4  UNL     1     -11.939   1.296  27.472  1.00  0.00    -0.302 OA
ENDBRANCH   8  37
TORSDOF 13
ENDMDL
MODEL 3
REMARK minimizedAffinity -6.41129494
REMARK CNNscore 0.408280581
REMARK CNNaffinity 6.16788483
REMARK  13 active torsions:
REMARK  status: ('A' for Active; 'I' for Inactive)
REMARK    1  A    between atoms: C4_4  and  C5_5 
REMARK    2  A    between atoms: C5_5  and  C6_6 
REMARK    3  A    between atoms: C6_6  and  C7_7 
REMARK    4  A    between atoms: C9_9  and  C10_10 
REMARK    5  A    between atoms: C11_11  and  C12_12 
REMARK    6  A    between atoms: C14_14  and  C15_15 
REMARK    7  A    between atoms: C18_18  and  O1_19 
REMARK    8  A    between atoms: C19_21  and  C20_22 
REMARK    9  A    between atoms: C20_22  and  C21_23 
REMARK   10  A    between atoms: C21_23  and  C22_24 
REMARK   11  A    between atoms: C22_24  and  O3_25 
REMARK   12  A    between atoms: C24_27  and  C26_29 
REMARK   13  A    between atoms: C29_33  and  O5_35 
ROOT
HETATM    1  C15 UNL     1     -11.191 -12.567  27.316  1.00  0.00     0.149 C 
HETATM    2  C16 UNL     1     -10.097 -12.357  26.264  1.00  0.00     0.054 C 
HETATM    3  C17 UNL     1     -10.268 -13.527  25.257  1.00  0.00     0.050 C 
HETATM    4  C18 UNL     1     -11.785 -13.744  25.406  1.00  0.00     0.270 C 
HETATM    5  O2  UNL     1     -12.101 -13.539  26.783  1.00  0.00    -0.351 OA
HETATM    6  C19 UNL     1      -9.835 -13.039  23.810  1.00  0.00     0.032 C 
HETATM    7  C23 UNL     1      -8.309 -12.802  23.792  1.00  0.00    -0.066 C 
HETATM    8  C24 UNL     1      -7.714 -11.637  23.436  1.00  0.00    -0.021 C 
HETATM    9  C25 UNL     1      -6.234 -11.388  23.468  1.00  0.00     0.052 C 
HETATM   10  C27 UNL     1      -7.517 -14.032  24.185  1.00  0.00     0.038 C 
HETATM   11  C28 UNL     1      -7.920 -14.558  25.557  1.00  0.00     0.042 C 
HETATM   12  C29 UNL     1      -9.441 -14.801  25.703  1.00  0.00     0.067 C 
HETATM   13  C30 UNL     1      -9.687 -15.321  27.130  1.00  0.00     0.047 C 
ENDROOT
BRANCH   4  14
HETATM   14  O1  UNL     1     -12.536 -12.766  24.708  1.00  0.00    -0.370 OA
HETATM   15  H26 UNL     1     -13.461 -12.987  24.916  1.00  0.00     0.212 HD
ENDBRANCH   4  14
BRANCH   6  16
HETATM   16  C20 UNL     1     -10.180 -13.915  22.574  1.00  0.00     0.012 C 
BRANCH  16  17
HETATM   17  C21 UNL     1     -11.345 -13.475  21.680  1.00  0.00     0.027 C 
BRANCH  17  18
HETATM   18  C22 UNL     1     -11.126 -12.169  20.921  1.00  0.00     0.164 C 
BRANCH  18  19
HETATM   19  O3  UNL     1     -11.160 -12.386  19.517  1.00  0.00    -0.401 OA
HETATM   20  H34 UNL     1     -10.246 -12.640  19.256  1.00  0.00     0.209 HD
ENDBRANCH  18  19
ENDBRANCH  17  18
ENDBRANCH  16  17
ENDBRANCH   6  16
BRANCH  12  21
HETATM   21  O5  UNL     1      -9.801 -15.893  24.844  1.00  0.00    -0.389 OA
HETATM   22  H46 UNL     1      -9.291 -16.680  25.106  1.00  0.00     0.210 HD
ENDBRANCH  12  21
BRANCH   1  23
HETATM   23  C14 UNL     1     -11.961 -11.315  27.634  1.00  0.00     0.011 C 
HETATM   24  C12 UNL     1     -12.739 -11.048  28.706  1.00  0.00    -0.063 C 
HETATM   25  C13 UNL     1     -12.995 -12.020  29.831  1.00  0.00     0.048 C 
BRANCH  24  26
HETATM   26  C11 UNL     1     -13.371  -9.728  28.795  1.00  0.00     0.006 C 
HETATM   27  C10 UNL     1     -12.750  -8.563  29.048  1.00  0.00     0.001 C 
BRANCH  27  28
HETATM   28  C9  UNL     1     -13.446  -7.294  29.066  1.00  0.00     0.002 C 
HETATM   29  C7  UNL     1     -13.071  -6.182  29.730  1.00  0.00    -0.084 C 
HETATM   30  C8  UNL     1     -11.900  -6.094  30.675  1.00  0.00     0.043 C 
BRANCH  29  31
HETATM   31  C6  UNL     1     -13.871  -4.897  29.572  1.00  0.00     0.037 C 
BRANCH  31  32
HETATM   32  C5  UNL     1     -14.583  -4.426  30.854  1.00  0.00     0.031 C 
BRANCH  32  33
HETATM   33  C4  UNL     1     -15.732  -5.315  31.257  1.00  0.00    -0.024 C 
HETATM   34  C2  UNL     1     -15.772  -6.250  32.228  1.00  0.00    -0.091 C 
HETATM   35  C1  UNL     1     -14.636  -6.612  33.144  1.00  0.00     0.042 C 
HETATM   36  C3  UNL     1     -17.035  -7.032  32.479  1.00  0.00     0.042 C 
ENDBRANCH  32  33
ENDBRANCH  31  32
ENDBRANCH  29  31
ENDBRANCH  27  28
ENDBRANCH  24  26
ENDBRANCH   1  23
BRANCH   8  37
HETATM   37  C26 UNL     1      -8.499 -10.475  22.922  1.00  0.00     0.265 C 
HETATM   38  O4  UNL     1      -8.360 -10.013  21.796  1.00  0.00    -0.302 OA
ENDBRANCH   8  37
TORSDOF 13
ENDMDL
MODEL 4
REMARK minimizedAffinity -5.81384134
REMARK CNNscore 0.391748726
REMARK CNNaffinity 5.52712107
REMARK  13 active torsions:
REMARK  status: ('A' for Active; 'I' for Inactive)
REMARK    1  A    between atoms: C4_4  and  C5_5 
REMARK    2  A    between atoms: C5_5  and  C6_6 
REMARK    3  A    between atoms: C6_6  and  C7_7 
REMARK    4  A    between atoms: C9_9  and  C10_10 
REMARK    5  A    between atoms: C11_11  and  C12_12 
REMARK    6  A    between atoms: C14_14  and  C15_15 
REMARK    7  A    between atoms: C18_18  and  O1_19 
REMARK    8  A    between atoms: C19_21  and  C20_22 
REMARK    9  A    between atoms: C20_22  and  C21_23 
REMARK   10  A    between atoms: C21_23  and  C22_24 
REMARK   11  A    between atoms: C22_24  and  O3_25 
REMARK   12  A    between atoms: C24_27  and  C26_29 
REMARK   13  A    between atoms: C29_33  and  O5_35 
ROOT
HETATM    1  C15 UNL     1      -1.477  12.626  17.135  1.00  0.00     0.149 C 
HETATM    2  C16 UNL     1      -1.257  13.835  16.221  1.00  0.00     0.054 C 
HETATM    3  C17 UNL     1       0.284  14.007  16.133  1.00  0.00     0.050 C 
HETATM    4  C18 UNL     1       0.694  12.535  16.321  1.00  0.00     0.270 C 
HETATM    5  O2  UNL     1      -0.210  11.969  17.270  1.00  0.00    -0.351 OA
HETATM    6  C19 UNL     1       0.664  14.596  14.709  1.00  0.00     0.032 C 
HETATM    7  C23 UNL     1       0.160  16.053  14.614  1.00  0.00    -0.066 C 
HETATM    8  C24 UNL     1      -0.665  16.521  13.646  1.00  0.00    -0.021 C 
HETATM    9  C25 UNL     1      -1.199  17.923  13.580  1.00  0.00     0.052 C 
HETATM   10  C27 UNL     1       0.712  16.941  15.710  1.00  0.00     0.038 C 
HETATM   11  C28 UNL     1       0.400  16.399  17.098  1.00  0.00     0.042 C 
HETATM   12  C29 UNL     1       0.832  14.927  17.298  1.00  0.00     0.067 C 
HETATM   13  C30 UNL     1       0.449  14.528  18.734  1.00  0.00     0.047 C 
ENDROOT
BRANCH   4  14
HETATM   14  O1  UNL     1       0.507  11.774  15.139  1.00  0.00    -0.370 OA
HETATM   15  H26 UNL     1       0.757  10.870  15.400  1.00  0.00     0.212 HD
ENDBRANCH   4  14
BRANCH   6  16
HETATM   16  C20 UNL     1       2.150  14.592  14.253  1.00  0.00     0.012 C 
BRANCH  16  17
HETATM   17  C21 UNL     1       2.533  15.442  13.037  1.00  0.00     0.027 C 
BRANCH  17  18
HETATM   18  C22 UNL     1       2.894  14.656  11.780  1.00  0.00     0.164 C 
BRANCH  18  19
HETATM   19  O3  UNL     1       1.922  14.851  10.763  1.00  0.00    -0.401 OA
HETATM   20  H34 UNL     1       1.217  14.183  10.924  1.00  0.00     0.209 HD
ENDBRANCH  18  19
ENDBRANCH  17  18
ENDBRANCH  16  17
ENDBRANCH   6  16
BRANCH  12  21
HETATM   21  O5  UNL     1       2.267  14.877  17.273  1.00  0.00    -0.389 OA
HETATM   22  H46 UNL     1       2.614  15.448  17.982  1.00  0.00     0.210 HD
ENDBRANCH  12  21
BRANCH   1  23
HETATM   23  C14 UNL     1      -2.472  11.638  16.589  1.00  0.00     0.011 C 
HETATM   24  C12 UNL     1      -3.126  10.649  17.236  1.00  0.00    -0.063 C 
HETATM   25  C13 UNL     1      -2.955  10.337  18.702  1.00  0.00     0.048 C 
BRANCH  24  26
HETATM   26  C11 UNL     1      -4.073   9.828  16.475  1.00  0.00     0.006 C 
HETATM   27  C10 UNL     1      -4.059   9.620  15.148  1.00  0.00     0.001 C 
BRANCH  27  28
HETATM   28  C9  UNL     1      -5.004   8.748  14.483  1.00  0.00     0.002 C 
HETATM   29  C7  UNL     1      -4.709   7.691  13.701  1.00  0.00    -0.084 C 
HETATM   30  C8  UNL     1      -3.317   7.288  13.284  1.00  0.00     0.043 C 
BRANCH  29  31
HETATM   31  C6  UNL     1      -5.827   6.820  13.145  1.00  0.00     0.037 C 
BRANCH  31  32
HETATM   32  C5  UNL     1      -5.885   5.400  13.738  1.00  0.00     0.031 C 
BRANCH  32  33
HETATM   33  C4  UNL     1      -5.575   4.322  12.730  1.00  0.00    -0.024 C 
HETATM   34  C2  UNL     1      -6.294   3.221  12.428  1.00  0.00    -0.091 C 
HETATM   35  C1  UNL     1      -7.601   2.827  13.057  1.00  0.00     0.042 C 
HETATM   36  C3  UNL     1      -5.809   2.263  11.370  1.00  0.00     0.042 C 
ENDBRANCH  32  33
ENDBRANCH  31  32
ENDBRANCH  29  31
ENDBRANCH  27  28
ENDBRANCH  24  26
ENDBRANCH   1  23
BRANCH   8  37
HETATM   37  C26 UNL     1      -1.095  15.670  12.496  1.00  0.00     0.265 C 
HETATM   38  O4  UNL     1      -2.044  14.896  12.548  1.00  0.00    -0.302 OA
ENDBRANCH   8  37
TORSDOF 13
ENDMDL
MODEL 5
REMARK minimizedAffinity -6.76514149
REMARK CNNscore 0.37102592
REMARK CNNaffinity 5.4113555
REMARK  13 active torsions:
REMARK  status: ('A' for Active; 'I' for Inactive)
REMARK    1  A    between atoms: C4_4  and  C5_5 
REMARK    2  A    between atoms: C5_5  and  C6_6 
REMARK    3  A    between atoms: C6_6  and  C7_7 
REMARK    4  A    between atoms: C9_9  and  C10_10 
REMARK    5  A    between atoms: C11_11  and  C12_12 
REMARK    6  A    between atoms: C14_14  and  C15_15 
REMARK    7  A    between atoms: C18_18  and  O1_19 
REMARK    8  A    between atoms: C19_21  and  C20_22 
REMARK    9  A    between atoms: C20_22  and  C21_23 
REMARK   10  A    between atoms: C21_23  and  C22_24 
REMARK   11  A    between atoms: C22_24  and  O3_25 
REMARK   12  A    between atoms: C24_27  and  C26_29 
REMARK   13  A    between atoms: C29_33  and  O5_35 
ROOT
HETATM    1  C15 UNL     1     -10.529 -10.098  15.217  1.00  0.00     0.149 C 
HETATM    2  C16 UNL     1     -10.112 -11.416  14.556  1.00  0.00     0.054 C 
HETATM    3  C17 UNL     1      -9.655 -11.029  13.123  1.00  0.00     0.050 C 
HETATM    4  C18 UNL     1      -9.153  -9.603  13.415  1.00  0.00     0.270 C 
HETATM    5  O2  UNL     1     -10.038  -9.040  14.383  1.00  0.00    -0.351 OA
HETATM    6  C19 UNL     1      -8.511 -12.023  12.653  1.00  0.00     0.032 C 
HETATM    7  C23 UNL     1      -9.116 -13.427  12.442  1.00  0.00    -0.066 C 
HETATM    8  C24 UNL     1      -8.673 -14.555  13.051  1.00  0.00    -0.021 C 
HETATM    9  C25 UNL     1      -9.293 -15.914  12.889  1.00  0.00     0.052 C 
HETATM   10  C27 UNL     1     -10.255 -13.436  11.445  1.00  0.00     0.038 C 
HETATM   11  C28 UNL     1     -11.367 -12.472  11.837  1.00  0.00     0.042 C 
HETATM   12  C29 UNL     1     -10.869 -11.032  12.107  1.00  0.00     0.067 C 
HETATM   13  C30 UNL     1     -12.097 -10.189  12.493  1.00  0.00     0.047 C 
ENDROOT
BRANCH   4  14
HETATM   14  O1  UNL     1      -7.880  -9.603  14.039  1.00  0.00    -0.370 OA
HETATM   15  H26 UNL     1      -7.701  -8.660  14.206  1.00  0.00     0.212 HD
ENDBRANCH   4  14
BRANCH   6  16
HETATM   16  C20 UNL     1      -7.680 -11.684  11.383  1.00  0.00     0.012 C 
BRANCH  16  17
HETATM   17  C21 UNL     1      -6.178 -11.433  11.550  1.00  0.00     0.027 C 
BRANCH  17  18
HETATM   18  C22 UNL     1      -5.698 -10.047  11.131  1.00  0.00     0.164 C 
BRANCH  18  19
HETATM   19  O3  UNL     1      -4.494  -9.701  11.802  1.00  0.00    -0.401 OA
HETATM   20  H34 UNL     1      -4.763  -9.300  12.660  1.00  0.00     0.209 HD
ENDBRANCH  18  19
ENDBRANCH  17  18
ENDBRANCH  16  17
ENDBRANCH   6  16
BRANCH  12  21
HETATM   21  O5  UNL     1     -10.416 -10.477  10.863  1.00  0.00    -0.389 OA
HETATM   22  H46 UNL     1     -11.155 -10.483  10.229  1.00  0.00     0.210 HD
ENDBRANCH  12  21
BRANCH   1  23
HETATM   23  C14 UNL     1      -9.964  -9.918  16.599  1.00  0.00     0.011 C 
HETATM   24  C12 UNL     1     -10.465  -9.206  17.632  1.00  0.00    -0.063 C 
HETATM   25  C13 UNL     1     -11.746  -8.412  17.574  1.00  0.00     0.048 C 
BRANCH  24  26
HETATM   26  C11 UNL     1      -9.728  -9.208  18.900  1.00  0.00     0.006 C 
HETATM   27  C10 UNL     1      -9.852 -10.106  19.892  1.00  0.00     0.001 C 
BRANCH  27  28
HETATM   28  C9  UNL     1      -9.043 -10.062  21.092  1.00  0.00     0.002 C 
HETATM   29  C7  UNL     1      -9.262 -10.745  22.233  1.00  0.00    -0.084 C 
HETATM   30  C8  UNL     1     -10.469 -11.605  22.506  1.00  0.00     0.043 C 
BRANCH  29  31
HETATM   31  C6  UNL     1      -8.262 -10.654  23.377  1.00  0.00     0.037 C 
BRANCH  31  32
HETATM   32  C5  UNL     1      -7.257 -11.819  23.442  1.00  0.00     0.031 C 
BRANCH  32  33
HETATM   33  C4  UNL     1      -7.891 -13.130  23.833  1.00  0.00    -0.024 C 
HETATM   34  C2  UNL     1      -8.488 -13.462  24.995  1.00  0.00    -0.091 C 
HETATM   35  C1  UNL     1      -8.652 -12.560  26.187  1.00  0.00     0.042 C 
HETATM   36  C3  UNL     1      -9.073 -14.839  25.183  1.00  0.00     0.042 C 
ENDBRANCH  32  33
ENDBRANCH  31  32
ENDBRANCH  29  31
ENDBRANCH  27  28
ENDBRANCH  24  26
ENDBRANCH   1  23
BRANCH   8  37
HETATM   37  C26 UNL     1      -7.465 -14.557  13.929  1.00  0.00     0.265 C 
HETATM   38  O4  UNL     1      -6.996 -15.572  14.429  1.00  0.00    -0.302 OA
ENDBRANCH   8  37
TORSDOF 13
ENDMDL
MODEL 6
REMARK minimizedAffinity -5.92325449
REMARK CNNscore 0.359935343
REMARK CNNaffinity 5.66082525
REMARK  13 active torsions:
REMARK  status: ('A' for Active; 'I' for Inactive)
REMARK    1  A    between atoms: C4_4  and  C5_5 
REMARK    2  A    between atoms: C5_5  and  C6_6 
REMARK    3  A    between atoms: C6_6  and  C7_7 
REMARK    4  A    between atoms: C9_9  and  C10_10 
REMARK    5  A    between atoms: C11_11  and  C12_12 
REMARK    6  A    between atoms: C14_14  and  C15_15 
REMARK    7  A    between atoms: C18_18  and  O1_19 
REMARK    8  A    between atoms: C19_21  and  C20_22 
REMARK    9  A    between atoms: C20_22  and  C21_23 
REMARK   10  A    between atoms: C21_23  and  C22_24 
REMARK   11  A    between atoms: C22_24  and  O3_25 
REMARK   12  A    between atoms: C24_27  and  C26_29 
REMARK   13  A    between atoms: C29_33  and  O5_35 
ROOT
HETATM    1  C15 UNL     1      -4.815 -10.138   7.190  1.00  0.00     0.149 C 
HETATM    2  C16 UNL     1      -5.318 -10.319   5.755  1.00  0.00     0.054 C 
HETATM    3  C17 UNL     1      -4.185 -11.084   5.017  1.00  0.00     0.050 C 
HETATM    4  C18 UNL     1      -3.616 -11.868   6.214  1.00  0.00     0.270 C 
HETATM    5  O2  UNL     1      -3.683 -11.003   7.348  1.00  0.00    -0.351 OA
HETATM    6  C19 UNL     1      -4.823 -12.009   3.897  1.00  0.00     0.032 C 
HETATM    7  C23 UNL     1      -5.407 -11.119   2.778  1.00  0.00    -0.066 C 
HETATM    8  C24 UNL     1      -6.693 -11.164   2.351  1.00  0.00    -0.021 C 
HETATM    9  C25 UNL     1      -7.278 -10.264   1.300  1.00  0.00     0.052 C 
HETATM   10  C27 UNL     1      -4.380 -10.192   2.165  1.00  0.00     0.038 C 
HETATM   11  C28 UNL     1      -3.715  -9.303   3.208  1.00  0.00     0.042 C 
HETATM   12  C29 UNL     1      -3.120 -10.089   4.401  1.00  0.00     0.067 C 
HETATM   13  C30 UNL     1      -2.495  -9.062   5.360  1.00  0.00     0.047 C 
ENDROOT
BRANCH   4  14
HETATM   14  O1  UNL     1      -4.423 -12.982   6.556  1.00  0.00    -0.370 OA
HETATM   15  H26 UNL     1      -3.985 -13.359   7.339  1.00  0.00     0.212 HD
ENDBRANCH   4  14
BRANCH   6  16
HETATM   16  C20 UNL     1      -3.945 -13.093   3.211  1.00  0.00     0.012 C 
BRANCH  16  17
HETATM   17  C21 UNL     1      -2.426 -12.890   3.200  1.00  0.00     0.027 C 
BRANCH  17  18
HETATM   18  C22 UNL     1      -1.611 -14.043   3.779  1.00  0.00     0.164 C 
BRANCH  18  19
HETATM   19  O3  UNL     1      -0.938 -13.643   4.965  1.00  0.00    -0.401 OA
HETATM   20  H34 UNL     1      -0.086 -13.244   4.676  1.00  0.00     0.209 HD
ENDBRANCH  18  19
ENDBRANCH  17  18
ENDBRANCH  16  17
ENDBRANCH   6  16
BRANCH  12  21
HETATM   21  O5  UNL     1      -2.012 -10.862   3.915  1.00  0.00    -0.389 OA
HETATM   22  H46 UNL     1      -1.354 -10.258   3.526  1.00  0.00     0.210 HD
ENDBRANCH  12  21
BRANCH   1  23
HETATM   23  C14 UNL     1      -5.839 -10.495   8.232  1.00  0.00     0.011 C 
HETATM   24  C12 UNL     1      -5.739 -10.425   9.577  1.00  0.00    -0.063 C 
HETATM   25  C13 UNL     1      -4.508  -9.960  10.313  1.00  0.00     0.048 C 
BRANCH  24  26
HETATM   26  C11 UNL     1      -6.901 -10.815  10.381  1.00  0.00     0.006 C 
HETATM   27  C10 UNL     1      -6.932 -11.773  11.324  1.00  0.00     0.001 C 
BRANCH  27  28
HETATM   28  C9  UNL     1      -8.114 -12.057  12.111  1.00  0.00     0.002 C 
HETATM   29  C7  UNL     1      -8.618 -11.298  13.105  1.00  0.00    -0.084 C 
HETATM   30  C8  UNL     1      -7.970 -10.054  13.655  1.00  0.00     0.043 C 
BRANCH  29  31
HETATM   31  C6  UNL     1      -9.924 -11.696  13.777  1.00  0.00     0.037 C 
BRANCH  31  32
HETATM   32  C5  UNL     1     -10.568 -10.588  14.631  1.00  0.00     0.031 C 
BRANCH  32  33
HETATM   33  C4  UNL     1     -10.591 -10.911  16.104  1.00  0.00    -0.024 C 
HETATM   34  C2  UNL     1     -10.698 -10.066  17.149  1.00  0.00    -0.091 C 
HETATM   35  C1  UNL     1     -10.822  -8.570  17.058  1.00  0.00     0.042 C 
HETATM   36  C3  UNL     1     -10.712 -10.598  18.559  1.00  0.00     0.042 C 
ENDBRANCH  32  33
ENDBRANCH  31  32
ENDBRANCH  29  31
ENDBRANCH  27  28
ENDBRANCH  24  26
ENDBRANCH   1  23
BRANCH   8  37
HETATM   37  C26 UNL     1      -7.663 -12.175   2.870  1.00  0.00     0.265 C 
HETATM   38  O4  UNL     1      -8.816 -11.905   3.181  1.00  0.00    -0.302 OA
ENDBRANCH   8  37
TORSDOF 13
ENDMDL
MODEL 7
REMARK minimizedAffinity -5.84730005
REMARK CNNscore 0.359233826
REMARK CNNaffinity 5.64749289
REMARK  13 active torsions:
REMARK  status: ('A' for Active; 'I' for Inactive)
REMARK    1  A    between atoms: C4_4  and  C5_5 
REMARK    2  A    between atoms: C5_5  and  C6_6 
REMARK    3  A    between atoms: C6_6  and  C7_7 
REMARK    4  A    between atoms: C9_9  and  C10_10 
REMARK    5  A    between atoms: C11_11  and  C12_12 
REMARK    6  A    between atoms: C14_14  and  C15_15 
REMARK    7  A    between atoms: C18_18  and  O1_19 
REMARK    8  A    between atoms: C19_21  and  C20_22 
REMARK    9  A    between atoms: C20_22  and  C21_23 
REMARK   10  A    between atoms: C21_23  and  C22_24 
REMARK   11  A    between atoms: C22_24  and  O3_25 
REMARK   12  A    between atoms: C24_27  and  C26_29 
REMARK   13  A    between atoms: C29_33  and  O5_35 
ROOT
HETATM    1  C15 UNL     1      -4.293 -11.195   0.798  1.00  0.00     0.149 C 
HETATM    2  C16 UNL     1      -4.855 -12.087   1.908  1.00  0.00     0.054 C 
HETATM    3  C17 UNL     1      -3.982 -11.785   3.158  1.00  0.00     0.050 C 
HETATM    4  C18 UNL     1      -3.618 -10.323   2.839  1.00  0.00     0.270 C 
HETATM    5  O2  UNL     1      -3.429 -10.239   1.427  1.00  0.00    -0.351 OA
HETATM    6  C19 UNL     1      -4.866 -11.950   4.465  1.00  0.00     0.032 C 
HETATM    7  C23 UNL     1      -5.215 -13.442   4.655  1.00  0.00    -0.066 C 
HETATM    8  C24 UNL     1      -6.474 -13.930   4.768  1.00  0.00    -0.021 C 
HETATM    9  C25 UNL     1      -6.820 -15.386   4.900  1.00  0.00     0.052 C 
HETATM   10  C27 UNL     1      -3.990 -14.328   4.739  1.00  0.00     0.038 C 
HETATM   11  C28 UNL     1      -3.092 -14.181   3.518  1.00  0.00     0.042 C 
HETATM   12  C29 UNL     1      -2.703 -12.716   3.209  1.00  0.00     0.067 C 
HETATM   13  C30 UNL     1      -1.808 -12.733   1.958  1.00  0.00     0.047 C 
ENDROOT
BRANCH   4  14
HETATM   14  O1  UNL     1      -4.685  -9.433   3.119  1.00  0.00    -0.370 OA
HETATM   15  H26 UNL     1      -4.347  -8.564   2.838  1.00  0.00     0.212 HD
ENDBRANCH   4  14
BRANCH   6  16
HETATM   16  C20 UNL     1      -4.322 -11.427   5.824  1.00  0.00     0.012 C 
BRANCH  16  17
HETATM   17  C21 UNL     1      -3.559 -10.098   5.833  1.00  0.00     0.027 C 
BRANCH  17  18
HETATM   18  C22 UNL     1      -3.775  -9.231   7.069  1.00  0.00     0.164 C 
BRANCH  18  19
HETATM   19  O3  UNL     1      -2.561  -9.059   7.788  1.00  0.00    -0.401 OA
HETATM   20  H34 UNL     1      -2.490  -9.830   8.396  1.00  0.00     0.209 HD
ENDBRANCH  18  19
ENDBRANCH  17  18
ENDBRANCH  16  17
ENDBRANCH   6  16
BRANCH  12  21
HETATM   21  O5  UNL     1      -1.851 -12.249   4.266  1.00  0.00    -0.389 OA
HETATM   22  H46 UNL     1      -1.064 -12.822   4.311  1.00  0.00     0.210 HD
ENDBRANCH  12  21
BRANCH   1  23
HETATM   23  C14 UNL     1      -5.354 -10.451   0.035  1.00  0.00     0.011 C 
HETATM   24  C12 UNL     1      -5.540 -10.374  -1.301  1.00  0.00    -0.063 C 
HETATM   25  C13 UNL     1      -4.659 -11.052  -2.321  1.00  0.00     0.048 C 
BRANCH  24  26
HETATM   26  C11 UNL     1      -6.676  -9.593  -1.801  1.00  0.00     0.006 C 
HETATM   27  C10 UNL     1      -6.701  -8.852  -2.922  1.00  0.00     0.001 C 
BRANCH  27  28
HETATM   28  C9  UNL     1      -7.887  -8.152  -3.370  1.00  0.00     0.002 C 
HETATM   29  C7  UNL     1      -8.293  -7.997  -4.646  1.00  0.00    -0.084 C 
HETATM   30  C8  UNL     1      -7.515  -8.437  -5.859  1.00  0.00     0.043 C 
BRANCH  29  31
HETATM   31  C6  UNL     1      -9.617  -7.306  -4.944  1.00  0.00     0.037 C 
BRANCH  31  32
HETATM   32  C5  UNL     1      -9.767  -6.809  -6.393  1.00  0.00     0.031 C 
BRANCH  32  33
HETATM   33  C4  UNL     1      -9.460  -5.342  -6.553  1.00  0.00    -0.024 C 
HETATM   34  C2  UNL     1     -10.270  -4.285  -6.342  1.00  0.00    -0.091 C 
HETATM   35  C1  UNL     1     -11.701  -4.353  -5.885  1.00  0.00     0.042 C 
HETATM   36  C3  UNL     1      -9.760  -2.882  -6.553  1.00  0.00     0.042 C 
ENDBRANCH  32  33
ENDBRANCH  31  32
ENDBRANCH  29  31
ENDBRANCH  27  28
ENDBRANCH  24  26
ENDBRANCH   1  23
BRANCH   8  37
HETATM   37  C26 UNL     1      -7.667 -13.032   4.818  1.00  0.00     0.265 C 
HETATM   38  O4  UNL     1      -8.135 -12.590   5.860  1.00  0.00    -0.302 OA
ENDBRANCH   8  37
TORSDOF 13
ENDMDL
MODEL 8
REMARK minimizedAffinity -6.55236053
REMARK CNNscore 0.336221397
REMARK CNNaffinity 5.67799044
REMARK  13 active torsions:
REMARK  status: ('A' for Active; 'I' for Inactive)
REMARK    1  A    between atoms: C4_4  and  C5_5 
REMARK    2  A    between atoms: C5_5  and  C6_6 
REMARK    3  A    between atoms: C6_6  and  C7_7 
REMARK    4  A    between atoms: C9_9  and  C10_10 
REMARK    5  A    between atoms: C11_11  and  C12_12 
REMARK    6  A    between atoms: C14_14  and  C15_15 
REMARK    7  A    between atoms: C18_18  and  O1_19 
REMARK    8  A    between atoms: C19_21  and  C20_22 
REMARK    9  A    between atoms: C20_22  and  C21_23 
REMARK   10  A    between atoms: C21_23  and  C22_24 
REMARK   11  A    between atoms: C22_24  and  O3_25 
REMARK   12  A    between atoms: C24_27  and  C26_29 
REMARK   13  A    between atoms: C29_33  and  O5_35 
ROOT
HETATM    1  C15 UNL     1      17.009   3.768   6.633  1.00  0.00     0.149 C 
HETATM    2  C16 UNL     1      17.238   3.681   8.144  1.00  0.00     0.054 C 
HETATM    3  C17 UNL     1      16.331   4.782   8.760  1.00  0.00     0.050 C 
HETATM    4  C18 UNL     1      15.218   4.788   7.697  1.00  0.00     0.270 C 
HETATM    5  O2  UNL     1      15.848   4.585   6.432  1.00  0.00    -0.351 OA
HETATM    6  C19 UNL     1      15.839   4.313  10.194  1.00  0.00     0.032 C 
HETATM    7  C23 UNL     1      17.043   4.294  11.160  1.00  0.00    -0.066 C 
HETATM    8  C24 UNL     1      17.438   3.214  11.877  1.00  0.00    -0.021 C 
HETATM    9  C25 UNL     1      18.639   3.176  12.778  1.00  0.00     0.052 C 
HETATM   10  C27 UNL     1      17.740   5.635  11.262  1.00  0.00     0.038 C 
HETATM   11  C28 UNL     1      18.204   6.143   9.903  1.00  0.00     0.042 C 
HETATM   12  C29 UNL     1      17.082   6.173   8.838  1.00  0.00     0.067 C 
HETATM   13  C30 UNL     1      17.703   6.700   7.533  1.00  0.00     0.047 C 
ENDROOT
BRANCH   4  14
HETATM   14  O1  UNL     1      14.332   3.692   7.845  1.00  0.00    -0.370 OA
HETATM   15  H26 UNL     1      13.713   3.786   7.099  1.00  0.00     0.212 HD
ENDBRANCH   4  14
BRANCH   6  16
HETATM   16  C20 UNL     1      14.694   5.092  10.900  1.00  0.00     0.012 C 
BRANCH  16  17
HETATM   17  C21 UNL     1      13.436   4.316  11.304  1.00  0.00     0.027 C 
BRANCH  17  18
HETATM   18  C22 UNL     1      13.474   2.818  11.016  1.00  0.00     0.164 C 
BRANCH  18  19
HETATM   19  O3  UNL     1      12.726   2.506   9.849  1.00  0.00    -0.401 OA
HETATM   20  H34 UNL     1      11.796   2.381  10.143  1.00  0.00     0.209 HD
ENDBRANCH  18  19
ENDBRANCH  17  18
ENDBRANCH  16  17
ENDBRANCH   6  16
BRANCH  12  21
HETATM   21  O5  UNL     1      16.130   7.176   9.225  1.00  0.00    -0.389 OA
HETATM   22  H46 UNL     1      16.585   8.035   9.284  1.00  0.00     0.210 HD
ENDBRANCH  12  21
BRANCH   1  23
HETATM   23  C14 UNL     1      16.772   2.431   5.986  1.00  0.00     0.011 C 
HETATM   24  C12 UNL     1      17.464   1.837   4.990  1.00  0.00    -0.063 C 
HETATM   25  C13 UNL     1      18.659   2.450   4.304  1.00  0.00     0.048 C 
BRANCH  24  26
HETATM   26  C11 UNL     1      17.040   0.505   4.548  1.00  0.00     0.006 C 
HETATM   27  C10 UNL     1      16.359  -0.397   5.275  1.00  0.00     0.001 C 
BRANCH  27  28
HETATM   28  C9  UNL     1      15.932  -1.673   4.740  1.00  0.00     0.002 C 
HETATM   29  C7  UNL     1      14.733  -1.953   4.192  1.00  0.00    -0.084 C 
HETATM   30  C8  UNL     1      13.566  -1.001   4.137  1.00  0.00     0.043 C 
BRANCH  29  31
HETATM   31  C6  UNL     1      14.474  -3.328   3.592  1.00  0.00     0.037 C 
BRANCH  31  32
HETATM   32  C5  UNL     1      14.388  -4.469   4.623  1.00  0.00     0.031 C 
BRANCH  32  33
HETATM   33  C4  UNL     1      13.017  -4.620   5.231  1.00  0.00    -0.024 C 
HETATM   34  C2  UNL     1      12.258  -5.730   5.328  1.00  0.00    -0.091 C 
HETATM   35  C1  UNL     1      12.637  -7.098   4.833  1.00  0.00     0.042 C 
HETATM   36  C3  UNL     1      10.904  -5.670   5.988  1.00  0.00     0.042 C 
ENDBRANCH  32  33
ENDBRANCH  31  32
ENDBRANCH  29  31
ENDBRANCH  27  28
ENDBRANCH  24  26
ENDBRANCH   1  23
BRANCH   8  37
HETATM   37  C26 UNL     1      16.663   1.936  11.872  1.00  0.00     0.265 C 
HETATM   38  O4  UNL     1      16.211   1.418  12.885  1.00  0.00    -0.302 OA
ENDBRANCH   8  37
TORSDOF 13
ENDMDL
MODEL 9
REMARK minimizedAffinity -6.20293999
REMARK CNNscore 0.331407458
REMARK CNNaffinity 5.58320475
REMARK  13 active torsions:
REMARK  status: ('A' for Active; 'I' for Inactive)
REMARK    1  A    between atoms: C4_4  and  C5_5 
REMARK    2  A    between atoms: C5_5  and  C6_6 
REMARK    3  A    between atoms: C6_6  and  C7_7 
REMARK    4  A    between atoms: C9_9  and  C10_10 
REMARK    5  A    between atoms: C11_11  and  C12_12 
REMARK    6  A    between atoms: C14_14  and  C15_15 
REMARK    7  A    between atoms: C18_18  and  O1_19 
REMARK    8  A    between atoms: C19_21  and  C20_22 
REMARK    9  A    between atoms: C20_22  and  C21_23 
REMARK   10  A    between atoms: C21_23  and  C22_24 
REMARK   11  A    between atoms: C22_24  and  O3_25 
REMARK   12  A    between atoms: C24_27  and  C26_29 
REMARK   13  A    between atoms: C29_33  and  O5_35 
ROOT
HETATM    1  C15 UNL     1      -6.225  -9.555   8.885  1.00  0.00     0.149 C 
HETATM    2  C16 UNL     1      -7.211 -10.404   9.692  1.00  0.00     0.054 C 
HETATM    3  C17 UNL     1      -8.076  -9.385  10.484  1.00  0.00     0.050 C 
HETATM    4  C18 UNL     1      -8.011  -8.207   9.495  1.00  0.00     0.270 C 
HETATM    5  O2  UNL     1      -6.698  -8.203   8.937  1.00  0.00    -0.351 OA
HETATM    6  C19 UNL     1      -9.536  -9.976  10.676  1.00  0.00     0.032 C 
HETATM    7  C23 UNL     1      -9.472 -11.179  11.640  1.00  0.00    -0.066 C 
HETATM    8  C24 UNL     1      -9.925 -12.424  11.351  1.00  0.00    -0.021 C 
HETATM    9  C25 UNL     1      -9.817 -13.609  12.267  1.00  0.00     0.052 C 
HETATM   10  C27 UNL     1      -8.873 -10.826  12.986  1.00  0.00     0.038 C 
HETATM   11  C28 UNL     1      -7.480 -10.225  12.851  1.00  0.00     0.042 C 
HETATM   12  C29 UNL     1      -7.416  -9.025  11.877  1.00  0.00     0.067 C 
HETATM   13  C30 UNL     1      -5.958  -8.536  11.847  1.00  0.00     0.047 C 
ENDROOT
BRANCH   4  14
HETATM   14  O1  UNL     1      -8.879  -8.390   8.389  1.00  0.00    -0.370 OA
HETATM   15  H26 UNL     1      -8.713  -7.611   7.828  1.00  0.00     0.212 HD
ENDBRANCH   4  14
BRANCH   6  16
HETATM   16  C20 UNL     1     -10.676  -9.045  11.175  1.00  0.00     0.012 C 
BRANCH  16  17
HETATM   17  C21 UNL     1     -11.618  -9.577  12.261  1.00  0.00     0.027 C 
BRANCH  17  18
HETATM   18  C22 UNL     1     -11.788  -8.672  13.477  1.00  0.00     0.164 C 
BRANCH  18  19
HETATM   19  O3  UNL     1     -10.738  -7.719  13.551  1.00  0.00    -0.401 OA
HETATM   20  H34 UNL     1     -10.002  -8.157  14.036  1.00  0.00     0.209 HD
ENDBRANCH  18  19
ENDBRANCH  17  18
ENDBRANCH  16  17
ENDBRANCH   6  16
BRANCH  12  21
HETATM   21  O5  UNL     1      -8.157  -7.941  12.458  1.00  0.00    -0.389 OA
HETATM   22  H46 UNL     1      -7.763  -7.717  13.320  1.00  0.00     0.210 HD
ENDBRANCH  12  21
BRANCH   1  23
HETATM   23  C14 UNL     1      -6.121  -9.970   7.443  1.00  0.00     0.011 C 
HETATM   24  C12 UNL     1      -5.143 -10.674   6.832  1.00  0.00    -0.063 C 
HETATM   25  C13 UNL     1      -3.906 -11.187   7.527  1.00  0.00     0.048 C 
BRANCH  24  26
HETATM   26  C11 UNL     1      -5.289 -10.972   5.404  1.00  0.00     0.006 C 
HETATM   27  C10 UNL     1      -4.426 -11.668   4.643  1.00  0.00     0.001 C 
BRANCH  27  28
HETATM   28  C9  UNL     1      -4.676 -11.962   3.248  1.00  0.00     0.002 C 
HETATM   29  C7  UNL     1      -4.140 -11.329   2.186  1.00  0.00    -0.084 C 
HETATM   30  C8  UNL     1      -3.255 -10.111   2.263  1.00  0.00     0.043 C 
BRANCH  29  31
HETATM   31  C6  UNL     1      -4.440 -11.820   0.777  1.00  0.00     0.037 C 
BRANCH  31  32
HETATM   32  C5  UNL     1      -4.763 -10.705  -0.235  1.00  0.00     0.031 C 
BRANCH  32  33
HETATM   33  C4  UNL     1      -6.189 -10.222  -0.152  1.00  0.00    -0.024 C 
HETATM   34  C2  UNL     1      -6.952  -9.683  -1.124  1.00  0.00    -0.091 C 
HETATM   35  C1  UNL     1      -6.523  -9.443  -2.545  1.00  0.00     0.042 C 
HETATM   36  C3  UNL     1      -8.373  -9.270  -0.835  1.00  0.00     0.042 C 
ENDBRANCH  32  33
ENDBRANCH  31  32
ENDBRANCH  29  31
ENDBRANCH  27  28
ENDBRANCH  24  26
ENDBRANCH   1  23
BRANCH   8  37
HETATM   37  C26 UNL     1     -10.636 -12.727  10.072  1.00  0.00     0.265 C 
HETATM   38  O4  UNL     1     -10.057 -12.968   9.020  1.00  0.00    -0.302 OA
ENDBRANCH   8  37
TORSDOF 13
ENDMDL
