MODEL 1
REMARK minimizedAffinity -7.59894562
REMARK CNNscore 0.707667172
REMARK CNNaffinity 5.91734314
REMARK  10 active torsions:
REMARK  status: ('A' for Active; 'I' for Inactive)
REMARK    1  A    between atoms: N1_6  and  O1_8 
REMARK    2  A    between atoms: O1_8  and  C6_9 
REMARK    3  A    between atoms: C6_9  and  C7_10 
REMARK       I    between atoms: C7_10  and  N2_12 
REMARK    4  A    between atoms: N2_12  and  C8_13 
REMARK    5  A    between atoms: C8_13  and  C9_14 
REMARK    6  A    between atoms: C20_27  and  O3_28 
REMARK    7  A    between atoms: C27_35  and  O4_36 
REMARK    8  A    between atoms: C27_35  and  C28_37 
REMARK    9  A    between atoms: C28_37  and  C29_39 
REMARK   10  A    between atoms: C29_39  and  O6_40 
ROOT
HETATM    1  C1  UNL     1       2.895  58.212  -7.490  1.00  0.00     0.020 C 
HETATM    2  C2  UNL     1       3.218  56.744  -7.122  1.00  0.00    -0.014 C 
HETATM    3  C3  UNL     1       3.268  56.609  -5.577  1.00  0.00     0.020 C 
HETATM    4  C4  UNL     1       4.386  57.429  -4.942  1.00  0.00     0.060 C 
HETATM    5  C5  UNL     1       5.731  57.199  -5.607  1.00  0.00     0.032 C 
HETATM    6  N1  UNL     1       6.781  57.547  -4.922  1.00  0.00    -0.271 N 
ATOM      7  H1  UNL     1       6.746  57.942  -3.982  1.00  0.00     0.194 HD
HETATM    8  C14 UNL     1       5.742  56.611  -6.978  1.00  0.00     0.030 C 
HETATM    9  C15 UNL     1       4.607  56.392  -7.668  1.00  0.00    -0.069 C 
HETATM   10  C16 UNL     1       4.687  55.680  -9.001  1.00  0.00     0.035 C 
HETATM   11  C17 UNL     1       3.520  55.987  -9.933  1.00  0.00     0.010 C 
HETATM   12  C18 UNL     1       2.132  55.819  -9.279  1.00  0.00    -0.002 C 
HETATM   13  C19 UNL     1       2.197  55.717  -7.729  1.00  0.00     0.031 C 
HETATM   14  C20 UNL     1       0.775  55.706  -7.129  1.00  0.00     0.124 C 
HETATM   15  C21 UNL     1      -0.091  54.594  -7.746  1.00  0.00     0.045 C 
HETATM   16  C22 UNL     1      -0.107  54.503  -9.306  1.00  0.00     0.001 C 
HETATM   17  C23 UNL     1      -1.081  55.560  -9.860  1.00  0.00     0.019 C 
HETATM   18  C24 UNL     1       1.313  54.671  -9.905  1.00  0.00     0.002 C 
HETATM   19  C25 UNL     1       1.960  53.276  -9.811  1.00  0.00     0.009 C 
HETATM   20  C26 UNL     1       0.824  52.271  -9.603  1.00  0.00     0.047 C 
HETATM   21  C27 UNL     1      -0.487  53.058  -9.775  1.00  0.00     0.128 C 
ENDROOT
BRANCH   6  22
HETATM   22  O1  UNL     1       7.969  57.313  -5.634  1.00  0.00    -0.271 OA
BRANCH  22  23
HETATM   23  C6  UNL     1       8.678  56.260  -5.002  1.00  0.00     0.303 C 
BRANCH  23  24
HETATM   24  C7  UNL     1      10.182  56.525  -4.998  1.00  0.00     0.244 C 
HETATM   25  O2  UNL     1      10.687  57.624  -5.210  1.00  0.00    -0.271 OA
HETATM   26  N2  UNL     1      10.932  55.395  -4.721  1.00  0.00    -0.355 N 
HETATM   27  H10 UNL     1      10.477  54.493  -4.722  1.00  0.00     0.162 HD
BRANCH  26  28
HETATM   28  C8  UNL     1      12.377  55.420  -4.739  1.00  0.00     0.161 C 
BRANCH  28  29
HETATM   29  C9  UNL     1      12.929  54.138  -5.301  1.00  0.00    -0.038 A 
HETATM   30  C10 UNL     1      13.955  54.165  -6.249  1.00  0.00     0.025 A 
HETATM   31  C11 UNL     1      14.425  52.965  -6.757  1.00  0.00     0.088 A 
HETATM   32  N3  UNL     1      13.944  51.756  -6.392  1.00  0.00    -0.375 N 
HETATM   33  C12 UNL     1      12.947  51.751  -5.482  1.00  0.00     0.088 A 
ATOM     34  H3  UNL     1      14.316  50.891  -6.784  1.00  0.00     0.164 HD
HETATM   35  C13 UNL     1      12.410  52.899  -4.918  1.00  0.00     0.025 A 
ENDBRANCH  28  29
ENDBRANCH  26  28
ENDBRANCH  23  24
ENDBRANCH  22  23
ENDBRANCH   6  22
BRANCH  14  36
HETATM   36  O3  UNL     1       0.114  56.958  -7.208  1.00  0.00    -0.395 OA
HETATM   37  H25 UNL     1       0.283  57.365  -8.071  1.00  0.00     0.210 HD
ENDBRANCH  14  36
BRANCH  21  38
HETATM   38  O4  UNL     1      -1.491  52.494  -8.937  1.00  0.00    -0.381 OA
HETATM   39  H36 UNL     1      -1.408  51.524  -8.963  1.00  0.00     0.211 HD
ENDBRANCH  21  38
BRANCH  21  40
HETATM   40  C28 UNL     1      -0.941  52.974 -11.258  1.00  0.00     0.184 C 
HETATM   41  O5  UNL     1      -0.174  53.184 -12.205  1.00  0.00    -0.292 OA
BRANCH  40  42
HETATM   42  C29 UNL     1      -2.399  52.618 -11.530  1.00  0.00     0.245 C 
BRANCH  42  43
HETATM   43  O6  UNL     1      -3.176  53.780 -11.798  1.00  0.00    -0.393 OA
HETATM   44  H39 UNL     1      -2.540  54.496 -12.000  1.00  0.00     0.209 HD
ENDBRANCH  42  43
ENDBRANCH  40  42
ENDBRANCH  21  40
TORSDOF 10
ENDMDL
MODEL 2
REMARK minimizedAffinity -8.34535599
REMARK CNNscore 0.631450057
REMARK CNNaffinity 7.10235834
REMARK  10 active torsions:
REMARK  status: ('A' for Active; 'I' for Inactive)
REMARK    1  A    between atoms: N1_6  and  O1_8 
REMARK    2  A    between atoms: O1_8  and  C6_9 
REMARK    3  A    between atoms: C6_9  and  C7_10 
REMARK       I    between atoms: C7_10  and  N2_12 
REMARK    4  A    between atoms: N2_12  and  C8_13 
REMARK    5  A    between atoms: C8_13  and  C9_14 
REMARK    6  A    between atoms: C20_27  and  O3_28 
REMARK    7  A    between atoms: C27_35  and  O4_36 
REMARK    8  A    between atoms: C27_35  and  C28_37 
REMARK    9  A    between atoms: C28_37  and  C29_39 
REMARK   10  A    between atoms: C29_39  and  O6_40 
ROOT
HETATM    1  C1  UNL     1       0.394  50.798 -21.027  1.00  0.00     0.020 C 
HETATM    2  C2  UNL     1      -0.783  51.110 -20.072  1.00  0.00    -0.014 C 
HETATM    3  C3  UNL     1      -0.686  52.589 -19.616  1.00  0.00     0.020 C 
HETATM    4  C4  UNL     1       0.570  52.882 -18.801  1.00  0.00     0.060 C 
HETATM    5  C5  UNL     1       0.778  51.893 -17.669  1.00  0.00     0.032 C 
HETATM    6  N1  UNL     1       1.582  52.265 -16.717  1.00  0.00    -0.271 N 
ATOM      7  H1  UNL     1       2.053  53.169 -16.687  1.00  0.00     0.194 HD
HETATM    8  C14 UNL     1       0.063  50.584 -17.744  1.00  0.00     0.030 C 
HETATM    9  C15 UNL     1      -0.655  50.226 -18.825  1.00  0.00    -0.069 C 
HETATM   10  C16 UNL     1      -1.451  48.940 -18.780  1.00  0.00     0.035 C 
HETATM   11  C17 UNL     1      -1.731  48.342 -20.154  1.00  0.00     0.010 C 
HETATM   12  C18 UNL     1      -2.321  49.344 -21.169  1.00  0.00    -0.002 C 
HETATM   13  C19 UNL     1      -2.188  50.824 -20.711  1.00  0.00     0.031 C 
HETATM   14  C20 UNL     1      -2.655  51.779 -21.830  1.00  0.00     0.124 C 
HETATM   15  C21 UNL     1      -4.081  51.445 -22.301  1.00  0.00     0.045 C 
HETATM   16  C22 UNL     1      -4.374  49.948 -22.640  1.00  0.00     0.001 C 
HETATM   17  C23 UNL     1      -3.844  49.641 -24.054  1.00  0.00     0.019 C 
HETATM   18  C24 UNL     1      -3.765  48.991 -21.585  1.00  0.00     0.002 C 
HETATM   19  C25 UNL     1      -4.789  48.950 -20.434  1.00  0.00     0.009 C 
HETATM   20  C26 UNL     1      -6.110  49.480 -20.996  1.00  0.00     0.047 C 
HETATM   21  C27 UNL     1      -5.905  49.638 -22.513  1.00  0.00     0.128 C 
ENDROOT
BRANCH   6  22
HETATM   22  O1  UNL     1       1.721  51.271 -15.734  1.00  0.00    -0.271 OA
BRANCH  22  23
HETATM   23  C6  UNL     1       2.741  51.665 -14.831  1.00  0.00     0.303 C 
BRANCH  23  24
HETATM   24  C7  UNL     1       2.264  51.583 -13.382  1.00  0.00     0.244 C 
HETATM   25  O2  UNL     1       1.567  50.675 -12.938  1.00  0.00    -0.271 OA
HETATM   26  N2  UNL     1       2.704  52.640 -12.605  1.00  0.00    -0.355 N 
HETATM   27  H10 UNL     1       3.128  53.438 -13.058  1.00  0.00     0.162 HD
BRANCH  26  28
HETATM   28  C8  UNL     1       2.304  52.785 -11.224  1.00  0.00     0.161 C 
BRANCH  28  29
HETATM   29  C9  UNL     1       3.090  53.875 -10.548  1.00  0.00    -0.038 A 
HETATM   30  C10 UNL     1       2.690  55.210 -10.659  1.00  0.00     0.025 A 
HETATM   31  C11 UNL     1       3.450  56.187 -10.038  1.00  0.00     0.088 A 
HETATM   32  N3  UNL     1       4.570  55.929  -9.328  1.00  0.00    -0.375 N 
HETATM   33  C12 UNL     1       4.945  54.635  -9.240  1.00  0.00     0.088 A 
ATOM     34  H3  UNL     1       5.104  56.674  -8.881  1.00  0.00     0.164 HD
HETATM   35  C13 UNL     1       4.253  53.587  -9.827  1.00  0.00     0.025 A 
ENDBRANCH  28  29
ENDBRANCH  26  28
ENDBRANCH  23  24
ENDBRANCH  22  23
ENDBRANCH   6  22
BRANCH  14  36
HETATM   36  O3  UNL     1      -1.765  51.841 -22.933  1.00  0.00    -0.395 OA
HETATM   37  H25 UNL     1      -1.441  50.953 -23.145  1.00  0.00     0.210 HD
ENDBRANCH  14  36
BRANCH  21  38
HETATM   38  O4  UNL     1      -6.690  50.728 -22.986  1.00  0.00    -0.381 OA
HETATM   39  H36 UNL     1      -7.552  50.709 -22.533  1.00  0.00     0.211 HD
ENDBRANCH  21  38
BRANCH  21  40
HETATM   40  C28 UNL     1      -6.345  48.331 -23.226  1.00  0.00     0.184 C 
HETATM   41  O5  UNL     1      -6.474  47.255 -22.631  1.00  0.00    -0.292 OA
BRANCH  40  42
HETATM   42  C29 UNL     1      -6.625  48.405 -24.724  1.00  0.00     0.245 C 
BRANCH  42  43
HETATM   43  O6  UNL     1      -7.886  49.011 -24.988  1.00  0.00    -0.393 OA
HETATM   44  H39 UNL     1      -8.150  49.467 -24.162  1.00  0.00     0.209 HD
ENDBRANCH  42  43
ENDBRANCH  40  42
ENDBRANCH  21  40
TORSDOF 10
ENDMDL
MODEL 3
REMARK minimizedAffinity -9.26984787
REMARK CNNscore 0.578018188
REMARK CNNaffinity 7.24683189
REMARK  10 active torsions:
REMARK  status: ('A' for Active; 'I' for Inactive)
REMARK    1  A    between atoms: N1_6  and  O1_8 
REMARK    2  A    between atoms: O1_8  and  C6_9 
REMARK    3  A    between atoms: C6_9  and  C7_10 
REMARK       I    between atoms: C7_10  and  N2_12 
REMARK    4  A    between atoms: N2_12  and  C8_13 
REMARK    5  A    between atoms: C8_13  and  C9_14 
REMARK    6  A    between atoms: C20_27  and  O3_28 
REMARK    7  A    between atoms: C27_35  and  O4_36 
REMARK    8  A    between atoms: C27_35  and  C28_37 
REMARK    9  A    between atoms: C28_37  and  C29_39 
REMARK   10  A    between atoms: C29_39  and  O6_40 
ROOT
HETATM    1  C1  UNL     1       1.108  51.099 -21.236  1.00  0.00     0.020 C 
HETATM    2  C2  UNL     1      -0.187  51.621 -20.567  1.00  0.00    -0.014 C 
HETATM    3  C3  UNL     1      -0.014  53.127 -20.237  1.00  0.00     0.020 C 
HETATM    4  C4  UNL     1       1.090  53.392 -19.218  1.00  0.00     0.060 C 
HETATM    5  C5  UNL     1       0.968  52.519 -17.982  1.00  0.00     0.032 C 
HETATM    6  N1  UNL     1       1.613  52.920 -16.926  1.00  0.00    -0.271 N 
ATOM      7  H1  UNL     1       2.168  53.774 -16.885  1.00  0.00     0.194 HD
HETATM    8  C14 UNL     1       0.139  51.281 -18.079  1.00  0.00     0.030 C 
HETATM    9  C15 UNL     1      -0.396  50.872 -19.245  1.00  0.00    -0.069 C 
HETATM   10  C16 UNL     1      -1.325  49.678 -19.244  1.00  0.00     0.035 C 
HETATM   11  C17 UNL     1      -1.404  48.959 -20.586  1.00  0.00     0.010 C 
HETATM   12  C18 UNL     1      -1.676  49.893 -21.785  1.00  0.00    -0.002 C 
HETATM   13  C19 UNL     1      -1.468  51.396 -21.446  1.00  0.00     0.031 C 
HETATM   14  C20 UNL     1      -1.605  52.259 -22.718  1.00  0.00     0.124 C 
HETATM   15  C21 UNL     1      -2.944  52.007 -23.432  1.00  0.00     0.045 C 
HETATM   16  C22 UNL     1      -3.332  50.516 -23.686  1.00  0.00     0.001 C 
HETATM   17  C23 UNL     1      -2.581  50.006 -24.931  1.00  0.00     0.019 C 
HETATM   18  C24 UNL     1      -3.045  49.629 -22.447  1.00  0.00     0.002 C 
HETATM   19  C25 UNL     1      -4.266  49.810 -21.526  1.00  0.00     0.009 C 
HETATM   20  C26 UNL     1      -5.390  50.393 -22.386  1.00  0.00     0.047 C 
HETATM   21  C27 UNL     1      -4.884  50.363 -23.839  1.00  0.00     0.128 C 
ENDROOT
BRANCH   6  22
HETATM   22  O1  UNL     1       1.452  52.032 -15.850  1.00  0.00    -0.271 OA
BRANCH  22  23
HETATM   23  C6  UNL     1       2.729  51.735 -15.310  1.00  0.00     0.303 C 
BRANCH  23  24
HETATM   24  C7  UNL     1       2.663  51.539 -13.797  1.00  0.00     0.244 C 
HETATM   25  O2  UNL     1       3.180  50.599 -13.201  1.00  0.00    -0.271 OA
HETATM   26  N2  UNL     1       1.960  52.541 -13.150  1.00  0.00    -0.355 N 
HETATM   27  H10 UNL     1       1.417  53.192 -13.700  1.00  0.00     0.162 HD
BRANCH  26  28
HETATM   28  C8  UNL     1       1.723  52.503 -11.724  1.00  0.00     0.161 C 
BRANCH  28  29
HETATM   29  C9  UNL     1       0.423  53.177 -11.378  1.00  0.00    -0.038 A 
HETATM   30  C10 UNL     1       0.419  54.425 -10.749  1.00  0.00     0.025 A 
HETATM   31  C11 UNL     1      -0.798  55.005 -10.429  1.00  0.00     0.088 A 
HETATM   32  N3  UNL     1      -1.994  54.431 -10.685  1.00  0.00    -0.375 N 
HETATM   33  C12 UNL     1      -1.968  53.222 -11.284  1.00  0.00     0.088 A 
ATOM     34  H3  UNL     1      -2.871  54.889 -10.439  1.00  0.00     0.164 HD
HETATM   35  C13 UNL     1      -0.803  52.560 -11.641  1.00  0.00     0.025 A 
ENDBRANCH  28  29
ENDBRANCH  26  28
ENDBRANCH  23  24
ENDBRANCH  22  23
ENDBRANCH   6  22
BRANCH  14  36
HETATM   36  O3  UNL     1      -0.521  52.118 -23.621  1.00  0.00    -0.395 OA
HETATM   37  H25 UNL     1      -0.263  51.186 -23.682  1.00  0.00     0.210 HD
ENDBRANCH  14  36
BRANCH  21  38
HETATM   38  O4  UNL     1      -5.439  51.461 -24.556  1.00  0.00    -0.381 OA
HETATM   39  H36 UNL     1      -6.368  51.570 -24.285  1.00  0.00     0.211 HD
ENDBRANCH  21  38
BRANCH  21  40
HETATM   40  C28 UNL     1      -5.325  49.030 -24.505  1.00  0.00     0.184 C 
HETATM   41  O5  UNL     1      -4.582  48.375 -25.245  1.00  0.00    -0.292 OA
BRANCH  40  42
HETATM   42  C29 UNL     1      -6.738  48.531 -24.216  1.00  0.00     0.245 C 
BRANCH  42  43
HETATM   43  O6  UNL     1      -7.719  49.433 -24.717  1.00  0.00    -0.393 OA
HETATM   44  H39 UNL     1      -7.256  50.019 -25.350  1.00  0.00     0.209 HD
ENDBRANCH  42  43
ENDBRANCH  40  42
ENDBRANCH  21  40
TORSDOF 10
ENDMDL
MODEL 4
REMARK minimizedAffinity -9.01112175
REMARK CNNscore 0.564490139
REMARK CNNaffinity 7.3159833
REMARK  10 active torsions:
REMARK  status: ('A' for Active; 'I' for Inactive)
REMARK    1  A    between atoms: N1_6  and  O1_8 
REMARK    2  A    between atoms: O1_8  and  C6_9 
REMARK    3  A    between atoms: C6_9  and  C7_10 
REMARK       I    between atoms: C7_10  and  N2_12 
REMARK    4  A    between atoms: N2_12  and  C8_13 
REMARK    5  A    between atoms: C8_13  and  C9_14 
REMARK    6  A    between atoms: C20_27  and  O3_28 
REMARK    7  A    between atoms: C27_35  and  O4_36 
REMARK    8  A    between atoms: C27_35  and  C28_37 
REMARK    9  A    between atoms: C28_37  and  C29_39 
REMARK   10  A    between atoms: C29_39  and  O6_40 
ROOT
HETATM    1  C1  UNL     1       1.757  51.271 -21.270  1.00  0.00     0.020 C 
HETATM    2  C2  UNL     1       0.394  51.939 -20.972  1.00  0.00    -0.014 C 
HETATM    3  C3  UNL     1       0.637  53.397 -20.500  1.00  0.00     0.020 C 
HETATM    4  C4  UNL     1       1.409  53.478 -19.187  1.00  0.00     0.060 C 
HETATM    5  C5  UNL     1       0.823  52.589 -18.106  1.00  0.00     0.032 C 
HETATM    6  N1  UNL     1       1.166  52.864 -16.882  1.00  0.00    -0.271 N 
ATOM      7  H1  UNL     1       1.781  53.635 -16.619  1.00  0.00     0.194 HD
HETATM    8  C14 UNL     1      -0.080  51.477 -18.528  1.00  0.00     0.030 C 
HETATM    9  C15 UNL     1      -0.288  51.183 -19.825  1.00  0.00    -0.069 C 
HETATM   10  C16 UNL     1      -1.310  50.124 -20.179  1.00  0.00     0.035 C 
HETATM   11  C17 UNL     1      -1.069  49.467 -21.534  1.00  0.00     0.010 C 
HETATM   12  C18 UNL     1      -0.859  50.468 -22.691  1.00  0.00    -0.002 C 
HETATM   13  C19 UNL     1      -0.586  51.917 -22.199  1.00  0.00     0.031 C 
HETATM   14  C20 UNL     1      -0.234  52.833 -23.391  1.00  0.00     0.124 C 
HETATM   15  C21 UNL     1      -1.319  52.787 -24.481  1.00  0.00     0.045 C 
HETATM   16  C22 UNL     1      -1.788  51.370 -24.942  1.00  0.00     0.001 C 
HETATM   17  C23 UNL     1      -0.765  50.806 -25.947  1.00  0.00     0.019 C 
HETATM   18  C24 UNL     1      -1.989  50.412 -23.740  1.00  0.00     0.002 C 
HETATM   19  C25 UNL     1      -3.399  50.725 -23.204  1.00  0.00     0.009 C 
HETATM   20  C26 UNL     1      -4.138  51.481 -24.310  1.00  0.00     0.047 C 
HETATM   21  C27 UNL     1      -3.230  51.431 -25.552  1.00  0.00     0.128 C 
ENDROOT
BRANCH   6  22
HETATM   22  O1  UNL     1       0.588  51.971 -15.965  1.00  0.00    -0.271 OA
BRANCH  22  23
HETATM   23  C6  UNL     1       1.612  51.434 -15.145  1.00  0.00     0.303 C 
BRANCH  23  24
HETATM   24  C7  UNL     1       1.231  51.495 -13.667  1.00  0.00     0.244 C 
HETATM   25  O2  UNL     1       1.211  50.520 -12.921  1.00  0.00    -0.271 OA
HETATM   26  N2  UNL     1       0.914  52.773 -13.239  1.00  0.00    -0.355 N 
HETATM   27  H10 UNL     1       0.784  53.501 -13.928  1.00  0.00     0.162 HD
BRANCH  26  28
HETATM   28  C8  UNL     1       0.459  53.032 -11.892  1.00  0.00     0.161 C 
BRANCH  28  29
HETATM   29  C9  UNL     1       1.529  53.716 -11.086  1.00  0.00    -0.038 A 
HETATM   30  C10 UNL     1       2.724  53.055 -10.790  1.00  0.00     0.025 A 
HETATM   31  C11 UNL     1       3.677  53.711 -10.029  1.00  0.00     0.088 A 
HETATM   32  N3  UNL     1       3.520  54.962  -9.545  1.00  0.00    -0.375 N 
HETATM   33  C12 UNL     1       2.356  55.581  -9.833  1.00  0.00     0.088 A 
ATOM     34  H3  UNL     1       4.245  55.417  -8.990  1.00  0.00     0.164 HD
HETATM   35  C13 UNL     1       1.341  55.008 -10.585  1.00  0.00     0.025 A 
ENDBRANCH  28  29
ENDBRANCH  26  28
ENDBRANCH  23  24
ENDBRANCH  22  23
ENDBRANCH   6  22
BRANCH  14  36
HETATM   36  O3  UNL     1       1.046  52.577 -23.948  1.00  0.00    -0.395 OA
HETATM   37  H25 UNL     1       1.198  51.622 -23.997  1.00  0.00     0.210 HD
ENDBRANCH  14  36
BRANCH  21  38
HETATM   38  O4  UNL     1      -3.411  52.617 -26.319  1.00  0.00    -0.381 OA
HETATM   39  H36 UNL     1      -4.359  52.841 -26.323  1.00  0.00     0.211 HD
ENDBRANCH  21  38
BRANCH  21  40
HETATM   40  C28 UNL     1      -3.606  50.193 -26.410  1.00  0.00     0.184 C 
HETATM   41  O5  UNL     1      -4.345  49.292 -25.996  1.00  0.00    -0.292 OA
BRANCH  40  42
HETATM   42  C29 UNL     1      -3.026  50.109 -27.818  1.00  0.00     0.245 C 
BRANCH  42  43
HETATM   43  O6  UNL     1      -3.471  51.190 -28.629  1.00  0.00    -0.393 OA
HETATM   44  H39 UNL     1      -3.830  51.864 -28.015  1.00  0.00     0.209 HD
ENDBRANCH  42  43
ENDBRANCH  40  42
ENDBRANCH  21  40
TORSDOF 10
ENDMDL
MODEL 5
REMARK minimizedAffinity -7.64840555
REMARK CNNscore 0.529054344
REMARK CNNaffinity 5.72849131
REMARK  10 active torsions:
REMARK  status: ('A' for Active; 'I' for Inactive)
REMARK    1  A    between atoms: N1_6  and  O1_8 
REMARK    2  A    between atoms: O1_8  and  C6_9 
REMARK    3  A    between atoms: C6_9  and  C7_10 
REMARK       I    between atoms: C7_10  and  N2_12 
REMARK    4  A    between atoms: N2_12  and  C8_13 
REMARK    5  A    between atoms: C8_13  and  C9_14 
REMARK    6  A    between atoms: C20_27  and  O3_28 
REMARK    7  A    between atoms: C27_35  and  O4_36 
REMARK    8  A    between atoms: C27_35  and  C28_37 
REMARK    9  A    between atoms: C28_37  and  C29_39 
REMARK   10  A    between atoms: C29_39  and  O6_40 
ROOT
HETATM    1  C1  UNL     1     -11.382  44.568 -26.518  1.00  0.00     0.020 C 
HETATM    2  C2  UNL     1     -11.541  46.098 -26.690  1.00  0.00    -0.014 C 
HETATM    3  C3  UNL     1     -11.529  46.768 -25.291  1.00  0.00     0.020 C 
HETATM    4  C4  UNL     1     -12.706  46.347 -24.416  1.00  0.00     0.060 C 
HETATM    5  C5  UNL     1     -14.040  46.473 -25.129  1.00  0.00     0.032 C 
HETATM    6  N1  UNL     1     -15.098  46.500 -24.373  1.00  0.00    -0.271 N 
ATOM      7  H1  UNL     1     -15.075  46.457 -23.354  1.00  0.00     0.194 HD
HETATM    8  C14 UNL     1     -14.033  46.542 -26.620  1.00  0.00     0.030 C 
HETATM    9  C15 UNL     1     -12.903  46.384 -27.334  1.00  0.00    -0.069 C 
HETATM   10  C16 UNL     1     -12.951  46.589 -28.833  1.00  0.00     0.035 C 
HETATM   11  C17 UNL     1     -11.851  45.853 -29.590  1.00  0.00     0.010 C 
HETATM   12  C18 UNL     1     -10.433  46.089 -29.026  1.00  0.00    -0.002 C 
HETATM   13  C19 UNL     1     -10.440  46.733 -27.611  1.00  0.00     0.031 C 
HETATM   14  C20 UNL     1      -9.006  46.800 -27.043  1.00  0.00     0.124 C 
HETATM   15  C21 UNL     1      -8.050  47.527 -28.005  1.00  0.00     0.045 C 
HETATM   16  C22 UNL     1      -8.073  47.065 -29.497  1.00  0.00     0.001 C 
HETATM   17  C23 UNL     1      -7.230  45.783 -29.639  1.00  0.00     0.019 C 
HETATM   18  C24 UNL     1      -9.521  46.852 -30.009  1.00  0.00     0.002 C 
HETATM   19  C25 UNL     1     -10.018  48.253 -30.415  1.00  0.00     0.009 C 
HETATM   20  C26 UNL     1      -8.779  49.139 -30.564  1.00  0.00     0.047 C 
HETATM   21  C27 UNL     1      -7.561  48.206 -30.441  1.00  0.00     0.128 C 
ENDROOT
BRANCH   6  22
HETATM   22  O1  UNL     1     -16.277  46.597 -25.130  1.00  0.00    -0.271 OA
BRANCH  22  23
HETATM   23  C6  UNL     1     -17.265  47.250 -24.351  1.00  0.00     0.303 C 
BRANCH  23  24
HETATM   24  C7  UNL     1     -18.645  46.632 -24.570  1.00  0.00     0.244 C 
HETATM   25  O2  UNL     1     -19.571  47.201 -25.142  1.00  0.00    -0.271 OA
HETATM   26  N2  UNL     1     -18.752  45.348 -24.064  1.00  0.00    -0.355 N 
HETATM   27  H10 UNL     1     -18.021  44.998 -23.460  1.00  0.00     0.162 HD
BRANCH  26  28
HETATM   28  C8  UNL     1     -19.998  44.617 -24.107  1.00  0.00     0.161 C 
BRANCH  28  29
HETATM   29  C9  UNL     1     -20.279  43.956 -22.785  1.00  0.00    -0.038 A 
HETATM   30  C10 UNL     1     -19.370  44.070 -21.729  1.00  0.00     0.025 A 
HETATM   31  C11 UNL     1     -19.656  43.431 -20.533  1.00  0.00     0.088 A 
HETATM   32  N3  UNL     1     -20.767  42.693 -20.323  1.00  0.00    -0.375 N 
HETATM   33  C12 UNL     1     -21.627  42.587 -21.357  1.00  0.00     0.088 A 
ATOM     34  H3  UNL     1     -20.947  42.239 -19.427  1.00  0.00     0.164 HD
HETATM   35  C13 UNL     1     -21.430  43.187 -22.592  1.00  0.00     0.025 A 
ENDBRANCH  28  29
ENDBRANCH  26  28
ENDBRANCH  23  24
ENDBRANCH  22  23
ENDBRANCH   6  22
BRANCH  14  36
HETATM   36  O3  UNL     1      -8.480  45.536 -26.673  1.00  0.00    -0.395 OA
HETATM   37  H25 UNL     1      -8.716  44.874 -27.340  1.00  0.00     0.210 HD
ENDBRANCH  14  36
BRANCH  21  38
HETATM   38  O4  UNL     1      -6.479  48.916 -29.846  1.00  0.00    -0.381 OA
HETATM   39  H36 UNL     1      -6.463  49.819 -30.212  1.00  0.00     0.211 HD
ENDBRANCH  21  38
BRANCH  21  40
HETATM   40  C28 UNL     1      -7.147  47.717 -31.855  1.00  0.00     0.184 C 
HETATM   41  O5  UNL     1      -7.889  47.814 -32.840  1.00  0.00    -0.292 OA
BRANCH  40  42
HETATM   42  C29 UNL     1      -5.763  47.095 -32.010  1.00  0.00     0.245 C 
BRANCH  42  43
HETATM   43  O6  UNL     1      -4.735  48.044 -31.747  1.00  0.00    -0.393 OA
HETATM   44  H39 UNL     1      -5.163  48.791 -31.280  1.00  0.00     0.209 HD
ENDBRANCH  42  43
ENDBRANCH  40  42
ENDBRANCH  21  40
TORSDOF 10
ENDMDL
MODEL 6
REMARK minimizedAffinity -7.36680698
REMARK CNNscore 0.449497104
REMARK CNNaffinity 6.42952394
REMARK  10 active torsions:
REMARK  status: ('A' for Active; 'I' for Inactive)
REMARK    1  A    between atoms: N1_6  and  O1_8 
REMARK    2  A    between atoms: O1_8  and  C6_9 
REMARK    3  A    between atoms: C6_9  and  C7_10 
REMARK       I    between atoms: C7_10  and  N2_12 
REMARK    4  A    between atoms: N2_12  and  C8_13 
REMARK    5  A    between atoms: C8_13  and  C9_14 
REMARK    6  A    between atoms: C20_27  and  O3_28 
REMARK    7  A    between atoms: C27_35  and  O4_36 
REMARK    8  A    between atoms: C27_35  and  C28_37 
REMARK    9  A    between atoms: C28_37  and  C29_39 
REMARK   10  A    between atoms: C29_39  and  O6_40 
ROOT
HETATM    1  C1  UNL     1      -0.887  49.532 -19.339  1.00  0.00     0.020 C 
HETATM    2  C2  UNL     1      -2.408  49.405 -19.596  1.00  0.00    -0.014 C 
HETATM    3  C3  UNL     1      -3.167  50.341 -18.619  1.00  0.00     0.020 C 
HETATM    4  C4  UNL     1      -2.981  49.952 -17.155  1.00  0.00     0.060 C 
HETATM    5  C5  UNL     1      -3.248  48.479 -16.902  1.00  0.00     0.032 C 
HETATM    6  N1  UNL     1      -3.481  48.138 -15.669  1.00  0.00    -0.271 N 
ATOM      7  H1  UNL     1      -3.507  48.795 -14.888  1.00  0.00     0.194 HD
HETATM    8  C14 UNL     1      -3.211  47.551 -18.070  1.00  0.00     0.030 C 
HETATM    9  C15 UNL     1      -2.841  47.964 -19.297  1.00  0.00    -0.069 C 
HETATM   10  C16 UNL     1      -2.945  46.998 -20.457  1.00  0.00     0.035 C 
HETATM   11  C17 UNL     1      -2.007  47.323 -21.614  1.00  0.00     0.010 C 
HETATM   12  C18 UNL     1      -2.075  48.791 -22.086  1.00  0.00    -0.002 C 
HETATM   13  C19 UNL     1      -2.811  49.720 -21.081  1.00  0.00     0.031 C 
HETATM   14  C20 UNL     1      -2.711  51.192 -21.535  1.00  0.00     0.124 C 
HETATM   15  C21 UNL     1      -3.223  51.376 -22.974  1.00  0.00     0.045 C 
HETATM   16  C22 UNL     1      -2.665  50.388 -24.047  1.00  0.00     0.001 C 
HETATM   17  C23 UNL     1      -1.268  50.864 -24.491  1.00  0.00     0.019 C 
HETATM   18  C24 UNL     1      -2.628  48.930 -23.520  1.00  0.00     0.002 C 
HETATM   19  C25 UNL     1      -4.053  48.385 -23.731  1.00  0.00     0.009 C 
HETATM   20  C26 UNL     1      -4.739  49.311 -24.739  1.00  0.00     0.047 C 
HETATM   21  C27 UNL     1      -3.651  50.268 -25.259  1.00  0.00     0.128 C 
ENDROOT
BRANCH   6  22
HETATM   22  O1  UNL     1      -3.692  46.755 -15.542  1.00  0.00    -0.271 OA
BRANCH  22  23
HETATM   23  C6  UNL     1      -4.984  46.446 -16.038  1.00  0.00     0.303 C 
BRANCH  23  24
HETATM   24  C7  UNL     1      -5.907  45.959 -14.922  1.00  0.00     0.244 C 
HETATM   25  O2  UNL     1      -5.673  44.985 -14.212  1.00  0.00    -0.271 OA
HETATM   26  N2  UNL     1      -7.044  46.735 -14.781  1.00  0.00    -0.355 N 
HETATM   27  H10 UNL     1      -7.265  47.414 -15.495  1.00  0.00     0.162 HD
BRANCH  26  28
HETATM   28  C8  UNL     1      -8.078  46.400 -13.828  1.00  0.00     0.161 C 
BRANCH  28  29
HETATM   29  C9  UNL     1      -9.374  46.093 -14.528  1.00  0.00    -0.038 A 
HETATM   30  C10 UNL     1     -10.275  45.176 -13.978  1.00  0.00     0.025 A 
HETATM   31  C11 UNL     1     -11.450  44.906 -14.661  1.00  0.00     0.088 A 
HETATM   32  N3  UNL     1     -11.780  45.475 -15.841  1.00  0.00    -0.375 N 
HETATM   33  C12 UNL     1     -10.893  46.350 -16.360  1.00  0.00     0.088 A 
ATOM     34  H3  UNL     1     -12.656  45.255 -16.316  1.00  0.00     0.164 HD
HETATM   35  C13 UNL     1      -9.691  46.684 -15.754  1.00  0.00     0.025 A 
ENDBRANCH  28  29
ENDBRANCH  26  28
ENDBRANCH  23  24
ENDBRANCH  22  23
ENDBRANCH   6  22
BRANCH  14  36
HETATM   36  O3  UNL     1      -1.413  51.746 -21.390  1.00  0.00    -0.395 OA
HETATM   37  H25 UNL     1      -0.747  51.099 -21.663  1.00  0.00     0.210 HD
ENDBRANCH  14  36
BRANCH  21  38
HETATM   38  O4  UNL     1      -4.238  51.527 -25.569  1.00  0.00    -0.381 OA
HETATM   39  H36 UNL     1      -5.101  51.371 -25.993  1.00  0.00     0.211 HD
ENDBRANCH  21  38
BRANCH  21  40
HETATM   40  C28 UNL     1      -3.009  49.664 -26.538  1.00  0.00     0.184 C 
HETATM   41  O5  UNL     1      -2.418  48.578 -26.541  1.00  0.00    -0.292 OA
BRANCH  40  42
HETATM   42  C29 UNL     1      -3.128  50.464 -27.831  1.00  0.00     0.245 C 
BRANCH  42  43
HETATM   43  O6  UNL     1      -2.257  51.590 -27.827  1.00  0.00    -0.393 OA
HETATM   44  H39 UNL     1      -1.608  51.432 -27.111  1.00  0.00     0.209 HD
ENDBRANCH  42  43
ENDBRANCH  40  42
ENDBRANCH  21  40
TORSDOF 10
ENDMDL
MODEL 7
REMARK minimizedAffinity -8.42025089
REMARK CNNscore 0.412195623
REMARK CNNaffinity 6.2931571
REMARK  10 active torsions:
REMARK  status: ('A' for Active; 'I' for Inactive)
REMARK    1  A    between atoms: N1_6  and  O1_8 
REMARK    2  A    between atoms: O1_8  and  C6_9 
REMARK    3  A    between atoms: C6_9  and  C7_10 
REMARK       I    between atoms: C7_10  and  N2_12 
REMARK    4  A    between atoms: N2_12  and  C8_13 
REMARK    5  A    between atoms: C8_13  and  C9_14 
REMARK    6  A    between atoms: C20_27  and  O3_28 
REMARK    7  A    between atoms: C27_35  and  O4_36 
REMARK    8  A    between atoms: C27_35  and  C28_37 
REMARK    9  A    between atoms: C28_37  and  C29_39 
REMARK   10  A    between atoms: C29_39  and  O6_40 
ROOT
HETATM    1  C1  UNL     1      -0.454  50.234 -19.470  1.00  0.00     0.020 C 
HETATM    2  C2  UNL     1      -1.994  50.165 -19.616  1.00  0.00    -0.014 C 
HETATM    3  C3  UNL     1      -2.637  51.263 -18.729  1.00  0.00     0.020 C 
HETATM    4  C4  UNL     1      -2.373  51.058 -17.240  1.00  0.00     0.060 C 
HETATM    5  C5  UNL     1      -2.697  49.649 -16.776  1.00  0.00     0.032 C 
HETATM    6  N1  UNL     1      -2.863  49.487 -15.497  1.00  0.00    -0.271 N 
ATOM      7  H1  UNL     1      -2.803  50.240 -14.811  1.00  0.00     0.194 HD
HETATM    8  C14 UNL     1      -2.785  48.576 -17.810  1.00  0.00     0.030 C 
HETATM    9  C15 UNL     1      -2.478  48.803 -19.101  1.00  0.00    -0.069 C 
HETATM   10  C16 UNL     1      -2.709  47.702 -20.112  1.00  0.00     0.035 C 
HETATM   11  C17 UNL     1      -1.835  47.817 -21.356  1.00  0.00     0.010 C 
HETATM   12  C18 UNL     1      -1.860  49.212 -22.016  1.00  0.00    -0.002 C 
HETATM   13  C19 UNL     1      -2.479  50.307 -21.102  1.00  0.00     0.031 C 
HETATM   14  C20 UNL     1      -2.336  51.698 -21.755  1.00  0.00     0.124 C 
HETATM   15  C21 UNL     1      -2.933  51.723 -23.172  1.00  0.00     0.045 C 
HETATM   16  C22 UNL     1      -2.500  50.571 -24.135  1.00  0.00     0.001 C 
HETATM   17  C23 UNL     1      -1.114  50.902 -24.721  1.00  0.00     0.019 C 
HETATM   18  C24 UNL     1      -2.500  49.195 -23.420  1.00  0.00     0.002 C 
HETATM   19  C25 UNL     1      -3.962  48.713 -23.471  1.00  0.00     0.009 C 
HETATM   20  C26 UNL     1      -4.667  49.538 -24.550  1.00  0.00     0.047 C 
HETATM   21  C27 UNL     1      -3.570  50.352 -25.258  1.00  0.00     0.128 C 
ENDROOT
BRANCH   6  22
HETATM   22  O1  UNL     1      -3.135  48.147 -15.173  1.00  0.00    -0.271 OA
BRANCH  22  23
HETATM   23  C6  UNL     1      -2.347  47.781 -14.052  1.00  0.00     0.303 C 
BRANCH  23  24
HETATM   24  C7  UNL     1      -3.100  48.013 -12.743  1.00  0.00     0.244 C 
HETATM   25  O2  UNL     1      -3.145  47.201 -11.823  1.00  0.00    -0.271 OA
HETATM   26  N2  UNL     1      -3.729  49.245 -12.689  1.00  0.00    -0.355 N 
HETATM   27  H10 UNL     1      -3.799  49.796 -13.533  1.00  0.00     0.162 HD
BRANCH  26  28
HETATM   28  C8  UNL     1      -4.552  49.627 -11.564  1.00  0.00     0.161 C 
BRANCH  28  29
HETATM   29  C9  UNL     1      -3.946  50.790 -10.826  1.00  0.00    -0.038 A 
HETATM   30  C10 UNL     1      -4.223  52.101 -11.221  1.00  0.00     0.025 A 
HETATM   31  C11 UNL     1      -3.631  53.145 -10.528  1.00  0.00     0.088 A 
HETATM   32  N3  UNL     1      -2.790  52.972  -9.486  1.00  0.00    -0.375 N 
HETATM   33  C12 UNL     1      -2.527  51.698  -9.125  1.00  0.00     0.088 A 
ATOM     34  H3  UNL     1      -2.374  53.764  -8.996  1.00  0.00     0.164 HD
HETATM   35  C13 UNL     1      -3.068  50.589  -9.757  1.00  0.00     0.025 A 
ENDBRANCH  28  29
ENDBRANCH  26  28
ENDBRANCH  23  24
ENDBRANCH  22  23
ENDBRANCH   6  22
BRANCH  14  36
HETATM   36  O3  UNL     1      -1.005  52.189 -21.763  1.00  0.00    -0.395 OA
HETATM   37  H25 UNL     1      -0.392  51.473 -21.987  1.00  0.00     0.210 HD
ENDBRANCH  14  36
BRANCH  21  38
HETATM   38  O4  UNL     1      -4.112  51.593 -25.698  1.00  0.00    -0.381 OA
HETATM   39  H36 UNL     1      -5.008  51.435 -26.045  1.00  0.00     0.211 HD
ENDBRANCH  21  38
BRANCH  21  40
HETATM   40  C28 UNL     1      -3.047  49.550 -26.481  1.00  0.00     0.184 C 
HETATM   41  O5  UNL     1      -2.625  48.391 -26.389  1.00  0.00    -0.292 OA
BRANCH  40  42
HETATM   42  C29 UNL     1      -3.064  50.244 -27.840  1.00  0.00     0.245 C 
BRANCH  42  43
HETATM   43  O6  UNL     1      -2.393  51.498 -27.791  1.00  0.00    -0.393 OA
HETATM   44  H39 UNL     1      -1.859  51.493 -26.970  1.00  0.00     0.209 HD
ENDBRANCH  42  43
ENDBRANCH  40  42
ENDBRANCH  21  40
TORSDOF 10
ENDMDL
MODEL 8
REMARK minimizedAffinity -8.48110867
REMARK CNNscore 0.385253876
REMARK CNNaffinity 6.6189518
REMARK  10 active torsions:
REMARK  status: ('A' for Active; 'I' for Inactive)
REMARK    1  A    between atoms: N1_6  and  O1_8 
REMARK    2  A    between atoms: O1_8  and  C6_9 
REMARK    3  A    between atoms: C6_9  and  C7_10 
REMARK       I    between atoms: C7_10  and  N2_12 
REMARK    4  A    between atoms: N2_12  and  C8_13 
REMARK    5  A    between atoms: C8_13  and  C9_14 
REMARK    6  A    between atoms: C20_27  and  O3_28 
REMARK    7  A    between atoms: C27_35  and  O4_36 
REMARK    8  A    between atoms: C27_35  and  C28_37 
REMARK    9  A    between atoms: C28_37  and  C29_39 
REMARK   10  A    between atoms: C29_39  and  O6_40 
ROOT
HETATM    1  C1  UNL     1      -4.280  49.676 -22.021  1.00  0.00     0.020 C 
HETATM    2  C2  UNL     1      -2.786  49.285 -22.129  1.00  0.00    -0.014 C 
HETATM    3  C3  UNL     1      -2.671  47.741 -22.211  1.00  0.00     0.020 C 
HETATM    4  C4  UNL     1      -3.171  47.038 -20.952  1.00  0.00     0.060 C 
HETATM    5  C5  UNL     1      -2.574  47.616 -19.682  1.00  0.00     0.032 C 
HETATM    6  N1  UNL     1      -2.639  46.867 -18.621  1.00  0.00    -0.271 N 
ATOM      7  H1  UNL     1      -3.047  45.932 -18.604  1.00  0.00     0.194 HD
HETATM    8  C14 UNL     1      -1.980  48.983 -19.748  1.00  0.00     0.030 C 
HETATM    9  C15 UNL     1      -2.062  49.743 -20.856  1.00  0.00    -0.069 C 
HETATM   10  C16 UNL     1      -1.330  51.067 -20.892  1.00  0.00     0.035 C 
HETATM   11  C17 UNL     1      -1.923  52.070 -21.874  1.00  0.00     0.010 C 
HETATM   12  C18 UNL     1      -2.148  51.505 -23.293  1.00  0.00    -0.002 C 
HETATM   13  C19 UNL     1      -2.060  49.954 -23.351  1.00  0.00     0.031 C 
HETATM   14  C20 UNL     1      -2.445  49.445 -24.757  1.00  0.00     0.124 C 
HETATM   15  C21 UNL     1      -1.596  50.113 -25.852  1.00  0.00     0.045 C 
HETATM   16  C22 UNL     1      -1.484  51.670 -25.798  1.00  0.00     0.001 C 
HETATM   17  C23 UNL     1      -2.754  52.287 -26.415  1.00  0.00     0.019 C 
HETATM   18  C24 UNL     1      -1.251  52.179 -24.352  1.00  0.00     0.002 C 
HETATM   19  C25 UNL     1       0.265  52.042 -24.113  1.00  0.00     0.009 C 
HETATM   20  C26 UNL     1       0.921  51.904 -25.489  1.00  0.00     0.047 C 
HETATM   21  C27 UNL     1      -0.186  52.160 -26.526  1.00  0.00     0.128 C 
ENDROOT
BRANCH   6  22
HETATM   22  O1  UNL     1      -2.081  47.502 -17.500  1.00  0.00    -0.271 OA
BRANCH  22  23
HETATM   23  C6  UNL     1      -2.956  47.332 -16.397  1.00  0.00     0.303 C 
BRANCH  23  24
HETATM   24  C7  UNL     1      -2.555  46.126 -15.549  1.00  0.00     0.244 C 
HETATM   25  O2  UNL     1      -2.534  46.125 -14.321  1.00  0.00    -0.271 OA
HETATM   26  N2  UNL     1      -2.220  45.017 -16.306  1.00  0.00    -0.355 N 
HETATM   27  H10 UNL     1      -2.093  45.125 -17.302  1.00  0.00     0.162 HD
BRANCH  26  28
HETATM   28  C8  UNL     1      -1.745  43.796 -15.695  1.00  0.00     0.161 C 
BRANCH  28  29
HETATM   29  C9  UNL     1      -1.898  42.630 -16.633  1.00  0.00    -0.038 A 
HETATM   30  C10 UNL     1      -2.824  42.680 -17.679  1.00  0.00     0.025 A 
HETATM   31  C11 UNL     1      -2.950  41.580 -18.510  1.00  0.00     0.088 A 
HETATM   32  N3  UNL     1      -2.229  40.446 -18.369  1.00  0.00    -0.375 N 
HETATM   33  C12 UNL     1      -1.347  40.413 -17.348  1.00  0.00     0.088 A 
ATOM     34  H3  UNL     1      -2.345  39.655 -19.003  1.00  0.00     0.164 HD
HETATM   35  C13 UNL     1      -1.150  41.462 -16.462  1.00  0.00     0.025 A 
ENDBRANCH  28  29
ENDBRANCH  26  28
ENDBRANCH  23  24
ENDBRANCH  22  23
ENDBRANCH   6  22
BRANCH  14  36
HETATM   36  O3  UNL     1      -3.827  49.567 -25.049  1.00  0.00    -0.395 OA
HETATM   37  H25 UNL     1      -4.158  50.418 -24.724  1.00  0.00     0.210 HD
ENDBRANCH  14  36
BRANCH  21  38
HETATM   38  O4  UNL     1       0.071  51.386 -27.693  1.00  0.00    -0.381 OA
HETATM   39  H36 UNL     1       1.028  51.405 -27.874  1.00  0.00     0.211 HD
ENDBRANCH  21  38
BRANCH  21  40
HETATM   40  C28 UNL     1      -0.200  53.669 -26.895  1.00  0.00     0.184 C 
HETATM   41  O5  UNL     1       0.095  54.558 -26.088  1.00  0.00    -0.292 OA
BRANCH  40  42
HETATM   42  C29 UNL     1      -0.599  54.042 -28.320  1.00  0.00     0.245 C 
BRANCH  42  43
HETATM   43  O6  UNL     1      -1.713  54.928 -28.332  1.00  0.00    -0.393 OA
HETATM   44  H39 UNL     1      -1.789  55.287 -27.424  1.00  0.00     0.209 HD
ENDBRANCH  42  43
ENDBRANCH  40  42
ENDBRANCH  21  40
TORSDOF 10
ENDMDL
MODEL 9
REMARK minimizedAffinity -7.58834648
REMARK CNNscore 0.371462971
REMARK CNNaffinity 5.53342962
REMARK  10 active torsions:
REMARK  status: ('A' for Active; 'I' for Inactive)
REMARK    1  A    between atoms: N1_6  and  O1_8 
REMARK    2  A    between atoms: O1_8  and  C6_9 
REMARK    3  A    between atoms: C6_9  and  C7_10 
REMARK       I    between atoms: C7_10  and  N2_12 
REMARK    4  A    between atoms: N2_12  and  C8_13 
REMARK    5  A    between atoms: C8_13  and  C9_14 
REMARK    6  A    between atoms: C20_27  and  O3_28 
REMARK    7  A    between atoms: C27_35  and  O4_36 
REMARK    8  A    between atoms: C27_35  and  C28_37 
REMARK    9  A    between atoms: C28_37  and  C29_39 
REMARK   10  A    between atoms: C29_39  and  O6_40 
ROOT
HETATM    1  C1  UNL     1      -6.529  45.996 -22.421  1.00  0.00     0.020 C 
HETATM    2  C2  UNL     1      -7.017  47.465 -22.380  1.00  0.00    -0.014 C 
HETATM    3  C3  UNL     1      -7.983  47.644 -21.180  1.00  0.00     0.020 C 
HETATM    4  C4  UNL     1      -9.255  46.811 -21.308  1.00  0.00     0.060 C 
HETATM    5  C5  UNL     1      -9.935  46.982 -22.654  1.00  0.00     0.032 C 
HETATM    6  N1  UNL     1     -11.183  46.623 -22.720  1.00  0.00    -0.271 N 
ATOM      7  H1  UNL     1     -11.716  46.258 -21.931  1.00  0.00     0.194 HD
HETATM    8  C14 UNL     1      -9.125  47.529 -23.782  1.00  0.00     0.030 C 
HETATM    9  C15 UNL     1      -7.804  47.760 -23.664  1.00  0.00    -0.069 C 
HETATM   10  C16 UNL     1      -7.074  48.430 -24.807  1.00  0.00     0.035 C 
HETATM   11  C17 UNL     1      -5.579  48.130 -24.841  1.00  0.00     0.010 C 
HETATM   12  C18 UNL     1      -4.860  48.357 -23.494  1.00  0.00    -0.002 C 
HETATM   13  C19 UNL     1      -5.842  48.503 -22.298  1.00  0.00     0.031 C 
HETATM   14  C20 UNL     1      -5.063  48.574 -20.967  1.00  0.00     0.124 C 
HETATM   15  C21 UNL     1      -4.006  49.691 -20.988  1.00  0.00     0.045 C 
HETATM   16  C22 UNL     1      -3.060  49.737 -22.230  1.00  0.00     0.001 C 
HETATM   17  C23 UNL     1      -1.941  48.693 -22.047  1.00  0.00     0.019 C 
HETATM   18  C24 UNL     1      -3.837  49.510 -23.552  1.00  0.00     0.002 C 
HETATM   19  C25 UNL     1      -4.419  50.888 -23.922  1.00  0.00     0.009 C 
HETATM   20  C26 UNL     1      -3.640  51.930 -23.117  1.00  0.00     0.047 C 
HETATM   21  C27 UNL     1      -2.482  51.178 -22.437  1.00  0.00     0.128 C 
ENDROOT
BRANCH   6  22
HETATM   22  O1  UNL     1     -11.709  46.801 -24.010  1.00  0.00    -0.271 OA
BRANCH  22  23
HETATM   23  C6  UNL     1     -12.853  45.975 -24.153  1.00  0.00     0.303 C 
BRANCH  23  24
HETATM   24  C7  UNL     1     -14.029  46.750 -24.745  1.00  0.00     0.244 C 
HETATM   25  O2  UNL     1     -13.986  47.357 -25.811  1.00  0.00    -0.271 OA
HETATM   26  N2  UNL     1     -15.166  46.697 -23.957  1.00  0.00    -0.355 N 
HETATM   27  H10 UNL     1     -15.094  46.331 -23.018  1.00  0.00     0.162 HD
BRANCH  26  28
HETATM   28  C8  UNL     1     -16.365  47.424 -24.305  1.00  0.00     0.161 C 
BRANCH  28  29
HETATM   29  C9  UNL     1     -17.594  46.611 -24.001  1.00  0.00    -0.038 A 
HETATM   30  C10 UNL     1     -18.681  46.615 -24.879  1.00  0.00     0.025 A 
HETATM   31  C11 UNL     1     -19.802  45.868 -24.555  1.00  0.00     0.088 A 
HETATM   32  N3  UNL     1     -19.913  45.133 -23.427  1.00  0.00    -0.375 N 
HETATM   33  C12 UNL     1     -18.857  45.150 -22.587  1.00  0.00     0.088 A 
ATOM     34  H3  UNL     1     -20.753  44.592 -23.221  1.00  0.00     0.164 HD
HETATM   35  C13 UNL     1     -17.693  45.866 -22.822  1.00  0.00     0.025 A 
ENDBRANCH  28  29
ENDBRANCH  26  28
ENDBRANCH  23  24
ENDBRANCH  22  23
ENDBRANCH   6  22
BRANCH  14  36
HETATM   36  O3  UNL     1      -4.479  47.339 -20.583  1.00  0.00    -0.395 OA
HETATM   37  H25 UNL     1      -4.095  46.902 -21.358  1.00  0.00     0.210 HD
ENDBRANCH  14  36
BRANCH  21  38
HETATM   38  O4  UNL     1      -2.184  51.795 -21.189  1.00  0.00    -0.381 OA
HETATM   39  H36 UNL     1      -2.240  52.762 -21.300  1.00  0.00     0.211 HD
ENDBRANCH  21  38
BRANCH  21  40
HETATM   40  C28 UNL     1      -1.231  51.231 -23.356  1.00  0.00     0.184 C 
HETATM   41  O5  UNL     1      -1.230  50.790 -24.511  1.00  0.00    -0.292 OA
BRANCH  40  42
HETATM   42  C29 UNL     1       0.038  51.857 -22.784  1.00  0.00     0.245 C 
BRANCH  42  43
HETATM   43  O6  UNL     1       0.727  52.623 -23.766  1.00  0.00    -0.393 OA
HETATM   44  H39 UNL     1       0.089  52.776 -24.492  1.00  0.00     0.209 HD
ENDBRANCH  42  43
ENDBRANCH  40  42
ENDBRANCH  21  40
TORSDOF 10
ENDMDL
