MODEL 1
REMARK minimizedAffinity -8.84141445
REMARK  6 active torsions:
REMARK  status: ('A' for Active; 'I' for Inactive)
REMARK    1  A    between atoms: C2_2  and  C30_32 
REMARK    2  A    between atoms: C3_3  and  C4_4 
REMARK    3  A    between atoms: C4_4  and  C5_5 
REMARK    4  A    between atoms: C5_5  and  C6_6 
REMARK    5  A    between atoms: C6_6  and  C8_8 
REMARK    6  A    between atoms: C30_32  and  O3_33 
ROOT
HETATM    1  C8  UNL     1      -1.501   6.005  12.340  1.00  0.00    -0.002 C 
HETATM    2  C9  UNL     1      -1.967   6.857  13.551  1.00  0.00     0.007 C 
HETATM    3  C10 UNL     1      -0.864   7.899  13.817  1.00  0.00     0.015 C 
HETATM    4  C11 UNL     1       0.034   7.871  12.563  1.00  0.00    -0.005 C 
HETATM    5  C12 UNL     1      -0.648   8.778  11.492  1.00  0.00     0.021 C 
HETATM    6  C13 UNL     1       1.468   8.376  12.632  1.00  0.00    -0.000 C 
HETATM    7  C14 UNL     1       2.435   7.867  11.825  1.00  0.00    -0.060 C 
HETATM    8  C15 UNL     1       2.117   6.711  10.861  1.00  0.00     0.036 C 
HETATM    9  C16 UNL     1       0.690   6.123  10.888  1.00  0.00     0.015 C 
HETATM   10  C17 UNL     1       0.022   6.319  12.253  1.00  0.00    -0.028 C 
HETATM   11  C18 UNL     1       0.806   5.477  13.302  1.00  0.00     0.016 C 
HETATM   12  C19 UNL     1       3.907   8.372  11.835  1.00  0.00    -0.014 C 
HETATM   13  C20 UNL     1       4.737   7.325  12.610  1.00  0.00     0.020 C 
HETATM   14  C21 UNL     1       4.442   8.502  10.385  1.00  0.00     0.021 C 
HETATM   15  C22 UNL     1       5.725   9.308  10.204  1.00  0.00     0.080 C 
HETATM   16  C23 UNL     1       6.351   9.804  11.485  1.00  0.00     0.135 C 
HETATM   17  O1  UNL     1       7.578   9.810  11.600  1.00  0.00    -0.297 OA
HETATM   18  C24 UNL     1       5.431  10.408  12.553  1.00  0.00     0.018 C 
HETATM   19  C25 UNL     1       5.370  11.923  12.275  1.00  0.00     0.023 C 
HETATM   20  C26 UNL     1       6.094  10.216  13.935  1.00  0.00     0.023 C 
HETATM   21  C27 UNL     1       3.988   9.800  12.463  1.00  0.00     0.020 C 
HETATM   22  C28 UNL     1       3.226   9.860  13.786  1.00  0.00     0.090 C 
HETATM   23  C29 UNL     1       1.782   9.486  13.584  1.00  0.00     0.157 C 
HETATM   24  O2  UNL     1       0.900  10.066  14.211  1.00  0.00    -0.293 OA
ENDROOT
BRANCH   1  25
HETATM   25  C6  UNL     1      -2.081   4.558  12.327  1.00  0.00    -0.014 C 
HETATM   26  C7  UNL     1      -2.343   3.940  10.948  1.00  0.00     0.010 C 
BRANCH  25  27
HETATM   27  C5  UNL     1      -3.323   4.440  13.245  1.00  0.00     0.008 C 
BRANCH  27  28
HETATM   28  C4  UNL     1      -4.565   5.210  12.762  1.00  0.00     0.028 C 
BRANCH  28  29
HETATM   29  C3  UNL     1      -5.871   4.546  13.102  1.00  0.00    -0.022 C 
HETATM   30  C2  UNL     1      -6.429   3.452  12.537  1.00  0.00    -0.064 C 
HETATM   31  C1  UNL     1      -5.821   2.676  11.398  1.00  0.00     0.045 C 
BRANCH  30  32
HETATM   32  C30 UNL     1      -7.767   2.890  12.970  1.00  0.00     0.197 C 
BRANCH  32  33
HETATM   33  O3  UNL     1      -7.919   1.520  12.626  1.00  0.00    -0.397 OA
HETATM   34  H46 UNL     1      -7.871   1.478  11.655  1.00  0.00     0.209 HD
ENDBRANCH  32  33
ENDBRANCH  30  32
ENDBRANCH  28  29
ENDBRANCH  27  28
ENDBRANCH  25  27
ENDBRANCH   1  25
TORSDOF 6
ENDMDL
MODEL 2
REMARK minimizedAffinity -8.74611759
REMARK  6 active torsions:
REMARK  status: ('A' for Active; 'I' for Inactive)
REMARK    1  A    between atoms: C2_2  and  C30_32 
REMARK    2  A    between atoms: C3_3  and  C4_4 
REMARK    3  A    between atoms: C4_4  and  C5_5 
REMARK    4  A    between atoms: C5_5  and  C6_6 
REMARK    5  A    between atoms: C6_6  and  C8_8 
REMARK    6  A    between atoms: C30_32  and  O3_33 
ROOT
HETATM    1  C8  UNL     1      -2.041   8.003  14.008  1.00  0.00    -0.002 C 
HETATM    2  C9  UNL     1      -1.887   7.528  15.479  1.00  0.00     0.007 C 
HETATM    3  C10 UNL     1      -0.387   7.605  15.819  1.00  0.00     0.015 C 
HETATM    4  C11 UNL     1       0.245   8.446  14.691  1.00  0.00    -0.005 C 
HETATM    5  C12 UNL     1       0.023   9.946  15.059  1.00  0.00     0.021 C 
HETATM    6  C13 UNL     1       1.734   8.343  14.397  1.00  0.00    -0.000 C 
HETATM    7  C14 UNL     1       2.223   8.551  13.146  1.00  0.00    -0.060 C 
HETATM    8  C15 UNL     1       1.267   8.831  11.972  1.00  0.00     0.036 C 
HETATM    9  C16 UNL     1      -0.250   8.810  12.259  1.00  0.00     0.015 C 
HETATM   10  C17 UNL     1      -0.589   7.914  13.455  1.00  0.00    -0.028 C 
HETATM   11  C18 UNL     1      -0.247   6.444  13.071  1.00  0.00     0.016 C 
HETATM   12  C19 UNL     1       3.739   8.489  12.801  1.00  0.00    -0.014 C 
HETATM   13  C20 UNL     1       3.987   7.132  12.105  1.00  0.00     0.020 C 
HETATM   14  C21 UNL     1       4.123   9.651  11.847  1.00  0.00     0.021 C 
HETATM   15  C22 UNL     1       5.613   9.941  11.696  1.00  0.00     0.080 C 
HETATM   16  C23 UNL     1       6.525   8.995  12.439  1.00  0.00     0.135 C 
HETATM   17  O1  UNL     1       7.586   8.642  11.923  1.00  0.00    -0.297 OA
HETATM   18  C24 UNL     1       6.150   8.608  13.875  1.00  0.00     0.018 C 
HETATM   19  C25 UNL     1       6.845   9.627  14.801  1.00  0.00     0.023 C 
HETATM   20  C26 UNL     1       6.752   7.219  14.180  1.00  0.00     0.023 C 
HETATM   21  C27 UNL     1       4.599   8.678  14.091  1.00  0.00     0.020 C 
HETATM   22  C28 UNL     1       4.106   7.768  15.216  1.00  0.00     0.090 C 
HETATM   23  C29 UNL     1       2.662   8.051  15.533  1.00  0.00     0.157 C 
HETATM   24  O2  UNL     1       2.265   8.011  16.694  1.00  0.00    -0.293 OA
ENDROOT
BRANCH   1  25
HETATM   25  C6  UNL     1      -3.278   7.398  13.277  1.00  0.00    -0.014 C 
HETATM   26  C7  UNL     1      -4.483   8.327  13.090  1.00  0.00     0.010 C 
BRANCH  25  27
HETATM   27  C5  UNL     1      -3.697   6.046  13.904  1.00  0.00     0.008 C 
BRANCH  27  28
HETATM   28  C4  UNL     1      -4.239   5.006  12.907  1.00  0.00     0.028 C 
BRANCH  28  29
HETATM   29  C3  UNL     1      -5.644   4.553  13.192  1.00  0.00    -0.022 C 
HETATM   30  C2  UNL     1      -6.314   3.507  12.659  1.00  0.00    -0.064 C 
HETATM   31  C1  UNL     1      -5.751   2.574  11.618  1.00  0.00     0.045 C 
BRANCH  30  32
HETATM   32  C30 UNL     1      -7.743   3.166  13.028  1.00  0.00     0.197 C 
BRANCH  32  33
HETATM   33  O3  UNL     1      -8.115   1.858  12.613  1.00  0.00    -0.397 OA
HETATM   34  H46 UNL     1      -8.042   1.852  11.643  1.00  0.00     0.209 HD
ENDBRANCH  32  33
ENDBRANCH  30  32
ENDBRANCH  28  29
ENDBRANCH  27  28
ENDBRANCH  25  27
ENDBRANCH   1  25
TORSDOF 6
ENDMDL
MODEL 3
REMARK minimizedAffinity -8.73857403
REMARK  6 active torsions:
REMARK  status: ('A' for Active; 'I' for Inactive)
REMARK    1  A    between atoms: C2_2  and  C30_32 
REMARK    2  A    between atoms: C3_3  and  C4_4 
REMARK    3  A    between atoms: C4_4  and  C5_5 
REMARK    4  A    between atoms: C5_5  and  C6_6 
REMARK    5  A    between atoms: C6_6  and  C8_8 
REMARK    6  A    between atoms: C30_32  and  O3_33 
ROOT
HETATM    1  C8  UNL     1      -2.031   6.401  13.412  1.00  0.00    -0.002 C 
HETATM    2  C9  UNL     1      -2.149   5.830  11.972  1.00  0.00     0.007 C 
HETATM    3  C10 UNL     1      -0.735   5.858  11.363  1.00  0.00     0.015 C 
HETATM    4  C11 UNL     1       0.217   6.098  12.552  1.00  0.00    -0.005 C 
HETATM    5  C12 UNL     1       0.469   4.713  13.224  1.00  0.00     0.021 C 
HETATM    6  C13 UNL     1       1.610   6.666  12.320  1.00  0.00    -0.000 C 
HETATM    7  C14 UNL     1       2.230   7.422  13.264  1.00  0.00    -0.060 C 
HETATM    8  C15 UNL     1       1.507   7.782  14.574  1.00  0.00     0.036 C 
HETATM    9  C16 UNL     1       0.048   7.304  14.746  1.00  0.00     0.015 C 
HETATM   10  C17 UNL     1      -0.650   7.119  13.394  1.00  0.00    -0.028 C 
HETATM   11  C18 UNL     1      -0.779   8.517  12.721  1.00  0.00     0.016 C 
HETATM   12  C19 UNL     1       3.664   7.999  13.088  1.00  0.00    -0.014 C 
HETATM   13  C20 UNL     1       3.509   9.497  12.743  1.00  0.00     0.020 C 
HETATM   14  C21 UNL     1       4.474   7.840  14.401  1.00  0.00     0.021 C 
HETATM   15  C22 UNL     1       5.985   8.027  14.294  1.00  0.00     0.080 C 
HETATM   16  C23 UNL     1       6.482   8.426  12.926  1.00  0.00     0.135 C 
HETATM   17  O1  UNL     1       7.406   9.236  12.827  1.00  0.00    -0.297 OA
HETATM   18  C24 UNL     1       5.897   7.706  11.705  1.00  0.00     0.018 C 
HETATM   19  C25 UNL     1       6.816   6.499  11.425  1.00  0.00     0.023 C 
HETATM   20  C26 UNL     1       5.990   8.652  10.488  1.00  0.00     0.023 C 
HETATM   21  C27 UNL     1       4.442   7.199  11.993  1.00  0.00     0.020 C 
HETATM   22  C28 UNL     1       3.598   7.041  10.728  1.00  0.00     0.090 C 
HETATM   23  C29 UNL     1       2.306   6.335  11.039  1.00  0.00     0.157 C 
HETATM   24  O2  UNL     1       1.833   5.532  10.239  1.00  0.00    -0.293 OA
ENDROOT
BRANCH   1  25
HETATM   25  C6  UNL     1      -3.340   7.068  13.934  1.00  0.00    -0.014 C 
HETATM   26  C7  UNL     1      -3.526   7.109  15.455  1.00  0.00     0.010 C 
BRANCH  25  27
HETATM   27  C5  UNL     1      -4.590   6.487  13.227  1.00  0.00     0.008 C 
BRANCH  27  28
HETATM   28  C4  UNL     1      -4.588   4.958  13.054  1.00  0.00     0.028 C 
BRANCH  28  29
HETATM   29  C3  UNL     1      -5.938   4.318  13.229  1.00  0.00    -0.022 C 
HETATM   30  C2  UNL     1      -6.429   3.216  12.621  1.00  0.00    -0.064 C 
HETATM   31  C1  UNL     1      -5.683   2.403  11.594  1.00  0.00     0.045 C 
BRANCH  30  32
HETATM   32  C30 UNL     1      -7.822   2.679  12.880  1.00  0.00     0.197 C 
BRANCH  32  33
HETATM   33  O3  UNL     1      -8.766   3.712  13.127  1.00  0.00    -0.397 OA
HETATM   34  H46 UNL     1      -8.463   4.169  13.930  1.00  0.00     0.209 HD
ENDBRANCH  32  33
ENDBRANCH  30  32
ENDBRANCH  28  29
ENDBRANCH  27  28
ENDBRANCH  25  27
ENDBRANCH   1  25
TORSDOF 6
ENDMDL
MODEL 4
REMARK minimizedAffinity -8.73372364
REMARK  6 active torsions:
REMARK  status: ('A' for Active; 'I' for Inactive)
REMARK    1  A    between atoms: C2_2  and  C30_32 
REMARK    2  A    between atoms: C3_3  and  C4_4 
REMARK    3  A    between atoms: C4_4  and  C5_5 
REMARK    4  A    between atoms: C5_5  and  C6_6 
REMARK    5  A    between atoms: C6_6  and  C8_8 
REMARK    6  A    between atoms: C30_32  and  O3_33 
ROOT
HETATM    1  C8  UNL     1       1.202   6.934  12.939  1.00  0.00    -0.002 C 
HETATM    2  C9  UNL     1       0.385   8.140  13.477  1.00  0.00     0.007 C 
HETATM    3  C10 UNL     1      -1.090   7.699  13.519  1.00  0.00     0.015 C 
HETATM    4  C11 UNL     1      -1.063   6.166  13.354  1.00  0.00    -0.005 C 
HETATM    5  C12 UNL     1      -0.778   5.559  14.762  1.00  0.00     0.021 C 
HETATM    6  C13 UNL     1      -2.296   5.423  12.861  1.00  0.00    -0.000 C 
HETATM    7  C14 UNL     1      -2.189   4.266  12.157  1.00  0.00    -0.060 C 
HETATM    8  C15 UNL     1      -0.805   3.708  11.780  1.00  0.00     0.036 C 
HETATM    9  C16 UNL     1       0.437   4.535  12.177  1.00  0.00     0.015 C 
HETATM   10  C17 UNL     1       0.110   6.027  12.299  1.00  0.00    -0.028 C 
HETATM   11  C18 UNL     1      -0.270   6.556  10.885  1.00  0.00     0.016 C 
HETATM   12  C19 UNL     1      -3.418   3.453  11.660  1.00  0.00    -0.014 C 
HETATM   13  C20 UNL     1      -3.570   3.743  10.150  1.00  0.00     0.020 C 
HETATM   14  C21 UNL     1      -3.189   1.935  11.886  1.00  0.00     0.021 C 
HETATM   15  C22 UNL     1      -4.420   1.040  11.784  1.00  0.00     0.080 C 
HETATM   16  C23 UNL     1      -5.693   1.749  11.390  1.00  0.00     0.135 C 
HETATM   17  O1  UNL     1      -6.491   1.193  10.633  1.00  0.00    -0.297 OA
HETATM   18  C24 UNL     1      -6.007   3.095  12.055  1.00  0.00     0.018 C 
HETATM   19  C25 UNL     1      -6.851   2.780  13.307  1.00  0.00     0.023 C 
HETATM   20  C26 UNL     1      -6.890   3.921  11.095  1.00  0.00     0.023 C 
HETATM   21  C27 UNL     1      -4.691   3.832  12.483  1.00  0.00     0.020 C 
HETATM   22  C28 UNL     1      -4.853   5.350  12.572  1.00  0.00     0.090 C 
HETATM   23  C29 UNL     1      -3.641   5.975  13.209  1.00  0.00     0.157 C 
HETATM   24  O2  UNL     1      -3.768   6.931  13.970  1.00  0.00    -0.293 OA
ENDROOT
BRANCH   1  25
HETATM   25  C6  UNL     1       2.518   7.340  12.207  1.00  0.00    -0.014 C 
HETATM   26  C7  UNL     1       3.711   7.702  13.100  1.00  0.00     0.010 C 
BRANCH  25  27
HETATM   27  C5  UNL     1       2.256   8.433  11.142  1.00  0.00     0.008 C 
BRANCH  27  28
HETATM   28  C4  UNL     1       2.619   8.036   9.700  1.00  0.00     0.028 C 
BRANCH  28  29
HETATM   29  C3  UNL     1       3.147   6.635   9.562  1.00  0.00    -0.022 C 
HETATM   30  C2  UNL     1       3.077   5.813   8.491  1.00  0.00    -0.064 C 
HETATM   31  C1  UNL     1       2.408   6.164   7.188  1.00  0.00     0.045 C 
BRANCH  30  32
HETATM   32  C30 UNL     1       3.644   4.408   8.488  1.00  0.00     0.197 C 
BRANCH  32  33
HETATM   33  O3  UNL     1       3.424   3.734   7.256  1.00  0.00    -0.397 OA
HETATM   34  H46 UNL     1       2.459   3.672   7.151  1.00  0.00     0.209 HD
ENDBRANCH  32  33
ENDBRANCH  30  32
ENDBRANCH  28  29
ENDBRANCH  27  28
ENDBRANCH  25  27
ENDBRANCH   1  25
TORSDOF 6
ENDMDL
MODEL 5
REMARK minimizedAffinity -8.53144073
REMARK  6 active torsions:
REMARK  status: ('A' for Active; 'I' for Inactive)
REMARK    1  A    between atoms: C2_2  and  C30_32 
REMARK    2  A    between atoms: C3_3  and  C4_4 
REMARK    3  A    between atoms: C4_4  and  C5_5 
REMARK    4  A    between atoms: C5_5  and  C6_6 
REMARK    5  A    between atoms: C6_6  and  C8_8 
REMARK    6  A    between atoms: C30_32  and  O3_33 
ROOT
HETATM    1  C8  UNL     1       0.986   6.745  12.854  1.00  0.00    -0.002 C 
HETATM    2  C9  UNL     1       0.965   5.412  12.057  1.00  0.00     0.007 C 
HETATM    3  C10 UNL     1      -0.506   4.962  11.976  1.00  0.00     0.015 C 
HETATM    4  C11 UNL     1      -1.333   6.193  12.400  1.00  0.00    -0.005 C 
HETATM    5  C12 UNL     1      -1.479   7.102  11.141  1.00  0.00     0.021 C 
HETATM    6  C13 UNL     1      -2.756   6.024  12.914  1.00  0.00    -0.000 C 
HETATM    7  C14 UNL     1      -3.291   6.895  13.809  1.00  0.00    -0.060 C 
HETATM    8  C15 UNL     1      -2.442   8.044  14.382  1.00  0.00     0.036 C 
HETATM    9  C16 UNL     1      -0.963   8.132  13.948  1.00  0.00     0.015 C 
HETATM   10  C17 UNL     1      -0.406   6.761  13.551  1.00  0.00    -0.028 C 
HETATM   11  C18 UNL     1      -0.384   5.861  14.821  1.00  0.00     0.016 C 
HETATM   12  C19 UNL     1      -4.749   6.784  14.340  1.00  0.00    -0.014 C 
HETATM   13  C20 UNL     1      -4.667   6.188  15.763  1.00  0.00     0.020 C 
HETATM   14  C21 UNL     1      -5.412   8.186  14.392  1.00  0.00     0.021 C 
HETATM   15  C22 UNL     1      -6.930   8.214  14.549  1.00  0.00     0.080 C 
HETATM   16  C23 UNL     1      -7.578   6.861  14.717  1.00  0.00     0.135 C 
HETATM   17  O1  UNL     1      -8.526   6.733  15.493  1.00  0.00    -0.297 OA
HETATM   18  C24 UNL     1      -7.108   5.716  13.811  1.00  0.00     0.018 C 
HETATM   19  C25 UNL     1      -8.022   5.735  12.569  1.00  0.00     0.023 C 
HETATM   20  C26 UNL     1      -7.351   4.380  14.546  1.00  0.00     0.023 C 
HETATM   21  C27 UNL     1      -5.618   5.923  13.368  1.00  0.00     0.020 C 
HETATM   22  C28 UNL     1      -4.909   4.617  13.012  1.00  0.00     0.090 C 
HETATM   23  C29 UNL     1      -3.575   4.895  12.374  1.00  0.00     0.157 C 
HETATM   24  O2  UNL     1      -3.170   4.189  11.455  1.00  0.00    -0.293 OA
ENDROOT
BRANCH   1  25
HETATM   25  C6  UNL     1       2.326   7.008  13.606  1.00  0.00    -0.014 C 
HETATM   26  C7  UNL     1       2.216   7.365  15.093  1.00  0.00     0.010 C 
BRANCH  25  27
HETATM   27  C5  UNL     1       3.209   8.026  12.844  1.00  0.00     0.008 C 
BRANCH  27  28
HETATM   28  C4  UNL     1       3.907   7.472  11.589  1.00  0.00     0.028 C 
BRANCH  28  29
HETATM   29  C3  UNL     1       3.410   8.060  10.297  1.00  0.00    -0.022 C 
HETATM   30  C2  UNL     1       3.011   7.414   9.180  1.00  0.00    -0.064 C 
HETATM   31  C1  UNL     1       3.011   5.916   9.013  1.00  0.00     0.045 C 
BRANCH  30  32
HETATM   32  C30 UNL     1       2.540   8.133   7.932  1.00  0.00     0.197 C 
BRANCH  32  33
HETATM   33  O3  UNL     1       3.356   9.250   7.607  1.00  0.00    -0.397 OA
HETATM   34  H46 UNL     1       3.284   9.865   8.357  1.00  0.00     0.209 HD
ENDBRANCH  32  33
ENDBRANCH  30  32
ENDBRANCH  28  29
ENDBRANCH  27  28
ENDBRANCH  25  27
ENDBRANCH   1  25
TORSDOF 6
ENDMDL
MODEL 6
REMARK minimizedAffinity -8.39992142
REMARK  6 active torsions:
REMARK  status: ('A' for Active; 'I' for Inactive)
REMARK    1  A    between atoms: C2_2  and  C30_32 
REMARK    2  A    between atoms: C3_3  and  C4_4 
REMARK    3  A    between atoms: C4_4  and  C5_5 
REMARK    4  A    between atoms: C5_5  and  C6_6 
REMARK    5  A    between atoms: C6_6  and  C8_8 
REMARK    6  A    between atoms: C30_32  and  O3_33 
ROOT
HETATM    1  C8  UNL     1      -2.343   5.816  12.831  1.00  0.00    -0.002 C 
HETATM    2  C9  UNL     1      -2.175   5.013  11.512  1.00  0.00     0.007 C 
HETATM    3  C10 UNL     1      -0.692   5.119  11.110  1.00  0.00     0.015 C 
HETATM    4  C11 UNL     1       0.032   5.661  12.359  1.00  0.00    -0.005 C 
HETATM    5  C12 UNL     1       0.309   4.442  13.293  1.00  0.00     0.021 C 
HETATM    6  C13 UNL     1       1.381   6.353  12.227  1.00  0.00    -0.000 C 
HETATM    7  C14 UNL     1       1.767   7.320  13.100  1.00  0.00    -0.060 C 
HETATM    8  C15 UNL     1       0.814   7.791  14.213  1.00  0.00     0.036 C 
HETATM    9  C16 UNL     1      -0.600   7.170  14.261  1.00  0.00     0.015 C 
HETATM   10  C17 UNL     1      -1.054   6.688  12.880  1.00  0.00    -0.028 C 
HETATM   11  C18 UNL     1      -1.211   7.934  11.959  1.00  0.00     0.016 C 
HETATM   12  C19 UNL     1       3.147   8.034  13.027  1.00  0.00    -0.014 C 
HETATM   13  C20 UNL     1       2.901   9.427  12.405  1.00  0.00     0.020 C 
HETATM   14  C21 UNL     1       3.751   8.188  14.447  1.00  0.00     0.021 C 
HETATM   15  C22 UNL     1       5.233   8.541  14.520  1.00  0.00     0.080 C 
HETATM   16  C23 UNL     1       5.899   8.776  13.186  1.00  0.00     0.135 C 
HETATM   17  O1  UNL     1       6.743   9.667  13.075  1.00  0.00    -0.297 OA
HETATM   18  C24 UNL     1       5.588   7.804  12.041  1.00  0.00     0.018 C 
HETATM   19  C25 UNL     1       6.654   6.691  12.109  1.00  0.00     0.023 C 
HETATM   20  C26 UNL     1       5.778   8.548  10.702  1.00  0.00     0.023 C 
HETATM   21  C27 UNL     1       4.162   7.173  12.209  1.00  0.00     0.020 C 
HETATM   22  C28 UNL     1       3.549   6.713  10.887  1.00  0.00     0.090 C 
HETATM   23  C29 UNL     1       2.300   5.910  11.133  1.00  0.00     0.157 C 
HETATM   24  O2  UNL     1       2.041   4.938  10.429  1.00  0.00    -0.293 OA
ENDROOT
BRANCH   1  25
HETATM   25  C6  UNL     1      -3.778   6.391  13.040  1.00  0.00    -0.014 C 
HETATM   26  C7  UNL     1      -3.867   7.829  13.565  1.00  0.00     0.010 C 
BRANCH  25  27
HETATM   27  C5  UNL     1      -4.655   5.427  13.877  1.00  0.00     0.008 C 
BRANCH  27  28
HETATM   28  C4  UNL     1      -5.893   4.876  13.149  1.00  0.00     0.028 C 
BRANCH  28  29
HETATM   29  C3  UNL     1      -7.122   5.732  13.290  1.00  0.00    -0.022 C 
HETATM   30  C2  UNL     1      -7.895   5.917  14.384  1.00  0.00    -0.064 C 
HETATM   31  C1  UNL     1      -7.663   5.251  15.715  1.00  0.00     0.045 C 
BRANCH  30  32
HETATM   32  C30 UNL     1      -9.123   6.803  14.388  1.00  0.00     0.197 C 
BRANCH  32  33
HETATM   33  O3  UNL     1      -9.941   6.595  15.531  1.00  0.00    -0.397 OA
HETATM   34  H46 UNL     1     -10.236   5.669  15.486  1.00  0.00     0.209 HD
ENDBRANCH  32  33
ENDBRANCH  30  32
ENDBRANCH  28  29
ENDBRANCH  27  28
ENDBRANCH  25  27
ENDBRANCH   1  25
TORSDOF 6
ENDMDL
MODEL 7
REMARK minimizedAffinity -8.258008
REMARK  6 active torsions:
REMARK  status: ('A' for Active; 'I' for Inactive)
REMARK    1  A    between atoms: C2_2  and  C30_32 
REMARK    2  A    between atoms: C3_3  and  C4_4 
REMARK    3  A    between atoms: C4_4  and  C5_5 
REMARK    4  A    between atoms: C5_5  and  C6_6 
REMARK    5  A    between atoms: C6_6  and  C8_8 
REMARK    6  A    between atoms: C30_32  and  O3_33 
ROOT
HETATM    1  C8  UNL     1      -1.853   5.079  12.170  1.00  0.00    -0.002 C 
HETATM    2  C9  UNL     1      -1.859   5.235  13.715  1.00  0.00     0.007 C 
HETATM    3  C10 UNL     1      -0.596   6.035  14.088  1.00  0.00     0.015 C 
HETATM    4  C11 UNL     1      -0.082   6.628  12.761  1.00  0.00    -0.005 C 
HETATM    5  C12 UNL     1      -0.900   7.929  12.493  1.00  0.00     0.021 C 
HETATM    6  C13 UNL     1       1.372   7.058  12.622  1.00  0.00    -0.000 C 
HETATM    7  C14 UNL     1       2.010   7.014  11.424  1.00  0.00    -0.060 C 
HETATM    8  C15 UNL     1       1.294   6.462  10.179  1.00  0.00     0.036 C 
HETATM    9  C16 UNL     1      -0.139   5.913  10.357  1.00  0.00     0.015 C 
HETATM   10  C17 UNL     1      -0.383   5.418  11.786  1.00  0.00    -0.028 C 
HETATM   11  C18 UNL     1       0.537   4.186  12.035  1.00  0.00     0.016 C 
HETATM   12  C19 UNL     1       3.483   7.473  11.224  1.00  0.00    -0.014 C 
HETATM   13  C20 UNL     1       4.345   6.193  11.136  1.00  0.00     0.020 C 
HETATM   14  C21 UNL     1       3.621   8.293   9.915  1.00  0.00     0.021 C 
HETATM   15  C22 UNL     1       4.903   9.104   9.753  1.00  0.00     0.080 C 
HETATM   16  C23 UNL     1       5.911   8.931  10.863  1.00  0.00     0.135 C 
HETATM   17  O1  UNL     1       7.113   8.897  10.594  1.00  0.00    -0.297 OA
HETATM   18  C24 UNL     1       5.401   8.931  12.310  1.00  0.00     0.018 C 
HETATM   19  C25 UNL     1       5.468  10.393  12.799  1.00  0.00     0.023 C 
HETATM   20  C26 UNL     1       6.380   8.107  13.174  1.00  0.00     0.023 C 
HETATM   21  C27 UNL     1       3.920   8.423  12.385  1.00  0.00     0.020 C 
HETATM   22  C28 UNL     1       3.557   7.827  13.746  1.00  0.00     0.090 C 
HETATM   23  C29 UNL     1       2.076   7.576  13.836  1.00  0.00     0.157 C 
HETATM   24  O2  UNL     1       1.480   7.769  14.892  1.00  0.00    -0.293 OA
ENDROOT
BRANCH   1  25
HETATM   25  C6  UNL     1      -2.603   3.809  11.662  1.00  0.00    -0.014 C 
HETATM   26  C7  UNL     1      -3.089   3.839  10.209  1.00  0.00     0.010 C 
BRANCH  25  27
HETATM   27  C5  UNL     1      -3.739   3.400  12.631  1.00  0.00     0.008 C 
BRANCH  27  28
HETATM   28  C4  UNL     1      -5.143   3.882  12.228  1.00  0.00     0.028 C 
BRANCH  28  29
HETATM   29  C3  UNL     1      -5.966   4.409  13.371  1.00  0.00    -0.022 C 
HETATM   30  C2  UNL     1      -5.964   5.651  13.904  1.00  0.00    -0.064 C 
HETATM   31  C1  UNL     1      -5.081   6.779  13.437  1.00  0.00     0.045 C 
BRANCH  30  32
HETATM   32  C30 UNL     1      -6.841   6.050  15.073  1.00  0.00     0.197 C 
BRANCH  32  33
HETATM   33  O3  UNL     1      -6.087   6.369  16.235  1.00  0.00    -0.397 OA
HETATM   34  H46 UNL     1      -5.609   5.558  16.478  1.00  0.00     0.209 HD
ENDBRANCH  32  33
ENDBRANCH  30  32
ENDBRANCH  28  29
ENDBRANCH  27  28
ENDBRANCH  25  27
ENDBRANCH   1  25
TORSDOF 6
ENDMDL
MODEL 8
REMARK minimizedAffinity -8.23525143
REMARK  6 active torsions:
REMARK  status: ('A' for Active; 'I' for Inactive)
REMARK    1  A    between atoms: C2_2  and  C30_32 
REMARK    2  A    between atoms: C3_3  and  C4_4 
REMARK    3  A    between atoms: C4_4  and  C5_5 
REMARK    4  A    between atoms: C5_5  and  C6_6 
REMARK    5  A    between atoms: C6_6  and  C8_8 
REMARK    6  A    between atoms: C30_32  and  O3_33 
ROOT
HETATM    1  C8  UNL     1       2.420   8.861  13.284  1.00  0.00    -0.002 C 
HETATM    2  C9  UNL     1       3.268   7.905  12.402  1.00  0.00     0.007 C 
HETATM    3  C10 UNL     1       2.312   6.819  11.872  1.00  0.00     0.015 C 
HETATM    4  C11 UNL     1       0.893   7.353  12.151  1.00  0.00    -0.005 C 
HETATM    5  C12 UNL     1       0.532   8.325  10.985  1.00  0.00     0.021 C 
HETATM    6  C13 UNL     1      -0.288   6.396  12.228  1.00  0.00    -0.000 C 
HETATM    7  C14 UNL     1      -1.367   6.667  13.008  1.00  0.00    -0.060 C 
HETATM    8  C15 UNL     1      -1.393   7.926  13.893  1.00  0.00     0.036 C 
HETATM    9  C16 UNL     1      -0.137   8.826  13.902  1.00  0.00     0.015 C 
HETATM   10  C17 UNL     1       1.129   8.034  13.561  1.00  0.00    -0.028 C 
HETATM   11  C18 UNL     1       1.382   7.007  14.703  1.00  0.00     0.016 C 
HETATM   12  C19 UNL     1      -2.611   5.738  13.095  1.00  0.00    -0.014 C 
HETATM   13  C20 UNL     1      -2.502   4.962  14.427  1.00  0.00     0.020 C 
HETATM   14  C21 UNL     1      -3.915   6.579  13.079  1.00  0.00     0.021 C 
HETATM   15  C22 UNL     1      -5.209   5.819  12.805  1.00  0.00     0.080 C 
HETATM   16  C23 UNL     1      -5.054   4.324  12.667  1.00  0.00     0.135 C 
HETATM   17  O1  UNL     1      -5.917   3.577  13.131  1.00  0.00    -0.297 OA
HETATM   18  C24 UNL     1      -3.880   3.792  11.835  1.00  0.00     0.018 C 
HETATM   19  C25 UNL     1      -4.402   3.632  10.392  1.00  0.00     0.023 C 
HETATM   20  C26 UNL     1      -3.510   2.386  12.354  1.00  0.00     0.023 C 
HETATM   21  C27 UNL     1      -2.679   4.799  11.848  1.00  0.00     0.020 C 
HETATM   22  C28 UNL     1      -1.329   4.129  11.594  1.00  0.00     0.090 C 
HETATM   23  C29 UNL     1      -0.255   5.162  11.384  1.00  0.00     0.157 C 
HETATM   24  O2  UNL     1       0.634   4.970  10.558  1.00  0.00    -0.293 OA
ENDROOT
BRANCH   1  25
HETATM   25  C6  UNL     1       3.236   9.578  14.403  1.00  0.00    -0.014 C 
HETATM   26  C7  UNL     1       3.487  11.078  14.210  1.00  0.00     0.010 C 
BRANCH  25  27
HETATM   27  C5  UNL     1       4.550   8.820  14.715  1.00  0.00     0.008 C 
BRANCH  27  28
HETATM   28  C4  UNL     1       5.799   9.708  14.844  1.00  0.00     0.028 C 
BRANCH  28  29
HETATM   29  C3  UNL     1       6.970   9.033  15.504  1.00  0.00    -0.022 C 
HETATM   30  C2  UNL     1       7.987   8.359  14.924  1.00  0.00    -0.064 C 
HETATM   31  C1  UNL     1       8.127   8.137  13.440  1.00  0.00     0.045 C 
BRANCH  30  32
HETATM   32  C30 UNL     1       9.106   7.711  15.712  1.00  0.00     0.197 C 
BRANCH  32  33
HETATM   33  O3  UNL     1       8.800   7.593  17.095  1.00  0.00    -0.397 OA
HETATM   34  H46 UNL     1       8.685   8.501  17.424  1.00  0.00     0.209 HD
ENDBRANCH  32  33
ENDBRANCH  30  32
ENDBRANCH  28  29
ENDBRANCH  27  28
ENDBRANCH  25  27
ENDBRANCH   1  25
TORSDOF 6
ENDMDL
MODEL 9
REMARK minimizedAffinity -8.19105434
REMARK  6 active torsions:
REMARK  status: ('A' for Active; 'I' for Inactive)
REMARK    1  A    between atoms: C2_2  and  C30_32 
REMARK    2  A    between atoms: C3_3  and  C4_4 
REMARK    3  A    between atoms: C4_4  and  C5_5 
REMARK    4  A    between atoms: C5_5  and  C6_6 
REMARK    5  A    between atoms: C6_6  and  C8_8 
REMARK    6  A    between atoms: C30_32  and  O3_33 
ROOT
HETATM    1  C8  UNL     1      -5.145   6.641  14.764  1.00  0.00    -0.002 C 
HETATM    2  C9  UNL     1      -5.552   5.421  13.894  1.00  0.00     0.007 C 
HETATM    3  C10 UNL     1      -4.345   5.091  12.994  1.00  0.00     0.015 C 
HETATM    4  C11 UNL     1      -3.161   5.873  13.598  1.00  0.00    -0.005 C 
HETATM    5  C12 UNL     1      -2.597   5.015  14.772  1.00  0.00     0.021 C 
HETATM    6  C13 UNL     1      -1.942   6.200  12.747  1.00  0.00    -0.000 C 
HETATM    7  C14 UNL     1      -1.195   7.311  12.981  1.00  0.00    -0.060 C 
HETATM    8  C15 UNL     1      -1.606   8.309  14.078  1.00  0.00     0.036 C 
HETATM    9  C16 UNL     1      -2.913   8.031  14.852  1.00  0.00     0.015 C 
HETATM   10  C17 UNL     1      -3.901   7.207  14.019  1.00  0.00    -0.028 C 
HETATM   11  C18 UNL     1      -4.348   8.071  12.803  1.00  0.00     0.016 C 
HETATM   12  C19 UNL     1       0.076   7.673  12.162  1.00  0.00    -0.014 C 
HETATM   13  C20 UNL     1      -0.326   8.791  11.174  1.00  0.00     0.020 C 
HETATM   14  C21 UNL     1       1.200   8.179  13.104  1.00  0.00     0.021 C 
HETATM   15  C22 UNL     1       2.606   8.237  12.514  1.00  0.00     0.080 C 
HETATM   16  C23 UNL     1       2.700   7.870  11.053  1.00  0.00     0.135 C 
HETATM   17  O1  UNL     1       3.473   8.486  10.319  1.00  0.00    -0.297 OA
HETATM   18  C24 UNL     1       1.914   6.647  10.563  1.00  0.00     0.018 C 
HETATM   19  C25 UNL     1       2.864   5.438  10.684  1.00  0.00     0.023 C 
HETATM   20  C26 UNL     1       1.595   6.839   9.064  1.00  0.00     0.023 C 
HETATM   21  C27 UNL     1       0.642   6.404  11.446  1.00  0.00     0.020 C 
HETATM   22  C28 UNL     1      -0.466   5.651  10.711  1.00  0.00     0.090 C 
HETATM   23  C29 UNL     1      -1.554   5.241  11.667  1.00  0.00     0.157 C 
HETATM   24  O2  UNL     1      -2.118   4.158  11.535  1.00  0.00    -0.293 OA
ENDROOT
BRANCH   1  25
HETATM   25  C6  UNL     1      -6.349   7.522  15.217  1.00  0.00    -0.014 C 
HETATM   26  C7  UNL     1      -6.045   8.996  15.512  1.00  0.00     0.010 C 
BRANCH  25  27
HETATM   27  C5  UNL     1      -7.125   6.860  16.383  1.00  0.00     0.008 C 
BRANCH  27  28
HETATM   28  C4  UNL     1      -8.493   6.269  16.002  1.00  0.00     0.028 C 
BRANCH  28  29
HETATM   29  C3  UNL     1      -9.479   7.281  15.486  1.00  0.00    -0.022 C 
HETATM   30  C2  UNL     1     -10.016   7.375  14.249  1.00  0.00    -0.064 C 
HETATM   31  C1  UNL     1      -9.693   6.449  13.105  1.00  0.00     0.045 C 
BRANCH  30  32
HETATM   32  C30 UNL     1     -10.997   8.459  13.854  1.00  0.00     0.197 C 
BRANCH  32  33
HETATM   33  O3  UNL     1     -12.349   8.029  13.940  1.00  0.00    -0.397 OA
HETATM   34  H46 UNL     1     -12.438   7.294  13.309  1.00  0.00     0.209 HD
ENDBRANCH  32  33
ENDBRANCH  30  32
ENDBRANCH  28  29
ENDBRANCH  27  28
ENDBRANCH  25  27
ENDBRANCH   1  25
TORSDOF 6
ENDMDL
