MODEL 1
REMARK minimizedAffinity -7.84702826
REMARK CNNscore 0.762494087
REMARK CNNaffinity 7.04432535
REMARK  6 active torsions:
REMARK  status: ('A' for Active; 'I' for Inactive)
REMARK    1  A    between atoms: C12_13  and  C13_14 
REMARK    2  A    between atoms: C13_14  and  C15_16 
REMARK    3  A    between atoms: C15_16  and  C16_17 
REMARK    4  A    between atoms: C16_17  and  C17_18 
REMARK    5  A    between atoms: C18_19  and  C20_21 
REMARK    6  A    between atoms: C20_21  and  O3_23 
ROOT
HETATM    1  C1  UNL     1       7.035  55.017  -9.083  1.00  0.00     0.052 C 
HETATM    2  C2  UNL     1       5.830  55.695  -8.494  1.00  0.00    -0.013 C 
HETATM    3  C3  UNL     1       4.670  55.957  -9.137  1.00  0.00    -0.066 C 
HETATM    4  C4  UNL     1       4.371  55.547 -10.558  1.00  0.00     0.036 C 
HETATM    5  C5  UNL     1       3.213  54.541 -10.566  1.00  0.00     0.010 C 
HETATM    6  C6  UNL     1       1.963  55.093  -9.835  1.00  0.00     0.007 C 
HETATM    7  C7  UNL     1       2.356  55.556  -8.394  1.00  0.00     0.068 C 
HETATM    8  C8  UNL     1       1.123  56.016  -7.641  1.00  0.00     0.133 C 
HETATM    9  O1  UNL     1       1.154  56.258  -6.434  1.00  0.00    -0.298 OA
HETATM   10  C9  UNL     1      -0.151  56.168  -8.424  1.00  0.00     0.089 C 
HETATM   11  C10 UNL     1      -0.563  54.895  -9.232  1.00  0.00    -0.026 C 
HETATM   12  C11 UNL     1      -1.517  55.452 -10.315  1.00  0.00     0.016 C 
HETATM   13  C12 UNL     1      -1.214  53.829  -8.250  1.00  0.00    -0.002 C 
HETATM   14  C21 UNL     1       0.017  53.068  -7.738  1.00  0.00     0.006 C 
HETATM   15  C22 UNL     1       0.900  52.884  -8.958  1.00  0.00     0.011 C 
HETATM   16  C23 UNL     1       0.708  54.143  -9.849  1.00  0.00    -0.032 C 
HETATM   17  C24 UNL     1       0.465  53.637 -11.293  1.00  0.00     0.016 C 
HETATM   18  C25 UNL     1       3.465  56.634  -8.485  1.00  0.00     0.027 C 
HETATM   19  C26 UNL     1       3.871  57.344  -7.189  1.00  0.00     0.018 C 
HETATM   20  C27 UNL     1       4.707  56.458  -6.291  1.00  0.00     0.084 C 
HETATM   21  C28 UNL     1       5.950  56.024  -7.030  1.00  0.00     0.155 C 
HETATM   22  O4  UNL     1       7.023  55.886  -6.442  1.00  0.00    -0.293 OA
ENDROOT
BRANCH  13  23
HETATM   23  C13 UNL     1      -2.346  52.925  -8.864  1.00  0.00    -0.014 C 
HETATM   24  C14 UNL     1      -2.064  51.453  -8.514  1.00  0.00     0.010 C 
BRANCH  23  25
HETATM   25  C15 UNL     1      -2.531  53.082 -10.398  1.00  0.00     0.008 C 
BRANCH  25  26
HETATM   26  C16 UNL     1      -3.885  52.612 -10.965  1.00  0.00     0.028 C 
BRANCH  26  27
HETATM   27  C17 UNL     1      -3.840  51.245 -11.595  1.00  0.00    -0.013 C 
HETATM   28  C18 UNL     1      -4.543  50.151 -11.236  1.00  0.00     0.008 C 
HETATM   29  C19 UNL     1      -5.560  50.083 -10.137  1.00  0.00     0.055 C 
BRANCH  28  30
HETATM   30  C20 UNL     1      -4.289  48.913 -12.019  1.00  0.00     0.171 C 
HETATM   31  O2  UNL     1      -3.238  48.579 -12.538  1.00  0.00    -0.646 OA
BRANCH  30  32
HETATM   32  O3  UNL     1      -5.380  48.134 -12.110  1.00  0.00    -0.773 OA
HETATM   33  H28 UNL     1      -5.068  47.374 -12.646  1.00  0.00     0.167 HD
ENDBRANCH  30  32
ENDBRANCH  28  30
ENDBRANCH  26  27
ENDBRANCH  25  26
ENDBRANCH  23  25
ENDBRANCH  13  23
TORSDOF 6
ENDMDL
MODEL 2
REMARK minimizedAffinity -7.01202965
REMARK CNNscore 0.646538913
REMARK CNNaffinity 6.12094688
REMARK  6 active torsions:
REMARK  status: ('A' for Active; 'I' for Inactive)
REMARK    1  A    between atoms: C12_13  and  C13_14 
REMARK    2  A    between atoms: C13_14  and  C15_16 
REMARK    3  A    between atoms: C15_16  and  C16_17 
REMARK    4  A    between atoms: C16_17  and  C17_18 
REMARK    5  A    between atoms: C18_19  and  C20_21 
REMARK    6  A    between atoms: C20_21  and  O3_23 
ROOT
HETATM    1  C1  UNL     1     -19.147  44.729 -27.092  1.00  0.00     0.052 C 
HETATM    2  C2  UNL     1     -17.991  45.140 -26.224  1.00  0.00    -0.013 C 
HETATM    3  C3  UNL     1     -16.737  44.637 -26.277  1.00  0.00    -0.066 C 
HETATM    4  C4  UNL     1     -16.273  43.607 -27.278  1.00  0.00     0.036 C 
HETATM    5  C5  UNL     1     -15.199  44.223 -28.183  1.00  0.00     0.010 C 
HETATM    6  C6  UNL     1     -14.027  44.822 -27.365  1.00  0.00     0.007 C 
HETATM    7  C7  UNL     1     -14.583  45.831 -26.309  1.00  0.00     0.068 C 
HETATM    8  C8  UNL     1     -13.437  46.487 -25.564  1.00  0.00     0.133 C 
HETATM    9  O1  UNL     1     -13.618  47.444 -24.809  1.00  0.00    -0.298 OA
HETATM   10  C9  UNL     1     -12.059  45.927 -25.778  1.00  0.00     0.089 C 
HETATM   11  C10 UNL     1     -11.630  45.836 -27.278  1.00  0.00    -0.026 C 
HETATM   12  C11 UNL     1     -10.498  44.782 -27.263  1.00  0.00     0.016 C 
HETATM   13  C12 UNL     1     -11.199  47.275 -27.796  1.00  0.00    -0.002 C 
HETATM   14  C21 UNL     1     -12.540  47.871 -28.248  1.00  0.00     0.006 C 
HETATM   15  C22 UNL     1     -13.255  46.735 -28.955  1.00  0.00     0.011 C 
HETATM   16  C23 UNL     1     -12.852  45.423 -28.224  1.00  0.00    -0.032 C 
HETATM   17  C24 UNL     1     -12.447  44.406 -29.320  1.00  0.00     0.016 C 
HETATM   18  C25 UNL     1     -15.590  45.103 -25.383  1.00  0.00     0.027 C 
HETATM   19  C26 UNL     1     -16.121  45.875 -24.168  1.00  0.00     0.018 C 
HETATM   20  C27 UNL     1     -17.134  46.928 -24.562  1.00  0.00     0.084 C 
HETATM   21  C28 UNL     1     -18.289  46.271 -25.277  1.00  0.00     0.155 C 
HETATM   22  O4  UNL     1     -19.440  46.685 -25.138  1.00  0.00    -0.293 OA
ENDROOT
BRANCH  13  23
HETATM   23  C13 UNL     1     -10.059  47.306 -28.881  1.00  0.00    -0.014 C 
HETATM   24  C14 UNL     1      -8.769  47.852 -28.243  1.00  0.00     0.010 C 
BRANCH  23  25
HETATM   25  C15 UNL     1     -10.408  48.120 -30.156  1.00  0.00     0.008 C 
BRANCH  25  26
HETATM   26  C16 UNL     1      -9.839  47.575 -31.481  1.00  0.00     0.028 C 
BRANCH  26  27
HETATM   27  C17 UNL     1     -10.626  46.428 -32.056  1.00  0.00    -0.013 C 
HETATM   28  C18 UNL     1     -10.247  45.137 -32.150  1.00  0.00     0.008 C 
HETATM   29  C19 UNL     1      -8.954  44.563 -31.657  1.00  0.00     0.055 C 
BRANCH  28  30
HETATM   30  C20 UNL     1     -11.217  44.207 -32.787  1.00  0.00     0.171 C 
HETATM   31  O2  UNL     1     -11.225  42.990 -32.707  1.00  0.00    -0.646 OA
BRANCH  30  32
HETATM   32  O3  UNL     1     -12.154  44.856 -33.498  1.00  0.00    -0.773 OA
HETATM   33  H28 UNL     1     -12.708  44.129 -33.854  1.00  0.00     0.167 HD
ENDBRANCH  30  32
ENDBRANCH  28  30
ENDBRANCH  26  27
ENDBRANCH  25  26
ENDBRANCH  23  25
ENDBRANCH  13  23
TORSDOF 6
ENDMDL
MODEL 3
REMARK minimizedAffinity -8.73914337
REMARK CNNscore 0.611787379
REMARK CNNaffinity 6.70801973
REMARK  6 active torsions:
REMARK  status: ('A' for Active; 'I' for Inactive)
REMARK    1  A    between atoms: C12_13  and  C13_14 
REMARK    2  A    between atoms: C13_14  and  C15_16 
REMARK    3  A    between atoms: C15_16  and  C16_17 
REMARK    4  A    between atoms: C16_17  and  C17_18 
REMARK    5  A    between atoms: C18_19  and  C20_21 
REMARK    6  A    between atoms: C20_21  and  O3_23 
ROOT
HETATM    1  C1  UNL     1       1.396  53.436 -19.907  1.00  0.00     0.052 C 
HETATM    2  C2  UNL     1       1.021  53.051 -21.310  1.00  0.00    -0.013 C 
HETATM    3  C3  UNL     1       0.461  51.882 -21.692  1.00  0.00    -0.066 C 
HETATM    4  C4  UNL     1       0.058  50.778 -20.743  1.00  0.00     0.036 C 
HETATM    5  C5  UNL     1      -1.464  50.596 -20.791  1.00  0.00     0.010 C 
HETATM    6  C6  UNL     1      -1.972  50.348 -22.234  1.00  0.00     0.007 C 
HETATM    7  C7  UNL     1      -1.468  51.492 -23.173  1.00  0.00     0.068 C 
HETATM    8  C8  UNL     1      -2.033  51.306 -24.568  1.00  0.00     0.133 C 
HETATM    9  O1  UNL     1      -1.921  52.175 -25.434  1.00  0.00    -0.298 OA
HETATM   10  C9  UNL     1      -2.741  50.013 -24.862  1.00  0.00     0.089 C 
HETATM   11  C10 UNL     1      -3.889  49.668 -23.860  1.00  0.00    -0.026 C 
HETATM   12  C11 UNL     1      -4.063  48.140 -24.027  1.00  0.00     0.016 C 
HETATM   13  C12 UNL     1      -5.177  50.532 -24.208  1.00  0.00    -0.002 C 
HETATM   14  C21 UNL     1      -4.921  51.825 -23.421  1.00  0.00     0.006 C 
HETATM   15  C22 UNL     1      -4.364  51.368 -22.086  1.00  0.00     0.011 C 
HETATM   16  C23 UNL     1      -3.520  50.092 -22.361  1.00  0.00    -0.032 C 
HETATM   17  C24 UNL     1      -3.951  49.035 -21.314  1.00  0.00     0.016 C 
HETATM   18  C25 UNL     1       0.080  51.546 -23.133  1.00  0.00     0.027 C 
HETATM   19  C26 UNL     1       0.782  52.488 -24.118  1.00  0.00     0.018 C 
HETATM   20  C27 UNL     1       0.649  53.940 -23.712  1.00  0.00     0.084 C 
HETATM   21  C28 UNL     1       1.239  54.132 -22.335  1.00  0.00     0.155 C 
HETATM   22  O4  UNL     1       1.832  55.168 -22.038  1.00  0.00    -0.293 OA
ENDROOT
BRANCH  13  23
HETATM   23  C13 UNL     1      -6.565  49.846 -23.925  1.00  0.00    -0.014 C 
HETATM   24  C14 UNL     1      -6.977  50.119 -22.467  1.00  0.00     0.010 C 
BRANCH  23  25
HETATM   25  C15 UNL     1      -6.597  48.320 -24.211  1.00  0.00     0.008 C 
BRANCH  25  26
HETATM   26  C16 UNL     1      -7.962  47.741 -24.631  1.00  0.00     0.028 C 
BRANCH  26  27
HETATM   27  C17 UNL     1      -8.289  47.945 -26.086  1.00  0.00    -0.013 C 
HETATM   28  C18 UNL     1      -7.442  47.890 -27.134  1.00  0.00     0.008 C 
HETATM   29  C19 UNL     1      -5.979  47.573 -27.064  1.00  0.00     0.055 C 
BRANCH  28  30
HETATM   30  C20 UNL     1      -8.028  48.153 -28.475  1.00  0.00     0.171 C 
HETATM   31  O2  UNL     1      -7.924  47.455 -29.469  1.00  0.00    -0.646 OA
BRANCH  30  32
HETATM   32  O3  UNL     1      -8.738  49.294 -28.506  1.00  0.00    -0.773 OA
HETATM   33  H28 UNL     1      -9.053  49.335 -29.434  1.00  0.00     0.167 HD
ENDBRANCH  30  32
ENDBRANCH  28  30
ENDBRANCH  26  27
ENDBRANCH  25  26
ENDBRANCH  23  25
ENDBRANCH  13  23
TORSDOF 6
ENDMDL
MODEL 4
REMARK minimizedAffinity -7.72735834
REMARK CNNscore 0.491182536
REMARK CNNaffinity 5.96890831
REMARK  6 active torsions:
REMARK  status: ('A' for Active; 'I' for Inactive)
REMARK    1  A    between atoms: C12_13  and  C13_14 
REMARK    2  A    between atoms: C13_14  and  C15_16 
REMARK    3  A    between atoms: C15_16  and  C16_17 
REMARK    4  A    between atoms: C16_17  and  C17_18 
REMARK    5  A    between atoms: C18_19  and  C20_21 
REMARK    6  A    between atoms: C20_21  and  O3_23 
ROOT
HETATM    1  C1  UNL     1     -18.963  45.148 -26.832  1.00  0.00     0.052 C 
HETATM    2  C2  UNL     1     -17.764  45.459 -25.982  1.00  0.00    -0.013 C 
HETATM    3  C3  UNL     1     -16.543  44.888 -26.086  1.00  0.00    -0.066 C 
HETATM    4  C4  UNL     1     -16.165  43.869 -27.134  1.00  0.00     0.036 C 
HETATM    5  C5  UNL     1     -15.080  44.455 -28.047  1.00  0.00     0.010 C 
HETATM    6  C6  UNL     1     -13.855  44.955 -27.240  1.00  0.00     0.007 C 
HETATM    7  C7  UNL     1     -14.324  45.956 -26.135  1.00  0.00     0.068 C 
HETATM    8  C8  UNL     1     -13.124  46.518 -25.399  1.00  0.00     0.133 C 
HETATM    9  O1  UNL     1     -13.230  47.455 -24.607  1.00  0.00    -0.298 OA
HETATM   10  C9  UNL     1     -11.787  45.887 -25.670  1.00  0.00     0.089 C 
HETATM   11  C10 UNL     1     -11.401  45.825 -27.183  1.00  0.00    -0.026 C 
HETATM   12  C11 UNL     1     -10.333  44.709 -27.235  1.00  0.00     0.016 C 
HETATM   13  C12 UNL     1     -10.900  47.255 -27.662  1.00  0.00    -0.002 C 
HETATM   14  C21 UNL     1     -12.215  47.943 -28.057  1.00  0.00     0.006 C 
HETATM   15  C22 UNL     1     -13.012  46.876 -28.783  1.00  0.00     0.011 C 
HETATM   16  C23 UNL     1     -12.669  45.518 -28.110  1.00  0.00    -0.032 C 
HETATM   17  C24 UNL     1     -12.352  44.520 -29.251  1.00  0.00     0.016 C 
HETATM   18  C25 UNL     1     -15.348  45.255 -25.208  1.00  0.00     0.027 C 
HETATM   19  C26 UNL     1     -15.803  46.011 -23.954  1.00  0.00     0.018 C 
HETATM   20  C27 UNL     1     -16.762  47.134 -24.283  1.00  0.00     0.084 C 
HETATM   21  C28 UNL     1     -17.972  46.571 -24.989  1.00  0.00     0.155 C 
HETATM   22  O4  UNL     1     -19.093  47.045 -24.804  1.00  0.00    -0.293 OA
ENDROOT
BRANCH  13  23
HETATM   23  C13 UNL     1      -9.787  47.259 -28.776  1.00  0.00    -0.014 C 
HETATM   24  C14 UNL     1     -10.416  47.677 -30.118  1.00  0.00     0.010 C 
BRANCH  23  25
HETATM   25  C15 UNL     1      -9.035  45.911 -28.937  1.00  0.00     0.008 C 
BRANCH  25  26
HETATM   26  C16 UNL     1      -7.503  45.972 -28.788  1.00  0.00     0.028 C 
BRANCH  26  27
HETATM   27  C17 UNL     1      -6.822  46.814 -29.833  1.00  0.00    -0.013 C 
HETATM   28  C18 UNL     1      -5.879  47.760 -29.640  1.00  0.00     0.008 C 
HETATM   29  C19 UNL     1      -5.279  48.145 -28.322  1.00  0.00     0.055 C 
BRANCH  28  30
HETATM   30  C20 UNL     1      -5.387  48.463 -30.854  1.00  0.00     0.171 C 
HETATM   31  O2  UNL     1      -5.629  48.175 -32.014  1.00  0.00    -0.646 OA
BRANCH  30  32
HETATM   32  O3  UNL     1      -4.610  49.517 -30.554  1.00  0.00    -0.773 OA
HETATM   33  H28 UNL     1      -4.363  49.871 -31.435  1.00  0.00     0.167 HD
ENDBRANCH  30  32
ENDBRANCH  28  30
ENDBRANCH  26  27
ENDBRANCH  25  26
ENDBRANCH  23  25
ENDBRANCH  13  23
TORSDOF 6
ENDMDL
MODEL 5
REMARK minimizedAffinity -7.24467564
REMARK CNNscore 0.435387403
REMARK CNNaffinity 6.48483229
REMARK  6 active torsions:
REMARK  status: ('A' for Active; 'I' for Inactive)
REMARK    1  A    between atoms: C12_13  and  C13_14 
REMARK    2  A    between atoms: C13_14  and  C15_16 
REMARK    3  A    between atoms: C15_16  and  C16_17 
REMARK    4  A    between atoms: C16_17  and  C17_18 
REMARK    5  A    between atoms: C18_19  and  C20_21 
REMARK    6  A    between atoms: C20_21  and  O3_23 
ROOT
HETATM    1  C1  UNL     1       8.622  54.746  -4.267  1.00  0.00     0.052 C 
HETATM    2  C2  UNL     1       7.676  55.816  -4.734  1.00  0.00    -0.013 C 
HETATM    3  C3  UNL     1       7.291  56.037  -6.011  1.00  0.00    -0.066 C 
HETATM    4  C4  UNL     1       7.711  55.189  -7.187  1.00  0.00     0.036 C 
HETATM    5  C5  UNL     1       6.478  54.499  -7.784  1.00  0.00     0.010 C 
HETATM    6  C6  UNL     1       5.370  55.516  -8.156  1.00  0.00     0.007 C 
HETATM    7  C7  UNL     1       5.028  56.401  -6.913  1.00  0.00     0.068 C 
HETATM    8  C8  UNL     1       3.884  57.339  -7.241  1.00  0.00     0.133 C 
HETATM    9  O1  UNL     1       3.323  58.006  -6.371  1.00  0.00    -0.298 OA
HETATM   10  C9  UNL     1       3.452  57.430  -8.678  1.00  0.00     0.089 C 
HETATM   11  C10 UNL     1       3.110  56.053  -9.333  1.00  0.00    -0.026 C 
HETATM   12  C11 UNL     1       3.237  56.335 -10.848  1.00  0.00     0.016 C 
HETATM   13  C12 UNL     1       1.668  55.582  -8.858  1.00  0.00    -0.002 C 
HETATM   14  C21 UNL     1       1.984  54.846  -7.549  1.00  0.00     0.006 C 
HETATM   15  C22 UNL     1       3.241  54.049  -7.840  1.00  0.00     0.011 C 
HETATM   16  C23 UNL     1       4.091  54.893  -8.831  1.00  0.00    -0.032 C 
HETATM   17  C24 UNL     1       4.528  53.940  -9.971  1.00  0.00     0.016 C 
HETATM   18  C25 UNL     1       6.309  57.128  -6.432  1.00  0.00     0.027 C 
HETATM   19  C26 UNL     1       6.154  58.180  -5.327  1.00  0.00     0.018 C 
HETATM   20  C27 UNL     1       5.915  57.552  -3.972  1.00  0.00     0.084 C 
HETATM   21  C28 UNL     1       7.069  56.640  -3.630  1.00  0.00     0.155 C 
HETATM   22  O4  UNL     1       7.469  56.528  -2.471  1.00  0.00    -0.293 OA
ENDROOT
BRANCH  13  23
HETATM   23  C13 UNL     1       0.834  54.751  -9.904  1.00  0.00    -0.014 C 
HETATM   24  C14 UNL     1      -0.507  55.461 -10.159  1.00  0.00     0.010 C 
BRANCH  23  25
HETATM   25  C15 UNL     1       0.586  53.273  -9.498  1.00  0.00     0.008 C 
BRANCH  25  26
HETATM   26  C16 UNL     1      -0.041  52.373 -10.580  1.00  0.00     0.028 C 
BRANCH  26  27
HETATM   27  C17 UNL     1      -1.526  52.554 -10.739  1.00  0.00    -0.013 C 
HETATM   28  C18 UNL     1      -2.254  52.427 -11.868  1.00  0.00     0.008 C 
HETATM   29  C19 UNL     1      -1.724  52.035 -13.214  1.00  0.00     0.055 C 
BRANCH  28  30
HETATM   30  C20 UNL     1      -3.713  52.685 -11.749  1.00  0.00     0.171 C 
HETATM   31  O2  UNL     1      -4.505  52.091 -11.037  1.00  0.00    -0.646 OA
BRANCH  30  32
HETATM   32  O3  UNL     1      -4.118  53.699 -12.531  1.00  0.00    -0.773 OA
HETATM   33  H28 UNL     1      -5.081  53.749 -12.353  1.00  0.00     0.167 HD
ENDBRANCH  30  32
ENDBRANCH  28  30
ENDBRANCH  26  27
ENDBRANCH  25  26
ENDBRANCH  23  25
ENDBRANCH  13  23
TORSDOF 6
ENDMDL
MODEL 6
REMARK minimizedAffinity -7.29969788
REMARK CNNscore 0.330489457
REMARK CNNaffinity 6.21717834
REMARK  6 active torsions:
REMARK  status: ('A' for Active; 'I' for Inactive)
REMARK    1  A    between atoms: C12_13  and  C13_14 
REMARK    2  A    between atoms: C13_14  and  C15_16 
REMARK    3  A    between atoms: C15_16  and  C16_17 
REMARK    4  A    between atoms: C16_17  and  C17_18 
REMARK    5  A    between atoms: C18_19  and  C20_21 
REMARK    6  A    between atoms: C20_21  and  O3_23 
ROOT
HETATM    1  C1  UNL     1      -2.846  49.211  -9.959  1.00  0.00     0.052 C 
HETATM    2  C2  UNL     1      -2.881  50.713  -9.987  1.00  0.00    -0.013 C 
HETATM    3  C3  UNL     1      -2.394  51.539  -9.033  1.00  0.00    -0.066 C 
HETATM    4  C4  UNL     1      -1.668  51.075  -7.793  1.00  0.00     0.036 C 
HETATM    5  C5  UNL     1      -0.220  51.579  -7.833  1.00  0.00     0.010 C 
HETATM    6  C6  UNL     1      -0.147  53.116  -8.019  1.00  0.00     0.007 C 
HETATM    7  C7  UNL     1      -0.970  53.533  -9.282  1.00  0.00     0.068 C 
HETATM    8  C8  UNL     1      -0.832  55.023  -9.523  1.00  0.00     0.133 C 
HETATM    9  O1  UNL     1      -1.244  55.553 -10.556  1.00  0.00    -0.298 OA
HETATM   10  C9  UNL     1      -0.171  55.841  -8.450  1.00  0.00     0.089 C 
HETATM   11  C10 UNL     1       1.239  55.320  -8.023  1.00  0.00    -0.026 C 
HETATM   12  C11 UNL     1       1.442  55.942  -6.622  1.00  0.00     0.016 C 
HETATM   13  C12 UNL     1       2.316  55.751  -9.110  1.00  0.00    -0.002 C 
HETATM   14  C21 UNL     1       2.231  54.600 -10.123  1.00  0.00     0.006 C 
HETATM   15  C22 UNL     1       2.120  53.344  -9.280  1.00  0.00     0.011 C 
HETATM   16  C23 UNL     1       1.306  53.721  -8.010  1.00  0.00    -0.032 C 
HETATM   17  C24 UNL     1       2.086  53.162  -6.795  1.00  0.00     0.016 C 
HETATM   18  C25 UNL     1      -2.437  53.063  -9.118  1.00  0.00     0.027 C 
HETATM   19  C26 UNL     1      -3.451  53.524 -10.172  1.00  0.00     0.018 C 
HETATM   20  C27 UNL     1      -3.285  52.786 -11.482  1.00  0.00     0.084 C 
HETATM   21  C28 UNL     1      -3.452  51.304 -11.248  1.00  0.00     0.155 C 
HETATM   22  O4  UNL     1      -3.989  50.584 -12.090  1.00  0.00    -0.293 OA
ENDROOT
BRANCH  13  23
HETATM   23  C13 UNL     1       3.762  56.053  -8.567  1.00  0.00    -0.014 C 
HETATM   24  C14 UNL     1       3.876  57.553  -8.237  1.00  0.00     0.010 C 
BRANCH  23  25
HETATM   25  C15 UNL     1       4.909  55.630  -9.524  1.00  0.00     0.008 C 
BRANCH  25  26
HETATM   26  C16 UNL     1       6.216  55.172  -8.849  1.00  0.00     0.028 C 
BRANCH  26  27
HETATM   27  C17 UNL     1       6.659  53.791  -9.253  1.00  0.00    -0.013 C 
HETATM   28  C18 UNL     1       6.392  52.626  -8.627  1.00  0.00     0.008 C 
HETATM   29  C19 UNL     1       5.554  52.464  -7.395  1.00  0.00     0.055 C 
BRANCH  28  30
HETATM   30  C20 UNL     1       6.975  51.399  -9.233  1.00  0.00     0.171 C 
HETATM   31  O2  UNL     1       6.624  50.856 -10.266  1.00  0.00    -0.646 OA
BRANCH  30  32
HETATM   32  O3  UNL     1       7.994  50.908  -8.509  1.00  0.00    -0.773 OA
HETATM   33  H28 UNL     1       8.269  50.116  -9.018  1.00  0.00     0.167 HD
ENDBRANCH  30  32
ENDBRANCH  28  30
ENDBRANCH  26  27
ENDBRANCH  25  26
ENDBRANCH  23  25
ENDBRANCH  13  23
TORSDOF 6
ENDMDL
MODEL 7
REMARK minimizedAffinity -8.04963589
REMARK CNNscore 0.31551218
REMARK CNNaffinity 6.1510148
REMARK  6 active torsions:
REMARK  status: ('A' for Active; 'I' for Inactive)
REMARK    1  A    between atoms: C12_13  and  C13_14 
REMARK    2  A    between atoms: C13_14  and  C15_16 
REMARK    3  A    between atoms: C15_16  and  C16_17 
REMARK    4  A    between atoms: C16_17  and  C17_18 
REMARK    5  A    between atoms: C18_19  and  C20_21 
REMARK    6  A    between atoms: C20_21  and  O3_23 
ROOT
HETATM    1  C1  UNL     1       0.360  54.138 -19.143  1.00  0.00     0.052 C 
HETATM    2  C2  UNL     1       0.319  53.139 -20.265  1.00  0.00    -0.013 C 
HETATM    3  C3  UNL     1      -0.219  51.900 -20.208  1.00  0.00    -0.066 C 
HETATM    4  C4  UNL     1      -0.933  51.334 -19.004  1.00  0.00     0.036 C 
HETATM    5  C5  UNL     1      -2.404  51.082 -19.356  1.00  0.00     0.010 C 
HETATM    6  C6  UNL     1      -2.553  50.181 -20.608  1.00  0.00     0.007 C 
HETATM    7  C7  UNL     1      -1.741  50.792 -21.796  1.00  0.00     0.068 C 
HETATM    8  C8  UNL     1      -1.953  49.965 -23.049  1.00  0.00     0.133 C 
HETATM    9  O1  UNL     1      -1.559  50.348 -24.152  1.00  0.00    -0.298 OA
HETATM   10  C9  UNL     1      -2.665  48.650 -22.901  1.00  0.00     0.089 C 
HETATM   11  C10 UNL     1      -4.051  48.749 -22.185  1.00  0.00    -0.026 C 
HETATM   12  C11 UNL     1      -4.299  47.307 -21.684  1.00  0.00     0.016 C 
HETATM   13  C12 UNL     1      -5.138  49.300 -23.205  1.00  0.00    -0.002 C 
HETATM   14  C21 UNL     1      -4.985  50.820 -23.050  1.00  0.00     0.006 C 
HETATM   15  C22 UNL     1      -4.817  51.047 -21.560  1.00  0.00     0.011 C 
HETATM   16  C23 UNL     1      -4.036  49.825 -21.001  1.00  0.00    -0.032 C 
HETATM   17  C24 UNL     1      -4.798  49.344 -19.741  1.00  0.00     0.016 C 
HETATM   18  C25 UNL     1      -0.253  50.928 -21.386  1.00  0.00     0.027 C 
HETATM   19  C26 UNL     1       0.745  51.347 -22.471  1.00  0.00     0.018 C 
HETATM   20  C27 UNL     1       0.631  52.817 -22.813  1.00  0.00     0.084 C 
HETATM   21  C28 UNL     1       0.871  53.642 -21.572  1.00  0.00     0.155 C 
HETATM   22  O4  UNL     1       1.452  54.725 -21.631  1.00  0.00    -0.293 OA
ENDROOT
BRANCH  13  23
HETATM   23  C13 UNL     1      -6.603  48.757 -23.013  1.00  0.00    -0.014 C 
HETATM   24  C14 UNL     1      -6.559  47.226 -22.862  1.00  0.00     0.010 C 
BRANCH  23  25
HETATM   25  C15 UNL     1      -7.588  49.153 -24.146  1.00  0.00     0.008 C 
BRANCH  25  26
HETATM   26  C16 UNL     1      -8.069  48.003 -25.054  1.00  0.00     0.028 C 
BRANCH  26  27
HETATM   27  C17 UNL     1      -9.450  48.208 -25.615  1.00  0.00    -0.013 C 
HETATM   28  C18 UNL     1     -10.032  47.539 -26.632  1.00  0.00     0.008 C 
HETATM   29  C19 UNL     1      -9.420  46.409 -27.402  1.00  0.00     0.055 C 
BRANCH  28  30
HETATM   30  C20 UNL     1     -11.409  47.961 -27.001  1.00  0.00     0.171 C 
HETATM   31  O2  UNL     1     -12.260  47.281 -27.549  1.00  0.00    -0.646 OA
BRANCH  30  32
HETATM   32  O3  UNL     1     -11.663  49.233 -26.653  1.00  0.00    -0.773 OA
HETATM   33  H28 UNL     1     -12.587  49.367 -26.956  1.00  0.00     0.167 HD
ENDBRANCH  30  32
ENDBRANCH  28  30
ENDBRANCH  26  27
ENDBRANCH  25  26
ENDBRANCH  23  25
ENDBRANCH  13  23
TORSDOF 6
ENDMDL
MODEL 8
REMARK minimizedAffinity -8.18437672
REMARK CNNscore 0.300658107
REMARK CNNaffinity 5.95364428
REMARK  6 active torsions:
REMARK  status: ('A' for Active; 'I' for Inactive)
REMARK    1  A    between atoms: C12_13  and  C13_14 
REMARK    2  A    between atoms: C13_14  and  C15_16 
REMARK    3  A    between atoms: C15_16  and  C16_17 
REMARK    4  A    between atoms: C16_17  and  C17_18 
REMARK    5  A    between atoms: C18_19  and  C20_21 
REMARK    6  A    between atoms: C20_21  and  O3_23 
ROOT
HETATM    1  C1  UNL     1      -4.515  50.922 -23.580  1.00  0.00     0.052 C 
HETATM    2  C2  UNL     1      -4.154  50.354 -24.924  1.00  0.00    -0.013 C 
HETATM    3  C3  UNL     1      -4.459  49.116 -25.373  1.00  0.00    -0.066 C 
HETATM    4  C4  UNL     1      -5.278  48.108 -24.604  1.00  0.00     0.036 C 
HETATM    5  C5  UNL     1      -6.582  47.827 -25.362  1.00  0.00     0.010 C 
HETATM    6  C6  UNL     1      -6.318  47.383 -26.823  1.00  0.00     0.007 C 
HETATM    7  C7  UNL     1      -5.414  48.438 -27.539  1.00  0.00     0.068 C 
HETATM    8  C8  UNL     1      -5.223  48.057 -28.994  1.00  0.00     0.133 C 
HETATM    9  O1  UNL     1      -4.698  48.825 -29.802  1.00  0.00    -0.298 OA
HETATM   10  C9  UNL     1      -5.700  46.698 -29.423  1.00  0.00     0.089 C 
HETATM   11  C10 UNL     1      -7.193  46.400 -29.070  1.00  0.00    -0.026 C 
HETATM   12  C11 UNL     1      -7.267  44.856 -29.099  1.00  0.00     0.016 C 
HETATM   13  C12 UNL     1      -8.142  47.137 -30.111  1.00  0.00    -0.002 C 
HETATM   14  C21 UNL     1      -8.300  48.526 -29.477  1.00  0.00     0.006 C 
HETATM   15  C22 UNL     1      -8.471  48.263 -27.993  1.00  0.00     0.011 C 
HETATM   16  C23 UNL     1      -7.605  47.018 -27.652  1.00  0.00    -0.032 C 
HETATM   17  C24 UNL     1      -8.498  46.065 -26.819  1.00  0.00     0.016 C 
HETATM   18  C25 UNL     1      -4.085  48.592 -26.758  1.00  0.00     0.027 C 
HETATM   19  C26 UNL     1      -2.987  49.455 -27.391  1.00  0.00     0.018 C 
HETATM   20  C27 UNL     1      -3.298  50.933 -27.296  1.00  0.00     0.084 C 
HETATM   21  C28 UNL     1      -3.458  51.320 -25.845  1.00  0.00     0.155 C 
HETATM   22  O4  UNL     1      -3.084  52.418 -25.436  1.00  0.00    -0.293 OA
ENDROOT
BRANCH  13  23
HETATM   23  C13 UNL     1      -9.492  46.404 -30.453  1.00  0.00    -0.014 C 
HETATM   24  C14 UNL     1     -10.231  47.190 -31.551  1.00  0.00     0.010 C 
BRANCH  23  25
HETATM   25  C15 UNL     1     -10.429  46.183 -29.234  1.00  0.00     0.008 C 
BRANCH  25  26
HETATM   26  C16 UNL     1     -11.875  46.690 -29.395  1.00  0.00     0.028 C 
BRANCH  26  27
HETATM   27  C17 UNL     1     -12.630  46.801 -28.097  1.00  0.00    -0.013 C 
HETATM   28  C18 UNL     1     -13.848  46.299 -27.809  1.00  0.00     0.008 C 
HETATM   29  C19 UNL     1     -14.701  45.481 -28.731  1.00  0.00     0.055 C 
BRANCH  28  30
HETATM   30  C20 UNL     1     -14.374  46.575 -26.446  1.00  0.00     0.171 C 
HETATM   31  O2  UNL     1     -15.298  46.008 -25.889  1.00  0.00    -0.646 OA
BRANCH  30  32
HETATM   32  O3  UNL     1     -13.698  47.559 -25.829  1.00  0.00    -0.773 OA
HETATM   33  H28 UNL     1     -14.150  47.630 -24.961  1.00  0.00     0.167 HD
ENDBRANCH  30  32
ENDBRANCH  28  30
ENDBRANCH  26  27
ENDBRANCH  25  26
ENDBRANCH  23  25
ENDBRANCH  13  23
TORSDOF 6
ENDMDL
MODEL 9
REMARK minimizedAffinity -8.74047661
REMARK CNNscore 0.265833199
REMARK CNNaffinity 6.45948935
REMARK  6 active torsions:
REMARK  status: ('A' for Active; 'I' for Inactive)
REMARK    1  A    between atoms: C12_13  and  C13_14 
REMARK    2  A    between atoms: C13_14  and  C15_16 
REMARK    3  A    between atoms: C15_16  and  C16_17 
REMARK    4  A    between atoms: C16_17  and  C17_18 
REMARK    5  A    between atoms: C18_19  and  C20_21 
REMARK    6  A    between atoms: C20_21  and  O3_23 
ROOT
HETATM    1  C1  UNL     1      -3.937  48.372 -27.414  1.00  0.00     0.052 C 
HETATM    2  C2  UNL     1      -3.796  49.538 -26.477  1.00  0.00    -0.013 C 
HETATM    3  C3  UNL     1      -4.255  49.599 -25.207  1.00  0.00    -0.066 C 
HETATM    4  C4  UNL     1      -4.944  48.461 -24.493  1.00  0.00     0.036 C 
HETATM    5  C5  UNL     1      -4.084  48.009 -23.306  1.00  0.00     0.010 C 
HETATM    6  C6  UNL     1      -3.748  49.185 -22.355  1.00  0.00     0.007 C 
HETATM    7  C7  UNL     1      -3.096  50.350 -23.168  1.00  0.00     0.068 C 
HETATM    8  C8  UNL     1      -2.683  51.469 -22.232  1.00  0.00     0.133 C 
HETATM    9  O1  UNL     1      -1.991  52.413 -22.616  1.00  0.00    -0.298 OA
HETATM   10  C9  UNL     1      -3.150  51.388 -20.806  1.00  0.00     0.089 C 
HETATM   11  C10 UNL     1      -2.795  50.046 -20.089  1.00  0.00    -0.026 C 
HETATM   12  C11 UNL     1      -3.801  49.988 -18.917  1.00  0.00     0.016 C 
HETATM   13  C12 UNL     1      -1.265  50.061 -19.659  1.00  0.00    -0.002 C 
HETATM   14  C21 UNL     1      -0.568  49.536 -20.922  1.00  0.00     0.006 C 
HETATM   15  C22 UNL     1      -1.449  48.403 -21.413  1.00  0.00     0.011 C 
HETATM   16  C23 UNL     1      -2.916  48.792 -21.077  1.00  0.00    -0.032 C 
HETATM   17  C24 UNL     1      -3.564  47.557 -20.404  1.00  0.00     0.016 C 
HETATM   18  C25 UNL     1      -4.067  50.804 -24.286  1.00  0.00     0.027 C 
HETATM   19  C26 UNL     1      -3.689  52.053 -25.090  1.00  0.00     0.018 C 
HETATM   20  C27 UNL     1      -2.571  51.781 -26.073  1.00  0.00     0.084 C 
HETATM   21  C28 UNL     1      -2.993  50.688 -27.024  1.00  0.00     0.155 C 
HETATM   22  O4  UNL     1      -2.644  50.703 -28.204  1.00  0.00    -0.293 OA
ENDROOT
BRANCH  13  23
HETATM   23  C13 UNL     1      -0.912  49.287 -18.335  1.00  0.00    -0.014 C 
HETATM   24  C14 UNL     1      -2.197  49.079 -17.513  1.00  0.00     0.010 C 
BRANCH  23  25
HETATM   25  C15 UNL     1       0.175  49.970 -17.462  1.00  0.00     0.008 C 
BRANCH  25  26
HETATM   26  C16 UNL     1      -0.093  49.989 -15.944  1.00  0.00     0.028 C 
BRANCH  26  27
HETATM   27  C17 UNL     1       1.118  50.327 -15.116  1.00  0.00    -0.013 C 
HETATM   28  C18 UNL     1       1.947  51.382 -15.265  1.00  0.00     0.008 C 
HETATM   29  C19 UNL     1       1.805  52.472 -16.283  1.00  0.00     0.055 C 
BRANCH  28  30
HETATM   30  C20 UNL     1       3.088  51.466 -14.316  1.00  0.00     0.171 C 
HETATM   31  O2  UNL     1       4.141  50.854 -14.381  1.00  0.00    -0.646 OA
BRANCH  30  32
HETATM   32  O3  UNL     1       2.859  52.336 -13.318  1.00  0.00    -0.773 OA
HETATM   33  H28 UNL     1       3.679  52.283 -12.783  1.00  0.00     0.167 HD
ENDBRANCH  30  32
ENDBRANCH  28  30
ENDBRANCH  26  27
ENDBRANCH  25  26
ENDBRANCH  23  25
ENDBRANCH  13  23
TORSDOF 6
ENDMDL
