MODEL 1
REMARK minimizedAffinity -6.66152096
REMARK CNNscore 0.629523873
REMARK CNNaffinity 6.20461893
REMARK  6 active torsions:
REMARK  status: ('A' for Active; 'I' for Inactive)
REMARK    1  A    between atoms: C2_2  and  C30_31 
REMARK    2  A    between atoms: C3_3  and  C4_4 
REMARK    3  A    between atoms: C4_4  and  C5_5 
REMARK    4  A    between atoms: C5_5  and  C6_6 
REMARK    5  A    between atoms: C6_6  and  C8_8 
REMARK    6  A    between atoms: C30_31  and  O3_33 
ROOT
HETATM    1  C8  UNL     1      18.728  -3.804   9.195  1.00  0.00    -0.002 C 
HETATM    2  C9  UNL     1      18.792  -2.673   8.120  1.00  0.00     0.007 C 
HETATM    3  C10 UNL     1      17.913  -3.106   6.932  1.00  0.00     0.015 C 
HETATM    4  C11 UNL     1      17.665  -4.608   7.162  1.00  0.00    -0.013 C 
HETATM    5  C12 UNL     1      18.934  -5.345   6.619  1.00  0.00     0.021 C 
HETATM    6  C13 UNL     1      16.485  -5.279   6.461  1.00  0.00    -0.070 C 
HETATM    7  C14 UNL     1      15.997  -4.811   5.301  1.00  0.00    -0.022 C 
HETATM    8  C15 UNL     1      15.073  -5.617   4.460  1.00  0.00     0.034 C 
HETATM    9  C16 UNL     1      13.997  -6.339   5.286  1.00  0.00     0.013 C 
HETATM   10  C17 UNL     1      12.801  -5.417   5.759  1.00  0.00     0.018 C 
HETATM   11  C18 UNL     1      11.448  -6.111   5.455  1.00  0.00     0.023 C 
HETATM   12  C19 UNL     1      12.720  -4.044   5.051  1.00  0.00     0.023 C 
HETATM   13  C20 UNL     1      12.863  -5.183   7.265  1.00  0.00     0.135 C 
HETATM   14  O1  UNL     1      12.764  -4.059   7.764  1.00  0.00    -0.297 OA
HETATM   15  C21 UNL     1      12.922  -6.396   8.157  1.00  0.00     0.080 C 
HETATM   16  C22 UNL     1      13.614  -7.583   7.501  1.00  0.00     0.017 C 
HETATM   17  C23 UNL     1      14.672  -7.236   6.417  1.00  0.00    -0.031 C 
HETATM   18  C24 UNL     1      15.038  -8.606   5.757  1.00  0.00     0.016 C 
HETATM   19  C25 UNL     1      16.065  -6.655   6.985  1.00  0.00     0.024 C 
HETATM   20  C26 UNL     1      16.274  -6.860   8.514  1.00  0.00     0.010 C 
HETATM   21  C27 UNL     1      17.464  -6.123   9.150  1.00  0.00     0.011 C 
HETATM   22  C28 UNL     1      17.497  -4.643   8.722  1.00  0.00    -0.029 C 
HETATM   23  C29 UNL     1      16.186  -3.942   9.194  1.00  0.00     0.016 C 
ENDROOT
BRANCH   1  24
HETATM   24  C6  UNL     1      18.772  -3.225  10.646  1.00  0.00    -0.014 C 
HETATM   25  C7  UNL     1      19.633  -4.091  11.574  1.00  0.00     0.010 C 
BRANCH  24  26
HETATM   26  C5  UNL     1      19.316  -1.767  10.635  1.00  0.00     0.008 C 
BRANCH  26  27
HETATM   27  C4  UNL     1      18.284  -0.686  10.998  1.00  0.00     0.028 C 
BRANCH  27  28
HETATM   28  C3  UNL     1      18.790   0.729  10.944  1.00  0.00    -0.013 C 
HETATM   29  C2  UNL     1      18.608   1.720  11.842  1.00  0.00     0.008 C 
HETATM   30  C1  UNL     1      19.207   3.082  11.624  1.00  0.00     0.055 C 
BRANCH  29  31
HETATM   31  C30 UNL     1      17.775   1.537  13.059  1.00  0.00     0.171 C 
HETATM   32  O2  UNL     1      16.564   1.627  13.154  1.00  0.00    -0.646 OA
BRANCH  31  33
HETATM   33  O3  UNL     1      18.525   1.261  14.142  1.00  0.00    -0.773 OA
HETATM   34  H46 UNL     1      17.859   1.185  14.857  1.00  0.00     0.167 HD
ENDBRANCH  31  33
ENDBRANCH  29  31
ENDBRANCH  27  28
ENDBRANCH  26  27
ENDBRANCH  24  26
ENDBRANCH   1  24
TORSDOF 6
ENDMDL
MODEL 2
REMARK minimizedAffinity -6.40251923
REMARK CNNscore 0.423505008
REMARK CNNaffinity 6.409132
REMARK  6 active torsions:
REMARK  status: ('A' for Active; 'I' for Inactive)
REMARK    1  A    between atoms: C2_2  and  C30_31 
REMARK    2  A    between atoms: C3_3  and  C4_4 
REMARK    3  A    between atoms: C4_4  and  C5_5 
REMARK    4  A    between atoms: C5_5  and  C6_6 
REMARK    5  A    between atoms: C6_6  and  C8_8 
REMARK    6  A    between atoms: C30_31  and  O3_33 
ROOT
HETATM    1  C8  UNL     1     -13.801 -11.449  27.413  1.00  0.00    -0.002 C 
HETATM    2  C9  UNL     1     -13.433 -10.522  26.211  1.00  0.00     0.007 C 
HETATM    3  C10 UNL     1     -13.808  -9.080  26.600  1.00  0.00     0.015 C 
HETATM    4  C11 UNL     1     -14.715  -9.236  27.834  1.00  0.00    -0.013 C 
HETATM    5  C12 UNL     1     -16.143  -9.563  27.285  1.00  0.00     0.021 C 
HETATM    6  C13 UNL     1     -14.912  -8.040  28.764  1.00  0.00    -0.070 C 
HETATM    7  C14 UNL     1     -14.796  -6.778  28.320  1.00  0.00    -0.022 C 
HETATM    8  C15 UNL     1     -15.284  -5.621  29.119  1.00  0.00     0.034 C 
HETATM    9  C16 UNL     1     -14.933  -5.740  30.609  1.00  0.00     0.013 C 
HETATM   10  C17 UNL     1     -13.433  -5.383  30.963  1.00  0.00     0.018 C 
HETATM   11  C18 UNL     1     -13.393  -4.416  32.175  1.00  0.00     0.023 C 
HETATM   12  C19 UNL     1     -12.655  -4.658  29.840  1.00  0.00     0.023 C 
HETATM   13  C20 UNL     1     -12.658  -6.637  31.358  1.00  0.00     0.135 C 
HETATM   14  O1  UNL     1     -11.554  -6.909  30.880  1.00  0.00    -0.297 OA
HETATM   15  C21 UNL     1     -13.227  -7.489  32.462  1.00  0.00     0.080 C 
HETATM   16  C22 UNL     1     -14.747  -7.429  32.536  1.00  0.00     0.017 C 
HETATM   17  C23 UNL     1     -15.479  -7.116  31.202  1.00  0.00    -0.031 C 
HETATM   18  C24 UNL     1     -16.971  -6.880  31.605  1.00  0.00     0.016 C 
HETATM   19  C25 UNL     1     -15.513  -8.330  30.141  1.00  0.00     0.024 C 
HETATM   20  C26 UNL     1     -15.134  -9.717  30.737  1.00  0.00     0.010 C 
HETATM   21  C27 UNL     1     -14.920 -10.862  29.732  1.00  0.00     0.011 C 
HETATM   22  C28 UNL     1     -14.002 -10.423  28.575  1.00  0.00    -0.029 C 
HETATM   23  C29 UNL     1     -12.610 -10.015  29.147  1.00  0.00     0.016 C 
ENDROOT
BRANCH   1  24
HETATM   24  C6  UNL     1     -12.781 -12.623  27.571  1.00  0.00    -0.014 C 
HETATM   25  C7  UNL     1     -13.163 -13.825  26.700  1.00  0.00     0.010 C 
BRANCH  24  26
HETATM   26  C5  UNL     1     -11.344 -12.148  27.210  1.00  0.00     0.008 C 
BRANCH  26  27
HETATM   27  C4  UNL     1     -10.529 -13.135  26.357  1.00  0.00     0.028 C 
BRANCH  27  28
HETATM   28  C3  UNL     1      -9.261 -12.580  25.769  1.00  0.00    -0.013 C 
HETATM   29  C2  UNL     1      -9.027 -12.186  24.499  1.00  0.00     0.008 C 
HETATM   30  C1  UNL     1      -7.686 -11.638  24.094  1.00  0.00     0.055 C 
BRANCH  29  31
HETATM   31  C30 UNL     1     -10.053 -12.315  23.432  1.00  0.00     0.171 C 
HETATM   32  O2  UNL     1     -10.064 -13.100  22.501  1.00  0.00    -0.646 OA
BRANCH  31  33
HETATM   33  O3  UNL     1     -11.040 -11.413  23.575  1.00  0.00    -0.773 OA
HETATM   34  H46 UNL     1     -11.623 -11.601  22.810  1.00  0.00     0.167 HD
ENDBRANCH  31  33
ENDBRANCH  29  31
ENDBRANCH  27  28
ENDBRANCH  26  27
ENDBRANCH  24  26
ENDBRANCH   1  24
TORSDOF 6
ENDMDL
MODEL 3
REMARK minimizedAffinity -8.08857059
REMARK CNNscore 0.381940514
REMARK CNNaffinity 6.377913
REMARK  6 active torsions:
REMARK  status: ('A' for Active; 'I' for Inactive)
REMARK    1  A    between atoms: C2_2  and  C30_31 
REMARK    2  A    between atoms: C3_3  and  C4_4 
REMARK    3  A    between atoms: C4_4  and  C5_5 
REMARK    4  A    between atoms: C5_5  and  C6_6 
REMARK    5  A    between atoms: C6_6  and  C8_8 
REMARK    6  A    between atoms: C30_31  and  O3_33 
ROOT
HETATM    1  C8  UNL     1       0.354  11.246  17.062  1.00  0.00    -0.002 C 
HETATM    2  C9  UNL     1      -1.092  11.214  17.651  1.00  0.00     0.007 C 
HETATM    3  C10 UNL     1      -2.003  10.527  16.617  1.00  0.00     0.015 C 
HETATM    4  C11 UNL     1      -1.175  10.514  15.320  1.00  0.00    -0.013 C 
HETATM    5  C12 UNL     1      -1.351  11.930  14.678  1.00  0.00     0.021 C 
HETATM    6  C13 UNL     1      -1.547   9.528  14.213  1.00  0.00    -0.070 C 
HETATM    7  C14 UNL     1      -2.801   9.072  14.071  1.00  0.00    -0.022 C 
HETATM    8  C15 UNL     1      -3.243   8.371  12.835  1.00  0.00     0.034 C 
HETATM    9  C16 UNL     1      -2.204   7.364  12.322  1.00  0.00     0.013 C 
HETATM   10  C17 UNL     1      -2.167   5.994  13.113  1.00  0.00     0.018 C 
HETATM   11  C18 UNL     1      -2.170   4.808  12.114  1.00  0.00     0.023 C 
HETATM   12  C19 UNL     1      -3.380   5.747  14.040  1.00  0.00     0.023 C 
HETATM   13  C20 UNL     1      -0.892   5.885  13.944  1.00  0.00     0.135 C 
HETATM   14  O1  UNL     1      -0.904   5.557  15.133  1.00  0.00    -0.297 OA
HETATM   15  C21 UNL     1       0.422   6.067  13.231  1.00  0.00     0.080 C 
HETATM   16  C22 UNL     1       0.324   7.002  12.034  1.00  0.00     0.017 C 
HETATM   17  C23 UNL     1      -0.795   8.078  12.104  1.00  0.00    -0.031 C 
HETATM   18  C24 UNL     1      -0.825   8.723  10.679  1.00  0.00     0.016 C 
HETATM   19  C25 UNL     1      -0.504   9.299  13.116  1.00  0.00     0.024 C 
HETATM   20  C26 UNL     1       0.973   9.405  13.590  1.00  0.00     0.010 C 
HETATM   21  C27 UNL     1       1.260  10.396  14.732  1.00  0.00     0.011 C 
HETATM   22  C28 UNL     1       0.258  10.218  15.889  1.00  0.00    -0.029 C 
HETATM   23  C29 UNL     1       0.384   8.773  16.461  1.00  0.00     0.016 C 
ENDROOT
BRANCH   1  24
HETATM   24  C6  UNL     1       1.436  11.067  18.176  1.00  0.00    -0.014 C 
HETATM   25  C7  UNL     1       2.703  11.873  17.868  1.00  0.00     0.010 C 
BRANCH  24  26
HETATM   26  C5  UNL     1       0.867  11.492  19.561  1.00  0.00     0.008 C 
BRANCH  26  27
HETATM   27  C4  UNL     1       1.142  10.503  20.707  1.00  0.00     0.028 C 
BRANCH  27  28
HETATM   28  C3  UNL     1       2.474  10.662  21.386  1.00  0.00    -0.013 C 
HETATM   29  C2  UNL     1       3.044   9.863  22.313  1.00  0.00     0.008 C 
HETATM   30  C1  UNL     1       4.403  10.177  22.876  1.00  0.00     0.055 C 
BRANCH  29  31
HETATM   31  C30 UNL     1       2.348   8.670  22.860  1.00  0.00     0.171 C 
HETATM   32  O2  UNL     1       1.865   7.739  22.240  1.00  0.00    -0.646 OA
BRANCH  31  33
HETATM   33  O3  UNL     1       2.268   8.708  24.202  1.00  0.00    -0.773 OA
HETATM   34  H46 UNL     1       1.781   7.886  24.418  1.00  0.00     0.167 HD
ENDBRANCH  31  33
ENDBRANCH  29  31
ENDBRANCH  27  28
ENDBRANCH  26  27
ENDBRANCH  24  26
ENDBRANCH   1  24
TORSDOF 6
ENDMDL
MODEL 4
REMARK minimizedAffinity -7.64546442
REMARK CNNscore 0.348997056
REMARK CNNaffinity 6.94101334
REMARK  6 active torsions:
REMARK  status: ('A' for Active; 'I' for Inactive)
REMARK    1  A    between atoms: C2_2  and  C30_31 
REMARK    2  A    between atoms: C3_3  and  C4_4 
REMARK    3  A    between atoms: C4_4  and  C5_5 
REMARK    4  A    between atoms: C5_5  and  C6_6 
REMARK    5  A    between atoms: C6_6  and  C8_8 
REMARK    6  A    between atoms: C30_31  and  O3_33 
ROOT
HETATM    1  C8  UNL     1      -9.362   7.119  13.957  1.00  0.00    -0.002 C 
HETATM    2  C9  UNL     1      -8.922   7.092  15.456  1.00  0.00     0.007 C 
HETATM    3  C10 UNL     1      -9.944   7.918  16.259  1.00  0.00     0.015 C 
HETATM    4  C11 UNL     1     -10.724   8.709  15.193  1.00  0.00    -0.013 C 
HETATM    5  C12 UNL     1      -9.843   9.954  14.844  1.00  0.00     0.021 C 
HETATM    6  C13 UNL     1     -12.095   9.281  15.551  1.00  0.00    -0.070 C 
HETATM    7  C14 UNL     1     -12.417   9.594  16.816  1.00  0.00    -0.022 C 
HETATM    8  C15 UNL     1     -13.607  10.428  17.136  1.00  0.00     0.034 C 
HETATM    9  C16 UNL     1     -14.841  10.041  16.308  1.00  0.00     0.013 C 
HETATM   10  C17 UNL     1     -15.589   8.741  16.808  1.00  0.00     0.018 C 
HETATM   11  C18 UNL     1     -17.114   9.010  16.897  1.00  0.00     0.023 C 
HETATM   12  C19 UNL     1     -15.180   8.259  18.220  1.00  0.00     0.023 C 
HETATM   13  C20 UNL     1     -15.388   7.590  15.827  1.00  0.00     0.135 C 
HETATM   14  O1  UNL     1     -15.042   6.463  16.191  1.00  0.00    -0.297 OA
HETATM   15  C21 UNL     1     -15.750   7.833  14.385  1.00  0.00     0.080 C 
HETATM   16  C22 UNL     1     -15.575   9.285  13.964  1.00  0.00     0.017 C 
HETATM   17  C23 UNL     1     -14.506  10.095  14.750  1.00  0.00    -0.031 C 
HETATM   18  C24 UNL     1     -14.702  11.576  14.290  1.00  0.00     0.016 C 
HETATM   19  C25 UNL     1     -12.977   9.736  14.386  1.00  0.00     0.024 C 
HETATM   20  C26 UNL     1     -12.801   8.914  13.077  1.00  0.00     0.010 C 
HETATM   21  C27 UNL     1     -11.399   8.344  12.805  1.00  0.00     0.011 C 
HETATM   22  C28 UNL     1     -10.834   7.636  14.052  1.00  0.00    -0.029 C 
HETATM   23  C29 UNL     1     -11.771   6.450  14.440  1.00  0.00     0.016 C 
ENDROOT
BRANCH   1  24
HETATM   24  C6  UNL     1      -9.050   5.767  13.239  1.00  0.00    -0.014 C 
HETATM   25  C7  UNL     1      -8.868   5.958  11.728  1.00  0.00     0.010 C 
BRANCH  24  26
HETATM   26  C5  UNL     1      -7.775   5.110  13.842  1.00  0.00     0.008 C 
BRANCH  26  27
HETATM   27  C4  UNL     1      -7.185   3.955  13.016  1.00  0.00     0.028 C 
BRANCH  27  28
HETATM   28  C3  UNL     1      -5.685   3.939  12.913  1.00  0.00    -0.013 C 
HETATM   29  C2  UNL     1      -4.910   3.245  12.052  1.00  0.00     0.008 C 
HETATM   30  C1  UNL     1      -3.412   3.367  12.089  1.00  0.00     0.055 C 
BRANCH  29  31
HETATM   31  C30 UNL     1      -5.485   2.297  11.063  1.00  0.00     0.171 C 
HETATM   32  O2  UNL     1      -5.930   1.182  11.271  1.00  0.00    -0.646 OA
BRANCH  31  33
HETATM   33  O3  UNL     1      -5.458   2.797   9.815  1.00  0.00    -0.773 OA
HETATM   34  H46 UNL     1      -5.844   2.074   9.279  1.00  0.00     0.167 HD
ENDBRANCH  31  33
ENDBRANCH  29  31
ENDBRANCH  27  28
ENDBRANCH  26  27
ENDBRANCH  24  26
ENDBRANCH   1  24
TORSDOF 6
ENDMDL
MODEL 5
REMARK minimizedAffinity -6.84531736
REMARK CNNscore 0.331605226
REMARK CNNaffinity 5.74498892
REMARK  6 active torsions:
REMARK  status: ('A' for Active; 'I' for Inactive)
REMARK    1  A    between atoms: C2_2  and  C30_31 
REMARK    2  A    between atoms: C3_3  and  C4_4 
REMARK    3  A    between atoms: C4_4  and  C5_5 
REMARK    4  A    between atoms: C5_5  and  C6_6 
REMARK    5  A    between atoms: C6_6  and  C8_8 
REMARK    6  A    between atoms: C30_31  and  O3_33 
ROOT
HETATM    1  C8  UNL     1       2.976  12.769  20.139  1.00  0.00    -0.002 C 
HETATM    2  C9  UNL     1       3.491  13.650  18.957  1.00  0.00     0.007 C 
HETATM    3  C10 UNL     1       2.543  13.432  17.763  1.00  0.00     0.015 C 
HETATM    4  C11 UNL     1       1.738  12.173  18.134  1.00  0.00    -0.013 C 
HETATM    5  C12 UNL     1       2.646  10.953  17.762  1.00  0.00     0.021 C 
HETATM    6  C13 UNL     1       0.409  11.908  17.428  1.00  0.00    -0.070 C 
HETATM    7  C14 UNL     1       0.164  12.376  16.194  1.00  0.00    -0.022 C 
HETATM    8  C15 UNL     1      -0.977  11.875  15.381  1.00  0.00     0.034 C 
HETATM    9  C16 UNL     1      -2.265  11.717  16.201  1.00  0.00     0.013 C 
HETATM   10  C17 UNL     1      -3.034  13.069  16.489  1.00  0.00     0.018 C 
HETATM   11  C18 UNL     1      -4.541  12.898  16.167  1.00  0.00     0.023 C 
HETATM   12  C19 UNL     1      -2.571  14.273  15.635  1.00  0.00     0.023 C 
HETATM   13  C20 UNL     1      -2.925  13.449  17.962  1.00  0.00     0.135 C 
HETATM   14  O1  UNL     1      -2.602  14.582  18.331  1.00  0.00    -0.297 OA
HETATM   15  C21 UNL     1      -3.351  12.424  18.980  1.00  0.00     0.080 C 
HETATM   16  C22 UNL     1      -3.145  10.993  18.505  1.00  0.00     0.017 C 
HETATM   17  C23 UNL     1      -2.008  10.781  17.466  1.00  0.00    -0.031 C 
HETATM   18  C24 UNL     1      -2.173   9.303  16.983  1.00  0.00     0.016 C 
HETATM   19  C25 UNL     1      -0.513  10.867  18.065  1.00  0.00     0.024 C 
HETATM   20  C26 UNL     1      -0.435  10.791  19.617  1.00  0.00     0.010 C 
HETATM   21  C27 UNL     1       0.930  11.104  20.253  1.00  0.00     0.011 C 
HETATM   22  C28 UNL     1       1.531  12.398  19.674  1.00  0.00    -0.029 C 
HETATM   23  C29 UNL     1       0.573  13.592  19.975  1.00  0.00     0.016 C 
ENDROOT
BRANCH   1  24
HETATM   24  C6  UNL     1       3.201  13.466  21.520  1.00  0.00    -0.014 C 
HETATM   25  C7  UNL     1       2.854  12.534  22.687  1.00  0.00     0.010 C 
BRANCH  24  26
HETATM   26  C5  UNL     1       4.675  13.947  21.654  1.00  0.00     0.008 C 
BRANCH  26  27
HETATM   27  C4  UNL     1       5.315  13.705  23.031  1.00  0.00     0.028 C 
BRANCH  27  28
HETATM   28  C3  UNL     1       6.469  12.741  23.042  1.00  0.00    -0.013 C 
HETATM   29  C2  UNL     1       7.790  13.013  23.112  1.00  0.00     0.008 C 
HETATM   30  C1  UNL     1       8.809  11.908  23.125  1.00  0.00     0.055 C 
BRANCH  29  31
HETATM   31  C30 UNL     1       8.307  14.407  23.128  1.00  0.00     0.171 C 
HETATM   32  O2  UNL     1       8.330  15.204  22.208  1.00  0.00    -0.646 OA
BRANCH  31  33
HETATM   33  O3  UNL     1       8.806  14.741  24.332  1.00  0.00    -0.773 OA
HETATM   34  H46 UNL     1       9.119  15.659  24.194  1.00  0.00     0.167 HD
ENDBRANCH  31  33
ENDBRANCH  29  31
ENDBRANCH  27  28
ENDBRANCH  26  27
ENDBRANCH  24  26
ENDBRANCH   1  24
TORSDOF 6
ENDMDL
MODEL 6
REMARK minimizedAffinity -6.831604
REMARK CNNscore 0.32260713
REMARK CNNaffinity 6.589293
REMARK  6 active torsions:
REMARK  status: ('A' for Active; 'I' for Inactive)
REMARK    1  A    between atoms: C2_2  and  C30_31 
REMARK    2  A    between atoms: C3_3  and  C4_4 
REMARK    3  A    between atoms: C4_4  and  C5_5 
REMARK    4  A    between atoms: C5_5  and  C6_6 
REMARK    5  A    between atoms: C6_6  and  C8_8 
REMARK    6  A    between atoms: C30_31  and  O3_33 
ROOT
HETATM    1  C8  UNL     1     -10.178   7.376  14.719  1.00  0.00    -0.002 C 
HETATM    2  C9  UNL     1     -10.815   7.640  13.318  1.00  0.00     0.007 C 
HETATM    3  C10 UNL     1     -11.666   8.919  13.424  1.00  0.00     0.015 C 
HETATM    4  C11 UNL     1     -11.816   9.159  14.937  1.00  0.00    -0.013 C 
HETATM    5  C12 UNL     1     -12.979   8.228  15.412  1.00  0.00     0.021 C 
HETATM    6  C13 UNL     1     -12.196  10.554  15.432  1.00  0.00    -0.070 C 
HETATM    7  C14 UNL     1     -12.901  11.403  14.667  1.00  0.00    -0.022 C 
HETATM    8  C15 UNL     1     -13.539  12.620  15.235  1.00  0.00     0.034 C 
HETATM    9  C16 UNL     1     -12.628  13.361  16.225  1.00  0.00     0.013 C 
HETATM   10  C17 UNL     1     -11.499  14.239  15.550  1.00  0.00     0.018 C 
HETATM   11  C18 UNL     1     -11.473  15.650  16.193  1.00  0.00     0.023 C 
HETATM   12  C19 UNL     1     -11.687  14.488  14.035  1.00  0.00     0.023 C 
HETATM   13  C20 UNL     1     -10.124  13.614  15.771  1.00  0.00     0.135 C 
HETATM   14  O1  UNL     1      -9.316  13.452  14.853  1.00  0.00    -0.297 OA
HETATM   15  C21 UNL     1      -9.718  13.309  17.189  1.00  0.00     0.080 C 
HETATM   16  C22 UNL     1     -10.901  12.981  18.089  1.00  0.00     0.017 C 
HETATM   17  C23 UNL     1     -12.145  12.375  17.381  1.00  0.00    -0.031 C 
HETATM   18  C24 UNL     1     -13.266  12.364  18.471  1.00  0.00     0.016 C 
HETATM   19  C25 UNL     1     -11.985  10.838  16.921  1.00  0.00     0.024 C 
HETATM   20  C26 UNL     1     -10.776  10.096  17.560  1.00  0.00     0.010 C 
HETATM   21  C27 UNL     1     -10.436   8.711  16.983  1.00  0.00     0.011 C 
HETATM   22  C28 UNL     1     -10.388   8.745  15.444  1.00  0.00    -0.029 C 
HETATM   23  C29 UNL     1      -9.282   9.745  14.984  1.00  0.00     0.016 C 
ENDROOT
BRANCH   1  24
HETATM   24  C6  UNL     1      -8.744   6.766  14.596  1.00  0.00    -0.014 C 
HETATM   25  C7  UNL     1      -8.342   6.006  15.865  1.00  0.00     0.010 C 
BRANCH  24  26
HETATM   26  C5  UNL     1      -8.660   5.816  13.366  1.00  0.00     0.008 C 
BRANCH  26  27
HETATM   27  C4  UNL     1      -7.249   5.295  13.043  1.00  0.00     0.028 C 
BRANCH  27  28
HETATM   28  C3  UNL     1      -7.189   3.886  12.523  1.00  0.00    -0.013 C 
HETATM   29  C2  UNL     1      -6.106   3.184  12.124  1.00  0.00     0.008 C 
HETATM   30  C1  UNL     1      -6.238   1.766  11.641  1.00  0.00     0.055 C 
BRANCH  29  31
HETATM   31  C30 UNL     1      -4.747   3.783  12.093  1.00  0.00     0.171 C 
HETATM   32  O2  UNL     1      -4.060   4.023  11.117  1.00  0.00    -0.646 OA
BRANCH  31  33
HETATM   33  O3  UNL     1      -4.287   4.043  13.330  1.00  0.00    -0.773 OA
HETATM   34  H46 UNL     1      -3.394   4.411  13.161  1.00  0.00     0.167 HD
ENDBRANCH  31  33
ENDBRANCH  29  31
ENDBRANCH  27  28
ENDBRANCH  26  27
ENDBRANCH  24  26
ENDBRANCH   1  24
TORSDOF 6
ENDMDL
MODEL 7
REMARK minimizedAffinity -7.12036419
REMARK CNNscore 0.317678958
REMARK CNNaffinity 6.4188633
REMARK  6 active torsions:
REMARK  status: ('A' for Active; 'I' for Inactive)
REMARK    1  A    between atoms: C2_2  and  C30_31 
REMARK    2  A    between atoms: C3_3  and  C4_4 
REMARK    3  A    between atoms: C4_4  and  C5_5 
REMARK    4  A    between atoms: C5_5  and  C6_6 
REMARK    5  A    between atoms: C6_6  and  C8_8 
REMARK    6  A    between atoms: C30_31  and  O3_33 
ROOT
HETATM    1  C8  UNL     1       5.005  15.971   0.318  1.00  0.00    -0.002 C 
HETATM    2  C9  UNL     1       5.395  14.546   0.825  1.00  0.00     0.007 C 
HETATM    3  C10 UNL     1       4.318  14.094   1.827  1.00  0.00     0.015 C 
HETATM    4  C11 UNL     1       3.544  15.380   2.169  1.00  0.00    -0.013 C 
HETATM    5  C12 UNL     1       4.389  16.118   3.260  1.00  0.00     0.021 C 
HETATM    6  C13 UNL     1       2.141  15.264   2.764  1.00  0.00    -0.070 C 
HETATM    7  C14 UNL     1       1.766  14.189   3.475  1.00  0.00    -0.022 C 
HETATM    8  C15 UNL     1       0.536  14.196   4.312  1.00  0.00     0.034 C 
HETATM    9  C16 UNL     1      -0.655  14.864   3.609  1.00  0.00     0.013 C 
HETATM   10  C17 UNL     1      -1.370  13.962   2.524  1.00  0.00     0.018 C 
HETATM   11  C18 UNL     1      -2.906  13.998   2.736  1.00  0.00     0.023 C 
HETATM   12  C19 UNL     1      -0.990  12.463   2.572  1.00  0.00     0.023 C 
HETATM   13  C20 UNL     1      -1.093  14.486   1.118  1.00  0.00     0.135 C 
HETATM   14  O1  UNL     1      -0.717  13.752   0.200  1.00  0.00    -0.297 OA
HETATM   15  C21 UNL     1      -1.417  15.930   0.837  1.00  0.00     0.080 C 
HETATM   16  C22 UNL     1      -1.282  16.820   2.065  1.00  0.00     0.017 C 
HETATM   17  C23 UNL     1      -0.271  16.339   3.143  1.00  0.00    -0.031 C 
HETATM   18  C24 UNL     1      -0.507  17.282   4.368  1.00  0.00     0.016 C 
HETATM   19  C25 UNL     1       1.282  16.531   2.753  1.00  0.00     0.024 C 
HETATM   20  C26 UNL     1       1.531  17.475   1.542  1.00  0.00     0.010 C 
HETATM   21  C27 UNL     1       2.963  17.510   0.980  1.00  0.00     0.011 C 
HETATM   22  C28 UNL     1       3.512  16.086   0.767  1.00  0.00    -0.029 C 
HETATM   23  C29 UNL     1       2.608  15.333  -0.257  1.00  0.00     0.016 C 
ENDROOT
BRANCH   1  24
HETATM   24  C6  UNL     1       5.391  16.178  -1.182  1.00  0.00    -0.014 C 
HETATM   25  C7  UNL     1       6.795  16.775  -1.328  1.00  0.00     0.010 C 
BRANCH  24  26
HETATM   26  C5  UNL     1       5.310  14.830  -1.955  1.00  0.00     0.008 C 
BRANCH  26  27
HETATM   27  C4  UNL     1       4.473  14.869  -3.245  1.00  0.00     0.028 C 
BRANCH  27  28
HETATM   28  C3  UNL     1       4.975  13.997  -4.363  1.00  0.00    -0.013 C 
HETATM   29  C2  UNL     1       5.146  12.658  -4.370  1.00  0.00     0.008 C 
HETATM   30  C1  UNL     1       5.650  11.949  -5.597  1.00  0.00     0.055 C 
BRANCH  29  31
HETATM   31  C30 UNL     1       4.897  11.826  -3.165  1.00  0.00     0.171 C 
HETATM   32  O2  UNL     1       5.711  11.433  -2.348  1.00  0.00    -0.646 OA
BRANCH  31  33
HETATM   33  O3  UNL     1       3.598  11.495  -3.045  1.00  0.00    -0.773 OA
HETATM   34  H46 UNL     1       3.585  10.945  -2.234  1.00  0.00     0.167 HD
ENDBRANCH  31  33
ENDBRANCH  29  31
ENDBRANCH  27  28
ENDBRANCH  26  27
ENDBRANCH  24  26
ENDBRANCH   1  24
TORSDOF 6
ENDMDL
MODEL 8
REMARK minimizedAffinity -7.52169132
REMARK CNNscore 0.309776157
REMARK CNNaffinity 6.36123323
REMARK  6 active torsions:
REMARK  status: ('A' for Active; 'I' for Inactive)
REMARK    1  A    between atoms: C2_2  and  C30_31 
REMARK    2  A    between atoms: C3_3  and  C4_4 
REMARK    3  A    between atoms: C4_4  and  C5_5 
REMARK    4  A    between atoms: C5_5  and  C6_6 
REMARK    5  A    between atoms: C6_6  and  C8_8 
REMARK    6  A    between atoms: C30_31  and  O3_33 
ROOT
HETATM    1  C8  UNL     1      -1.189   7.181  13.353  1.00  0.00    -0.002 C 
HETATM    2  C9  UNL     1      -1.117   8.197  12.168  1.00  0.00     0.007 C 
HETATM    3  C10 UNL     1      -1.480   9.588  12.722  1.00  0.00     0.015 C 
HETATM    4  C11 UNL     1      -2.112   9.304  14.096  1.00  0.00    -0.013 C 
HETATM    5  C12 UNL     1      -3.603   8.918  13.817  1.00  0.00     0.021 C 
HETATM    6  C13 UNL     1      -2.180  10.430  15.127  1.00  0.00    -0.070 C 
HETATM    7  C14 UNL     1      -2.221  11.719  14.757  1.00  0.00    -0.022 C 
HETATM    8  C15 UNL     1      -2.597  12.795  15.714  1.00  0.00     0.034 C 
HETATM    9  C16 UNL     1      -1.950  12.613  17.094  1.00  0.00     0.013 C 
HETATM   10  C17 UNL     1      -0.430  13.045  17.171  1.00  0.00     0.018 C 
HETATM   11  C18 UNL     1      -0.198  13.941  18.415  1.00  0.00     0.023 C 
HETATM   12  C19 UNL     1       0.070  13.881  15.970  1.00  0.00     0.023 C 
HETATM   13  C20 UNL     1       0.472  11.822  17.319  1.00  0.00     0.135 C 
HETATM   14  O1  UNL     1       1.471  11.649  16.615  1.00  0.00    -0.297 OA
HETATM   15  C21 UNL     1       0.179  10.874  18.451  1.00  0.00     0.080 C 
HETATM   16  C22 UNL     1      -1.295  10.831  18.826  1.00  0.00     0.017 C 
HETATM   17  C23 UNL     1      -2.295  11.174  17.686  1.00  0.00    -0.031 C 
HETATM   18  C24 UNL     1      -3.686  11.290  18.390  1.00  0.00     0.016 C 
HETATM   19  C25 UNL     1      -2.478  10.022  16.572  1.00  0.00     0.024 C 
HETATM   20  C26 UNL     1      -1.917   8.631  16.985  1.00  0.00     0.010 C 
HETATM   21  C27 UNL     1      -1.850   7.562  15.881  1.00  0.00     0.011 C 
HETATM   22  C28 UNL     1      -1.206   8.124  14.599  1.00  0.00    -0.029 C 
HETATM   23  C29 UNL     1       0.250   8.586  14.914  1.00  0.00     0.016 C 
ENDROOT
BRANCH   1  24
HETATM   24  C6  UNL     1      -0.099   6.068  13.226  1.00  0.00    -0.014 C 
HETATM   25  C7  UNL     1      -0.710   4.724  12.810  1.00  0.00     0.010 C 
BRANCH  24  26
HETATM   26  C5  UNL     1       0.993   6.488  12.201  1.00  0.00     0.008 C 
BRANCH  26  27
HETATM   27  C4  UNL     1       0.902   5.791  10.832  1.00  0.00     0.028 C 
BRANCH  27  28
HETATM   28  C3  UNL     1       1.139   6.680   9.642  1.00  0.00    -0.013 C 
HETATM   29  C2  UNL     1       2.175   6.664   8.776  1.00  0.00     0.008 C 
HETATM   30  C1  UNL     1       2.236   7.630   7.626  1.00  0.00     0.055 C 
BRANCH  29  31
HETATM   31  C30 UNL     1       3.323   5.735   8.939  1.00  0.00     0.171 C 
HETATM   32  O2  UNL     1       4.201   5.775   9.781  1.00  0.00    -0.646 OA
BRANCH  31  33
HETATM   33  O3  UNL     1       3.328   4.777   7.994  1.00  0.00    -0.773 OA
HETATM   34  H46 UNL     1       4.132   4.259   8.210  1.00  0.00     0.167 HD
ENDBRANCH  31  33
ENDBRANCH  29  31
ENDBRANCH  27  28
ENDBRANCH  26  27
ENDBRANCH  24  26
ENDBRANCH   1  24
TORSDOF 6
ENDMDL
MODEL 9
REMARK minimizedAffinity -7.69324112
REMARK CNNscore 0.29386586
REMARK CNNaffinity 6.68902636
REMARK  6 active torsions:
REMARK  status: ('A' for Active; 'I' for Inactive)
REMARK    1  A    between atoms: C2_2  and  C30_31 
REMARK    2  A    between atoms: C3_3  and  C4_4 
REMARK    3  A    between atoms: C4_4  and  C5_5 
REMARK    4  A    between atoms: C5_5  and  C6_6 
REMARK    5  A    between atoms: C6_6  and  C8_8 
REMARK    6  A    between atoms: C30_31  and  O3_33 
ROOT
HETATM    1  C8  UNL     1      -5.082   6.931  14.935  1.00  0.00    -0.002 C 
HETATM    2  C9  UNL     1      -4.634   5.611  15.640  1.00  0.00     0.007 C 
HETATM    3  C10 UNL     1      -3.145   5.390  15.317  1.00  0.00     0.015 C 
HETATM    4  C11 UNL     1      -2.856   6.351  14.149  1.00  0.00    -0.013 C 
HETATM    5  C12 UNL     1      -3.347   5.622  12.855  1.00  0.00     0.021 C 
HETATM    6  C13 UNL     1      -1.410   6.748  13.857  1.00  0.00    -0.070 C 
HETATM    7  C14 UNL     1      -0.382   5.946  14.178  1.00  0.00    -0.022 C 
HETATM    8  C15 UNL     1       0.982   6.168  13.630  1.00  0.00     0.034 C 
HETATM    9  C16 UNL     1       1.388   7.649  13.631  1.00  0.00     0.013 C 
HETATM   10  C17 UNL     1       1.838   8.208  15.040  1.00  0.00     0.018 C 
HETATM   11  C18 UNL     1       3.167   8.995  14.896  1.00  0.00     0.023 C 
HETATM   12  C19 UNL     1       2.122   7.126  16.108  1.00  0.00     0.023 C 
HETATM   13  C20 UNL     1       0.796   9.174  15.596  1.00  0.00     0.135 C 
HETATM   14  O1  UNL     1       0.368   9.094  16.750  1.00  0.00    -0.297 OA
HETATM   15  C21 UNL     1       0.385  10.332  14.724  1.00  0.00     0.080 C 
HETATM   16  C22 UNL     1       0.475  10.018  13.237  1.00  0.00     0.017 C 
HETATM   17  C23 UNL     1       0.308   8.523  12.849  1.00  0.00    -0.031 C 
HETATM   18  C24 UNL     1       0.678   8.456  11.331  1.00  0.00     0.016 C 
HETATM   19  C25 UNL     1      -1.199   7.958  12.943  1.00  0.00     0.024 C 
HETATM   20  C26 UNL     1      -2.294   9.058  13.058  1.00  0.00     0.010 C 
HETATM   21  C27 UNL     1      -3.718   8.580  13.388  1.00  0.00     0.011 C 
HETATM   22  C28 UNL     1      -3.715   7.596  14.573  1.00  0.00    -0.029 C 
HETATM   23  C29 UNL     1      -3.141   8.311  15.835  1.00  0.00     0.016 C 
ENDROOT
BRANCH   1  24
HETATM   24  C6  UNL     1      -6.133   7.713  15.788  1.00  0.00    -0.014 C 
HETATM   25  C7  UNL     1      -6.886   8.750  14.945  1.00  0.00     0.010 C 
BRANCH  24  26
HETATM   26  C5  UNL     1      -7.148   6.730  16.438  1.00  0.00     0.008 C 
BRANCH  26  27
HETATM   27  C4  UNL     1      -7.614   5.581  15.528  1.00  0.00     0.028 C 
BRANCH  27  28
HETATM   28  C3  UNL     1      -8.187   6.003  14.203  1.00  0.00    -0.013 C 
HETATM   29  C2  UNL     1      -8.237   5.304  13.050  1.00  0.00     0.008 C 
HETATM   30  C1  UNL     1      -8.868   5.890  11.817  1.00  0.00     0.055 C 
BRANCH  29  31
HETATM   31  C30 UNL     1      -7.636   3.951  12.921  1.00  0.00     0.171 C 
HETATM   32  O2  UNL     1      -6.473   3.671  12.691  1.00  0.00    -0.646 OA
BRANCH  31  33
HETATM   33  O3  UNL     1      -8.553   2.979  13.073  1.00  0.00    -0.773 OA
HETATM   34  H46 UNL     1      -8.029   2.160  12.950  1.00  0.00     0.167 HD
ENDBRANCH  31  33
ENDBRANCH  29  31
ENDBRANCH  27  28
ENDBRANCH  26  27
ENDBRANCH  24  26
ENDBRANCH   1  24
TORSDOF 6
ENDMDL
