MODEL 1
REMARK minimizedAffinity -8.63444614
REMARK CNNscore 0.615528643
REMARK CNNaffinity 6.99376869
REMARK  7 active torsions:
REMARK  status: ('A' for Active; 'I' for Inactive)
REMARK    1  A    between atoms: C2_2  and  C3_3 
REMARK    2  A    between atoms: C2_2  and  C4_5 
REMARK    3  A    between atoms: C3_3  and  O1_4 
REMARK    4  A    between atoms: C13_14  and  C14_15 
REMARK    5  A    between atoms: C14_15  and  C16_17 
REMARK    6  A    between atoms: C16_17  and  C17_18 
REMARK    7  A    between atoms: C17_18  and  C18_20 
ROOT
HETATM    1  C4  UNL     1       2.485   6.298  10.899  1.00  0.00     0.051 C 
HETATM    2  C5  UNL     1       1.503   5.298  11.567  1.00  0.00     0.012 C 
HETATM    3  C6  UNL     1      -0.002   5.553  11.506  1.00  0.00     0.006 C 
HETATM    4  C7  UNL     1      -0.564   6.872  12.094  1.00  0.00    -0.001 C 
HETATM    5  C8  UNL     1       0.488   7.997  12.320  1.00  0.00    -0.007 C 
HETATM    6  C9  UNL     1      -0.069   9.248  13.060  1.00  0.00     0.006 C 
HETATM    7  C10 UNL     1      -1.026   8.980  14.232  1.00  0.00     0.011 C 
HETATM    8  C11 UNL     1      -2.116   7.971  13.843  1.00  0.00    -0.032 C 
HETATM    9  C12 UNL     1      -3.007   8.611  12.732  1.00  0.00     0.016 C 
HETATM   10  C13 UNL     1      -3.039   7.453  14.991  1.00  0.00    -0.002 C 
HETATM   11  C22 UNL     1      -3.545   6.095  14.423  1.00  0.00     0.006 C 
HETATM   12  C23 UNL     1      -2.599   5.687  13.275  1.00  0.00     0.011 C 
HETATM   13  C24 UNL     1      -1.394   6.637  13.400  1.00  0.00    -0.032 C 
HETATM   14  C25 UNL     1      -0.458   6.023  14.497  1.00  0.00     0.016 C 
HETATM   15  C26 UNL     1       1.150   8.498  11.016  1.00  0.00     0.044 C 
HETATM   16  C27 UNL     1       1.840   7.462  10.084  1.00  0.00     0.079 C 
HETATM   17  C28 UNL     1       0.928   7.079   8.919  1.00  0.00     0.049 C 
HETATM   18  C29 UNL     1       1.203   8.119   7.855  1.00  0.00     0.114 C 
HETATM   19  C30 UNL     1       2.580   8.587   8.186  1.00  0.00     0.259 C 
HETATM   20  O3  UNL     1       3.298   9.245   7.453  1.00  0.00    -0.265 OA
HETATM   21  O4  UNL     1       2.921   8.197   9.445  1.00  0.00    -0.309 OA
ENDROOT
BRANCH  10  22
HETATM   22  C14 UNL     1      -4.211   8.330  15.517  1.00  0.00    -0.007 C 
HETATM   23  C15 UNL     1      -5.407   8.371  14.561  1.00  0.00     0.011 C 
BRANCH  22  24
HETATM   24  C16 UNL     1      -3.769   9.773  15.868  1.00  0.00     0.087 C 
BRANCH  24  25
HETATM   25  C17 UNL     1      -3.048   9.906  17.201  1.00  0.00     0.149 C 
HETATM   26  O2  UNL     1      -1.934   9.418  17.368  1.00  0.00    -0.293 OA
BRANCH  25  27
HETATM   27  C18 UNL     1      -3.743  10.690  18.271  1.00  0.00     0.052 C 
HETATM   28  C19 UNL     1      -3.691  12.026  18.430  1.00  0.00    -0.084 C 
HETATM   29  C20 UNL     1      -4.480  12.699  19.522  1.00  0.00     0.043 C 
HETATM   30  C21 UNL     1      -2.884  12.949  17.558  1.00  0.00     0.043 C 
ENDBRANCH  25  27
ENDBRANCH  24  25
ENDBRANCH  22  24
ENDBRANCH  10  22
BRANCH   1  31
HETATM   31  C2  UNL     1       3.646   5.497  10.262  1.00  0.00    -0.059 C 
HETATM   32  C1  UNL     1       3.533   4.494   9.373  1.00  0.00     0.017 C 
BRANCH  31  33
HETATM   33  C3  UNL     1       5.033   5.930  10.695  1.00  0.00     0.198 C 
BRANCH  33  34
HETATM   34  O1  UNL     1       5.950   4.871  10.465  1.00  0.00    -0.397 OA
HETATM   35  H5  UNL     1       5.490   4.046  10.705  1.00  0.00     0.209 HD
ENDBRANCH  33  34
ENDBRANCH  31  33
ENDBRANCH   1  31
TORSDOF 7
ENDMDL
MODEL 2
REMARK minimizedAffinity -9.87580204
REMARK CNNscore 0.592080355
REMARK CNNaffinity 7.27787828
REMARK  7 active torsions:
REMARK  status: ('A' for Active; 'I' for Inactive)
REMARK    1  A    between atoms: C2_2  and  C3_3 
REMARK    2  A    between atoms: C2_2  and  C4_5 
REMARK    3  A    between atoms: C3_3  and  O1_4 
REMARK    4  A    between atoms: C13_14  and  C14_15 
REMARK    5  A    between atoms: C14_15  and  C16_17 
REMARK    6  A    between atoms: C16_17  and  C17_18 
REMARK    7  A    between atoms: C17_18  and  C18_20 
ROOT
HETATM    1  C4  UNL     1      -6.088   5.265  12.935  1.00  0.00     0.051 C 
HETATM    2  C5  UNL     1      -4.785   4.424  12.900  1.00  0.00     0.012 C 
HETATM    3  C6  UNL     1      -3.626   4.774  13.832  1.00  0.00     0.006 C 
HETATM    4  C7  UNL     1      -3.000   6.189  13.753  1.00  0.00    -0.001 C 
HETATM    5  C8  UNL     1      -3.870   7.257  13.026  1.00  0.00    -0.007 C 
HETATM    6  C9  UNL     1      -3.154   8.623  12.816  1.00  0.00     0.006 C 
HETATM    7  C10 UNL     1      -1.677   8.565  12.398  1.00  0.00     0.011 C 
HETATM    8  C11 UNL     1      -0.884   7.595  13.285  1.00  0.00    -0.032 C 
HETATM    9  C12 UNL     1      -0.868   8.158  14.741  1.00  0.00     0.016 C 
HETATM   10  C13 UNL     1       0.584   7.283  12.852  1.00  0.00    -0.002 C 
HETATM   11  C22 UNL     1       0.844   5.906  13.529  1.00  0.00     0.006 C 
HETATM   12  C23 UNL     1      -0.525   5.299  13.895  1.00  0.00     0.011 C 
HETATM   13  C24 UNL     1      -1.554   6.170  13.153  1.00  0.00    -0.032 C 
HETATM   14  C25 UNL     1      -1.617   5.628  11.685  1.00  0.00     0.016 C 
HETATM   15  C26 UNL     1      -5.211   7.552  13.737  1.00  0.00     0.044 C 
HETATM   16  C27 UNL     1      -6.171   6.366  14.039  1.00  0.00     0.079 C 
HETATM   17  C28 UNL     1      -6.042   5.911  15.492  1.00  0.00     0.049 C 
HETATM   18  C29 UNL     1      -6.999   6.795  16.260  1.00  0.00     0.114 C 
HETATM   19  C30 UNL     1      -7.991   7.202  15.223  1.00  0.00     0.259 C 
HETATM   20  O3  UNL     1      -9.075   7.717  15.445  1.00  0.00    -0.265 OA
HETATM   21  O4  UNL     1      -7.506   6.943  13.978  1.00  0.00    -0.309 OA
ENDROOT
BRANCH  10  22
HETATM   22  C14 UNL     1       1.726   8.296  13.150  1.00  0.00    -0.007 C 
HETATM   23  C15 UNL     1       1.260   9.506  13.966  1.00  0.00     0.011 C 
BRANCH  22  24
HETATM   24  C16 UNL     1       2.451   8.777  11.867  1.00  0.00     0.087 C 
BRANCH  24  25
HETATM   25  C17 UNL     1       2.794   7.668  10.883  1.00  0.00     0.149 C 
HETATM   26  O2  UNL     1       3.393   6.661  11.250  1.00  0.00    -0.293 OA
BRANCH  25  27
HETATM   27  C18 UNL     1       2.331   7.851   9.471  1.00  0.00     0.052 C 
HETATM   28  C19 UNL     1       2.468   6.956   8.474  1.00  0.00    -0.084 C 
HETATM   29  C20 UNL     1       1.912   7.245   7.104  1.00  0.00     0.043 C 
HETATM   30  C21 UNL     1       3.149   5.623   8.623  1.00  0.00     0.043 C 
ENDBRANCH  25  27
ENDBRANCH  24  25
ENDBRANCH  22  24
ENDBRANCH  10  22
BRANCH   1  31
HETATM   31  C2  UNL     1      -7.293   4.315  12.740  1.00  0.00    -0.059 C 
HETATM   32  C1  UNL     1      -8.575   4.676  12.548  1.00  0.00     0.017 C 
BRANCH  31  33
HETATM   33  C3  UNL     1      -6.950   2.838  12.755  1.00  0.00     0.198 C 
BRANCH  33  34
HETATM   34  O1  UNL     1      -8.148   2.076  12.710  1.00  0.00    -0.397 OA
HETATM   35  H5  UNL     1      -8.792   2.536  13.278  1.00  0.00     0.209 HD
ENDBRANCH  33  34
ENDBRANCH  31  33
ENDBRANCH   1  31
TORSDOF 7
ENDMDL
MODEL 3
REMARK minimizedAffinity -7.38927364
REMARK CNNscore 0.522370756
REMARK CNNaffinity 7.26544762
REMARK  7 active torsions:
REMARK  status: ('A' for Active; 'I' for Inactive)
REMARK    1  A    between atoms: C2_2  and  C3_3 
REMARK    2  A    between atoms: C2_2  and  C4_5 
REMARK    3  A    between atoms: C3_3  and  O1_4 
REMARK    4  A    between atoms: C13_14  and  C14_15 
REMARK    5  A    between atoms: C14_15  and  C16_17 
REMARK    6  A    between atoms: C16_17  and  C17_18 
REMARK    7  A    between atoms: C17_18  and  C18_20 
ROOT
HETATM    1  C4  UNL     1      -7.227   4.661  13.535  1.00  0.00     0.051 C 
HETATM    2  C5  UNL     1      -8.545   5.129  12.862  1.00  0.00     0.012 C 
HETATM    3  C6  UNL     1      -8.866   6.620  12.771  1.00  0.00     0.006 C 
HETATM    4  C7  UNL     1      -8.954   7.450  14.076  1.00  0.00    -0.001 C 
HETATM    5  C8  UNL     1      -8.306   6.787  15.327  1.00  0.00    -0.007 C 
HETATM    6  C9  UNL     1      -8.549   7.561  16.655  1.00  0.00     0.006 C 
HETATM    7  C10 UNL     1      -9.956   8.143  16.859  1.00  0.00     0.011 C 
HETATM    8  C11 UNL     1     -10.430   8.909  15.615  1.00  0.00    -0.032 C 
HETATM    9  C12 UNL     1      -9.505  10.151  15.418  1.00  0.00     0.016 C 
HETATM   10  C13 UNL     1     -11.918   9.384  15.604  1.00  0.00    -0.002 C 
HETATM   11  C22 UNL     1     -12.207   9.531  14.082  1.00  0.00     0.006 C 
HETATM   12  C23 UNL     1     -11.124   8.739  13.321  1.00  0.00     0.011 C 
HETATM   13  C24 UNL     1     -10.419   7.898  14.400  1.00  0.00    -0.032 C 
HETATM   14  C25 UNL     1     -11.306   6.626  14.620  1.00  0.00     0.016 C 
HETATM   15  C26 UNL     1      -6.779   6.579  15.196  1.00  0.00     0.044 C 
HETATM   16  C27 UNL     1      -6.237   5.785  13.974  1.00  0.00     0.079 C 
HETATM   17  C28 UNL     1      -5.726   6.731  12.887  1.00  0.00     0.049 C 
HETATM   18  C29 UNL     1      -4.287   7.008  13.262  1.00  0.00     0.114 C 
HETATM   19  C30 UNL     1      -3.913   5.814  14.075  1.00  0.00     0.259 C 
HETATM   20  O3  UNL     1      -2.775   5.495  14.380  1.00  0.00    -0.265 OA
HETATM   21  O4  UNL     1      -5.028   5.136  14.458  1.00  0.00    -0.309 OA
ENDROOT
BRANCH  10  22
HETATM   22  C14 UNL     1     -12.346  10.652  16.396  1.00  0.00    -0.007 C 
HETATM   23  C15 UNL     1     -12.759  11.817  15.491  1.00  0.00     0.011 C 
BRANCH  22  24
HETATM   24  C16 UNL     1     -11.265  11.125  17.401  1.00  0.00     0.087 C 
BRANCH  24  25
HETATM   25  C17 UNL     1     -11.539  10.744  18.848  1.00  0.00     0.149 C 
HETATM   26  O2  UNL     1     -12.263   9.793  19.125  1.00  0.00    -0.293 OA
BRANCH  25  27
HETATM   27  C18 UNL     1     -10.851  11.556  19.902  1.00  0.00     0.052 C 
HETATM   28  C19 UNL     1     -10.721  11.218  21.199  1.00  0.00    -0.084 C 
HETATM   29  C20 UNL     1      -9.960  12.105  22.149  1.00  0.00     0.043 C 
HETATM   30  C21 UNL     1     -11.285   9.962  21.805  1.00  0.00     0.043 C 
ENDBRANCH  25  27
ENDBRANCH  24  25
ENDBRANCH  22  24
ENDBRANCH  10  22
BRANCH   1  31
HETATM   31  C2  UNL     1      -6.675   3.449  12.747  1.00  0.00    -0.059 C 
HETATM   32  C1  UNL     1      -5.602   3.443  11.934  1.00  0.00     0.017 C 
BRANCH  31  33
HETATM   33  C3  UNL     1      -7.436   2.154  12.952  1.00  0.00     0.198 C 
BRANCH  33  34
HETATM   34  O1  UNL     1      -7.052   1.219  11.955  1.00  0.00    -0.397 OA
HETATM   35  H5  UNL     1      -6.957   1.719  11.125  1.00  0.00     0.209 HD
ENDBRANCH  33  34
ENDBRANCH  31  33
ENDBRANCH   1  31
TORSDOF 7
ENDMDL
MODEL 4
REMARK minimizedAffinity -9.26705074
REMARK CNNscore 0.510804772
REMARK CNNaffinity 7.03493929
REMARK  7 active torsions:
REMARK  status: ('A' for Active; 'I' for Inactive)
REMARK    1  A    between atoms: C2_2  and  C3_3 
REMARK    2  A    between atoms: C2_2  and  C4_5 
REMARK    3  A    between atoms: C3_3  and  O1_4 
REMARK    4  A    between atoms: C13_14  and  C14_15 
REMARK    5  A    between atoms: C14_15  and  C16_17 
REMARK    6  A    between atoms: C16_17  and  C17_18 
REMARK    7  A    between atoms: C17_18  and  C18_20 
ROOT
HETATM    1  C4  UNL     1       2.489   6.207  10.818  1.00  0.00     0.051 C 
HETATM    2  C5  UNL     1       1.511   5.135  11.368  1.00  0.00     0.012 C 
HETATM    3  C6  UNL     1       0.004   5.324  11.204  1.00  0.00     0.006 C 
HETATM    4  C7  UNL     1      -0.664   6.588  11.800  1.00  0.00    -0.001 C 
HETATM    5  C8  UNL     1       0.312   7.749  12.151  1.00  0.00    -0.007 C 
HETATM    6  C9  UNL     1      -0.358   8.939  12.897  1.00  0.00     0.006 C 
HETATM    7  C10 UNL     1      -1.384   8.577  13.981  1.00  0.00     0.011 C 
HETATM    8  C11 UNL     1      -2.392   7.538  13.470  1.00  0.00    -0.032 C 
HETATM    9  C12 UNL     1      -3.230   8.184  12.322  1.00  0.00     0.016 C 
HETATM   10  C13 UNL     1      -3.371   6.927  14.523  1.00  0.00    -0.002 C 
HETATM   11  C22 UNL     1      -3.767   5.574  13.864  1.00  0.00     0.006 C 
HETATM   12  C23 UNL     1      -2.720   5.260  12.776  1.00  0.00     0.011 C 
HETATM   13  C24 UNL     1      -1.575   6.258  13.030  1.00  0.00    -0.032 C 
HETATM   14  C25 UNL     1      -0.694   5.640  14.168  1.00  0.00     0.016 C 
HETATM   15  C26 UNL     1       1.043   8.337  10.922  1.00  0.00     0.044 C 
HETATM   16  C27 UNL     1       1.850   7.375  10.003  1.00  0.00     0.079 C 
HETATM   17  C28 UNL     1       1.046   7.002   8.758  1.00  0.00     0.049 C 
HETATM   18  C29 UNL     1       1.347   8.099   7.761  1.00  0.00     0.114 C 
HETATM   19  C30 UNL     1       2.672   8.615   8.214  1.00  0.00     0.259 C 
HETATM   20  O3  UNL     1       3.409   9.337   7.564  1.00  0.00    -0.265 OA
HETATM   21  O4  UNL     1       2.937   8.186   9.478  1.00  0.00    -0.309 OA
ENDROOT
BRANCH  10  22
HETATM   22  C14 UNL     1      -4.620   7.726  14.994  1.00  0.00    -0.007 C 
HETATM   23  C15 UNL     1      -4.265   8.968  15.816  1.00  0.00     0.011 C 
BRANCH  22  24
HETATM   24  C16 UNL     1      -5.632   6.850  15.776  1.00  0.00     0.087 C 
BRANCH  24  25
HETATM   25  C17 UNL     1      -6.923   6.557  15.027  1.00  0.00     0.149 C 
HETATM   26  O2  UNL     1      -7.699   7.459  14.728  1.00  0.00    -0.293 OA
BRANCH  25  27
HETATM   27  C18 UNL     1      -7.172   5.131  14.643  1.00  0.00     0.052 C 
HETATM   28  C19 UNL     1      -7.731   4.710  13.493  1.00  0.00    -0.084 C 
HETATM   29  C20 UNL     1      -7.881   3.239  13.207  1.00  0.00     0.043 C 
HETATM   30  C21 UNL     1      -8.229   5.628  12.410  1.00  0.00     0.043 C 
ENDBRANCH  25  27
ENDBRANCH  24  25
ENDBRANCH  22  24
ENDBRANCH  10  22
BRANCH   1  31
HETATM   31  C2  UNL     1       3.731   5.489  10.238  1.00  0.00    -0.059 C 
HETATM   32  C1  UNL     1       3.730   4.473   9.356  1.00  0.00     0.017 C 
BRANCH  31  33
HETATM   33  C3  UNL     1       5.063   6.027  10.723  1.00  0.00     0.198 C 
BRANCH  33  34
HETATM   34  O1  UNL     1       6.055   5.019  10.591  1.00  0.00    -0.397 OA
HETATM   35  H5  UNL     1       5.633   4.178  10.844  1.00  0.00     0.209 HD
ENDBRANCH  33  34
ENDBRANCH  31  33
ENDBRANCH   1  31
TORSDOF 7
ENDMDL
MODEL 5
REMARK minimizedAffinity -9.33065891
REMARK CNNscore 0.496637106
REMARK CNNaffinity 7.18959999
REMARK  7 active torsions:
REMARK  status: ('A' for Active; 'I' for Inactive)
REMARK    1  A    between atoms: C2_2  and  C3_3 
REMARK    2  A    between atoms: C2_2  and  C4_5 
REMARK    3  A    between atoms: C3_3  and  O1_4 
REMARK    4  A    between atoms: C13_14  and  C14_15 
REMARK    5  A    between atoms: C14_15  and  C16_17 
REMARK    6  A    between atoms: C16_17  and  C17_18 
REMARK    7  A    between atoms: C17_18  and  C18_20 
ROOT
HETATM    1  C4  UNL     1      -6.110   6.932  14.812  1.00  0.00     0.051 C 
HETATM    2  C5  UNL     1      -5.374   8.198  14.298  1.00  0.00     0.012 C 
HETATM    3  C6  UNL     1      -4.429   8.098  13.102  1.00  0.00     0.006 C 
HETATM    4  C7  UNL     1      -3.220   7.132  13.180  1.00  0.00    -0.001 C 
HETATM    5  C8  UNL     1      -3.307   6.052  14.297  1.00  0.00    -0.007 C 
HETATM    6  C9  UNL     1      -2.014   5.201  14.462  1.00  0.00     0.006 C 
HETATM    7  C10 UNL     1      -0.681   5.958  14.364  1.00  0.00     0.011 C 
HETATM    8  C11 UNL     1      -0.650   6.877  13.135  1.00  0.00    -0.032 C 
HETATM    9  C12 UNL     1      -0.704   5.990  11.852  1.00  0.00     0.016 C 
HETATM   10  C13 UNL     1       0.562   7.856  13.017  1.00  0.00    -0.002 C 
HETATM   11  C22 UNL     1      -0.005   8.977  12.099  1.00  0.00     0.006 C 
HETATM   12  C23 UNL     1      -1.543   8.860  12.113  1.00  0.00     0.011 C 
HETATM   13  C24 UNL     1      -1.854   7.892  13.268  1.00  0.00    -0.032 C 
HETATM   14  C25 UNL     1      -1.828   8.746  14.581  1.00  0.00     0.016 C 
HETATM   15  C26 UNL     1      -4.481   5.062  14.113  1.00  0.00     0.044 C 
HETATM   16  C27 UNL     1      -5.921   5.632  13.969  1.00  0.00     0.079 C 
HETATM   17  C28 UNL     1      -6.348   5.680  12.502  1.00  0.00     0.049 C 
HETATM   18  C29 UNL     1      -6.933   4.313  12.225  1.00  0.00     0.114 C 
HETATM   19  C30 UNL     1      -7.361   3.847  13.576  1.00  0.00     0.259 C 
HETATM   20  O3  UNL     1      -8.102   2.903  13.797  1.00  0.00    -0.265 OA
HETATM   21  O4  UNL     1      -6.784   4.611  14.543  1.00  0.00    -0.309 OA
ENDROOT
BRANCH  10  22
HETATM   22  C14 UNL     1       1.943   7.344  12.516  1.00  0.00    -0.007 C 
HETATM   23  C15 UNL     1       3.095   7.697  13.463  1.00  0.00     0.011 C 
BRANCH  22  24
HETATM   24  C16 UNL     1       2.276   7.826  11.081  1.00  0.00     0.087 C 
BRANCH  24  25
HETATM   25  C17 UNL     1       2.882   6.759  10.182  1.00  0.00     0.149 C 
HETATM   26  O2  UNL     1       3.816   6.062  10.569  1.00  0.00    -0.293 OA
BRANCH  25  27
HETATM   27  C18 UNL     1       2.258   6.579   8.833  1.00  0.00     0.052 C 
HETATM   28  C19 UNL     1       2.356   7.435   7.798  1.00  0.00    -0.084 C 
HETATM   29  C20 UNL     1       1.718   7.111   6.472  1.00  0.00     0.043 C 
HETATM   30  C21 UNL     1       3.096   8.743   7.851  1.00  0.00     0.043 C 
ENDBRANCH  25  27
ENDBRANCH  24  25
ENDBRANCH  22  24
ENDBRANCH  10  22
BRANCH   1  31
HETATM   31  C2  UNL     1      -7.539   7.335  15.247  1.00  0.00    -0.059 C 
HETATM   32  C1  UNL     1      -8.138   8.520  15.033  1.00  0.00     0.017 C 
BRANCH  31  33
HETATM   33  C3  UNL     1      -8.315   6.251  15.970  1.00  0.00     0.198 C 
BRANCH  33  34
HETATM   34  O1  UNL     1      -9.684   6.326  15.601  1.00  0.00    -0.397 OA
HETATM   35  H5  UNL     1      -9.907   7.273  15.549  1.00  0.00     0.209 HD
ENDBRANCH  33  34
ENDBRANCH  31  33
ENDBRANCH   1  31
TORSDOF 7
ENDMDL
MODEL 6
REMARK minimizedAffinity -8.07164955
REMARK CNNscore 0.420316726
REMARK CNNaffinity 7.14583445
REMARK  7 active torsions:
REMARK  status: ('A' for Active; 'I' for Inactive)
REMARK    1  A    between atoms: C2_2  and  C3_3 
REMARK    2  A    between atoms: C2_2  and  C4_5 
REMARK    3  A    between atoms: C3_3  and  O1_4 
REMARK    4  A    between atoms: C13_14  and  C14_15 
REMARK    5  A    between atoms: C14_15  and  C16_17 
REMARK    6  A    between atoms: C16_17  and  C17_18 
REMARK    7  A    between atoms: C17_18  and  C18_20 
ROOT
HETATM    1  C4  UNL     1      -2.368   3.588  12.461  1.00  0.00     0.051 C 
HETATM    2  C5  UNL     1      -3.804   3.439  11.892  1.00  0.00     0.012 C 
HETATM    3  C6  UNL     1      -4.682   4.676  11.707  1.00  0.00     0.006 C 
HETATM    4  C7  UNL     1      -5.002   5.561  12.938  1.00  0.00    -0.001 C 
HETATM    5  C8  UNL     1      -4.069   5.347  14.166  1.00  0.00    -0.007 C 
HETATM    6  C9  UNL     1      -4.508   6.125  15.440  1.00  0.00     0.006 C 
HETATM    7  C10 UNL     1      -6.015   6.152  15.740  1.00  0.00     0.011 C 
HETATM    8  C11 UNL     1      -6.825   6.528  14.491  1.00  0.00    -0.032 C 
HETATM    9  C12 UNL     1      -6.467   7.994  14.092  1.00  0.00     0.016 C 
HETATM   10  C13 UNL     1      -8.379   6.401  14.595  1.00  0.00    -0.002 C 
HETATM   11  C22 UNL     1      -8.799   6.243  13.105  1.00  0.00     0.006 C 
HETATM   12  C23 UNL     1      -7.544   5.835  12.306  1.00  0.00     0.011 C 
HETATM   13  C24 UNL     1      -6.502   5.458  13.374  1.00  0.00    -0.032 C 
HETATM   14  C25 UNL     1      -6.812   3.981  13.794  1.00  0.00     0.016 C 
HETATM   15  C26 UNL     1      -2.592   5.717  13.894  1.00  0.00     0.044 C 
HETATM   16  C27 UNL     1      -1.864   5.047  12.695  1.00  0.00     0.079 C 
HETATM   17  C28 UNL     1      -1.829   5.978  11.484  1.00  0.00     0.049 C 
HETATM   18  C29 UNL     1      -0.589   6.820  11.680  1.00  0.00     0.114 C 
HETATM   19  C30 UNL     1       0.269   5.963  12.549  1.00  0.00     0.259 C 
HETATM   20  O3  UNL     1       1.458   6.137  12.760  1.00  0.00    -0.265 OA
HETATM   21  O4  UNL     1      -0.470   4.965  13.104  1.00  0.00    -0.309 OA
ENDROOT
BRANCH  10  22
HETATM   22  C14 UNL     1      -9.213   7.498  15.316  1.00  0.00    -0.007 C 
HETATM   23  C15 UNL     1      -8.996   7.520  16.832  1.00  0.00     0.011 C 
BRANCH  22  24
HETATM   24  C16 UNL     1     -10.728   7.401  15.003  1.00  0.00     0.087 C 
BRANCH  24  25
HETATM   25  C17 UNL     1     -11.287   8.577  14.217  1.00  0.00     0.149 C 
HETATM   26  O2  UNL     1     -10.749   9.680  14.261  1.00  0.00    -0.293 OA
BRANCH  25  27
HETATM   27  C18 UNL     1     -12.489   8.310  13.365  1.00  0.00     0.052 C 
HETATM   28  C19 UNL     1     -13.310   7.248  13.471  1.00  0.00    -0.084 C 
HETATM   29  C20 UNL     1     -14.518   7.122  12.579  1.00  0.00     0.043 C 
HETATM   30  C21 UNL     1     -13.122   6.130  14.459  1.00  0.00     0.043 C 
ENDBRANCH  25  27
ENDBRANCH  24  25
ENDBRANCH  22  24
ENDBRANCH  10  22
BRANCH   1  31
HETATM   31  C2  UNL     1      -1.442   2.590  11.727  1.00  0.00    -0.059 C 
HETATM   32  C1  UNL     1      -1.808   1.430  11.152  1.00  0.00     0.017 C 
BRANCH  31  33
HETATM   33  C3  UNL     1       0.014   3.006  11.654  1.00  0.00     0.198 C 
BRANCH  33  34
HETATM   34  O1  UNL     1       0.733   2.072  10.861  1.00  0.00    -0.397 OA
HETATM   35  H5  UNL     1       0.384   1.191  11.085  1.00  0.00     0.209 HD
ENDBRANCH  33  34
ENDBRANCH  31  33
ENDBRANCH   1  31
TORSDOF 7
ENDMDL
MODEL 7
REMARK minimizedAffinity -7.3307786
REMARK CNNscore 0.415115416
REMARK CNNaffinity 6.87139654
REMARK  7 active torsions:
REMARK  status: ('A' for Active; 'I' for Inactive)
REMARK    1  A    between atoms: C2_2  and  C3_3 
REMARK    2  A    between atoms: C2_2  and  C4_5 
REMARK    3  A    between atoms: C3_3  and  O1_4 
REMARK    4  A    between atoms: C13_14  and  C14_15 
REMARK    5  A    between atoms: C14_15  and  C16_17 
REMARK    6  A    between atoms: C16_17  and  C17_18 
REMARK    7  A    between atoms: C17_18  and  C18_20 
ROOT
HETATM    1  C4  UNL     1     -11.753   8.550  15.807  1.00  0.00     0.051 C 
HETATM    2  C5  UNL     1     -10.453   9.066  16.477  1.00  0.00     0.012 C 
HETATM    3  C6  UNL     1      -9.221   9.363  15.624  1.00  0.00     0.006 C 
HETATM    4  C7  UNL     1      -8.613   8.227  14.763  1.00  0.00    -0.001 C 
HETATM    5  C8  UNL     1      -9.548   7.005  14.525  1.00  0.00    -0.007 C 
HETATM    6  C9  UNL     1      -8.861   5.811  13.800  1.00  0.00     0.006 C 
HETATM    7  C10 UNL     1      -7.424   5.482  14.234  1.00  0.00     0.011 C 
HETATM    8  C11 UNL     1      -6.553   6.745  14.282  1.00  0.00    -0.032 C 
HETATM    9  C12 UNL     1      -6.416   7.308  12.832  1.00  0.00     0.016 C 
HETATM   10  C13 UNL     1      -5.125   6.593  14.898  1.00  0.00    -0.002 C 
HETATM   11  C22 UNL     1      -4.800   8.048  15.345  1.00  0.00     0.006 C 
HETATM   12  C23 UNL     1      -6.130   8.826  15.405  1.00  0.00     0.011 C 
HETATM   13  C24 UNL     1      -7.223   7.748  15.302  1.00  0.00    -0.032 C 
HETATM   14  C25 UNL     1      -7.408   7.165  16.744  1.00  0.00     0.016 C 
HETATM   15  C26 UNL     1     -10.826   7.348  13.725  1.00  0.00     0.044 C 
HETATM   16  C27 UNL     1     -11.749   8.485  14.247  1.00  0.00     0.079 C 
HETATM   17  C28 UNL     1     -11.494   9.790  13.493  1.00  0.00     0.049 C 
HETATM   18  C29 UNL     1     -12.387   9.713  12.276  1.00  0.00     0.114 C 
HETATM   19  C30 UNL     1     -13.467   8.777  12.705  1.00  0.00     0.259 C 
HETATM   20  O3  UNL     1     -14.531   8.613  12.131  1.00  0.00    -0.265 OA
HETATM   21  O4  UNL     1     -13.087   8.101  13.824  1.00  0.00    -0.309 OA
ENDROOT
BRANCH  10  22
HETATM   22  C14 UNL     1      -3.968   5.975  14.062  1.00  0.00    -0.007 C 
HETATM   23  C15 UNL     1      -2.921   5.259  14.921  1.00  0.00     0.011 C 
BRANCH  22  24
HETATM   24  C16 UNL     1      -3.273   7.011  13.143  1.00  0.00     0.087 C 
BRANCH  24  25
HETATM   25  C17 UNL     1      -1.778   7.164  13.381  1.00  0.00     0.149 C 
HETATM   26  O2  UNL     1      -1.353   7.813  14.333  1.00  0.00    -0.293 OA
BRANCH  25  27
HETATM   27  C18 UNL     1      -0.866   6.455  12.428  1.00  0.00     0.052 C 
HETATM   28  C19 UNL     1      -0.220   7.017  11.389  1.00  0.00    -0.084 C 
HETATM   29  C20 UNL     1       0.711   6.199  10.532  1.00  0.00     0.043 C 
HETATM   30  C21 UNL     1      -0.343   8.465  11.001  1.00  0.00     0.043 C 
ENDBRANCH  25  27
ENDBRANCH  24  25
ENDBRANCH  22  24
ENDBRANCH  10  22
BRANCH   1  31
HETATM   31  C2  UNL     1     -12.966   9.194  16.521  1.00  0.00    -0.059 C 
HETATM   32  C1  UNL     1     -13.079  10.477  16.907  1.00  0.00     0.017 C 
BRANCH  31  33
HETATM   33  C3  UNL     1     -14.128   8.254  16.778  1.00  0.00     0.198 C 
BRANCH  33  34
HETATM   34  O1  UNL     1     -14.152   7.900  18.153  1.00  0.00    -0.397 OA
HETATM   35  H5  UNL     1     -13.225   7.777  18.426  1.00  0.00     0.209 HD
ENDBRANCH  33  34
ENDBRANCH  31  33
ENDBRANCH   1  31
TORSDOF 7
ENDMDL
MODEL 8
REMARK minimizedAffinity -8.14912891
REMARK CNNscore 0.405668169
REMARK CNNaffinity 6.96568251
REMARK  7 active torsions:
REMARK  status: ('A' for Active; 'I' for Inactive)
REMARK    1  A    between atoms: C2_2  and  C3_3 
REMARK    2  A    between atoms: C2_2  and  C4_5 
REMARK    3  A    between atoms: C3_3  and  O1_4 
REMARK    4  A    between atoms: C13_14  and  C14_15 
REMARK    5  A    between atoms: C14_15  and  C16_17 
REMARK    6  A    between atoms: C16_17  and  C17_18 
REMARK    7  A    between atoms: C17_18  and  C18_20 
ROOT
HETATM    1  C4  UNL     1      -5.339   4.885  13.577  1.00  0.00     0.051 C 
HETATM    2  C5  UNL     1      -4.886   6.369  13.557  1.00  0.00     0.012 C 
HETATM    3  C6  UNL     1      -3.862   6.840  12.527  1.00  0.00     0.006 C 
HETATM    4  C7  UNL     1      -2.468   6.163  12.490  1.00  0.00    -0.001 C 
HETATM    5  C8  UNL     1      -2.379   4.794  13.225  1.00  0.00    -0.007 C 
HETATM    6  C9  UNL     1      -0.937   4.213  13.314  1.00  0.00     0.006 C 
HETATM    7  C10 UNL     1       0.185   5.215  13.626  1.00  0.00     0.011 C 
HETATM    8  C11 UNL     1       0.087   6.459  12.731  1.00  0.00    -0.032 C 
HETATM    9  C12 UNL     1       0.333   6.025  11.252  1.00  0.00     0.016 C 
HETATM   10  C13 UNL     1       1.041   7.649  13.070  1.00  0.00    -0.002 C 
HETATM   11  C22 UNL     1       0.293   8.862  12.445  1.00  0.00     0.006 C 
HETATM   12  C23 UNL     1      -1.171   8.439  12.211  1.00  0.00     0.011 C 
HETATM   13  C24 UNL     1      -1.328   7.116  12.982  1.00  0.00    -0.032 C 
HETATM   14  C25 UNL     1      -1.596   7.504  14.476  1.00  0.00     0.016 C 
HETATM   15  C26 UNL     1      -3.272   3.696  12.601  1.00  0.00     0.044 C 
HETATM   16  C27 UNL     1      -4.791   3.979  12.429  1.00  0.00     0.079 C 
HETATM   17  C28 UNL     1      -5.113   4.396  10.994  1.00  0.00     0.049 C 
HETATM   18  C29 UNL     1      -5.340   3.096  10.256  1.00  0.00     0.114 C 
HETATM   19  C30 UNL     1      -5.742   2.155  11.342  1.00  0.00     0.259 C 
HETATM   20  O3  UNL     1      -6.254   1.061  11.176  1.00  0.00    -0.265 OA
HETATM   21  O4  UNL     1      -5.430   2.679  12.559  1.00  0.00    -0.309 OA
ENDROOT
BRANCH  10  22
HETATM   22  C14 UNL     1       2.535   7.608  12.640  1.00  0.00    -0.007 C 
HETATM   23  C15 UNL     1       3.502   7.849  13.803  1.00  0.00     0.011 C 
BRANCH  22  24
HETATM   24  C16 UNL     1       2.852   8.588  11.482  1.00  0.00     0.087 C 
BRANCH  24  25
HETATM   25  C17 UNL     1       3.601   7.964  10.314  1.00  0.00     0.149 C 
HETATM   26  O2  UNL     1       4.679   7.402  10.483  1.00  0.00    -0.293 OA
BRANCH  25  27
HETATM   27  C18 UNL     1       2.940   8.035   8.972  1.00  0.00     0.052 C 
HETATM   28  C19 UNL     1       2.632   6.984   8.188  1.00  0.00    -0.084 C 
HETATM   29  C20 UNL     1       1.921   7.190   6.876  1.00  0.00     0.043 C 
HETATM   30  C21 UNL     1       2.940   5.553   8.534  1.00  0.00     0.043 C 
ENDBRANCH  25  27
ENDBRANCH  24  25
ENDBRANCH  22  24
ENDBRANCH  10  22
BRANCH   1  31
HETATM   31  C2  UNL     1      -6.850   4.835  13.907  1.00  0.00    -0.059 C 
HETATM   32  C1  UNL     1      -7.709   5.870  13.888  1.00  0.00     0.017 C 
BRANCH  31  33
HETATM   33  C3  UNL     1      -7.379   3.460  14.264  1.00  0.00     0.198 C 
BRANCH  33  34
HETATM   34  O1  UNL     1      -8.406   3.098  13.352  1.00  0.00    -0.397 OA
HETATM   35  H5  UNL     1      -8.928   3.904  13.186  1.00  0.00     0.209 HD
ENDBRANCH  33  34
ENDBRANCH  31  33
ENDBRANCH   1  31
TORSDOF 7
ENDMDL
MODEL 9
REMARK minimizedAffinity -8.23814774
REMARK CNNscore 0.397469223
REMARK CNNaffinity 6.8081584
REMARK  7 active torsions:
REMARK  status: ('A' for Active; 'I' for Inactive)
REMARK    1  A    between atoms: C2_2  and  C3_3 
REMARK    2  A    between atoms: C2_2  and  C4_5 
REMARK    3  A    between atoms: C3_3  and  O1_4 
REMARK    4  A    between atoms: C13_14  and  C14_15 
REMARK    5  A    between atoms: C14_15  and  C16_17 
REMARK    6  A    between atoms: C16_17  and  C17_18 
REMARK    7  A    between atoms: C17_18  and  C18_20 
ROOT
HETATM    1  C4  UNL     1      -6.904   6.349  14.514  1.00  0.00     0.051 C 
HETATM    2  C5  UNL     1      -6.297   7.731  14.155  1.00  0.00     0.012 C 
HETATM    3  C6  UNL     1      -5.174   7.826  13.124  1.00  0.00     0.006 C 
HETATM    4  C7  UNL     1      -3.860   7.043  13.370  1.00  0.00    -0.001 C 
HETATM    5  C8  UNL     1      -3.955   5.910  14.433  1.00  0.00    -0.007 C 
HETATM    6  C9  UNL     1      -2.590   5.249  14.782  1.00  0.00     0.006 C 
HETATM    7  C10 UNL     1      -1.387   6.194  14.917  1.00  0.00     0.011 C 
HETATM    8  C11 UNL     1      -1.305   7.166  13.731  1.00  0.00    -0.032 C 
HETATM    9  C12 UNL     1      -1.026   6.342  12.435  1.00  0.00     0.016 C 
HETATM   10  C13 UNL     1      -0.251   8.315  13.832  1.00  0.00    -0.002 C 
HETATM   11  C22 UNL     1      -0.831   9.384  12.862  1.00  0.00     0.006 C 
HETATM   12  C23 UNL     1      -2.318   9.045  12.627  1.00  0.00     0.011 C 
HETATM   13  C24 UNL     1      -2.654   7.988  13.694  1.00  0.00    -0.032 C 
HETATM   14  C25 UNL     1      -2.960   8.773  15.014  1.00  0.00     0.016 C 
HETATM   15  C26 UNL     1      -4.924   4.770  14.040  1.00  0.00     0.044 C 
HETATM   16  C27 UNL     1      -6.393   5.132  13.681  1.00  0.00     0.079 C 
HETATM   17  C28 UNL     1      -6.591   5.188  12.167  1.00  0.00     0.049 C 
HETATM   18  C29 UNL     1      -6.914   3.765  11.767  1.00  0.00     0.114 C 
HETATM   19  C30 UNL     1      -7.470   3.178  13.020  1.00  0.00     0.259 C 
HETATM   20  O3  UNL     1      -8.085   2.127  13.096  1.00  0.00    -0.265 OA
HETATM   21  O4  UNL     1      -7.172   3.971  14.085  1.00  0.00    -0.309 OA
ENDROOT
BRANCH  10  22
HETATM   22  C14 UNL     1       1.252   8.033  13.546  1.00  0.00    -0.007 C 
HETATM   23  C15 UNL     1       2.114   9.299  13.556  1.00  0.00     0.011 C 
BRANCH  22  24
HETATM   24  C16 UNL     1       1.475   7.255  12.224  1.00  0.00     0.087 C 
BRANCH  24  25
HETATM   25  C17 UNL     1       2.101   8.076  11.107  1.00  0.00     0.149 C 
HETATM   26  O2  UNL     1       1.402   8.638  10.268  1.00  0.00    -0.293 OA
BRANCH  25  27
HETATM   27  C18 UNL     1       3.594   8.195  11.110  1.00  0.00     0.052 C 
HETATM   28  C19 UNL     1       4.461   7.251  10.697  1.00  0.00    -0.084 C 
HETATM   29  C20 UNL     1       5.944   7.517  10.707  1.00  0.00     0.043 C 
HETATM   30  C21 UNL     1       4.054   5.896  10.187  1.00  0.00     0.043 C 
ENDBRANCH  25  27
ENDBRANCH  24  25
ENDBRANCH  22  24
ENDBRANCH  10  22
BRANCH   1  31
HETATM   31  C2  UNL     1      -8.428   6.519  14.725  1.00  0.00    -0.059 C 
HETATM   32  C1  UNL     1      -9.368   6.575  13.764  1.00  0.00     0.017 C 
BRANCH  31  33
HETATM   33  C3  UNL     1      -8.865   6.611  16.174  1.00  0.00     0.198 C 
BRANCH  33  34
HETATM   34  O1  UNL     1      -9.692   7.753  16.345  1.00  0.00    -0.397 OA
HETATM   35  H5  UNL     1      -9.303   8.462  15.803  1.00  0.00     0.209 HD
ENDBRANCH  33  34
ENDBRANCH  31  33
ENDBRANCH   1  31
TORSDOF 7
ENDMDL
