MODEL 1
REMARK minimizedAffinity -7.489048
REMARK CNNscore 0.846317589
REMARK CNNaffinity 7.30079985
REMARK  13 active torsions:
REMARK  status: ('A' for Active; 'I' for Inactive)
REMARK    1  A    between atoms: C5_5  and  C6_6 
REMARK    2  A    between atoms: C6_6  and  C8_8 
REMARK    3  A    between atoms: C8_8  and  O1_9 
REMARK    4  A    between atoms: C13_15  and  O3_17 
REMARK    5  A    between atoms: C15_18  and  O4_19 
REMARK    6  A    between atoms: C18_22  and  O5_24 
REMARK    7  A    between atoms: O5_24  and  C20_25 
REMARK    8  A    between atoms: C20_25  and  C21_27 
REMARK    9  A    between atoms: C21_27  and  C22_28 
REMARK   10  A    between atoms: C21_27  and  O7_30 
REMARK   11  A    between atoms: O7_30  and  C24_31 
REMARK   12  A    between atoms: C24_31  and  C25_33 
REMARK   13  A    between atoms: C25_33  and  C26_34 
ROOT
HETATM    1  C1  UNL     1       1.663   9.542  13.635  1.00  0.00     0.015 C 
HETATM    2  C2  UNL     1       0.840   8.479  13.660  1.00  0.00    -0.082 C 
HETATM    3  C3  UNL     1       1.329   7.106  14.023  1.00  0.00     0.034 C 
HETATM    4  C4  UNL     1       1.036   6.071  12.928  1.00  0.00     0.010 C 
HETATM    5  C5  UNL     1      -0.157   6.398  11.989  1.00  0.00    -0.001 C 
HETATM    6  C9  UNL     1      -1.220   7.258  12.724  1.00  0.00     0.033 C 
HETATM    7  C10 UNL     1      -1.867   6.580  13.979  1.00  0.00     0.162 C 
HETATM    8  O2  UNL     1      -1.679   7.531  15.042  1.00  0.00    -0.376 OA
HETATM    9  C11 UNL     1      -1.592   8.809  14.402  1.00  0.00     0.133 C 
HETATM   10  C12 UNL     1      -1.428   9.896  15.431  1.00  0.00     0.072 C 
HETATM   11  C13 UNL     1      -2.616   9.899  16.448  1.00  0.00     0.082 C 
HETATM   12  C14 UNL     1      -2.647  11.300  17.090  1.00  0.00     0.049 C 
HETATM   13  C15 UNL     1      -4.045   9.562  15.869  1.00  0.00     0.152 C 
HETATM   14  C16 UNL     1      -4.397   8.058  15.648  1.00  0.00     0.038 C 
HETATM   15  C17 UNL     1      -4.369   7.434  14.222  1.00  0.00     0.043 C 
HETATM   16  C18 UNL     1      -3.398   6.222  13.942  1.00  0.00     0.093 C 
HETATM   17  C19 UNL     1      -3.707   5.124  14.991  1.00  0.00     0.049 C 
HETATM   18  C28 UNL     1      -0.618   8.583  13.263  1.00  0.00     0.050 C 
ENDROOT
BRANCH  16  19
HETATM   19  O5  UNL     1      -3.821   5.750  12.623  1.00  0.00    -0.306 OA
BRANCH  19  20
HETATM   20  C20 UNL     1      -3.689   4.448  12.250  1.00  0.00     0.289 C 
HETATM   21  O6  UNL     1      -2.637   3.908  11.931  1.00  0.00    -0.262 OA
BRANCH  20  22
HETATM   22  C21 UNL     1      -5.047   3.735  12.325  1.00  0.00     0.231 C 
BRANCH  22  23
HETATM   23  C22 UNL     1      -5.354   2.982  11.020  1.00  0.00     0.038 C 
HETATM   24  C23 UNL     1      -5.764   1.529  11.235  1.00  0.00     0.008 C 
ENDBRANCH  22  23
BRANCH  22  25
HETATM   25  O7  UNL     1      -6.131   4.648  12.552  1.00  0.00    -0.306 OA
BRANCH  25  26
HETATM   26  C24 UNL     1      -6.983   4.322  13.559  1.00  0.00     0.259 C 
HETATM   27  O8  UNL     1      -7.305   3.185  13.880  1.00  0.00    -0.265 OA
BRANCH  26  28
HETATM   28  C25 UNL     1      -7.505   5.568  14.227  1.00  0.00     0.111 C 
BRANCH  28  29
HETATM   29  C26 UNL     1      -7.691   5.389  15.730  1.00  0.00     0.005 C 
HETATM   30  C27 UNL     1      -7.436   6.672  16.506  1.00  0.00     0.005 C 
ENDBRANCH  28  29
ENDBRANCH  26  28
ENDBRANCH  25  26
ENDBRANCH  22  25
ENDBRANCH  20  22
ENDBRANCH  19  20
ENDBRANCH  16  19
BRANCH   5  31
HETATM   31  C6  UNL     1       0.326   7.035  10.636  1.00  0.00     0.010 C 
HETATM   32  C7  UNL     1      -0.326   8.410  10.396  1.00  0.00     0.012 C 
BRANCH  31  33
HETATM   33  C8  UNL     1       1.856   7.193  10.526  1.00  0.00     0.168 C 
BRANCH  33  34
HETATM   34  O1  UNL     1       2.264   7.845   9.331  1.00  0.00    -0.400 OA
HETATM   35  H14 UNL     1       1.813   7.414   8.573  1.00  0.00     0.209 HD
ENDBRANCH  33  34
ENDBRANCH  31  33
ENDBRANCH   5  31
BRANCH  13  36
HETATM   36  O4  UNL     1      -4.351  10.339  14.713  1.00  0.00    -0.393 OA
HETATM   37  H25 UNL     1      -4.690  11.198  15.018  1.00  0.00     0.210 HD
ENDBRANCH  13  36
BRANCH  11  38
HETATM   38  O3  UNL     1      -2.364   8.999  17.538  1.00  0.00    -0.388 OA
HETATM   39  H23 UNL     1      -1.408   8.820  17.589  1.00  0.00     0.210 HD
ENDBRANCH  11  38
TORSDOF 13
ENDMDL
MODEL 2
REMARK minimizedAffinity -5.57768106
REMARK CNNscore 0.48916468
REMARK CNNaffinity 6.05436754
REMARK  13 active torsions:
REMARK  status: ('A' for Active; 'I' for Inactive)
REMARK    1  A    between atoms: C5_5  and  C6_6 
REMARK    2  A    between atoms: C6_6  and  C8_8 
REMARK    3  A    between atoms: C8_8  and  O1_9 
REMARK    4  A    between atoms: C13_15  and  O3_17 
REMARK    5  A    between atoms: C15_18  and  O4_19 
REMARK    6  A    between atoms: C18_22  and  O5_24 
REMARK    7  A    between atoms: O5_24  and  C20_25 
REMARK    8  A    between atoms: C20_25  and  C21_27 
REMARK    9  A    between atoms: C21_27  and  C22_28 
REMARK   10  A    between atoms: C21_27  and  O7_30 
REMARK   11  A    between atoms: O7_30  and  C24_31 
REMARK   12  A    between atoms: C24_31  and  C25_33 
REMARK   13  A    between atoms: C25_33  and  C26_34 
ROOT
HETATM    1  C1  UNL     1       5.190  15.114  -4.930  1.00  0.00     0.015 C 
HETATM    2  C2  UNL     1       4.613  14.645  -3.811  1.00  0.00    -0.082 C 
HETATM    3  C3  UNL     1       4.530  13.175  -3.515  1.00  0.00     0.034 C 
HETATM    4  C4  UNL     1       3.089  12.703  -3.283  1.00  0.00     0.010 C 
HETATM    5  C5  UNL     1       2.091  13.791  -2.797  1.00  0.00    -0.001 C 
HETATM    6  C9  UNL     1       2.823  14.888  -1.980  1.00  0.00     0.033 C 
HETATM    7  C10 UNL     1       3.534  14.381  -0.680  1.00  0.00     0.162 C 
HETATM    8  O2  UNL     1       4.891  14.844  -0.804  1.00  0.00    -0.376 OA
HETATM    9  C11 UNL     1       4.826  16.001  -1.644  1.00  0.00     0.133 C 
HETATM   10  C12 UNL     1       6.198  16.596  -1.818  1.00  0.00     0.072 C 
HETATM   11  C13 UNL     1       6.827  16.983  -0.440  1.00  0.00     0.082 C 
HETATM   12  C14 UNL     1       7.927  18.023  -0.731  1.00  0.00     0.049 C 
HETATM   13  C15 UNL     1       5.843  17.561   0.651  1.00  0.00     0.152 C 
HETATM   14  C16 UNL     1       4.989  16.539   1.465  1.00  0.00     0.038 C 
HETATM   15  C17 UNL     1       3.484  16.317   1.137  1.00  0.00     0.043 C 
HETATM   16  C18 UNL     1       3.002  14.875   0.716  1.00  0.00     0.093 C 
HETATM   17  C19 UNL     1       3.449  13.892   1.827  1.00  0.00     0.049 C 
HETATM   18  C28 UNL     1       3.953  15.564  -2.803  1.00  0.00     0.050 C 
ENDROOT
BRANCH  16  19
HETATM   19  O5  UNL     1       1.544  14.987   0.741  1.00  0.00    -0.306 OA
BRANCH  19  20
HETATM   20  C20 UNL     1       0.893  15.689   1.708  1.00  0.00     0.289 C 
HETATM   21  O6  UNL     1       0.745  16.905   1.719  1.00  0.00    -0.262 OA
BRANCH  20  22
HETATM   22  C21 UNL     1       0.331  14.733   2.770  1.00  0.00     0.231 C 
BRANCH  22  23
HETATM   23  C22 UNL     1      -1.020  14.145   2.330  1.00  0.00     0.038 C 
HETATM   24  C23 UNL     1      -1.170  12.659   2.642  1.00  0.00     0.008 C 
ENDBRANCH  22  23
BRANCH  22  25
HETATM   25  O7  UNL     1       0.118  15.383   4.032  1.00  0.00    -0.306 OA
BRANCH  25  26
HETATM   26  C24 UNL     1       0.720  14.809   5.107  1.00  0.00     0.259 C 
HETATM   27  O8  UNL     1       1.626  13.987   5.060  1.00  0.00    -0.265 OA
BRANCH  26  28
HETATM   28  C25 UNL     1       0.101  15.312   6.385  1.00  0.00     0.111 C 
BRANCH  28  29
HETATM   29  C26 UNL     1      -1.029  16.305   6.135  1.00  0.00     0.005 C 
HETATM   30  C27 UNL     1      -2.397  15.730   6.472  1.00  0.00     0.005 C 
ENDBRANCH  28  29
ENDBRANCH  26  28
ENDBRANCH  25  26
ENDBRANCH  22  25
ENDBRANCH  20  22
ENDBRANCH  19  20
ENDBRANCH  16  19
BRANCH   5  31
HETATM   31  C6  UNL     1       1.239  14.369  -3.984  1.00  0.00     0.010 C 
HETATM   32  C7  UNL     1       1.317  13.462  -5.228  1.00  0.00     0.012 C 
BRANCH  31  33
HETATM   33  C8  UNL     1      -0.246  14.599  -3.640  1.00  0.00     0.168 C 
BRANCH  33  34
HETATM   34  O1  UNL     1      -0.816  13.532  -2.895  1.00  0.00    -0.400 OA
HETATM   35  H14 UNL     1      -0.598  12.687  -3.345  1.00  0.00     0.209 HD
ENDBRANCH  33  34
ENDBRANCH  31  33
ENDBRANCH   5  31
BRANCH  13  36
HETATM   36  O4  UNL     1       5.033  18.616   0.136  1.00  0.00    -0.393 OA
HETATM   37  H25 UNL     1       5.552  19.436   0.188  1.00  0.00     0.210 HD
ENDBRANCH  13  36
BRANCH  11  38
HETATM   38  O3  UNL     1       7.519  15.868   0.144  1.00  0.00    -0.388 OA
HETATM   39  H23 UNL     1       7.723  15.220  -0.554  1.00  0.00     0.210 HD
ENDBRANCH  11  38
TORSDOF 13
ENDMDL
MODEL 3
REMARK minimizedAffinity -7.79088736
REMARK CNNscore 0.481576771
REMARK CNNaffinity 6.88461304
REMARK  13 active torsions:
REMARK  status: ('A' for Active; 'I' for Inactive)
REMARK    1  A    between atoms: C5_5  and  C6_6 
REMARK    2  A    between atoms: C6_6  and  C8_8 
REMARK    3  A    between atoms: C8_8  and  O1_9 
REMARK    4  A    between atoms: C13_15  and  O3_17 
REMARK    5  A    between atoms: C15_18  and  O4_19 
REMARK    6  A    between atoms: C18_22  and  O5_24 
REMARK    7  A    between atoms: O5_24  and  C20_25 
REMARK    8  A    between atoms: C20_25  and  C21_27 
REMARK    9  A    between atoms: C21_27  and  C22_28 
REMARK   10  A    between atoms: C21_27  and  O7_30 
REMARK   11  A    between atoms: O7_30  and  C24_31 
REMARK   12  A    between atoms: C24_31  and  C25_33 
REMARK   13  A    between atoms: C25_33  and  C26_34 
ROOT
HETATM    1  C1  UNL     1      -3.033   9.453  16.390  1.00  0.00     0.015 C 
HETATM    2  C2  UNL     1      -2.833   8.942  15.163  1.00  0.00    -0.082 C 
HETATM    3  C3  UNL     1      -3.498   9.517  13.945  1.00  0.00     0.034 C 
HETATM    4  C4  UNL     1      -4.317   8.472  13.176  1.00  0.00     0.010 C 
HETATM    5  C5  UNL     1      -3.877   6.994  13.365  1.00  0.00    -0.001 C 
HETATM    6  C9  UNL     1      -2.358   6.904  13.670  1.00  0.00     0.033 C 
HETATM    7  C10 UNL     1      -1.423   7.463  12.544  1.00  0.00     0.162 C 
HETATM    8  O2  UNL     1      -0.579   8.416  13.213  1.00  0.00    -0.376 OA
HETATM    9  C11 UNL     1      -0.525   7.989  14.578  1.00  0.00     0.133 C 
HETATM   10  C12 UNL     1       0.368   8.902  15.374  1.00  0.00     0.072 C 
HETATM   11  C13 UNL     1       1.814   8.943  14.780  1.00  0.00     0.082 C 
HETATM   12  C14 UNL     1       2.743   9.437  15.906  1.00  0.00     0.049 C 
HETATM   13  C15 UNL     1       2.379   7.589  14.198  1.00  0.00     0.152 C 
HETATM   14  C16 UNL     1       1.930   7.178  12.761  1.00  0.00     0.038 C 
HETATM   15  C17 UNL     1       0.845   6.083  12.546  1.00  0.00     0.043 C 
HETATM   16  C18 UNL     1      -0.479   6.464  11.778  1.00  0.00     0.093 C 
HETATM   17  C19 UNL     1      -0.068   7.071  10.413  1.00  0.00     0.049 C 
HETATM   18  C28 UNL     1      -1.972   7.717  14.935  1.00  0.00     0.050 C 
ENDROOT
BRANCH  16  19
HETATM   19  O5  UNL     1      -1.119   5.169  11.547  1.00  0.00    -0.306 OA
BRANCH  19  20
HETATM   20  C20 UNL     1      -0.395   4.026  11.398  1.00  0.00     0.289 C 
HETATM   21  O6  UNL     1       0.790   3.976  11.093  1.00  0.00    -0.262 OA
BRANCH  20  22
HETATM   22  C21 UNL     1      -1.267   2.802  11.709  1.00  0.00     0.231 C 
BRANCH  22  23
HETATM   23  C22 UNL     1      -1.418   1.896  10.476  1.00  0.00     0.038 C 
HETATM   24  C23 UNL     1      -0.585   0.620  10.550  1.00  0.00     0.008 C 
ENDBRANCH  22  23
BRANCH  22  25
HETATM   25  O7  UNL     1      -2.591   3.167  12.129  1.00  0.00    -0.306 OA
BRANCH  25  26
HETATM   26  C24 UNL     1      -3.589   2.324  11.755  1.00  0.00     0.259 C 
HETATM   27  O8  UNL     1      -3.605   1.114  11.940  1.00  0.00    -0.265 OA
BRANCH  26  28
HETATM   28  C25 UNL     1      -4.682   3.086  11.052  1.00  0.00     0.111 C 
BRANCH  28  29
HETATM   29  C26 UNL     1      -5.648   3.752  12.026  1.00  0.00     0.005 C 
HETATM   30  C27 UNL     1      -6.801   2.841  12.419  1.00  0.00     0.005 C 
ENDBRANCH  28  29
ENDBRANCH  26  28
ENDBRANCH  25  26
ENDBRANCH  22  25
ENDBRANCH  20  22
ENDBRANCH  19  20
ENDBRANCH  16  19
BRANCH   5  31
HETATM   31  C6  UNL     1      -4.766   6.256  14.431  1.00  0.00     0.010 C 
HETATM   32  C7  UNL     1      -3.950   5.881  15.683  1.00  0.00     0.012 C 
BRANCH  31  33
HETATM   33  C8  UNL     1      -6.007   7.054  14.876  1.00  0.00     0.168 C 
BRANCH  33  34
HETATM   34  O1  UNL     1      -5.907   7.543  16.207  1.00  0.00    -0.400 OA
HETATM   35  H14 UNL     1      -5.631   6.802  16.790  1.00  0.00     0.209 HD
ENDBRANCH  33  34
ENDBRANCH  31  33
ENDBRANCH   5  31
BRANCH  13  36
HETATM   36  O4  UNL     1       2.226   6.507  15.115  1.00  0.00    -0.393 OA
HETATM   37  H25 UNL     1       2.975   6.539  15.735  1.00  0.00     0.210 HD
ENDBRANCH  13  36
BRANCH  11  38
HETATM   38  O3  UNL     1       1.921   9.938  13.750  1.00  0.00    -0.388 OA
HETATM   39  H23 UNL     1       1.194  10.578  13.850  1.00  0.00     0.210 HD
ENDBRANCH  11  38
TORSDOF 13
ENDMDL
MODEL 4
REMARK minimizedAffinity -7.241436
REMARK CNNscore 0.466570199
REMARK CNNaffinity 6.43486357
REMARK  13 active torsions:
REMARK  status: ('A' for Active; 'I' for Inactive)
REMARK    1  A    between atoms: C5_5  and  C6_6 
REMARK    2  A    between atoms: C6_6  and  C8_8 
REMARK    3  A    between atoms: C8_8  and  O1_9 
REMARK    4  A    between atoms: C13_15  and  O3_17 
REMARK    5  A    between atoms: C15_18  and  O4_19 
REMARK    6  A    between atoms: C18_22  and  O5_24 
REMARK    7  A    between atoms: O5_24  and  C20_25 
REMARK    8  A    between atoms: C20_25  and  C21_27 
REMARK    9  A    between atoms: C21_27  and  C22_28 
REMARK   10  A    between atoms: C21_27  and  O7_30 
REMARK   11  A    between atoms: O7_30  and  C24_31 
REMARK   12  A    between atoms: C24_31  and  C25_33 
REMARK   13  A    between atoms: C25_33  and  C26_34 
ROOT
HETATM    1  C1  UNL     1      -3.620   8.799  15.939  1.00  0.00     0.015 C 
HETATM    2  C2  UNL     1      -2.682   8.715  14.980  1.00  0.00    -0.082 C 
HETATM    3  C3  UNL     1      -2.921   9.227  13.588  1.00  0.00     0.034 C 
HETATM    4  C4  UNL     1      -2.709   8.145  12.522  1.00  0.00     0.010 C 
HETATM    5  C5  UNL     1      -1.757   6.982  12.917  1.00  0.00    -0.001 C 
HETATM    6  C9  UNL     1      -0.693   7.461  13.940  1.00  0.00     0.033 C 
HETATM    7  C10 UNL     1       0.252   8.600  13.426  1.00  0.00     0.162 C 
HETATM    8  O2  UNL     1       0.146   9.635  14.420  1.00  0.00    -0.376 OA
HETATM    9  C11 UNL     1      -0.214   8.966  15.633  1.00  0.00     0.133 C 
HETATM   10  C12 UNL     1      -0.320   9.957  16.762  1.00  0.00     0.072 C 
HETATM   11  C13 UNL     1       1.024  10.728  16.968  1.00  0.00     0.082 C 
HETATM   12  C14 UNL     1       0.999  11.289  18.404  1.00  0.00     0.049 C 
HETATM   13  C15 UNL     1       2.354   9.904  16.756  1.00  0.00     0.152 C 
HETATM   14  C16 UNL     1       2.843   9.688  15.290  1.00  0.00     0.038 C 
HETATM   15  C17 UNL     1       2.631   8.324  14.572  1.00  0.00     0.043 C 
HETATM   16  C18 UNL     1       1.783   8.288  13.241  1.00  0.00     0.093 C 
HETATM   17  C19 UNL     1       2.413   9.308  12.260  1.00  0.00     0.049 C 
HETATM   18  C28 UNL     1      -1.345   8.045  15.222  1.00  0.00     0.050 C 
ENDROOT
BRANCH  16  19
HETATM   19  O5  UNL     1       2.012   6.936  12.732  1.00  0.00    -0.306 OA
BRANCH  19  20
HETATM   20  C20 UNL     1       1.814   6.618  11.424  1.00  0.00     0.289 C 
HETATM   21  O6  UNL     1       0.733   6.640  10.848  1.00  0.00    -0.262 OA
BRANCH  20  22
HETATM   22  C21 UNL     1       3.151   6.267  10.756  1.00  0.00     0.231 C 
BRANCH  22  23
HETATM   23  C22 UNL     1       4.340   6.770  11.590  1.00  0.00     0.038 C 
HETATM   24  C23 UNL     1       5.692   6.267  11.092  1.00  0.00     0.008 C 
ENDBRANCH  22  23
BRANCH  22  25
HETATM   25  O7  UNL     1       3.277   6.848   9.448  1.00  0.00    -0.306 OA
BRANCH  25  26
HETATM   26  C24 UNL     1       2.942   6.045   8.405  1.00  0.00     0.259 C 
HETATM   27  O8  UNL     1       3.268   4.872   8.276  1.00  0.00    -0.265 OA
BRANCH  26  28
HETATM   28  C25 UNL     1       2.118   6.809   7.400  1.00  0.00     0.111 C 
BRANCH  28  29
HETATM   29  C26 UNL     1       1.837   8.241   7.844  1.00  0.00     0.005 C 
HETATM   30  C27 UNL     1       0.414   8.427   8.346  1.00  0.00     0.005 C 
ENDBRANCH  28  29
ENDBRANCH  26  28
ENDBRANCH  25  26
ENDBRANCH  22  25
ENDBRANCH  20  22
ENDBRANCH  19  20
ENDBRANCH  16  19
BRANCH   5  31
HETATM   31  C6  UNL     1      -2.556   5.718  13.403  1.00  0.00     0.010 C 
HETATM   32  C7  UNL     1      -4.077   5.956  13.345  1.00  0.00     0.012 C 
BRANCH  31  33
HETATM   33  C8  UNL     1      -2.232   4.430  12.620  1.00  0.00     0.168 C 
BRANCH  33  34
HETATM   34  O1  UNL     1      -3.179   3.393  12.839  1.00  0.00    -0.400 OA
HETATM   35  H14 UNL     1      -3.313   3.294  13.807  1.00  0.00     0.209 HD
ENDBRANCH  33  34
ENDBRANCH  31  33
ENDBRANCH   5  31
BRANCH  13  36
HETATM   36  O4  UNL     1       2.344   8.676  17.483  1.00  0.00    -0.393 OA
HETATM   37  H25 UNL     1       2.624   8.873  18.393  1.00  0.00     0.210 HD
ENDBRANCH  13  36
BRANCH  11  38
HETATM   38  O3  UNL     1       1.091  11.886  16.121  1.00  0.00    -0.388 OA
HETATM   39  H23 UNL     1       0.189  12.126  15.839  1.00  0.00     0.210 HD
ENDBRANCH  11  38
TORSDOF 13
ENDMDL
MODEL 5
REMARK minimizedAffinity -6.61464643
REMARK CNNscore 0.451045275
REMARK CNNaffinity 5.71371317
REMARK  13 active torsions:
REMARK  status: ('A' for Active; 'I' for Inactive)
REMARK    1  A    between atoms: C5_5  and  C6_6 
REMARK    2  A    between atoms: C6_6  and  C8_8 
REMARK    3  A    between atoms: C8_8  and  O1_9 
REMARK    4  A    between atoms: C13_15  and  O3_17 
REMARK    5  A    between atoms: C15_18  and  O4_19 
REMARK    6  A    between atoms: C18_22  and  O5_24 
REMARK    7  A    between atoms: O5_24  and  C20_25 
REMARK    8  A    between atoms: C20_25  and  C21_27 
REMARK    9  A    between atoms: C21_27  and  C22_28 
REMARK   10  A    between atoms: C21_27  and  O7_30 
REMARK   11  A    between atoms: O7_30  and  C24_31 
REMARK   12  A    between atoms: C24_31  and  C25_33 
REMARK   13  A    between atoms: C25_33  and  C26_34 
ROOT
HETATM    1  C1  UNL     1       0.014   7.710   9.852  1.00  0.00     0.015 C 
HETATM    2  C2  UNL     1       0.202   7.558  11.174  1.00  0.00    -0.082 C 
HETATM    3  C3  UNL     1      -0.362   6.385  11.926  1.00  0.00     0.034 C 
HETATM    4  C4  UNL     1      -1.258   6.814  13.095  1.00  0.00     0.010 C 
HETATM    5  C5  UNL     1      -0.977   8.226  13.681  1.00  0.00    -0.001 C 
HETATM    6  C9  UNL     1       0.514   8.614  13.498  1.00  0.00     0.033 C 
HETATM    7  C10 UNL     1       1.536   7.668  14.214  1.00  0.00     0.162 C 
HETATM    8  O2  UNL     1       2.451   7.270  13.178  1.00  0.00    -0.376 OA
HETATM    9  C11 UNL     1       2.418   8.326  12.211  1.00  0.00     0.133 C 
HETATM   10  C12 UNL     1       3.373   8.031  11.086  1.00  0.00     0.072 C 
HETATM   11  C13 UNL     1       4.834   7.850  11.613  1.00  0.00     0.082 C 
HETATM   12  C14 UNL     1       5.772   8.084  10.413  1.00  0.00     0.049 C 
HETATM   13  C15 UNL     1       5.276   8.782  12.808  1.00  0.00     0.152 C 
HETATM   14  C16 UNL     1       4.835   8.371  14.246  1.00  0.00     0.038 C 
HETATM   15  C17 UNL     1       3.652   9.092  14.955  1.00  0.00     0.043 C 
HETATM   16  C18 UNL     1       2.398   8.242  15.399  1.00  0.00     0.093 C 
HETATM   17  C19 UNL     1       2.913   7.081  16.286  1.00  0.00     0.049 C 
HETATM   18  C28 UNL     1       0.940   8.587  12.005  1.00  0.00     0.050 C 
ENDROOT
BRANCH  16  19
HETATM   19  O5  UNL     1       1.638   9.174  16.232  1.00  0.00    -0.306 OA
BRANCH  19  20
HETATM   20  C20 UNL     1       2.246   9.991  17.134  1.00  0.00     0.289 C 
HETATM   21  O6  UNL     1       3.450  10.029  17.353  1.00  0.00    -0.262 OA
BRANCH  20  22
HETATM   22  C21 UNL     1       1.207  10.896  17.813  1.00  0.00     0.231 C 
BRANCH  22  23
HETATM   23  C22 UNL     1       1.765  12.311  18.041  1.00  0.00     0.038 C 
HETATM   24  C23 UNL     1       1.380  13.303  16.949  1.00  0.00     0.008 C 
ENDBRANCH  22  23
BRANCH  22  25
HETATM   25  O7  UNL     1       0.798  10.392  19.093  1.00  0.00    -0.306 OA
BRANCH  25  26
HETATM   26  C24 UNL     1       1.445  10.905  20.171  1.00  0.00     0.259 C 
HETATM   27  O8  UNL     1       1.215  11.991  20.689  1.00  0.00    -0.265 OA
BRANCH  26  28
HETATM   28  C25 UNL     1       2.516   9.955  20.642  1.00  0.00     0.111 C 
BRANCH  28  29
HETATM   29  C26 UNL     1       2.499   9.760  22.154  1.00  0.00     0.005 C 
HETATM   30  C27 UNL     1       2.230   8.317  22.553  1.00  0.00     0.005 C 
ENDBRANCH  28  29
ENDBRANCH  26  28
ENDBRANCH  25  26
ENDBRANCH  22  25
ENDBRANCH  20  22
ENDBRANCH  19  20
ENDBRANCH  16  19
BRANCH   5  31
HETATM   31  C6  UNL     1      -1.970   9.300  13.107  1.00  0.00     0.010 C 
HETATM   32  C7  UNL     1      -3.334   8.676  12.754  1.00  0.00     0.012 C 
BRANCH  31  33
HETATM   33  C8  UNL     1      -2.209  10.500  14.044  1.00  0.00     0.168 C 
BRANCH  33  34
HETATM   34  O1  UNL     1      -1.320  11.582  13.802  1.00  0.00    -0.400 OA
HETATM   35  H14 UNL     1      -0.404  11.229  13.768  1.00  0.00     0.209 HD
ENDBRANCH  33  34
ENDBRANCH  31  33
ENDBRANCH   5  31
BRANCH  13  36
HETATM   36  O4  UNL     1       4.984  10.155  12.551  1.00  0.00    -0.393 OA
HETATM   37  H25 UNL     1       5.713  10.515  12.016  1.00  0.00     0.210 HD
ENDBRANCH  13  36
BRANCH  11  38
HETATM   38  O3  UNL     1       5.075   6.491  12.010  1.00  0.00    -0.388 OA
HETATM   39  H23 UNL     1       4.414   5.914  11.586  1.00  0.00     0.210 HD
ENDBRANCH  11  38
TORSDOF 13
ENDMDL
MODEL 6
REMARK minimizedAffinity -7.48353434
REMARK CNNscore 0.447400898
REMARK CNNaffinity 5.9594264
REMARK  13 active torsions:
REMARK  status: ('A' for Active; 'I' for Inactive)
REMARK    1  A    between atoms: C5_5  and  C6_6 
REMARK    2  A    between atoms: C6_6  and  C8_8 
REMARK    3  A    between atoms: C8_8  and  O1_9 
REMARK    4  A    between atoms: C13_15  and  O3_17 
REMARK    5  A    between atoms: C15_18  and  O4_19 
REMARK    6  A    between atoms: C18_22  and  O5_24 
REMARK    7  A    between atoms: O5_24  and  C20_25 
REMARK    8  A    between atoms: C20_25  and  C21_27 
REMARK    9  A    between atoms: C21_27  and  C22_28 
REMARK   10  A    between atoms: C21_27  and  O7_30 
REMARK   11  A    between atoms: O7_30  and  C24_31 
REMARK   12  A    between atoms: C24_31  and  C25_33 
REMARK   13  A    between atoms: C25_33  and  C26_34 
ROOT
HETATM    1  C1  UNL     1      -0.338   5.386  11.113  1.00  0.00     0.015 C 
HETATM    2  C2  UNL     1      -0.335   6.585  11.718  1.00  0.00    -0.082 C 
HETATM    3  C3  UNL     1      -0.063   7.855  10.964  1.00  0.00     0.034 C 
HETATM    4  C4  UNL     1       1.109   8.649  11.555  1.00  0.00     0.010 C 
HETATM    5  C5  UNL     1       1.407   8.398  13.059  1.00  0.00    -0.001 C 
HETATM    6  C9  UNL     1       0.114   7.998  13.819  1.00  0.00     0.033 C 
HETATM    7  C10 UNL     1      -1.021   9.077  13.806  1.00  0.00     0.162 C 
HETATM    8  O2  UNL     1      -2.179   8.379  13.313  1.00  0.00    -0.376 OA
HETATM    9  C11 UNL     1      -1.970   7.004  13.650  1.00  0.00     0.133 C 
HETATM   10  C12 UNL     1      -3.147   6.175  13.208  1.00  0.00     0.072 C 
HETATM   11  C13 UNL     1      -4.474   6.679  13.863  1.00  0.00     0.082 C 
HETATM   12  C14 UNL     1      -5.476   5.510  13.794  1.00  0.00     0.049 C 
HETATM   13  C15 UNL     1      -4.378   7.193  15.353  1.00  0.00     0.152 C 
HETATM   14  C16 UNL     1      -3.855   8.645  15.583  1.00  0.00     0.038 C 
HETATM   15  C17 UNL     1      -2.399   8.901  16.069  1.00  0.00     0.043 C 
HETATM   16  C18 UNL     1      -1.434   9.759  15.163  1.00  0.00     0.093 C 
HETATM   17  C19 UNL     1      -2.138  11.109  14.879  1.00  0.00     0.049 C 
HETATM   18  C28 UNL     1      -0.545   6.731  13.212  1.00  0.00     0.050 C 
ENDROOT
BRANCH  16  19
HETATM   19  O5  UNL     1      -0.281   9.999  16.031  1.00  0.00    -0.306 OA
BRANCH  19  20
HETATM   20  C20 UNL     1      -0.196  11.102  16.823  1.00  0.00     0.289 C 
HETATM   21  O6  UNL     1      -0.151  12.258  16.421  1.00  0.00    -0.262 OA
BRANCH  20  22
HETATM   22  C21 UNL     1      -0.205  10.694  18.303  1.00  0.00     0.231 C 
BRANCH  22  23
HETATM   23  C22 UNL     1      -1.562  11.002  18.958  1.00  0.00     0.038 C 
HETATM   24  C23 UNL     1      -2.224  12.269  18.424  1.00  0.00     0.008 C 
ENDBRANCH  22  23
BRANCH  22  25
HETATM   25  O7  UNL     1       0.797  11.383  19.066  1.00  0.00    -0.306 OA
BRANCH  25  26
HETATM   26  C24 UNL     1       1.811  10.616  19.547  1.00  0.00     0.259 C 
HETATM   27  O8  UNL     1       2.548   9.907  18.874  1.00  0.00    -0.265 OA
BRANCH  26  28
HETATM   28  C25 UNL     1       1.896  10.741  21.047  1.00  0.00     0.111 C 
BRANCH  28  29
HETATM   29  C26 UNL     1       2.352   9.448  21.714  1.00  0.00     0.005 C 
HETATM   30  C27 UNL     1       3.106   9.695  23.012  1.00  0.00     0.005 C 
ENDBRANCH  28  29
ENDBRANCH  26  28
ENDBRANCH  25  26
ENDBRANCH  22  25
ENDBRANCH  20  22
ENDBRANCH  19  20
ENDBRANCH  16  19
BRANCH   5  31
HETATM   31  C6  UNL     1       2.582   7.372  13.255  1.00  0.00     0.010 C 
HETATM   32  C7  UNL     1       3.564   7.408  12.069  1.00  0.00     0.012 C 
BRANCH  31  33
HETATM   33  C8  UNL     1       3.381   7.572  14.558  1.00  0.00     0.168 C 
BRANCH  33  34
HETATM   34  O1  UNL     1       3.053   6.621  15.563  1.00  0.00    -0.400 OA
HETATM   35  H14 UNL     1       2.075   6.586  15.650  1.00  0.00     0.209 HD
ENDBRANCH  33  34
ENDBRANCH  31  33
ENDBRANCH   5  31
BRANCH  13  36
HETATM   36  O4  UNL     1      -3.705   6.262  16.198  1.00  0.00    -0.393 OA
HETATM   37  H25 UNL     1      -4.357   5.598  16.481  1.00  0.00     0.210 HD
ENDBRANCH  13  36
BRANCH  11  38
HETATM   38  O3  UNL     1      -5.072   7.724  13.080  1.00  0.00    -0.388 OA
HETATM   39  H23 UNL     1      -4.717   7.685  12.173  1.00  0.00     0.210 HD
ENDBRANCH  11  38
TORSDOF 13
ENDMDL
MODEL 7
REMARK minimizedAffinity -5.60727549
REMARK CNNscore 0.386054665
REMARK CNNaffinity 5.55044699
REMARK  13 active torsions:
REMARK  status: ('A' for Active; 'I' for Inactive)
REMARK    1  A    between atoms: C5_5  and  C6_6 
REMARK    2  A    between atoms: C6_6  and  C8_8 
REMARK    3  A    between atoms: C8_8  and  O1_9 
REMARK    4  A    between atoms: C13_15  and  O3_17 
REMARK    5  A    between atoms: C15_18  and  O4_19 
REMARK    6  A    between atoms: C18_22  and  O5_24 
REMARK    7  A    between atoms: O5_24  and  C20_25 
REMARK    8  A    between atoms: C20_25  and  C21_27 
REMARK    9  A    between atoms: C21_27  and  C22_28 
REMARK   10  A    between atoms: C21_27  and  O7_30 
REMARK   11  A    between atoms: O7_30  and  C24_31 
REMARK   12  A    between atoms: C24_31  and  C25_33 
REMARK   13  A    between atoms: C25_33  and  C26_34 
ROOT
HETATM    1  C1  UNL     1      14.189 -10.780   0.644  1.00  0.00     0.015 C 
HETATM    2  C2  UNL     1      14.363 -10.040   1.753  1.00  0.00    -0.082 C 
HETATM    3  C3  UNL     1      15.359 -10.418   2.811  1.00  0.00     0.034 C 
HETATM    4  C4  UNL     1      14.715 -10.566   4.196  1.00  0.00     0.010 C 
HETATM    5  C5  UNL     1      13.401  -9.768   4.421  1.00  0.00    -0.001 C 
HETATM    6  C9  UNL     1      13.377  -8.485   3.547  1.00  0.00     0.033 C 
HETATM    7  C10 UNL     1      14.526  -7.463   3.842  1.00  0.00     0.162 C 
HETATM    8  O2  UNL     1      15.142  -7.231   2.563  1.00  0.00    -0.376 OA
HETATM    9  C11 UNL     1      14.122  -7.492   1.593  1.00  0.00     0.133 C 
HETATM   10  C12 UNL     1      14.649  -7.245   0.204  1.00  0.00     0.072 C 
HETATM   11  C13 UNL     1      15.161  -5.776   0.044  1.00  0.00     0.082 C 
HETATM   12  C14 UNL     1      15.170  -5.472  -1.467  1.00  0.00     0.049 C 
HETATM   13  C15 UNL     1      14.342  -4.654   0.795  1.00  0.00     0.152 C 
HETATM   14  C16 UNL     1      14.618  -4.456   2.317  1.00  0.00     0.038 C 
HETATM   15  C17 UNL     1      13.629  -5.006   3.386  1.00  0.00     0.043 C 
HETATM   16  C18 UNL     1      14.154  -6.056   4.440  1.00  0.00     0.093 C 
HETATM   17  C19 UNL     1      15.391  -5.437   5.138  1.00  0.00     0.049 C 
HETATM   18  C28 UNL     1      13.523  -8.811   2.037  1.00  0.00     0.050 C 
ENDROOT
BRANCH  16  19
HETATM   19  O5  UNL     1      13.058  -6.141   5.406  1.00  0.00    -0.306 OA
BRANCH  19  20
HETATM   20  C20 UNL     1      12.996  -5.327   6.495  1.00  0.00     0.289 C 
HETATM   21  O6  UNL     1      12.910  -4.106   6.460  1.00  0.00    -0.262 OA
BRANCH  20  22
HETATM   22  C21 UNL     1      13.006  -6.164   7.782  1.00  0.00     0.231 C 
BRANCH  22  23
HETATM   23  C22 UNL     1      12.269  -5.441   8.922  1.00  0.00     0.038 C 
HETATM   24  C23 UNL     1      11.448  -6.375   9.806  1.00  0.00     0.008 C 
ENDBRANCH  22  23
BRANCH  22  25
HETATM   25  O7  UNL     1      14.337  -6.436   8.247  1.00  0.00    -0.306 OA
BRANCH  25  26
HETATM   26  C24 UNL     1      14.961  -5.420   8.898  1.00  0.00     0.259 C 
HETATM   27  O8  UNL     1      14.476  -4.320   9.130  1.00  0.00    -0.265 OA
BRANCH  26  28
HETATM   28  C25 UNL     1      16.359  -5.826   9.285  1.00  0.00     0.111 C 
BRANCH  28  29
HETATM   29  C26 UNL     1      16.885  -5.039  10.481  1.00  0.00     0.005 C 
HETATM   30  C27 UNL     1      17.834  -3.923  10.074  1.00  0.00     0.005 C 
ENDBRANCH  28  29
ENDBRANCH  26  28
ENDBRANCH  25  26
ENDBRANCH  22  25
ENDBRANCH  20  22
ENDBRANCH  19  20
ENDBRANCH  16  19
BRANCH   5  31
HETATM   31  C6  UNL     1      12.131 -10.674   4.224  1.00  0.00     0.010 C 
HETATM   32  C7  UNL     1      11.903 -11.595   5.438  1.00  0.00     0.012 C 
BRANCH  31  33
HETATM   33  C8  UNL     1      10.833  -9.887   3.956  1.00  0.00     0.168 C 
BRANCH  33  34
HETATM   34  O1  UNL     1      10.119 -10.362   2.822  1.00  0.00    -0.400 OA
HETATM   35  H14 UNL     1      10.746 -10.440   2.070  1.00  0.00     0.209 HD
ENDBRANCH  33  34
ENDBRANCH  31  33
ENDBRANCH   5  31
BRANCH  13  36
HETATM   36  O4  UNL     1      12.943  -4.747   0.532  1.00  0.00    -0.393 OA
HETATM   37  H25 UNL     1      12.772  -4.292  -0.310  1.00  0.00     0.210 HD
ENDBRANCH  13  36
BRANCH  11  38
HETATM   38  O3  UNL     1      16.533  -5.660   0.453  1.00  0.00    -0.388 OA
HETATM   39  H23 UNL     1      16.944  -6.543   0.441  1.00  0.00     0.210 HD
ENDBRANCH  11  38
TORSDOF 13
ENDMDL
MODEL 8
REMARK minimizedAffinity -6.24224997
REMARK CNNscore 0.360491216
REMARK CNNaffinity 5.46815634
REMARK  13 active torsions:
REMARK  status: ('A' for Active; 'I' for Inactive)
REMARK    1  A    between atoms: C5_5  and  C6_6 
REMARK    2  A    between atoms: C6_6  and  C8_8 
REMARK    3  A    between atoms: C8_8  and  O1_9 
REMARK    4  A    between atoms: C13_15  and  O3_17 
REMARK    5  A    between atoms: C15_18  and  O4_19 
REMARK    6  A    between atoms: C18_22  and  O5_24 
REMARK    7  A    between atoms: O5_24  and  C20_25 
REMARK    8  A    between atoms: C20_25  and  C21_27 
REMARK    9  A    between atoms: C21_27  and  C22_28 
REMARK   10  A    between atoms: C21_27  and  O7_30 
REMARK   11  A    between atoms: O7_30  and  C24_31 
REMARK   12  A    between atoms: C24_31  and  C25_33 
REMARK   13  A    between atoms: C25_33  and  C26_34 
ROOT
HETATM    1  C1  UNL     1      -1.931  15.135   4.268  1.00  0.00     0.015 C 
HETATM    2  C2  UNL     1      -1.277  14.713   3.173  1.00  0.00    -0.082 C 
HETATM    3  C3  UNL     1      -1.052  13.254   2.895  1.00  0.00     0.034 C 
HETATM    4  C4  UNL     1       0.433  12.913   2.715  1.00  0.00     0.010 C 
HETATM    5  C5  UNL     1       1.344  14.083   2.251  1.00  0.00    -0.001 C 
HETATM    6  C9  UNL     1       0.543  15.104   1.399  1.00  0.00     0.033 C 
HETATM    7  C10 UNL     1      -0.075  14.525   0.081  1.00  0.00     0.162 C 
HETATM    8  O2  UNL     1      -1.471  14.863   0.156  1.00  0.00    -0.376 OA
HETATM    9  C11 UNL     1      -1.539  16.027   0.986  1.00  0.00     0.133 C 
HETATM   10  C12 UNL     1      -2.965  16.497   1.108  1.00  0.00     0.072 C 
HETATM   11  C13 UNL     1      -3.580  16.815  -0.293  1.00  0.00     0.082 C 
HETATM   12  C14 UNL     1      -4.779  17.753  -0.049  1.00  0.00     0.049 C 
HETATM   13  C15 UNL     1      -2.616  17.471  -1.358  1.00  0.00     0.152 C 
HETATM   14  C16 UNL     1      -1.647  16.525  -2.132  1.00  0.00     0.038 C 
HETATM   15  C17 UNL     1      -0.140  16.443  -1.753  1.00  0.00     0.043 C 
HETATM   16  C18 UNL     1       0.457  15.054  -1.302  1.00  0.00     0.093 C 
HETATM   17  C19 UNL     1       0.138  14.026  -2.416  1.00  0.00     0.049 C 
HETATM   18  C28 UNL     1      -0.670  15.680   2.177  1.00  0.00     0.050 C 
ENDROOT
BRANCH  16  19
HETATM   19  O5  UNL     1       1.899  15.298  -1.280  1.00  0.00    -0.306 OA
BRANCH  19  20
HETATM   20  C20 UNL     1       2.713  14.884  -2.289  1.00  0.00     0.289 C 
HETATM   21  O6  UNL     1       2.544  15.127  -3.477  1.00  0.00    -0.262 OA
BRANCH  20  22
HETATM   22  C21 UNL     1       3.904  14.099  -1.721  1.00  0.00     0.231 C 
BRANCH  22  23
HETATM   23  C22 UNL     1       4.715  14.954  -0.733  1.00  0.00     0.038 C 
HETATM   24  C23 UNL     1       5.677  14.144   0.130  1.00  0.00     0.008 C 
ENDBRANCH  22  23
BRANCH  22  25
HETATM   25  O7  UNL     1       4.811  13.665  -2.746  1.00  0.00    -0.306 OA
BRANCH  25  26
HETATM   26  C24 UNL     1       4.907  12.322  -2.926  1.00  0.00     0.259 C 
HETATM   27  O8  UNL     1       5.567  11.556  -2.234  1.00  0.00    -0.265 OA
BRANCH  26  28
HETATM   28  C25 UNL     1       4.098  11.894  -4.123  1.00  0.00     0.111 C 
BRANCH  28  29
HETATM   29  C26 UNL     1       4.948  11.209  -5.188  1.00  0.00     0.005 C 
HETATM   30  C27 UNL     1       6.183  12.016  -5.556  1.00  0.00     0.005 C 
ENDBRANCH  28  29
ENDBRANCH  26  28
ENDBRANCH  25  26
ENDBRANCH  22  25
ENDBRANCH  20  22
ENDBRANCH  19  20
ENDBRANCH  16  19
BRANCH   5  31
HETATM   31  C6  UNL     1       2.100  14.745   3.459  1.00  0.00     0.010 C 
HETATM   32  C7  UNL     1       2.359  16.243   3.210  1.00  0.00     0.012 C 
BRANCH  31  33
HETATM   33  C8  UNL     1       1.379  14.591   4.813  1.00  0.00     0.168 C 
BRANCH  33  34
HETATM   34  O1  UNL     1       2.050  13.711   5.704  1.00  0.00    -0.400 OA
HETATM   35  H14 UNL     1       2.258  12.880   5.223  1.00  0.00     0.209 HD
ENDBRANCH  33  34
ENDBRANCH  31  33
ENDBRANCH   5  31
BRANCH  13  36
HETATM   36  O4  UNL     1      -1.922  18.599  -0.827  1.00  0.00    -0.393 OA
HETATM   37  H25 UNL     1      -2.512  19.369  -0.905  1.00  0.00     0.210 HD
ENDBRANCH  13  36
BRANCH  11  38
HETATM   38  O3  UNL     1      -4.148  15.638  -0.888  1.00  0.00    -0.388 OA
HETATM   39  H23 UNL     1      -4.316  14.978  -0.190  1.00  0.00     0.210 HD
ENDBRANCH  11  38
TORSDOF 13
ENDMDL
MODEL 9
REMARK minimizedAffinity -7.39396048
REMARK CNNscore 0.351420373
REMARK CNNaffinity 6.41217422
REMARK  13 active torsions:
REMARK  status: ('A' for Active; 'I' for Inactive)
REMARK    1  A    between atoms: C5_5  and  C6_6 
REMARK    2  A    between atoms: C6_6  and  C8_8 
REMARK    3  A    between atoms: C8_8  and  O1_9 
REMARK    4  A    between atoms: C13_15  and  O3_17 
REMARK    5  A    between atoms: C15_18  and  O4_19 
REMARK    6  A    between atoms: C18_22  and  O5_24 
REMARK    7  A    between atoms: O5_24  and  C20_25 
REMARK    8  A    between atoms: C20_25  and  C21_27 
REMARK    9  A    between atoms: C21_27  and  C22_28 
REMARK   10  A    between atoms: C21_27  and  O7_30 
REMARK   11  A    between atoms: O7_30  and  C24_31 
REMARK   12  A    between atoms: C24_31  and  C25_33 
REMARK   13  A    between atoms: C25_33  and  C26_34 
ROOT
HETATM    1  C1  UNL     1       4.548   8.526  10.294  1.00  0.00     0.015 C 
HETATM    2  C2  UNL     1       3.581   7.780  10.855  1.00  0.00    -0.082 C 
HETATM    3  C3  UNL     1       3.715   6.291  11.006  1.00  0.00     0.034 C 
HETATM    4  C4  UNL     1       2.560   5.529  10.343  1.00  0.00     0.010 C 
HETATM    5  C5  UNL     1       1.230   6.316  10.188  1.00  0.00    -0.001 C 
HETATM    6  C9  UNL     1       1.082   7.379  11.309  1.00  0.00     0.033 C 
HETATM    7  C10 UNL     1       1.044   6.804  12.765  1.00  0.00     0.162 C 
HETATM    8  O2  UNL     1       2.073   7.524  13.467  1.00  0.00    -0.376 OA
HETATM    9  C11 UNL     1       2.205   8.772  12.778  1.00  0.00     0.133 C 
HETATM   10  C12 UNL     1       3.241   9.631  13.453  1.00  0.00     0.072 C 
HETATM   11  C13 UNL     1       2.874   9.894  14.950  1.00  0.00     0.082 C 
HETATM   12  C14 UNL     1       3.651  11.153  15.383  1.00  0.00     0.049 C 
HETATM   13  C15 UNL     1       1.343  10.089  15.280  1.00  0.00     0.152 C 
HETATM   14  C16 UNL     1       0.465   8.807  15.416  1.00  0.00     0.038 C 
HETATM   15  C17 UNL     1      -0.489   8.367  14.267  1.00  0.00     0.043 C 
HETATM   16  C18 UNL     1      -0.279   6.951  13.603  1.00  0.00     0.093 C 
HETATM   17  C19 UNL     1      -0.302   5.897  14.738  1.00  0.00     0.049 C 
HETATM   18  C28 UNL     1       2.269   8.380  11.316  1.00  0.00     0.050 C 
ENDROOT
BRANCH  16  19
HETATM   19  O5  UNL     1      -1.475   6.785  12.778  1.00  0.00    -0.306 OA
BRANCH  19  20
HETATM   20  C20 UNL     1      -2.590   6.160  13.245  1.00  0.00     0.289 C 
HETATM   21  O6  UNL     1      -3.364   6.622  14.074  1.00  0.00    -0.262 OA
BRANCH  20  22
HETATM   22  C21 UNL     1      -2.764   4.801  12.552  1.00  0.00     0.231 C 
BRANCH  22  23
HETATM   23  C22 UNL     1      -1.743   4.618  11.418  1.00  0.00     0.038 C 
HETATM   24  C23 UNL     1      -0.714   3.526  11.693  1.00  0.00     0.008 C 
ENDBRANCH  22  23
BRANCH  22  25
HETATM   25  O7  UNL     1      -4.069   4.646  11.974  1.00  0.00    -0.306 OA
BRANCH  25  26
HETATM   26  C24 UNL     1      -4.671   3.444  12.174  1.00  0.00     0.259 C 
HETATM   27  O8  UNL     1      -4.244   2.362  11.790  1.00  0.00    -0.265 OA
BRANCH  26  28
HETATM   28  C25 UNL     1      -5.964   3.624  12.926  1.00  0.00     0.111 C 
BRANCH  28  29
HETATM   29  C26 UNL     1      -6.428   5.076  12.950  1.00  0.00     0.005 C 
HETATM   30  C27 UNL     1      -7.902   5.225  12.607  1.00  0.00     0.005 C 
ENDBRANCH  28  29
ENDBRANCH  26  28
ENDBRANCH  25  26
ENDBRANCH  22  25
ENDBRANCH  20  22
ENDBRANCH  19  20
ENDBRANCH  16  19
BRANCH   5  31
HETATM   31  C6  UNL     1       1.075   6.916   8.743  1.00  0.00     0.010 C 
HETATM   32  C7  UNL     1       0.680   8.404   8.790  1.00  0.00     0.012 C 
BRANCH  31  33
HETATM   33  C8  UNL     1       2.333   6.771   7.864  1.00  0.00     0.168 C 
BRANCH  33  34
HETATM   34  O1  UNL     1       2.035   6.675   6.477  1.00  0.00    -0.400 OA
HETATM   35  H14 UNL     1       1.336   5.996   6.356  1.00  0.00     0.209 HD
ENDBRANCH  33  34
ENDBRANCH  31  33
ENDBRANCH   5  31
BRANCH  13  36
HETATM   36  O4  UNL     1       0.728  11.047  14.420  1.00  0.00    -0.393 OA
HETATM   37  H25 UNL     1       0.908  11.929  14.787  1.00  0.00     0.210 HD
ENDBRANCH  13  36
BRANCH  11  38
HETATM   38  O3  UNL     1       3.371   8.845  15.795  1.00  0.00    -0.388 OA
HETATM   39  H23 UNL     1       4.083   8.371  15.329  1.00  0.00     0.210 HD
ENDBRANCH  11  38
TORSDOF 13
ENDMDL
