MODEL 1
REMARK minimizedAffinity -8.75830364
REMARK CNNscore 0.270578951
REMARK CNNaffinity 6.53437996
REMARK  12 active torsions:
REMARK  status: ('A' for Active; 'I' for Inactive)
REMARK    1  A    between atoms: C3_3  and  O1_4 
REMARK    2  A    between atoms: N1_14  and  O2_16 
REMARK    3  A    between atoms: O2_16  and  C13_17 
REMARK    4  A    between atoms: C13_17  and  C14_18 
REMARK       I    between atoms: C14_18  and  N2_20 
REMARK    5  A    between atoms: N2_20  and  C15_21 
REMARK    6  A    between atoms: C15_21  and  C16_22 
REMARK    7  A    between atoms: C15_21  and  C23_33 
REMARK       I    between atoms: C16_22  and  N3_24 
REMARK    8  A    between atoms: N3_24  and  C17_25 
REMARK    9  A    between atoms: C17_25  and  C18_26 
REMARK   10  A    between atoms: C17_25  and  C19_29 
REMARK   11  A    between atoms: C18_26  and  O6_28 
REMARK   12  A    between atoms: C19_29  and  C21_31 
ROOT
HETATM    1  C1  UNL     1      -7.909   6.967  16.523  1.00  0.00     0.015 C 
HETATM    2  C2  UNL     1      -6.894   6.684  15.939  1.00  0.00    -0.078 C 
HETATM    3  C3  UNL     1      -5.646   6.342  15.234  1.00  0.00     0.128 C 
HETATM    4  C4  UNL     1      -5.843   5.096  14.357  1.00  0.00     0.052 C 
HETATM    5  C5  UNL     1      -4.759   5.175  13.276  1.00  0.00     0.010 C 
HETATM    6  C6  UNL     1      -4.204   6.616  13.285  1.00  0.00     0.002 C 
HETATM    7  C7  UNL     1      -2.661   6.755  13.474  1.00  0.00    -0.004 C 
HETATM    8  C8  UNL     1      -1.960   5.774  14.444  1.00  0.00     0.010 C 
HETATM    9  C9  UNL     1      -0.441   5.945  14.444  1.00  0.00     0.035 C 
HETATM   10  C10 UNL     1      -0.010   7.369  14.682  1.00  0.00    -0.069 C 
HETATM   11  C11 UNL     1       0.953   7.637  15.588  1.00  0.00     0.030 C 
HETATM   12  C12 UNL     1       1.462   9.018  15.794  1.00  0.00     0.032 C 
HETATM   13  N1  UNL     1       2.149   9.256  16.874  1.00  0.00    -0.271 N 
ATOM     14  H1  UNL     1       2.394   8.544  17.563  1.00  0.00     0.194 HD
HETATM   15  C26 UNL     1       1.139  10.030  14.715  1.00  0.00     0.060 C 
HETATM   16  C27 UNL     1      -0.335   9.868  14.346  1.00  0.00     0.020 C 
HETATM   17  C28 UNL     1      -0.699   8.439  13.835  1.00  0.00    -0.016 C 
HETATM   18  C29 UNL     1      -0.157   8.318  12.384  1.00  0.00     0.020 C 
HETATM   19  C30 UNL     1      -2.268   8.225  13.811  1.00  0.00     0.002 C 
HETATM   20  C31 UNL     1      -3.017   8.627  15.101  1.00  0.00     0.007 C 
HETATM   21  C32 UNL     1      -4.522   8.667  14.869  1.00  0.00     0.014 C 
HETATM   22  C33 UNL     1      -5.159   7.423  14.221  1.00  0.00     0.003 C 
HETATM   23  C34 UNL     1      -6.353   7.941  13.354  1.00  0.00     0.020 C 
ENDROOT
BRANCH   3  24
HETATM   24  O1  UNL     1      -4.662   6.098  16.232  1.00  0.00    -0.377 OA
HETATM   25  H2  UNL     1      -4.198   5.265  16.026  1.00  0.00     0.211 HD
ENDBRANCH   3  24
BRANCH  13  26
HETATM   26  O2  UNL     1       2.513  10.606  16.977  1.00  0.00    -0.271 OA
BRANCH  26  27
HETATM   27  C13 UNL     1       1.908  11.146  18.148  1.00  0.00     0.303 C 
BRANCH  27  28
HETATM   28  C14 UNL     1       2.637  10.709  19.412  1.00  0.00     0.244 C 
HETATM   29  O3  UNL     1       2.621   9.544  19.808  1.00  0.00    -0.271 OA
HETATM   30  N2  UNL     1       3.343  11.707  20.057  1.00  0.00    -0.346 N 
HETATM   31  H16 UNL     1       3.578  12.510  19.482  1.00  0.00     0.163 HD
BRANCH  30  32
HETATM   32  C15 UNL     1       4.269  11.376  21.140  1.00  0.00     0.180 C 
BRANCH  32  33
HETATM   33  C16 UNL     1       5.382  12.452  21.156  1.00  0.00     0.241 C 
HETATM   34  O4  UNL     1       5.160  13.636  20.900  1.00  0.00    -0.271 OA
HETATM   35  N3  UNL     1       6.638  11.986  21.489  1.00  0.00    -0.344 N 
HETATM   36  H18 UNL     1       6.680  11.100  21.980  1.00  0.00     0.163 HD
BRANCH  35  37
HETATM   37  C17 UNL     1       7.764  12.903  21.689  1.00  0.00     0.186 C 
BRANCH  37  38
HETATM   38  C18 UNL     1       8.514  12.492  22.962  1.00  0.00     0.163 C 
HETATM   39  O5  UNL     1       8.831  11.357  23.290  1.00  0.00    -0.648 OA
BRANCH  38  40
HETATM   40  O6  UNL     1       8.858  13.544  23.734  1.00  0.00    -0.775 OA
HETATM   41  H20 UNL     1       9.296  13.141  24.509  1.00  0.00     0.167 HD
ENDBRANCH  38  40
ENDBRANCH  37  38
BRANCH  37  42
HETATM   42  C19 UNL     1       8.713  12.941  20.465  1.00  0.00     0.014 C 
HETATM   43  C20 UNL     1       9.811  14.011  20.601  1.00  0.00     0.012 C 
BRANCH  42  44
HETATM   44  C21 UNL     1       9.370  11.572  20.187  1.00  0.00     0.002 C 
HETATM   45  C22 UNL     1       8.994  10.984  18.837  1.00  0.00     0.005 C 
ENDBRANCH  42  44
ENDBRANCH  37  42
ENDBRANCH  35  37
ENDBRANCH  32  33
BRANCH  32  46
HETATM   46  C23 UNL     1       3.508  11.242  22.479  1.00  0.00     0.009 C 
HETATM   47  C24 UNL     1       4.064  10.108  23.342  1.00  0.00     0.012 C 
HETATM   48  C25 UNL     1       3.456  12.540  23.289  1.00  0.00     0.012 C 
ENDBRANCH  32  46
ENDBRANCH  30  32
ENDBRANCH  27  28
ENDBRANCH  26  27
ENDBRANCH  13  26
TORSDOF 12
ENDMDL
MODEL 2
REMARK minimizedAffinity -8.39553928
REMARK CNNscore 0.26826489
REMARK CNNaffinity 7.12318993
REMARK  12 active torsions:
REMARK  status: ('A' for Active; 'I' for Inactive)
REMARK    1  A    between atoms: C3_3  and  O1_4 
REMARK    2  A    between atoms: N1_14  and  O2_16 
REMARK    3  A    between atoms: O2_16  and  C13_17 
REMARK    4  A    between atoms: C13_17  and  C14_18 
REMARK       I    between atoms: C14_18  and  N2_20 
REMARK    5  A    between atoms: N2_20  and  C15_21 
REMARK    6  A    between atoms: C15_21  and  C16_22 
REMARK    7  A    between atoms: C15_21  and  C23_33 
REMARK       I    between atoms: C16_22  and  N3_24 
REMARK    8  A    between atoms: N3_24  and  C17_25 
REMARK    9  A    between atoms: C17_25  and  C18_26 
REMARK   10  A    between atoms: C17_25  and  C19_29 
REMARK   11  A    between atoms: C18_26  and  O6_28 
REMARK   12  A    between atoms: C19_29  and  C21_31 
ROOT
HETATM    1  C1  UNL     1     -14.454   9.304  12.243  1.00  0.00     0.015 C 
HETATM    2  C2  UNL     1     -13.490   9.361  12.961  1.00  0.00    -0.078 C 
HETATM    3  C3  UNL     1     -12.302   9.429  13.833  1.00  0.00     0.128 C 
HETATM    4  C4  UNL     1     -12.456  10.548  14.874  1.00  0.00     0.052 C 
HETATM    5  C5  UNL     1     -11.525  10.169  16.031  1.00  0.00     0.010 C 
HETATM    6  C6  UNL     1     -11.142   8.685  15.847  1.00  0.00     0.002 C 
HETATM    7  C7  UNL     1      -9.615   8.371  15.792  1.00  0.00    -0.004 C 
HETATM    8  C8  UNL     1      -8.695   9.382  15.066  1.00  0.00     0.010 C 
HETATM    9  C9  UNL     1      -7.217   9.012  15.189  1.00  0.00     0.035 C 
HETATM   10  C10 UNL     1      -6.928   7.594  14.770  1.00  0.00    -0.069 C 
HETATM   11  C11 UNL     1      -5.903   7.335  13.934  1.00  0.00     0.030 C 
HETATM   12  C12 UNL     1      -5.536   5.944  13.561  1.00  0.00     0.032 C 
HETATM   13  N1  UNL     1      -4.758   5.777  12.531  1.00  0.00    -0.271 N 
ATOM     14  H1  UNL     1      -4.353   6.543  11.992  1.00  0.00     0.194 HD
HETATM   15  C26 UNL     1      -6.099   4.838  14.428  1.00  0.00     0.060 C 
HETATM   16  C27 UNL     1      -7.578   5.138  14.670  1.00  0.00     0.020 C 
HETATM   17  C28 UNL     1      -7.832   6.512  15.363  1.00  0.00    -0.016 C 
HETATM   18  C29 UNL     1      -7.456   6.348  16.862  1.00  0.00     0.020 C 
HETATM   19  C30 UNL     1      -9.358   6.927  15.265  1.00  0.00     0.002 C 
HETATM   20  C31 UNL     1      -9.990   6.821  13.860  1.00  0.00     0.007 C 
HETATM   21  C32 UNL     1     -11.507   6.947  13.931  1.00  0.00     0.014 C 
HETATM   22  C33 UNL     1     -12.068   8.157  14.704  1.00  0.00     0.003 C 
HETATM   23  C34 UNL     1     -13.408   7.680  15.354  1.00  0.00     0.020 C 
ENDROOT
BRANCH   3  24
HETATM   24  O1  UNL     1     -11.185   9.683  12.989  1.00  0.00    -0.377 OA
HETATM   25  H2  UNL     1     -10.656  10.408  13.370  1.00  0.00     0.211 HD
ENDBRANCH   3  24
BRANCH  13  26
HETATM   26  O2  UNL     1      -4.544   4.421  12.250  1.00  0.00    -0.271 OA
BRANCH  26  27
HETATM   27  C13 UNL     1      -3.590   4.325  11.197  1.00  0.00     0.303 C 
BRANCH  27  28
HETATM   28  C14 UNL     1      -2.165   4.243  11.731  1.00  0.00     0.244 C 
HETATM   29  O3  UNL     1      -1.562   3.174  11.825  1.00  0.00    -0.271 OA
HETATM   30  N2  UNL     1      -1.594   5.456  12.065  1.00  0.00    -0.346 N 
HETATM   31  H16 UNL     1      -2.021   6.268  11.631  1.00  0.00     0.163 HD
BRANCH  30  32
HETATM   32  C15 UNL     1      -0.164   5.542  12.364  1.00  0.00     0.180 C 
BRANCH  32  33
HETATM   33  C16 UNL     1       0.466   6.556  11.379  1.00  0.00     0.241 C 
HETATM   34  O4  UNL     1      -0.143   7.544  10.969  1.00  0.00    -0.271 OA
HETATM   35  N3  UNL     1       1.765   6.273  11.004  1.00  0.00    -0.344 N 
HETATM   36  H18 UNL     1       2.287   5.649  11.607  1.00  0.00     0.163 HD
BRANCH  35  37
HETATM   37  C17 UNL     1       2.546   7.213  10.195  1.00  0.00     0.186 C 
BRANCH  37  38
HETATM   38  C18 UNL     1       4.037   6.933  10.417  1.00  0.00     0.163 C 
HETATM   39  O5  UNL     1       4.947   7.751  10.389  1.00  0.00    -0.648 OA
BRANCH  38  40
HETATM   40  O6  UNL     1       4.294   5.640  10.701  1.00  0.00    -0.775 OA
HETATM   41  H20 UNL     1       5.266   5.601  10.789  1.00  0.00     0.167 HD
ENDBRANCH  38  40
ENDBRANCH  37  38
BRANCH  37  42
HETATM   42  C19 UNL     1       2.178   7.137   8.691  1.00  0.00     0.014 C 
HETATM   43  C20 UNL     1       2.691   8.349   7.894  1.00  0.00     0.012 C 
BRANCH  42  44
HETATM   44  C21 UNL     1       2.685   5.839   8.026  1.00  0.00     0.002 C 
HETATM   45  C22 UNL     1       2.551   5.843   6.513  1.00  0.00     0.005 C 
ENDBRANCH  42  44
ENDBRANCH  37  42
ENDBRANCH  35  37
ENDBRANCH  32  33
BRANCH  32  46
HETATM   46  C23 UNL     1       0.055   5.895  13.853  1.00  0.00     0.009 C 
HETATM   47  C24 UNL     1       1.389   6.608  14.083  1.00  0.00     0.012 C 
HETATM   48  C25 UNL     1      -1.088   6.712  14.464  1.00  0.00     0.012 C 
ENDBRANCH  32  46
ENDBRANCH  30  32
ENDBRANCH  27  28
ENDBRANCH  26  27
ENDBRANCH  13  26
TORSDOF 12
ENDMDL
MODEL 3
REMARK minimizedAffinity -7.27274275
REMARK CNNscore 0.264016479
REMARK CNNaffinity 6.04540396
REMARK  12 active torsions:
REMARK  status: ('A' for Active; 'I' for Inactive)
REMARK    1  A    between atoms: C3_3  and  O1_4 
REMARK    2  A    between atoms: N1_14  and  O2_16 
REMARK    3  A    between atoms: O2_16  and  C13_17 
REMARK    4  A    between atoms: C13_17  and  C14_18 
REMARK       I    between atoms: C14_18  and  N2_20 
REMARK    5  A    between atoms: N2_20  and  C15_21 
REMARK    6  A    between atoms: C15_21  and  C16_22 
REMARK    7  A    between atoms: C15_21  and  C23_33 
REMARK       I    between atoms: C16_22  and  N3_24 
REMARK    8  A    between atoms: N3_24  and  C17_25 
REMARK    9  A    between atoms: C17_25  and  C18_26 
REMARK   10  A    between atoms: C17_25  and  C19_29 
REMARK   11  A    between atoms: C18_26  and  O6_28 
REMARK   12  A    between atoms: C19_29  and  C21_31 
ROOT
HETATM    1  C1  UNL     1      -3.231   4.997  12.365  1.00  0.00     0.015 C 
HETATM    2  C2  UNL     1      -3.527   6.007  12.950  1.00  0.00    -0.078 C 
HETATM    3  C3  UNL     1      -3.879   7.248  13.663  1.00  0.00     0.128 C 
HETATM    4  C4  UNL     1      -5.387   7.525  13.558  1.00  0.00     0.052 C 
HETATM    5  C5  UNL     1      -5.727   8.426  14.751  1.00  0.00     0.010 C 
HETATM    6  C6  UNL     1      -4.542   8.351  15.737  1.00  0.00     0.002 C 
HETATM    7  C7  UNL     1      -3.892   9.714  16.133  1.00  0.00    -0.004 C 
HETATM    8  C8  UNL     1      -3.770  10.801  15.039  1.00  0.00     0.010 C 
HETATM    9  C9  UNL     1      -3.226  12.120  15.591  1.00  0.00     0.035 C 
HETATM   10  C10 UNL     1      -1.939  11.950  16.356  1.00  0.00    -0.069 C 
HETATM   11  C11 UNL     1      -0.896  12.769  16.108  1.00  0.00     0.030 C 
HETATM   12  C12 UNL     1       0.361  12.686  16.896  1.00  0.00     0.032 C 
HETATM   13  N1  UNL     1       1.417  13.274  16.415  1.00  0.00    -0.271 N 
ATOM     14  H1  UNL     1       1.423  13.822  15.554  1.00  0.00     0.194 HD
HETATM   15  C26 UNL     1       0.295  11.925  18.203  1.00  0.00     0.060 C 
HETATM   16  C27 UNL     1      -0.468  10.625  17.952  1.00  0.00     0.020 C 
HETATM   17  C28 UNL     1      -1.915  10.843  17.411  1.00  0.00    -0.016 C 
HETATM   18  C29 UNL     1      -2.787  11.310  18.609  1.00  0.00     0.020 C 
HETATM   19  C30 UNL     1      -2.519   9.495  16.838  1.00  0.00     0.002 C 
HETATM   20  C31 UNL     1      -1.609   8.718  15.862  1.00  0.00     0.007 C 
HETATM   21  C32 UNL     1      -2.148   7.315  15.613  1.00  0.00     0.014 C 
HETATM   22  C33 UNL     1      -3.628   7.202  15.202  1.00  0.00     0.003 C 
HETATM   23  C34 UNL     1      -4.150   5.856  15.804  1.00  0.00     0.020 C 
ENDROOT
BRANCH   3  24
HETATM   24  O1  UNL     1      -3.135   8.298  13.056  1.00  0.00    -0.377 OA
HETATM   25  H2  UNL     1      -3.732   9.047  12.873  1.00  0.00     0.211 HD
ENDBRANCH   3  24
BRANCH  13  26
HETATM   26  O2  UNL     1       2.546  13.066  17.220  1.00  0.00    -0.271 OA
BRANCH  26  27
HETATM   27  C13 UNL     1       3.653  12.768  16.375  1.00  0.00     0.303 C 
BRANCH  27  28
HETATM   28  C14 UNL     1       4.775  12.075  17.137  1.00  0.00     0.244 C 
HETATM   29  O3  UNL     1       4.846  10.849  17.226  1.00  0.00    -0.271 OA
HETATM   30  N2  UNL     1       5.719  12.919  17.687  1.00  0.00    -0.346 N 
HETATM   31  H16 UNL     1       5.766  13.844  17.271  1.00  0.00     0.163 HD
BRANCH  30  32
HETATM   32  C15 UNL     1       6.962  12.380  18.239  1.00  0.00     0.180 C 
BRANCH  32  33
HETATM   33  C16 UNL     1       6.658  11.850  19.661  1.00  0.00     0.241 C 
HETATM   34  O4  UNL     1       6.029  10.810  19.859  1.00  0.00    -0.271 OA
HETATM   35  N3  UNL     1       7.155  12.626  20.690  1.00  0.00    -0.344 N 
HETATM   36  H18 UNL     1       7.906  13.265  20.457  1.00  0.00     0.163 HD
BRANCH  35  37
HETATM   37  C17 UNL     1       7.077  12.183  22.085  1.00  0.00     0.186 C 
BRANCH  37  38
HETATM   38  C18 UNL     1       8.474  12.272  22.709  1.00  0.00     0.163 C 
HETATM   39  O5  UNL     1       9.242  13.224  22.654  1.00  0.00    -0.648 OA
BRANCH  38  40
HETATM   40  O6  UNL     1       8.813  11.166  23.404  1.00  0.00    -0.775 OA
HETATM   41  H20 UNL     1       9.721  11.346  23.717  1.00  0.00     0.167 HD
ENDBRANCH  38  40
ENDBRANCH  37  38
BRANCH  37  42
HETATM   42  C19 UNL     1       6.044  13.000  22.902  1.00  0.00     0.014 C 
HETATM   43  C20 UNL     1       5.921  14.454  22.413  1.00  0.00     0.012 C 
BRANCH  42  44
HETATM   44  C21 UNL     1       4.646  12.345  22.907  1.00  0.00     0.002 C 
HETATM   45  C22 UNL     1       4.688  10.831  23.025  1.00  0.00     0.005 C 
ENDBRANCH  42  44
ENDBRANCH  37  42
ENDBRANCH  35  37
ENDBRANCH  32  33
BRANCH  32  46
HETATM   46  C23 UNL     1       7.557  11.317  17.288  1.00  0.00     0.009 C 
HETATM   47  C24 UNL     1       7.972  11.917  15.943  1.00  0.00     0.012 C 
HETATM   48  C25 UNL     1       8.726  10.536  17.895  1.00  0.00     0.012 C 
ENDBRANCH  32  46
ENDBRANCH  30  32
ENDBRANCH  27  28
ENDBRANCH  26  27
ENDBRANCH  13  26
TORSDOF 12
ENDMDL
MODEL 4
REMARK minimizedAffinity -7.68668938
REMARK CNNscore 0.261544079
REMARK CNNaffinity 6.57872581
REMARK  12 active torsions:
REMARK  status: ('A' for Active; 'I' for Inactive)
REMARK    1  A    between atoms: C3_3  and  O1_4 
REMARK    2  A    between atoms: N1_14  and  O2_16 
REMARK    3  A    between atoms: O2_16  and  C13_17 
REMARK    4  A    between atoms: C13_17  and  C14_18 
REMARK       I    between atoms: C14_18  and  N2_20 
REMARK    5  A    between atoms: N2_20  and  C15_21 
REMARK    6  A    between atoms: C15_21  and  C16_22 
REMARK    7  A    between atoms: C15_21  and  C23_33 
REMARK       I    between atoms: C16_22  and  N3_24 
REMARK    8  A    between atoms: N3_24  and  C17_25 
REMARK    9  A    between atoms: C17_25  and  C18_26 
REMARK   10  A    between atoms: C17_25  and  C19_29 
REMARK   11  A    between atoms: C18_26  and  O6_28 
REMARK   12  A    between atoms: C19_29  and  C21_31 
ROOT
HETATM    1  C1  UNL     1      -7.652   6.790  16.670  1.00  0.00     0.015 C 
HETATM    2  C2  UNL     1      -6.659   6.578  16.023  1.00  0.00    -0.078 C 
HETATM    3  C3  UNL     1      -5.437   6.323  15.239  1.00  0.00     0.128 C 
HETATM    4  C4  UNL     1      -5.641   5.133  14.289  1.00  0.00     0.052 C 
HETATM    5  C5  UNL     1      -4.612   5.318  13.167  1.00  0.00     0.010 C 
HETATM    6  C6  UNL     1      -4.097   6.771  13.249  1.00  0.00     0.002 C 
HETATM    7  C7  UNL     1      -2.552   6.945  13.376  1.00  0.00    -0.004 C 
HETATM    8  C8  UNL     1      -1.779   5.924  14.244  1.00  0.00     0.010 C 
HETATM    9  C9  UNL     1      -0.266   6.142  14.186  1.00  0.00     0.035 C 
HETATM   10  C10 UNL     1       0.136   7.559  14.502  1.00  0.00    -0.069 C 
HETATM   11  C11 UNL     1       1.133   7.796  15.378  1.00  0.00     0.030 C 
HETATM   12  C12 UNL     1       1.612   9.175  15.655  1.00  0.00     0.032 C 
HETATM   13  N1  UNL     1       2.343   9.362  16.715  1.00  0.00    -0.271 N 
ATOM     14  H1  UNL     1       2.640   8.613  17.342  1.00  0.00     0.194 HD
HETATM   15  C26 UNL     1       1.210  10.246  14.663  1.00  0.00     0.060 C 
HETATM   16  C27 UNL     1      -0.275  10.064  14.351  1.00  0.00     0.020 C 
HETATM   17  C28 UNL     1      -0.623   8.662  13.762  1.00  0.00    -0.016 C 
HETATM   18  C29 UNL     1      -0.147   8.655  12.282  1.00  0.00     0.020 C 
HETATM   19  C30 UNL     1      -2.185   8.401  13.795  1.00  0.00     0.002 C 
HETATM   20  C31 UNL     1      -2.882   8.692  15.142  1.00  0.00     0.007 C 
HETATM   21  C32 UNL     1      -4.397   8.701  14.983  1.00  0.00     0.014 C 
HETATM   22  C33 UNL     1      -5.029   7.484  14.281  1.00  0.00     0.003 C 
HETATM   23  C34 UNL     1      -6.277   8.022  13.507  1.00  0.00     0.020 C 
ENDROOT
BRANCH   3  24
HETATM   24  O1  UNL     1      -4.400   6.044  16.172  1.00  0.00    -0.377 OA
HETATM   25  H2  UNL     1      -3.923   5.241  15.889  1.00  0.00     0.211 HD
ENDBRANCH   3  24
BRANCH  13  26
HETATM   26  O2  UNL     1       2.674  10.712  16.894  1.00  0.00    -0.271 OA
BRANCH  26  27
HETATM   27  C13 UNL     1       3.946  10.946  16.300  1.00  0.00     0.303 C 
BRANCH  27  28
HETATM   28  C14 UNL     1       4.758  11.968  17.087  1.00  0.00     0.244 C 
HETATM   29  O3  UNL     1       4.305  13.072  17.388  1.00  0.00    -0.271 OA
HETATM   30  N2  UNL     1       6.019  11.549  17.465  1.00  0.00    -0.346 N 
HETATM   31  H16 UNL     1       6.153  10.543  17.481  1.00  0.00     0.163 HD
BRANCH  30  32
HETATM   32  C15 UNL     1       6.804  12.335  18.417  1.00  0.00     0.180 C 
BRANCH  32  33
HETATM   33  C16 UNL     1       6.478  11.820  19.839  1.00  0.00     0.241 C 
HETATM   34  O4  UNL     1       5.793  10.816  20.038  1.00  0.00    -0.271 OA
HETATM   35  N3  UNL     1       7.021  12.565  20.868  1.00  0.00    -0.344 N 
HETATM   36  H18 UNL     1       7.805  13.162  20.632  1.00  0.00     0.163 HD
BRANCH  35  37
HETATM   37  C17 UNL     1       6.924  12.124  22.263  1.00  0.00     0.186 C 
BRANCH  37  38
HETATM   38  C18 UNL     1       8.291  12.308  22.933  1.00  0.00     0.163 C 
HETATM   39  O5  UNL     1       8.868  13.368  23.141  1.00  0.00    -0.648 OA
BRANCH  38  40
HETATM   40  O6  UNL     1       8.840  11.145  23.340  1.00  0.00    -0.775 OA
HETATM   41  H20 UNL     1       9.703  11.404  23.717  1.00  0.00     0.167 HD
ENDBRANCH  38  40
ENDBRANCH  37  38
BRANCH  37  42
HETATM   42  C19 UNL     1       5.813  12.875  23.038  1.00  0.00     0.014 C 
HETATM   43  C20 UNL     1       5.664  14.339  22.589  1.00  0.00     0.012 C 
BRANCH  42  44
HETATM   44  C21 UNL     1       4.443  12.169  22.934  1.00  0.00     0.002 C 
HETATM   45  C22 UNL     1       4.518  10.667  23.153  1.00  0.00     0.005 C 
ENDBRANCH  42  44
ENDBRANCH  37  42
ENDBRANCH  35  37
ENDBRANCH  32  33
BRANCH  32  46
HETATM   46  C23 UNL     1       8.306  12.274  18.058  1.00  0.00     0.009 C 
HETATM   47  C24 UNL     1       8.628  11.097  17.135  1.00  0.00     0.012 C 
HETATM   48  C25 UNL     1       8.847  13.574  17.456  1.00  0.00     0.012 C 
ENDBRANCH  32  46
ENDBRANCH  30  32
ENDBRANCH  27  28
ENDBRANCH  26  27
ENDBRANCH  13  26
TORSDOF 12
ENDMDL
MODEL 5
REMARK minimizedAffinity -8.10738564
REMARK CNNscore 0.240860105
REMARK CNNaffinity 6.95702124
REMARK  12 active torsions:
REMARK  status: ('A' for Active; 'I' for Inactive)
REMARK    1  A    between atoms: C3_3  and  O1_4 
REMARK    2  A    between atoms: N1_14  and  O2_16 
REMARK    3  A    between atoms: O2_16  and  C13_17 
REMARK    4  A    between atoms: C13_17  and  C14_18 
REMARK       I    between atoms: C14_18  and  N2_20 
REMARK    5  A    between atoms: N2_20  and  C15_21 
REMARK    6  A    between atoms: C15_21  and  C16_22 
REMARK    7  A    between atoms: C15_21  and  C23_33 
REMARK       I    between atoms: C16_22  and  N3_24 
REMARK    8  A    between atoms: N3_24  and  C17_25 
REMARK    9  A    between atoms: C17_25  and  C18_26 
REMARK   10  A    between atoms: C17_25  and  C19_29 
REMARK   11  A    between atoms: C18_26  and  O6_28 
REMARK   12  A    between atoms: C19_29  and  C21_31 
ROOT
HETATM    1  C1  UNL     1      -1.080  10.383  13.731  1.00  0.00     0.015 C 
HETATM    2  C2  UNL     1      -1.709   9.357  13.777  1.00  0.00    -0.078 C 
HETATM    3  C3  UNL     1      -2.488   8.107  13.827  1.00  0.00     0.128 C 
HETATM    4  C4  UNL     1      -1.557   6.886  13.771  1.00  0.00     0.052 C 
HETATM    5  C5  UNL     1      -2.347   5.732  14.400  1.00  0.00     0.010 C 
HETATM    6  C6  UNL     1      -3.543   6.352  15.156  1.00  0.00     0.002 C 
HETATM    7  C7  UNL     1      -4.955   5.820  14.759  1.00  0.00    -0.004 C 
HETATM    8  C8  UNL     1      -5.214   5.501  13.267  1.00  0.00     0.010 C 
HETATM    9  C9  UNL     1      -6.592   4.880  13.038  1.00  0.00     0.035 C 
HETATM   10  C10 UNL     1      -7.710   5.694  13.637  1.00  0.00    -0.069 C 
HETATM   11  C11 UNL     1      -8.808   5.971  12.904  1.00  0.00     0.030 C 
HETATM   12  C12 UNL     1      -9.965   6.701  13.483  1.00  0.00     0.032 C 
HETATM   13  N1  UNL     1     -10.840   7.201  12.660  1.00  0.00    -0.271 N 
ATOM     14  H1  UNL     1     -10.801   7.086  11.647  1.00  0.00     0.194 HD
HETATM   15  C26 UNL     1     -10.025   6.789  14.993  1.00  0.00     0.060 C 
HETATM   16  C27 UNL     1      -8.632   7.161  15.498  1.00  0.00     0.020 C 
HETATM   17  C28 UNL     1      -7.525   6.140  15.088  1.00  0.00    -0.016 C 
HETATM   18  C29 UNL     1      -7.695   4.890  15.994  1.00  0.00     0.020 C 
HETATM   19  C30 UNL     1      -6.079   6.743  15.320  1.00  0.00     0.002 C 
HETATM   20  C31 UNL     1      -5.848   8.161  14.753  1.00  0.00     0.007 C 
HETATM   21  C32 UNL     1      -4.551   8.758  15.284  1.00  0.00     0.014 C 
HETATM   22  C33 UNL     1      -3.282   7.893  15.152  1.00  0.00     0.003 C 
HETATM   23  C34 UNL     1      -2.388   8.230  16.390  1.00  0.00     0.020 C 
ENDROOT
BRANCH   3  24
HETATM   24  O1  UNL     1      -3.362   8.119  12.704  1.00  0.00    -0.377 OA
HETATM   25  H2  UNL     1      -3.307   7.260  12.247  1.00  0.00     0.211 HD
ENDBRANCH   3  24
BRANCH  13  26
HETATM   26  O2  UNL     1     -11.842   7.916  13.330  1.00  0.00    -0.271 OA
BRANCH  26  27
HETATM   27  C13 UNL     1     -12.539   7.018  14.188  1.00  0.00     0.303 C 
BRANCH  27  28
HETATM   28  C14 UNL     1     -14.048   7.119  14.005  1.00  0.00     0.244 C 
HETATM   29  O3  UNL     1     -14.808   7.345  14.947  1.00  0.00    -0.271 OA
HETATM   30  N2  UNL     1     -14.493   6.975  12.705  1.00  0.00    -0.346 N 
HETATM   31  H16 UNL     1     -13.794   7.145  11.989  1.00  0.00     0.163 HD
BRANCH  30  32
HETATM   32  C15 UNL     1     -15.881   7.281  12.360  1.00  0.00     0.180 C 
BRANCH  32  33
HETATM   33  C16 UNL     1     -16.795   6.446  13.289  1.00  0.00     0.241 C 
HETATM   34  O4  UNL     1     -17.828   6.900  13.782  1.00  0.00    -0.271 OA
HETATM   35  N3  UNL     1     -16.369   5.152  13.515  1.00  0.00    -0.344 N 
HETATM   36  H18 UNL     1     -15.713   4.766  12.847  1.00  0.00     0.163 HD
BRANCH  35  37
HETATM   37  C17 UNL     1     -17.199   4.194  14.252  1.00  0.00     0.186 C 
BRANCH  37  38
HETATM   38  C18 UNL     1     -17.809   3.202  13.255  1.00  0.00     0.163 C 
HETATM   39  O5  UNL     1     -18.174   3.443  12.112  1.00  0.00    -0.648 OA
BRANCH  38  40
HETATM   40  O6  UNL     1     -17.890   1.946  13.742  1.00  0.00    -0.775 OA
HETATM   41  H20 UNL     1     -18.315   1.436  13.026  1.00  0.00     0.167 HD
ENDBRANCH  38  40
ENDBRANCH  37  38
BRANCH  37  42
HETATM   42  C19 UNL     1     -16.402   3.459  15.359  1.00  0.00     0.014 C 
HETATM   43  C20 UNL     1     -17.248   2.407  16.098  1.00  0.00     0.012 C 
BRANCH  42  44
HETATM   44  C21 UNL     1     -15.120   2.791  14.817  1.00  0.00     0.002 C 
HETATM   45  C22 UNL     1     -15.028   1.309  15.137  1.00  0.00     0.005 C 
ENDBRANCH  42  44
ENDBRANCH  37  42
ENDBRANCH  35  37
ENDBRANCH  32  33
BRANCH  32  46
HETATM   46  C23 UNL     1     -16.133   8.804  12.438  1.00  0.00     0.009 C 
HETATM   47  C24 UNL     1     -14.836   9.607  12.314  1.00  0.00     0.012 C 
HETATM   48  C25 UNL     1     -17.161   9.309  11.421  1.00  0.00     0.012 C 
ENDBRANCH  32  46
ENDBRANCH  30  32
ENDBRANCH  27  28
ENDBRANCH  26  27
ENDBRANCH  13  26
TORSDOF 12
ENDMDL
MODEL 6
REMARK minimizedAffinity -7.49400663
REMARK CNNscore 0.228994638
REMARK CNNaffinity 5.62152624
REMARK  12 active torsions:
REMARK  status: ('A' for Active; 'I' for Inactive)
REMARK    1  A    between atoms: C3_3  and  O1_4 
REMARK    2  A    between atoms: N1_14  and  O2_16 
REMARK    3  A    between atoms: O2_16  and  C13_17 
REMARK    4  A    between atoms: C13_17  and  C14_18 
REMARK       I    between atoms: C14_18  and  N2_20 
REMARK    5  A    between atoms: N2_20  and  C15_21 
REMARK    6  A    between atoms: C15_21  and  C16_22 
REMARK    7  A    between atoms: C15_21  and  C23_33 
REMARK       I    between atoms: C16_22  and  N3_24 
REMARK    8  A    between atoms: N3_24  and  C17_25 
REMARK    9  A    between atoms: C17_25  and  C18_26 
REMARK   10  A    between atoms: C17_25  and  C19_29 
REMARK   11  A    between atoms: C18_26  and  O6_28 
REMARK   12  A    between atoms: C19_29  and  C21_31 
ROOT
HETATM    1  C1  UNL     1       1.922   8.738  11.987  1.00  0.00     0.015 C 
HETATM    2  C2  UNL     1       3.059   8.403  12.196  1.00  0.00    -0.078 C 
HETATM    3  C3  UNL     1       4.451   7.996  12.463  1.00  0.00     0.128 C 
HETATM    4  C4  UNL     1       4.801   6.719  11.684  1.00  0.00     0.052 C 
HETATM    5  C5  UNL     1       6.329   6.721  11.551  1.00  0.00     0.010 C 
HETATM    6  C6  UNL     1       6.819   8.145  11.892  1.00  0.00     0.002 C 
HETATM    7  C7  UNL     1       7.886   8.250  13.025  1.00  0.00    -0.004 C 
HETATM    8  C8  UNL     1       7.752   7.293  14.234  1.00  0.00     0.010 C 
HETATM    9  C9  UNL     1       8.925   7.423  15.208  1.00  0.00     0.035 C 
HETATM   10  C10 UNL     1       9.171   8.844  15.645  1.00  0.00    -0.069 C 
HETATM   11  C11 UNL     1       9.341   9.125  16.953  1.00  0.00     0.030 C 
HETATM   12  C12 UNL     1       9.667  10.499  17.416  1.00  0.00     0.032 C 
HETATM   13  N1  UNL     1       9.512  10.765  18.680  1.00  0.00    -0.271 N 
ATOM     14  H1  UNL     1       9.223  10.077  19.377  1.00  0.00     0.194 HD
HETATM   15  C26 UNL     1      10.161  11.471  16.365  1.00  0.00     0.060 C 
HETATM   16  C27 UNL     1       9.261  11.334  15.138  1.00  0.00     0.020 C 
HETATM   17  C28 UNL     1       9.239   9.895  14.536  1.00  0.00    -0.016 C 
HETATM   18  C29 UNL     1      10.579   9.695  13.774  1.00  0.00     0.020 C 
HETATM   19  C30 UNL     1       8.042   9.722  13.513  1.00  0.00     0.002 C 
HETATM   20  C31 UNL     1       6.662  10.200  14.014  1.00  0.00     0.007 C 
HETATM   21  C32 UNL     1       5.659  10.272  12.869  1.00  0.00     0.014 C 
HETATM   22  C33 UNL     1       5.526   9.018  11.982  1.00  0.00     0.003 C 
HETATM   23  C34 UNL     1       5.193   9.531  10.543  1.00  0.00     0.020 C 
ENDROOT
BRANCH   3  24
HETATM   24  O1  UNL     1       4.553   7.769  13.864  1.00  0.00    -0.377 OA
HETATM   25  H2  UNL     1       4.999   6.916  14.017  1.00  0.00     0.211 HD
ENDBRANCH   3  24
BRANCH  13  26
HETATM   26  O2  UNL     1       9.791  12.107  18.972  1.00  0.00    -0.271 OA
BRANCH  26  27
HETATM   27  C13 UNL     1      10.738  12.150  20.034  1.00  0.00     0.303 C 
BRANCH  27  28
HETATM   28  C14 UNL     1      12.113  12.589  19.547  1.00  0.00     0.244 C 
HETATM   29  O3  UNL     1      13.150  12.241  20.113  1.00  0.00    -0.271 OA
HETATM   30  N2  UNL     1      12.110  13.372  18.409  1.00  0.00    -0.346 N 
HETATM   31  H16 UNL     1      11.271  13.304  17.841  1.00  0.00     0.163 HD
BRANCH  30  32
HETATM   32  C15 UNL     1      13.360  13.663  17.708  1.00  0.00     0.180 C 
BRANCH  32  33
HETATM   33  C16 UNL     1      14.297  14.399  18.697  1.00  0.00     0.241 C 
HETATM   34  O4  UNL     1      13.956  15.421  19.294  1.00  0.00    -0.271 OA
HETATM   35  N3  UNL     1      15.538  13.818  18.866  1.00  0.00    -0.344 N 
HETATM   36  H18 UNL     1      15.625  12.844  18.600  1.00  0.00     0.163 HD
BRANCH  35  37
HETATM   37  C17 UNL     1      16.480  14.312  19.874  1.00  0.00     0.186 C 
BRANCH  37  38
HETATM   38  C18 UNL     1      16.212  13.585  21.197  1.00  0.00     0.163 C 
HETATM   39  O5  UNL     1      16.144  14.091  22.310  1.00  0.00    -0.648 OA
BRANCH  38  40
HETATM   40  O6  UNL     1      16.003  12.262  21.038  1.00  0.00    -0.775 OA
HETATM   41  H20 UNL     1      15.875  11.927  21.947  1.00  0.00     0.167 HD
ENDBRANCH  38  40
ENDBRANCH  37  38
BRANCH  37  42
HETATM   42  C19 UNL     1      17.955  14.143  19.430  1.00  0.00     0.014 C 
HETATM   43  C20 UNL     1      18.928  14.081  20.620  1.00  0.00     0.012 C 
BRANCH  42  44
HETATM   44  C21 UNL     1      18.163  12.900  18.538  1.00  0.00     0.002 C 
HETATM   45  C22 UNL     1      19.018  11.825  19.189  1.00  0.00     0.005 C 
ENDBRANCH  42  44
ENDBRANCH  37  42
ENDBRANCH  35  37
ENDBRANCH  32  33
BRANCH  32  46
HETATM   46  C23 UNL     1      13.964  12.367  17.121  1.00  0.00     0.009 C 
HETATM   47  C24 UNL     1      13.013  11.688  16.134  1.00  0.00     0.012 C 
HETATM   48  C25 UNL     1      15.336  12.569  16.471  1.00  0.00     0.012 C 
ENDBRANCH  32  46
ENDBRANCH  30  32
ENDBRANCH  27  28
ENDBRANCH  26  27
ENDBRANCH  13  26
TORSDOF 12
ENDMDL
MODEL 7
REMARK minimizedAffinity -8.24712753
REMARK CNNscore 0.228599682
REMARK CNNaffinity 5.94150209
REMARK  12 active torsions:
REMARK  status: ('A' for Active; 'I' for Inactive)
REMARK    1  A    between atoms: C3_3  and  O1_4 
REMARK    2  A    between atoms: N1_14  and  O2_16 
REMARK    3  A    between atoms: O2_16  and  C13_17 
REMARK    4  A    between atoms: C13_17  and  C14_18 
REMARK       I    between atoms: C14_18  and  N2_20 
REMARK    5  A    between atoms: N2_20  and  C15_21 
REMARK    6  A    between atoms: C15_21  and  C16_22 
REMARK    7  A    between atoms: C15_21  and  C23_33 
REMARK       I    between atoms: C16_22  and  N3_24 
REMARK    8  A    between atoms: N3_24  and  C17_25 
REMARK    9  A    between atoms: C17_25  and  C18_26 
REMARK   10  A    between atoms: C17_25  and  C19_29 
REMARK   11  A    between atoms: C18_26  and  O6_28 
REMARK   12  A    between atoms: C19_29  and  C21_31 
ROOT
HETATM    1  C1  UNL     1      -1.013   6.138  12.111  1.00  0.00     0.015 C 
HETATM    2  C2  UNL     1       0.123   6.232  11.724  1.00  0.00    -0.078 C 
HETATM    3  C3  UNL     1       1.518   6.349  11.261  1.00  0.00     0.128 C 
HETATM    4  C4  UNL     1       1.759   5.453  10.035  1.00  0.00     0.052 C 
HETATM    5  C5  UNL     1       2.965   6.061   9.309  1.00  0.00     0.010 C 
HETATM    6  C6  UNL     1       3.172   7.484   9.871  1.00  0.00     0.002 C 
HETATM    7  C7  UNL     1       4.588   7.796  10.447  1.00  0.00    -0.004 C 
HETATM    8  C8  UNL     1       5.316   6.671  11.221  1.00  0.00     0.010 C 
HETATM    9  C9  UNL     1       6.735   7.072  11.626  1.00  0.00     0.035 C 
HETATM   10  C10 UNL     1       6.787   8.384  12.366  1.00  0.00    -0.069 C 
HETATM   11  C11 UNL     1       7.496   8.484  13.509  1.00  0.00     0.030 C 
HETATM   12  C12 UNL     1       7.638   9.778  14.225  1.00  0.00     0.032 C 
HETATM   13  N1  UNL     1       8.059   9.748  15.456  1.00  0.00    -0.271 N 
ATOM     14  H1  UNL     1       8.337   8.895  15.942  1.00  0.00     0.194 HD
HETATM   15  C26 UNL     1       7.284  11.028  13.446  1.00  0.00     0.060 C 
HETATM   16  C27 UNL     1       5.969  10.766  12.712  1.00  0.00     0.020 C 
HETATM   17  C28 UNL     1       6.028   9.552  11.734  1.00  0.00    -0.016 C 
HETATM   18  C29 UNL     1       6.822  10.011  10.480  1.00  0.00     0.020 C 
HETATM   19  C30 UNL     1       4.575   9.111  11.283  1.00  0.00     0.002 C 
HETATM   20  C31 UNL     1       3.548   8.934  12.422  1.00  0.00     0.007 C 
HETATM   21  C32 UNL     1       2.133   8.809  11.868  1.00  0.00     0.014 C 
HETATM   22  C33 UNL     1       1.913   7.769  10.752  1.00  0.00     0.003 C 
HETATM   23  C34 UNL     1       0.799   8.350   9.822  1.00  0.00     0.020 C 
ENDROOT
BRANCH   3  24
HETATM   24  O1  UNL     1       2.348   5.945  12.344  1.00  0.00    -0.377 OA
HETATM   25  H2  UNL     1       3.015   5.314  12.017  1.00  0.00     0.211 HD
ENDBRANCH   3  24
BRANCH  13  26
HETATM   26  O2  UNL     1       8.086  11.025  16.033  1.00  0.00    -0.271 OA
BRANCH  26  27
HETATM   27  C13 UNL     1       8.140  10.878  17.448  1.00  0.00     0.303 C 
BRANCH  27  28
HETATM   28  C14 UNL     1       7.167  11.815  18.151  1.00  0.00     0.244 C 
HETATM   29  O3  UNL     1       6.354  12.501  17.530  1.00  0.00    -0.271 OA
HETATM   30  N2  UNL     1       7.240  11.811  19.531  1.00  0.00    -0.346 N 
HETATM   31  H16 UNL     1       7.669  10.986  19.937  1.00  0.00     0.163 HD
BRANCH  30  32
HETATM   32  C15 UNL     1       6.213  12.481  20.328  1.00  0.00     0.180 C 
BRANCH  32  33
HETATM   33  C16 UNL     1       5.054  11.479  20.547  1.00  0.00     0.241 C 
HETATM   34  O4  UNL     1       5.218  10.260  20.500  1.00  0.00    -0.271 OA
HETATM   35  N3  UNL     1       3.827  12.056  20.810  1.00  0.00    -0.344 N 
HETATM   36  H18 UNL     1       3.836  13.014  21.139  1.00  0.00     0.163 HD
BRANCH  35  37
HETATM   37  C17 UNL     1       2.666  11.242  21.183  1.00  0.00     0.186 C 
BRANCH  37  38
HETATM   38  C18 UNL     1       1.970  10.762  19.904  1.00  0.00     0.163 C 
HETATM   39  O5  UNL     1       0.898  11.155  19.462  1.00  0.00    -0.648 OA
BRANCH  38  40
HETATM   40  O6  UNL     1       2.685   9.838  19.229  1.00  0.00    -0.775 OA
HETATM   41  H20 UNL     1       2.121   9.606  18.466  1.00  0.00     0.167 HD
ENDBRANCH  38  40
ENDBRANCH  37  38
BRANCH  37  42
HETATM   42  C19 UNL     1       3.056  10.049  22.092  1.00  0.00     0.014 C 
HETATM   43  C20 UNL     1       3.241  10.461  23.563  1.00  0.00     0.012 C 
BRANCH  42  44
HETATM   44  C21 UNL     1       2.037   8.891  22.013  1.00  0.00     0.002 C 
HETATM   45  C22 UNL     1       2.041   7.997  23.241  1.00  0.00     0.005 C 
ENDBRANCH  42  44
ENDBRANCH  37  42
ENDBRANCH  35  37
ENDBRANCH  32  33
BRANCH  32  46
HETATM   46  C23 UNL     1       6.821  13.033  21.638  1.00  0.00     0.009 C 
HETATM   47  C24 UNL     1       6.244  12.340  22.874  1.00  0.00     0.012 C 
HETATM   48  C25 UNL     1       8.351  12.979  21.674  1.00  0.00     0.012 C 
ENDBRANCH  32  46
ENDBRANCH  30  32
ENDBRANCH  27  28
ENDBRANCH  26  27
ENDBRANCH  13  26
TORSDOF 12
ENDMDL
MODEL 8
REMARK minimizedAffinity -7.49741983
REMARK CNNscore 0.21642153
REMARK CNNaffinity 5.33621216
REMARK  12 active torsions:
REMARK  status: ('A' for Active; 'I' for Inactive)
REMARK    1  A    between atoms: C3_3  and  O1_4 
REMARK    2  A    between atoms: N1_14  and  O2_16 
REMARK    3  A    between atoms: O2_16  and  C13_17 
REMARK    4  A    between atoms: C13_17  and  C14_18 
REMARK       I    between atoms: C14_18  and  N2_20 
REMARK    5  A    between atoms: N2_20  and  C15_21 
REMARK    6  A    between atoms: C15_21  and  C16_22 
REMARK    7  A    between atoms: C15_21  and  C23_33 
REMARK       I    between atoms: C16_22  and  N3_24 
REMARK    8  A    between atoms: N3_24  and  C17_25 
REMARK    9  A    between atoms: C17_25  and  C18_26 
REMARK   10  A    between atoms: C17_25  and  C19_29 
REMARK   11  A    between atoms: C18_26  and  O6_28 
REMARK   12  A    between atoms: C19_29  and  C21_31 
ROOT
HETATM    1  C1  UNL     1       1.339   7.934  10.896  1.00  0.00     0.015 C 
HETATM    2  C2  UNL     1       2.480   7.726  11.218  1.00  0.00    -0.078 C 
HETATM    3  C3  UNL     1       3.875   7.476  11.624  1.00  0.00     0.128 C 
HETATM    4  C4  UNL     1       4.405   6.187  10.978  1.00  0.00     0.052 C 
HETATM    5  C5  UNL     1       5.931   6.327  10.964  1.00  0.00     0.010 C 
HETATM    6  C6  UNL     1       6.259   7.813  11.229  1.00  0.00     0.002 C 
HETATM    7  C7  UNL     1       7.213   8.102  12.430  1.00  0.00    -0.004 C 
HETATM    8  C8  UNL     1       7.065   7.225  13.697  1.00  0.00     0.010 C 
HETATM    9  C9  UNL     1       8.133   7.537  14.745  1.00  0.00     0.035 C 
HETATM   10  C10 UNL     1       8.212   9.003  15.086  1.00  0.00    -0.069 C 
HETATM   11  C11 UNL     1       8.244   9.392  16.377  1.00  0.00     0.030 C 
HETATM   12  C12 UNL     1       8.403  10.821  16.753  1.00  0.00     0.032 C 
HETATM   13  N1  UNL     1       8.119  11.161  17.977  1.00  0.00    -0.271 N 
ATOM     14  H1  UNL     1       7.835  10.500  18.701  1.00  0.00     0.194 HD
HETATM   15  C26 UNL     1       8.895  11.759  15.671  1.00  0.00     0.060 C 
HETATM   16  C27 UNL     1       8.118  11.448  14.392  1.00  0.00     0.020 C 
HETATM   17  C28 UNL     1       8.278   9.974  13.906  1.00  0.00    -0.016 C 
HETATM   18  C29 UNL     1       9.690   9.851  13.269  1.00  0.00     0.020 C 
HETATM   19  C30 UNL     1       7.193   9.613  12.810  1.00  0.00     0.002 C 
HETATM   20  C31 UNL     1       5.737   9.990  13.163  1.00  0.00     0.007 C 
HETATM   21  C32 UNL     1       4.833   9.881  11.941  1.00  0.00     0.014 C 
HETATM   22  C33 UNL     1       4.890   8.561  11.149  1.00  0.00     0.003 C 
HETATM   23  C34 UNL     1       4.635   8.934   9.652  1.00  0.00     0.020 C 
ENDROOT
BRANCH   3  24
HETATM   24  O1  UNL     1       3.878   7.361  13.042  1.00  0.00    -0.377 OA
HETATM   25  H2  UNL     1       4.385   6.568  13.297  1.00  0.00     0.211 HD
ENDBRANCH   3  24
BRANCH  13  26
HETATM   26  O2  UNL     1       8.248  12.541  18.182  1.00  0.00    -0.271 OA
BRANCH  26  27
HETATM   27  C13 UNL     1       9.310  12.761  19.105  1.00  0.00     0.303 C 
BRANCH  27  28
HETATM   28  C14 UNL     1       8.953  12.271  20.503  1.00  0.00     0.244 C 
HETATM   29  O3  UNL     1       9.655  11.465  21.113  1.00  0.00    -0.271 OA
HETATM   30  N2  UNL     1       7.808  12.824  21.044  1.00  0.00    -0.346 N 
HETATM   31  H16 UNL     1       7.516  13.703  20.629  1.00  0.00     0.163 HD
BRANCH  30  32
HETATM   32  C15 UNL     1       7.484  12.620  22.456  1.00  0.00     0.180 C 
BRANCH  32  33
HETATM   33  C16 UNL     1       8.329  13.618  23.284  1.00  0.00     0.241 C 
HETATM   34  O4  UNL     1       9.303  13.266  23.950  1.00  0.00    -0.271 OA
HETATM   35  N3  UNL     1       7.913  14.933  23.212  1.00  0.00    -0.344 N 
HETATM   36  H18 UNL     1       7.328  15.183  22.424  1.00  0.00     0.163 HD
BRANCH  35  37
HETATM   37  C17 UNL     1       8.694  16.014  23.821  1.00  0.00     0.186 C 
BRANCH  37  38
HETATM   38  C18 UNL     1       9.724  16.512  22.801  1.00  0.00     0.163 C 
HETATM   39  O5  UNL     1      10.766  17.107  23.043  1.00  0.00    -0.648 OA
BRANCH  38  40
HETATM   40  O6  UNL     1       9.403  16.197  21.529  1.00  0.00    -0.775 OA
HETATM   41  H20 UNL     1      10.118  16.592  20.994  1.00  0.00     0.167 HD
ENDBRANCH  38  40
ENDBRANCH  37  38
BRANCH  37  42
HETATM   42  C19 UNL     1       7.797  17.172  24.325  1.00  0.00     0.014 C 
HETATM   43  C20 UNL     1       6.323  16.756  24.477  1.00  0.00     0.012 C 
BRANCH  42  44
HETATM   44  C21 UNL     1       8.297  17.768  25.658  1.00  0.00     0.002 C 
HETATM   45  C22 UNL     1       8.595  16.717  26.716  1.00  0.00     0.005 C 
ENDBRANCH  42  44
ENDBRANCH  37  42
ENDBRANCH  35  37
ENDBRANCH  32  33
BRANCH  32  46
HETATM   46  C23 UNL     1       5.961  12.748  22.684  1.00  0.00     0.009 C 
HETATM   47  C24 UNL     1       5.275  13.521  21.556  1.00  0.00     0.012 C 
HETATM   48  C25 UNL     1       5.258  11.405  22.902  1.00  0.00     0.012 C 
ENDBRANCH  32  46
ENDBRANCH  30  32
ENDBRANCH  27  28
ENDBRANCH  26  27
ENDBRANCH  13  26
TORSDOF 12
ENDMDL
MODEL 9
REMARK minimizedAffinity -8.47646618
REMARK CNNscore 0.214344874
REMARK CNNaffinity 7.36580038
REMARK  12 active torsions:
REMARK  status: ('A' for Active; 'I' for Inactive)
REMARK    1  A    between atoms: C3_3  and  O1_4 
REMARK    2  A    between atoms: N1_14  and  O2_16 
REMARK    3  A    between atoms: O2_16  and  C13_17 
REMARK    4  A    between atoms: C13_17  and  C14_18 
REMARK       I    between atoms: C14_18  and  N2_20 
REMARK    5  A    between atoms: N2_20  and  C15_21 
REMARK    6  A    between atoms: C15_21  and  C16_22 
REMARK    7  A    between atoms: C15_21  and  C23_33 
REMARK       I    between atoms: C16_22  and  N3_24 
REMARK    8  A    between atoms: N3_24  and  C17_25 
REMARK    9  A    between atoms: C17_25  and  C18_26 
REMARK   10  A    between atoms: C17_25  and  C19_29 
REMARK   11  A    between atoms: C18_26  and  O6_28 
REMARK   12  A    between atoms: C19_29  and  C21_31 
ROOT
HETATM    1  C1  UNL     1      -7.822   6.963  17.589  1.00  0.00     0.015 C 
HETATM    2  C2  UNL     1      -7.157   6.842  16.593  1.00  0.00    -0.078 C 
HETATM    3  C3  UNL     1      -6.333   6.690  15.380  1.00  0.00     0.128 C 
HETATM    4  C4  UNL     1      -7.170   6.120  14.224  1.00  0.00     0.052 C 
HETATM    5  C5  UNL     1      -6.447   6.543  12.941  1.00  0.00     0.010 C 
HETATM    6  C6  UNL     1      -5.445   7.654  13.322  1.00  0.00     0.002 C 
HETATM    7  C7  UNL     1      -3.957   7.402  12.925  1.00  0.00    -0.004 C 
HETATM    8  C8  UNL     1      -3.413   5.958  13.041  1.00  0.00     0.010 C 
HETATM    9  C9  UNL     1      -1.984   5.833  12.512  1.00  0.00     0.035 C 
HETATM   10  C10 UNL     1      -1.040   6.836  13.124  1.00  0.00    -0.069 C 
HETATM   11  C11 UNL     1       0.156   6.432  13.598  1.00  0.00     0.030 C 
HETATM   12  C12 UNL     1       1.146   7.401  14.134  1.00  0.00     0.032 C 
HETATM   13  N1  UNL     1       2.128   6.932  14.848  1.00  0.00    -0.271 N 
ATOM     14  H1  UNL     1       2.282   5.939  15.024  1.00  0.00     0.194 HD
HETATM   15  C26 UNL     1       0.925   8.859  13.791  1.00  0.00     0.060 C 
HETATM   16  C27 UNL     1      -0.556   9.172  14.004  1.00  0.00     0.020 C 
HETATM   17  C28 UNL     1      -1.512   8.291  13.140  1.00  0.00    -0.016 C 
HETATM   18  C29 UNL     1      -1.442   8.829  11.684  1.00  0.00     0.020 C 
HETATM   19  C30 UNL     1      -3.007   8.401  13.652  1.00  0.00     0.002 C 
HETATM   20  C31 UNL     1      -3.207   8.217  15.173  1.00  0.00     0.007 C 
HETATM   21  C32 UNL     1      -4.610   8.636  15.593  1.00  0.00     0.014 C 
HETATM   22  C33 UNL     1      -5.784   8.029  14.800  1.00  0.00     0.003 C 
HETATM   23  C34 UNL     1      -6.906   9.118  14.773  1.00  0.00     0.020 C 
ENDROOT
BRANCH   3  24
HETATM   24  O1  UNL     1      -5.271   5.803  15.711  1.00  0.00    -0.377 OA
HETATM   25  H2  UNL     1      -5.195   5.123  15.016  1.00  0.00     0.211 HD
ENDBRANCH   3  24
BRANCH  13  26
HETATM   26  O2  UNL     1       2.950   7.953  15.345  1.00  0.00    -0.271 OA
BRANCH  26  27
HETATM   27  C13 UNL     1       3.203   8.879  14.293  1.00  0.00     0.303 C 
BRANCH  27  28
HETATM   28  C14 UNL     1       4.249   8.354  13.317  1.00  0.00     0.244 C 
HETATM   29  O3  UNL     1       4.493   8.920  12.252  1.00  0.00    -0.271 OA
HETATM   30  N2  UNL     1       4.921   7.221  13.733  1.00  0.00    -0.346 N 
HETATM   31  H16 UNL     1       4.903   7.050  14.733  1.00  0.00     0.163 HD
BRANCH  30  32
HETATM   32  C15 UNL     1       6.101   6.753  13.005  1.00  0.00     0.180 C 
BRANCH  32  33
HETATM   33  C16 UNL     1       5.758   6.753  11.496  1.00  0.00     0.241 C 
HETATM   34  O4  UNL     1       6.566   7.097  10.634  1.00  0.00    -0.271 OA
HETATM   35  N3  UNL     1       4.479   6.329  11.190  1.00  0.00    -0.344 N 
HETATM   36  H18 UNL     1       4.001   5.779  11.894  1.00  0.00     0.163 HD
BRANCH  35  37
HETATM   37  C17 UNL     1       4.053   6.134   9.801  1.00  0.00     0.186 C 
BRANCH  37  38
HETATM   38  C18 UNL     1       3.562   4.691   9.634  1.00  0.00     0.163 C 
HETATM   39  O5  UNL     1       3.966   3.870   8.821  1.00  0.00    -0.648 OA
BRANCH  38  40
HETATM   40  O6  UNL     1       2.614   4.349  10.531  1.00  0.00    -0.775 OA
HETATM   41  H20 UNL     1       2.379   3.431  10.295  1.00  0.00     0.167 HD
ENDBRANCH  38  40
ENDBRANCH  37  38
BRANCH  37  42
HETATM   42  C19 UNL     1       2.963   7.150   9.375  1.00  0.00     0.014 C 
HETATM   43  C20 UNL     1       3.557   8.470   8.851  1.00  0.00     0.012 C 
BRANCH  42  44
HETATM   44  C21 UNL     1       1.999   6.571   8.317  1.00  0.00     0.002 C 
HETATM   45  C22 UNL     1       1.958   7.378   7.030  1.00  0.00     0.005 C 
ENDBRANCH  42  44
ENDBRANCH  37  42
ENDBRANCH  35  37
ENDBRANCH  32  33
BRANCH  32  46
HETATM   46  C23 UNL     1       7.334   7.613  13.367  1.00  0.00     0.009 C 
HETATM   47  C24 UNL     1       7.416   8.883  12.518  1.00  0.00     0.012 C 
HETATM   48  C25 UNL     1       7.419   7.969  14.854  1.00  0.00     0.012 C 
ENDBRANCH  32  46
ENDBRANCH  30  32
ENDBRANCH  27  28
ENDBRANCH  26  27
ENDBRANCH  13  26
TORSDOF 12
ENDMDL
