MODEL 1
REMARK minimizedAffinity -6.3741827
REMARK CNNscore 0.808036208
REMARK CNNaffinity 6.95851898
REMARK  7 active torsions:
REMARK  status: ('A' for Active; 'I' for Inactive)
REMARK    1  A    between atoms: C2_2  and  C3_3 
REMARK    2  A    between atoms: C2_2  and  C9_10 
REMARK    3  A    between atoms: C3_3  and  C4_4 
REMARK    4  A    between atoms: C5_5  and  C6_6 
REMARK    5  A    between atoms: C6_6  and  O1_9 
REMARK    6  A    between atoms: C17_18  and  C18_19 
REMARK    7  A    between atoms: C18_19  and  O2_22 
ROOT
HETATM    1  C9  UNL     1     -13.831 -11.983  28.158  1.00  0.00    -0.002 C 
HETATM    2  C10 UNL     1     -15.372 -12.088  27.912  1.00  0.00     0.006 C 
HETATM    3  C11 UNL     1     -16.003 -10.745  28.336  1.00  0.00     0.011 C 
HETATM    4  C12 UNL     1     -14.880 -10.026  29.105  1.00  0.00    -0.032 C 
HETATM    5  C13 UNL     1     -14.897 -10.650  30.543  1.00  0.00     0.016 C 
HETATM    6  C14 UNL     1     -14.987  -8.476  29.156  1.00  0.00     0.003 C 
HETATM    7  C15 UNL     1     -16.325  -7.938  29.693  1.00  0.00     0.009 C 
HETATM    8  C16 UNL     1     -16.266  -6.505  30.212  1.00  0.00     0.042 C 
HETATM    9  C17 UNL     1     -15.267  -5.550  29.507  1.00  0.00     0.095 C 
HETATM   10  O3  UNL     1     -15.168  -4.355  30.325  1.00  0.00    -0.377 OA
HETATM   11  C21 UNL     1     -14.325  -4.458  31.462  1.00  0.00     0.169 C 
HETATM   12  C22 UNL     1     -12.875  -4.562  31.042  1.00  0.00     0.027 C 
HETATM   13  C23 UNL     1     -12.684  -5.306  29.728  1.00  0.00     0.010 C 
HETATM   14  C24 UNL     1     -13.846  -6.227  29.298  1.00  0.00     0.032 C 
HETATM   15  C25 UNL     1     -13.721  -7.754  29.747  1.00  0.00    -0.033 C 
HETATM   16  C26 UNL     1     -13.576  -7.897  31.278  1.00  0.00     0.016 C 
HETATM   17  C27 UNL     1     -12.407  -8.364  29.126  1.00  0.00     0.011 C 
HETATM   18  C28 UNL     1     -12.363  -9.901  28.947  1.00  0.00     0.011 C 
HETATM   19  C29 UNL     1     -13.622 -10.437  28.239  1.00  0.00    -0.032 C 
HETATM   20  C30 UNL     1     -13.614  -9.870  26.780  1.00  0.00     0.016 C 
ENDROOT
BRANCH   1  21
HETATM   21  C2  UNL     1     -13.019 -12.827  27.134  1.00  0.00    -0.010 C 
HETATM   22  C1  UNL     1     -13.564 -12.709  25.706  1.00  0.00     0.010 C 
BRANCH  21  23
HETATM   23  C3  UNL     1     -11.503 -12.486  27.149  1.00  0.00     0.031 C 
BRANCH  23  24
HETATM   24  C4  UNL     1     -10.830 -12.529  25.802  1.00  0.00    -0.027 C 
HETATM   25  C5  UNL     1      -9.496 -12.593  25.643  1.00  0.00     0.006 C 
BRANCH  25  26
HETATM   26  C6  UNL     1      -8.718 -12.612  24.351  1.00  0.00     0.068 C 
HETATM   27  C7  UNL     1      -7.733 -13.777  24.206  1.00  0.00     0.050 C 
HETATM   28  C8  UNL     1      -7.993 -11.277  24.161  1.00  0.00     0.050 C 
BRANCH  26  29
HETATM   29  O1  UNL     1      -9.699 -12.733  23.315  1.00  0.00    -0.387 OA
HETATM   30  H15 UNL     1      -9.228 -12.814  22.471  1.00  0.00     0.211 HD
ENDBRANCH  26  29
ENDBRANCH  25  26
ENDBRANCH  23  24
ENDBRANCH  21  23
ENDBRANCH   1  21
BRANCH   9  31
HETATM   31  C18 UNL     1     -15.869  -5.024  28.115  1.00  0.00     0.082 C 
HETATM   32  C19 UNL     1     -15.979  -3.485  28.074  1.00  0.00     0.049 C 
HETATM   33  C20 UNL     1     -17.276  -5.586  27.822  1.00  0.00     0.049 C 
BRANCH  31  34
HETATM   34  O2  UNL     1     -15.028  -5.413  27.021  1.00  0.00    -0.388 OA
HETATM   35  H35 UNL     1     -15.436  -5.089  26.201  1.00  0.00     0.210 HD
ENDBRANCH  31  34
ENDBRANCH   9  31
TORSDOF 7
ENDMDL
MODEL 2
REMARK minimizedAffinity -7.40490437
REMARK CNNscore 0.633273661
REMARK CNNaffinity 6.87244415
REMARK  7 active torsions:
REMARK  status: ('A' for Active; 'I' for Inactive)
REMARK    1  A    between atoms: C2_2  and  C3_3 
REMARK    2  A    between atoms: C2_2  and  C9_10 
REMARK    3  A    between atoms: C3_3  and  C4_4 
REMARK    4  A    between atoms: C5_5  and  C6_6 
REMARK    5  A    between atoms: C6_6  and  O1_9 
REMARK    6  A    between atoms: C17_18  and  C18_19 
REMARK    7  A    between atoms: C18_19  and  O2_22 
ROOT
HETATM    1  C9  UNL     1      -1.280   6.925  13.712  1.00  0.00    -0.002 C 
HETATM    2  C10 UNL     1      -2.532   7.190  12.814  1.00  0.00     0.006 C 
HETATM    3  C11 UNL     1      -3.230   8.459  13.352  1.00  0.00     0.011 C 
HETATM    4  C12 UNL     1      -2.562   8.707  14.717  1.00  0.00    -0.032 C 
HETATM    5  C13 UNL     1      -3.273   7.724  15.710  1.00  0.00     0.016 C 
HETATM    6  C14 UNL     1      -2.613  10.172  15.232  1.00  0.00     0.003 C 
HETATM    7  C15 UNL     1      -4.022  10.787  15.294  1.00  0.00     0.009 C 
HETATM    8  C16 UNL     1      -4.148  11.981  16.234  1.00  0.00     0.042 C 
HETATM    9  C17 UNL     1      -2.895  12.884  16.387  1.00  0.00     0.095 C 
HETATM   10  O3  UNL     1      -3.136  13.763  17.516  1.00  0.00    -0.377 OA
HETATM   11  C21 UNL     1      -2.923  13.189  18.796  1.00  0.00     0.169 C 
HETATM   12  C22 UNL     1      -1.451  12.929  19.025  1.00  0.00     0.027 C 
HETATM   13  C23 UNL     1      -0.703  12.556  17.753  1.00  0.00     0.010 C 
HETATM   14  C24 UNL     1      -1.572  12.031  16.589  1.00  0.00     0.032 C 
HETATM   15  C25 UNL     1      -1.736  10.445  16.509  1.00  0.00    -0.033 C 
HETATM   16  C26 UNL     1      -2.326   9.858  17.810  1.00  0.00     0.016 C 
HETATM   17  C27 UNL     1      -0.312   9.790  16.343  1.00  0.00     0.011 C 
HETATM   18  C28 UNL     1      -0.258   8.384  15.697  1.00  0.00     0.011 C 
HETATM   19  C29 UNL     1      -1.065   8.318  14.386  1.00  0.00    -0.032 C 
HETATM   20  C30 UNL     1      -0.355   9.255  13.353  1.00  0.00     0.016 C 
ENDROOT
BRANCH   1  21
HETATM   21  C2  UNL     1      -0.123   6.258  12.915  1.00  0.00    -0.010 C 
HETATM   22  C1  UNL     1       0.080   4.785  13.288  1.00  0.00     0.010 C 
BRANCH  21  23
HETATM   23  C3  UNL     1      -0.304   6.392  11.377  1.00  0.00     0.031 C 
BRANCH  23  24
HETATM   24  C4  UNL     1       0.978   6.416  10.587  1.00  0.00    -0.027 C 
HETATM   25  C5  UNL     1       1.061   6.869   9.324  1.00  0.00     0.006 C 
BRANCH  25  26
HETATM   26  C6  UNL     1       2.278   6.914   8.435  1.00  0.00     0.068 C 
HETATM   27  C7  UNL     1       3.431   7.779   8.958  1.00  0.00     0.050 C 
HETATM   28  C8  UNL     1       1.877   7.362   7.027  1.00  0.00     0.050 C 
BRANCH  26  29
HETATM   29  O1  UNL     1       2.742   5.563   8.353  1.00  0.00    -0.387 OA
HETATM   30  H15 UNL     1       3.566   5.564   7.839  1.00  0.00     0.211 HD
ENDBRANCH  26  29
ENDBRANCH  25  26
ENDBRANCH  23  24
ENDBRANCH  21  23
ENDBRANCH   1  21
BRANCH   9  31
HETATM   31  C18 UNL     1      -2.758  13.880  15.136  1.00  0.00     0.082 C 
HETATM   32  C19 UNL     1      -1.988  15.167  15.500  1.00  0.00     0.049 C 
HETATM   33  C20 UNL     1      -4.123  14.316  14.565  1.00  0.00     0.049 C 
BRANCH  31  34
HETATM   34  O2  UNL     1      -2.040  13.251  14.065  1.00  0.00    -0.388 OA
HETATM   35  H35 UNL     1      -1.993  13.881  13.327  1.00  0.00     0.210 HD
ENDBRANCH  31  34
ENDBRANCH   9  31
TORSDOF 7
ENDMDL
MODEL 3
REMARK minimizedAffinity -6.46507502
REMARK CNNscore 0.621972919
REMARK CNNaffinity 6.76209688
REMARK  7 active torsions:
REMARK  status: ('A' for Active; 'I' for Inactive)
REMARK    1  A    between atoms: C2_2  and  C3_3 
REMARK    2  A    between atoms: C2_2  and  C9_10 
REMARK    3  A    between atoms: C3_3  and  C4_4 
REMARK    4  A    between atoms: C5_5  and  C6_6 
REMARK    5  A    between atoms: C6_6  and  O1_9 
REMARK    6  A    between atoms: C17_18  and  C18_19 
REMARK    7  A    between atoms: C18_19  and  O2_22 
ROOT
HETATM    1  C9  UNL     1     -10.544 -10.470   3.382  1.00  0.00    -0.002 C 
HETATM    2  C10 UNL     1     -10.728 -11.213   4.746  1.00  0.00     0.006 C 
HETATM    3  C11 UNL     1      -9.326 -11.634   5.239  1.00  0.00     0.011 C 
HETATM    4  C12 UNL     1      -8.415 -11.416   4.017  1.00  0.00    -0.032 C 
HETATM    5  C13 UNL     1      -8.630 -12.675   3.110  1.00  0.00     0.016 C 
HETATM    6  C14 UNL     1      -6.910 -11.192   4.334  1.00  0.00     0.003 C 
HETATM    7  C15 UNL     1      -6.262 -12.288   5.197  1.00  0.00     0.009 C 
HETATM    8  C16 UNL     1      -4.742 -12.355   5.095  1.00  0.00     0.042 C 
HETATM    9  C17 UNL     1      -4.000 -11.014   4.849  1.00  0.00     0.095 C 
HETATM   10  O3  UNL     1      -2.628 -11.340   4.505  1.00  0.00    -0.377 OA
HETATM   11  C21 UNL     1      -2.414 -11.747   3.163  1.00  0.00     0.169 C 
HETATM   12  C22 UNL     1      -2.611 -10.584   2.216  1.00  0.00     0.027 C 
HETATM   13  C23 UNL     1      -3.679  -9.605   2.683  1.00  0.00     0.010 C 
HETATM   14  C24 UNL     1      -4.694 -10.154   3.710  1.00  0.00     0.032 C 
HETATM   15  C25 UNL     1      -6.042 -10.750   3.099  1.00  0.00    -0.033 C 
HETATM   16  C26 UNL     1      -5.768 -11.886   2.089  1.00  0.00     0.016 C 
HETATM   17  C27 UNL     1      -6.783  -9.618   2.290  1.00  0.00     0.011 C 
HETATM   18  C28 UNL     1      -8.311  -9.777   2.100  1.00  0.00     0.011 C 
HETATM   19  C29 UNL     1      -9.031 -10.084   3.426  1.00  0.00    -0.032 C 
HETATM   20  C30 UNL     1      -8.877  -8.825   4.343  1.00  0.00     0.016 C 
ENDROOT
BRANCH   1  21
HETATM   21  C2  UNL     1     -11.624  -9.371   3.168  1.00  0.00    -0.010 C 
HETATM   22  C1  UNL     1     -12.902  -9.916   2.521  1.00  0.00     0.010 C 
BRANCH  21  23
HETATM   23  C3  UNL     1     -11.978  -8.618   4.481  1.00  0.00     0.031 C 
BRANCH  23  24
HETATM   24  C4  UNL     1     -12.209  -7.139   4.321  1.00  0.00    -0.027 C 
HETATM   25  C5  UNL     1     -12.014  -6.479   3.166  1.00  0.00     0.006 C 
BRANCH  25  26
HETATM   26  C6  UNL     1     -12.186  -5.004   2.902  1.00  0.00     0.068 C 
HETATM   27  C7  UNL     1     -11.054  -4.355   2.098  1.00  0.00     0.050 C 
HETATM   28  C8  UNL     1     -12.391  -4.260   4.224  1.00  0.00     0.050 C 
BRANCH  26  29
HETATM   29  O1  UNL     1     -13.391  -4.890   2.139  1.00  0.00    -0.387 OA
HETATM   30  H15 UNL     1     -13.499  -3.957   1.895  1.00  0.00     0.211 HD
ENDBRANCH  26  29
ENDBRANCH  25  26
ENDBRANCH  23  24
ENDBRANCH  21  23
ENDBRANCH   1  21
BRANCH   9  31
HETATM   31  C18 UNL     1      -3.874 -10.177   6.213  1.00  0.00     0.082 C 
HETATM   32  C19 UNL     1      -2.554  -9.381   6.287  1.00  0.00     0.049 C 
HETATM   33  C20 UNL     1      -3.936 -11.069   7.471  1.00  0.00     0.049 C 
BRANCH  31  34
HETATM   34  O2  UNL     1      -4.943  -9.226   6.323  1.00  0.00    -0.388 OA
HETATM   35  H35 UNL     1      -4.837  -8.754   7.166  1.00  0.00     0.210 HD
ENDBRANCH  31  34
ENDBRANCH   9  31
TORSDOF 7
ENDMDL
MODEL 4
REMARK minimizedAffinity -6.60551977
REMARK CNNscore 0.532919288
REMARK CNNaffinity 6.13813162
REMARK  7 active torsions:
REMARK  status: ('A' for Active; 'I' for Inactive)
REMARK    1  A    between atoms: C2_2  and  C3_3 
REMARK    2  A    between atoms: C2_2  and  C9_10 
REMARK    3  A    between atoms: C3_3  and  C4_4 
REMARK    4  A    between atoms: C5_5  and  C6_6 
REMARK    5  A    between atoms: C6_6  and  O1_9 
REMARK    6  A    between atoms: C17_18  and  C18_19 
REMARK    7  A    between atoms: C18_19  and  O2_22 
ROOT
HETATM    1  C9  UNL     1      -1.398  12.018  18.162  1.00  0.00    -0.002 C 
HETATM    2  C10 UNL     1      -0.992  13.032  17.043  1.00  0.00     0.006 C 
HETATM    3  C11 UNL     1       0.470  13.454  17.306  1.00  0.00     0.011 C 
HETATM    4  C12 UNL     1       0.764  12.934  18.725  1.00  0.00    -0.032 C 
HETATM    5  C13 UNL     1       0.135  13.995  19.693  1.00  0.00     0.016 C 
HETATM    6  C14 UNL     1       2.262  12.683  19.051  1.00  0.00     0.003 C 
HETATM    7  C15 UNL     1       3.188  13.888  18.805  1.00  0.00     0.009 C 
HETATM    8  C16 UNL     1       4.508  13.834  19.566  1.00  0.00     0.042 C 
HETATM    9  C17 UNL     1       5.110  12.427  19.820  1.00  0.00     0.095 C 
HETATM   10  O3  UNL     1       6.183  12.588  20.784  1.00  0.00    -0.377 OA
HETATM   11  C21 UNL     1       5.779  12.699  22.139  1.00  0.00     0.169 C 
HETATM   12  C22 UNL     1       5.224  11.383  22.639  1.00  0.00     0.027 C 
HETATM   13  C23 UNL     1       4.498  10.590  21.562  1.00  0.00     0.010 C 
HETATM   14  C24 UNL     1       4.016  11.400  20.338  1.00  0.00     0.032 C 
HETATM   15  C25 UNL     1       2.518  11.945  20.416  1.00  0.00    -0.033 C 
HETATM   16  C26 UNL     1       2.289  12.832  21.660  1.00  0.00     0.016 C 
HETATM   17  C27 UNL     1       1.535  10.722  20.567  1.00  0.00     0.011 C 
HETATM   18  C28 UNL     1       0.073  10.937  20.107  1.00  0.00     0.011 C 
HETATM   19  C29 UNL     1      -0.006  11.552  18.697  1.00  0.00    -0.032 C 
HETATM   20  C30 UNL     1       0.572  10.499  17.694  1.00  0.00     0.016 C 
ENDROOT
BRANCH   1  21
HETATM   21  C2  UNL     1      -2.428  10.970  17.652  1.00  0.00    -0.010 C 
HETATM   22  C1  UNL     1      -3.400  10.515  18.746  1.00  0.00     0.010 C 
BRANCH  21  23
HETATM   23  C3  UNL     1      -3.224  11.470  16.414  1.00  0.00     0.031 C 
BRANCH  23  24
HETATM   24  C4  UNL     1      -4.256  10.505  15.891  1.00  0.00    -0.027 C 
HETATM   25  C5  UNL     1      -3.960   9.265  15.464  1.00  0.00     0.006 C 
BRANCH  25  26
HETATM   26  C6  UNL     1      -4.901   8.232  14.898  1.00  0.00     0.068 C 
HETATM   27  C7  UNL     1      -4.712   7.932  13.407  1.00  0.00     0.050 C 
HETATM   28  C8  UNL     1      -6.350   8.641  15.177  1.00  0.00     0.050 C 
BRANCH  26  29
HETATM   29  O1  UNL     1      -4.634   7.030  15.628  1.00  0.00    -0.387 OA
HETATM   30  H15 UNL     1      -5.179   6.324  15.244  1.00  0.00     0.211 HD
ENDBRANCH  26  29
ENDBRANCH  25  26
ENDBRANCH  23  24
ENDBRANCH  21  23
ENDBRANCH   1  21
BRANCH   9  31
HETATM   31  C18 UNL     1       5.844  11.877  18.503  1.00  0.00     0.082 C 
HETATM   32  C19 UNL     1       7.114  11.068  18.840  1.00  0.00     0.049 C 
HETATM   33  C20 UNL     1       6.269  13.006  17.540  1.00  0.00     0.049 C 
BRANCH  31  34
HETATM   34  O2  UNL     1       4.975  11.006  17.766  1.00  0.00    -0.388 OA
HETATM   35  H35 UNL     1       5.452  10.711  16.972  1.00  0.00     0.210 HD
ENDBRANCH  31  34
ENDBRANCH   9  31
TORSDOF 7
ENDMDL
MODEL 5
REMARK minimizedAffinity -6.76147699
REMARK CNNscore 0.528219819
REMARK CNNaffinity 6.62062883
REMARK  7 active torsions:
REMARK  status: ('A' for Active; 'I' for Inactive)
REMARK    1  A    between atoms: C2_2  and  C3_3 
REMARK    2  A    between atoms: C2_2  and  C9_10 
REMARK    3  A    between atoms: C3_3  and  C4_4 
REMARK    4  A    between atoms: C5_5  and  C6_6 
REMARK    5  A    between atoms: C6_6  and  O1_9 
REMARK    6  A    between atoms: C17_18  and  C18_19 
REMARK    7  A    between atoms: C18_19  and  O2_22 
ROOT
HETATM    1  C9  UNL     1      -2.708  12.284  17.365  1.00  0.00    -0.002 C 
HETATM    2  C10 UNL     1      -4.047  12.410  16.567  1.00  0.00     0.006 C 
HETATM    3  C11 UNL     1      -4.000  11.381  15.416  1.00  0.00     0.011 C 
HETATM    4  C12 UNL     1      -2.531  10.920  15.382  1.00  0.00    -0.032 C 
HETATM    5  C13 UNL     1      -1.763  12.040  14.600  1.00  0.00     0.016 C 
HETATM    6  C14 UNL     1      -2.283   9.518  14.759  1.00  0.00     0.003 C 
HETATM    7  C15 UNL     1      -2.854   9.330  13.342  1.00  0.00     0.009 C 
HETATM    8  C16 UNL     1      -2.210   8.199  12.547  1.00  0.00     0.042 C 
HETATM    9  C17 UNL     1      -1.713   6.973  13.357  1.00  0.00     0.095 C 
HETATM   10  O3  UNL     1      -0.896   6.172  12.463  1.00  0.00    -0.377 OA
HETATM   11  C21 UNL     1       0.433   6.630  12.272  1.00  0.00     0.169 C 
HETATM   12  C22 UNL     1       1.245   6.452  13.536  1.00  0.00     0.027 C 
HETATM   13  C23 UNL     1       0.423   6.627  14.805  1.00  0.00     0.010 C 
HETATM   14  C24 UNL     1      -0.901   7.407  14.650  1.00  0.00     0.032 C 
HETATM   15  C25 UNL     1      -0.818   8.974  14.938  1.00  0.00    -0.033 C 
HETATM   16  C26 UNL     1       0.223   9.674  14.036  1.00  0.00     0.016 C 
HETATM   17  C27 UNL     1      -0.331   9.199  16.420  1.00  0.00     0.011 C 
HETATM   18  C28 UNL     1      -0.706  10.546  17.085  1.00  0.00     0.011 C 
HETATM   19  C29 UNL     1      -2.203  10.872  16.928  1.00  0.00    -0.032 C 
HETATM   20  C30 UNL     1      -3.002   9.797  17.738  1.00  0.00     0.016 C 
ENDROOT
BRANCH   1  21
HETATM   21  C2  UNL     1      -2.898  12.612  18.875  1.00  0.00    -0.010 C 
HETATM   22  C1  UNL     1      -2.344  13.990  19.254  1.00  0.00     0.010 C 
BRANCH  21  23
HETATM   23  C3  UNL     1      -4.381  12.497  19.328  1.00  0.00     0.031 C 
BRANCH  23  24
HETATM   24  C4  UNL     1      -4.797  13.480  20.390  1.00  0.00    -0.027 C 
HETATM   25  C5  UNL     1      -5.876  13.310  21.174  1.00  0.00     0.006 C 
BRANCH  25  26
HETATM   26  C6  UNL     1      -6.399  14.237  22.243  1.00  0.00     0.068 C 
HETATM   27  C7  UNL     1      -5.322  15.013  23.009  1.00  0.00     0.050 C 
HETATM   28  C8  UNL     1      -7.286  13.458  23.218  1.00  0.00     0.050 C 
BRANCH  26  29
HETATM   29  O1  UNL     1      -7.224  15.185  21.557  1.00  0.00    -0.387 OA
HETATM   30  H15 UNL     1      -7.526  15.838  22.208  1.00  0.00     0.211 HD
ENDBRANCH  26  29
ENDBRANCH  25  26
ENDBRANCH  23  24
ENDBRANCH  21  23
ENDBRANCH   1  21
BRANCH   9  31
HETATM   31  C18 UNL     1      -2.939   6.009  13.738  1.00  0.00     0.082 C 
HETATM   32  C19 UNL     1      -2.745   4.579  13.193  1.00  0.00     0.049 C 
HETATM   33  C20 UNL     1      -4.291   6.520  13.197  1.00  0.00     0.049 C 
BRANCH  31  34
HETATM   34  O2  UNL     1      -3.073   5.901  15.162  1.00  0.00    -0.388 OA
HETATM   35  H35 UNL     1      -3.833   5.324  15.347  1.00  0.00     0.210 HD
ENDBRANCH  31  34
ENDBRANCH   9  31
TORSDOF 7
ENDMDL
MODEL 6
REMARK minimizedAffinity -7.02553797
REMARK CNNscore 0.52448523
REMARK CNNaffinity 6.92512131
REMARK  7 active torsions:
REMARK  status: ('A' for Active; 'I' for Inactive)
REMARK    1  A    between atoms: C2_2  and  C3_3 
REMARK    2  A    between atoms: C2_2  and  C9_10 
REMARK    3  A    between atoms: C3_3  and  C4_4 
REMARK    4  A    between atoms: C5_5  and  C6_6 
REMARK    5  A    between atoms: C6_6  and  O1_9 
REMARK    6  A    between atoms: C17_18  and  C18_19 
REMARK    7  A    between atoms: C18_19  and  O2_22 
ROOT
HETATM    1  C9  UNL     1      -2.212   7.850  14.700  1.00  0.00    -0.002 C 
HETATM    2  C10 UNL     1      -2.135   9.386  14.415  1.00  0.00     0.006 C 
HETATM    3  C11 UNL     1      -0.991   9.614  13.403  1.00  0.00     0.011 C 
HETATM    4  C12 UNL     1      -0.237   8.272  13.377  1.00  0.00    -0.032 C 
HETATM    5  C13 UNL     1       0.687   8.290  14.643  1.00  0.00     0.016 C 
HETATM    6  C14 UNL     1       0.575   7.983  12.084  1.00  0.00     0.003 C 
HETATM    7  C15 UNL     1       1.582   9.080  11.695  1.00  0.00     0.009 C 
HETATM    8  C16 UNL     1       2.698   8.611  10.768  1.00  0.00     0.042 C 
HETATM    9  C17 UNL     1       2.342   7.485   9.761  1.00  0.00     0.095 C 
HETATM   10  O3  UNL     1       3.589   7.005   9.195  1.00  0.00    -0.377 OA
HETATM   11  C21 UNL     1       4.320   6.099  10.005  1.00  0.00     0.169 C 
HETATM   12  C22 UNL     1       3.597   4.774  10.108  1.00  0.00     0.027 C 
HETATM   13  C23 UNL     1       2.082   4.915  10.084  1.00  0.00     0.010 C 
HETATM   14  C24 UNL     1       1.528   6.309  10.450  1.00  0.00     0.032 C 
HETATM   15  C25 UNL     1       1.147   6.521  11.985  1.00  0.00    -0.033 C 
HETATM   16  C26 UNL     1       2.346   6.255  12.922  1.00  0.00     0.016 C 
HETATM   17  C27 UNL     1       0.039   5.475  12.388  1.00  0.00     0.011 C 
HETATM   18  C28 UNL     1      -0.861   5.835  13.594  1.00  0.00     0.011 C 
HETATM   19  C29 UNL     1      -1.445   7.255  13.477  1.00  0.00    -0.032 C 
HETATM   20  C30 UNL     1      -2.413   7.262  12.246  1.00  0.00     0.016 C 
ENDROOT
BRANCH   1  21
HETATM   21  C2  UNL     1      -3.665   7.388  15.011  1.00  0.00    -0.010 C 
HETATM   22  C1  UNL     1      -4.599   8.557  15.342  1.00  0.00     0.010 C 
BRANCH  21  23
HETATM   23  C3  UNL     1      -4.276   6.534  13.865  1.00  0.00     0.031 C 
BRANCH  23  24
HETATM   24  C4  UNL     1      -5.530   5.785  14.233  1.00  0.00    -0.027 C 
HETATM   25  C5  UNL     1      -6.520   5.526  13.360  1.00  0.00     0.006 C 
BRANCH  25  26
HETATM   26  C6  UNL     1      -7.824   4.814  13.624  1.00  0.00     0.068 C 
HETATM   27  C7  UNL     1      -7.817   3.314  13.309  1.00  0.00     0.050 C 
HETATM   28  C8  UNL     1      -8.958   5.510  12.866  1.00  0.00     0.050 C 
BRANCH  26  29
HETATM   29  O1  UNL     1      -8.068   4.970  15.025  1.00  0.00    -0.387 OA
HETATM   30  H15 UNL     1      -8.869   4.467  15.243  1.00  0.00     0.211 HD
ENDBRANCH  26  29
ENDBRANCH  25  26
ENDBRANCH  23  24
ENDBRANCH  21  23
ENDBRANCH   1  21
BRANCH   9  31
HETATM   31  C18 UNL     1       1.544   8.082   8.502  1.00  0.00     0.082 C 
HETATM   32  C19 UNL     1       0.028   8.186   8.770  1.00  0.00     0.049 C 
HETATM   33  C20 UNL     1       1.721   7.234   7.225  1.00  0.00     0.049 C 
BRANCH  31  34
HETATM   34  O2  UNL     1       2.006   9.405   8.192  1.00  0.00    -0.388 OA
HETATM   35  H35 UNL     1       1.510   9.720   7.418  1.00  0.00     0.210 HD
ENDBRANCH  31  34
ENDBRANCH   9  31
TORSDOF 7
ENDMDL
MODEL 7
REMARK minimizedAffinity -6.57232809
REMARK CNNscore 0.517922997
REMARK CNNaffinity 6.4703021
REMARK  7 active torsions:
REMARK  status: ('A' for Active; 'I' for Inactive)
REMARK    1  A    between atoms: C2_2  and  C3_3 
REMARK    2  A    between atoms: C2_2  and  C9_10 
REMARK    3  A    between atoms: C3_3  and  C4_4 
REMARK    4  A    between atoms: C5_5  and  C6_6 
REMARK    5  A    between atoms: C6_6  and  O1_9 
REMARK    6  A    between atoms: C17_18  and  C18_19 
REMARK    7  A    between atoms: C18_19  and  O2_22 
ROOT
HETATM    1  C9  UNL     1      -3.277  12.419  17.598  1.00  0.00    -0.002 C 
HETATM    2  C10 UNL     1      -1.783  12.577  18.032  1.00  0.00     0.006 C 
HETATM    3  C11 UNL     1      -0.994  11.400  17.420  1.00  0.00     0.011 C 
HETATM    4  C12 UNL     1      -2.084  10.431  16.927  1.00  0.00    -0.032 C 
HETATM    5  C13 UNL     1      -2.546   9.644  18.200  1.00  0.00     0.016 C 
HETATM    6  C14 UNL     1      -1.658   9.466  15.785  1.00  0.00     0.003 C 
HETATM    7  C15 UNL     1      -0.402   8.628  16.082  1.00  0.00     0.009 C 
HETATM    8  C16 UNL     1      -0.270   7.368  15.234  1.00  0.00     0.042 C 
HETATM    9  C17 UNL     1      -0.840   7.435  13.792  1.00  0.00     0.095 C 
HETATM   10  O3  UNL     1      -0.868   6.077  13.279  1.00  0.00    -0.377 OA
HETATM   11  C21 UNL     1      -1.959   5.281  13.713  1.00  0.00     0.169 C 
HETATM   12  C22 UNL     1      -3.255   5.776  13.107  1.00  0.00     0.027 C 
HETATM   13  C23 UNL     1      -3.285   7.285  12.908  1.00  0.00     0.010 C 
HETATM   14  C24 UNL     1      -2.282   8.098  13.756  1.00  0.00     0.032 C 
HETATM   15  C25 UNL     1      -2.840   8.648  15.146  1.00  0.00    -0.033 C 
HETATM   16  C26 UNL     1      -3.373   7.513  16.047  1.00  0.00     0.016 C 
HETATM   17  C27 UNL     1      -4.068   9.595  14.867  1.00  0.00     0.011 C 
HETATM   18  C28 UNL     1      -4.401  10.651  15.949  1.00  0.00     0.011 C 
HETATM   19  C29 UNL     1      -3.158  11.454  16.376  1.00  0.00    -0.032 C 
HETATM   20  C30 UNL     1      -2.694  12.291  15.138  1.00  0.00     0.016 C 
ENDROOT
BRANCH   1  21
HETATM   21  C2  UNL     1      -3.986  13.795  17.439  1.00  0.00    -0.010 C 
HETATM   22  C1  UNL     1      -3.928  14.327  16.003  1.00  0.00     0.010 C 
BRANCH  21  23
HETATM   23  C3  UNL     1      -5.459  13.768  17.933  1.00  0.00     0.031 C 
BRANCH  23  24
HETATM   24  C4  UNL     1      -5.626  13.715  19.428  1.00  0.00    -0.027 C 
HETATM   25  C5  UNL     1      -6.823  13.719  20.041  1.00  0.00     0.006 C 
BRANCH  25  26
HETATM   26  C6  UNL     1      -7.105  13.697  21.522  1.00  0.00     0.068 C 
HETATM   27  C7  UNL     1      -5.996  13.081  22.383  1.00  0.00     0.050 C 
HETATM   28  C8  UNL     1      -8.437  12.990  21.787  1.00  0.00     0.050 C 
BRANCH  26  29
HETATM   29  O1  UNL     1      -7.250  15.069  21.904  1.00  0.00    -0.387 OA
HETATM   30  H15 UNL     1      -7.368  15.097  22.867  1.00  0.00     0.211 HD
ENDBRANCH  26  29
ENDBRANCH  25  26
ENDBRANCH  23  24
ENDBRANCH  21  23
ENDBRANCH   1  21
BRANCH   9  31
HETATM   31  C18 UNL     1       0.176   8.202  12.815  1.00  0.00     0.082 C 
HETATM   32  C19 UNL     1       0.120   7.656  11.373  1.00  0.00     0.049 C 
HETATM   33  C20 UNL     1       1.644   8.102  13.280  1.00  0.00     0.049 C 
BRANCH  31  34
HETATM   34  O2  UNL     1      -0.146   9.599  12.747  1.00  0.00    -0.388 OA
HETATM   35  H35 UNL     1       0.500  10.026  12.160  1.00  0.00     0.210 HD
ENDBRANCH  31  34
ENDBRANCH   9  31
TORSDOF 7
ENDMDL
MODEL 8
REMARK minimizedAffinity -8.97054386
REMARK CNNscore 0.494052917
REMARK CNNaffinity 7.16850328
REMARK  7 active torsions:
REMARK  status: ('A' for Active; 'I' for Inactive)
REMARK    1  A    between atoms: C2_2  and  C3_3 
REMARK    2  A    between atoms: C2_2  and  C9_10 
REMARK    3  A    between atoms: C3_3  and  C4_4 
REMARK    4  A    between atoms: C5_5  and  C6_6 
REMARK    5  A    between atoms: C6_6  and  O1_9 
REMARK    6  A    between atoms: C17_18  and  C18_19 
REMARK    7  A    between atoms: C18_19  and  O2_22 
ROOT
HETATM    1  C9  UNL     1      -5.490   6.577  14.638  1.00  0.00    -0.002 C 
HETATM    2  C10 UNL     1      -5.981   7.426  13.420  1.00  0.00     0.006 C 
HETATM    3  C11 UNL     1      -4.736   8.065  12.767  1.00  0.00     0.011 C 
HETATM    4  C12 UNL     1      -3.612   7.838  13.795  1.00  0.00    -0.032 C 
HETATM    5  C13 UNL     1      -3.801   8.963  14.870  1.00  0.00     0.016 C 
HETATM    6  C14 UNL     1      -2.168   7.836  13.221  1.00  0.00     0.003 C 
HETATM    7  C15 UNL     1      -1.795   9.087  12.406  1.00  0.00     0.009 C 
HETATM    8  C16 UNL     1      -0.295   9.330  12.275  1.00  0.00     0.042 C 
HETATM    9  C17 UNL     1       0.614   8.074  12.237  1.00  0.00     0.095 C 
HETATM   10  O3  UNL     1       1.982   8.530  12.398  1.00  0.00    -0.377 OA
HETATM   11  C21 UNL     1       2.378   8.822  13.729  1.00  0.00     0.169 C 
HETATM   12  C22 UNL     1       2.469   7.553  14.548  1.00  0.00     0.027 C 
HETATM   13  C23 UNL     1       1.446   6.502  14.139  1.00  0.00     0.010 C 
HETATM   14  C24 UNL     1       0.219   7.022  13.359  1.00  0.00     0.032 C 
HETATM   15  C25 UNL     1      -1.061   7.381  14.242  1.00  0.00    -0.033 C 
HETATM   16  C26 UNL     1      -0.740   8.434  15.326  1.00  0.00     0.016 C 
HETATM   17  C27 UNL     1      -1.530   6.090  15.014  1.00  0.00     0.011 C 
HETATM   18  C28 UNL     1      -3.011   6.038  15.460  1.00  0.00     0.011 C 
HETATM   19  C29 UNL     1      -3.975   6.387  14.310  1.00  0.00    -0.032 C 
HETATM   20  C30 UNL     1      -3.847   5.257  13.235  1.00  0.00     0.016 C 
ENDROOT
BRANCH   1  21
HETATM   21  C2  UNL     1      -6.396   5.336  14.885  1.00  0.00    -0.010 C 
HETATM   22  C1  UNL     1      -7.329   5.515  16.088  1.00  0.00     0.010 C 
BRANCH  21  23
HETATM   23  C3  UNL     1      -7.224   4.943  13.630  1.00  0.00     0.031 C 
BRANCH  23  24
HETATM   24  C4  UNL     1      -6.812   3.650  12.977  1.00  0.00    -0.027 C 
HETATM   25  C5  UNL     1      -5.938   3.581  11.958  1.00  0.00     0.006 C 
BRANCH  25  26
HETATM   26  C6  UNL     1      -5.478   2.351  11.215  1.00  0.00     0.068 C 
HETATM   27  C7  UNL     1      -6.387   1.127  11.366  1.00  0.00     0.050 C 
HETATM   28  C8  UNL     1      -4.045   2.001  11.627  1.00  0.00     0.050 C 
BRANCH  26  29
HETATM   29  O1  UNL     1      -5.462   2.722   9.833  1.00  0.00    -0.387 OA
HETATM   30  H15 UNL     1      -5.232   1.933   9.318  1.00  0.00     0.211 HD
ENDBRANCH  26  29
ENDBRANCH  25  26
ENDBRANCH  23  24
ENDBRANCH  21  23
ENDBRANCH   1  21
BRANCH   9  31
HETATM   31  C18 UNL     1       0.594   7.402  10.779  1.00  0.00     0.082 C 
HETATM   32  C19 UNL     1       1.984   6.882  10.359  1.00  0.00     0.049 C 
HETATM   33  C20 UNL     1       0.123   8.375   9.679  1.00  0.00     0.049 C 
BRANCH  31  34
HETATM   34  O2  UNL     1      -0.299   6.279  10.752  1.00  0.00    -0.388 OA
HETATM   35  H35 UNL     1      -0.292   5.914   9.852  1.00  0.00     0.210 HD
ENDBRANCH  31  34
ENDBRANCH   9  31
TORSDOF 7
ENDMDL
MODEL 9
REMARK minimizedAffinity -8.27048206
REMARK CNNscore 0.492017329
REMARK CNNaffinity 6.72834396
REMARK  7 active torsions:
REMARK  status: ('A' for Active; 'I' for Inactive)
REMARK    1  A    between atoms: C2_2  and  C3_3 
REMARK    2  A    between atoms: C2_2  and  C9_10 
REMARK    3  A    between atoms: C3_3  and  C4_4 
REMARK    4  A    between atoms: C5_5  and  C6_6 
REMARK    5  A    between atoms: C6_6  and  O1_9 
REMARK    6  A    between atoms: C17_18  and  C18_19 
REMARK    7  A    between atoms: C18_19  and  O2_22 
ROOT
HETATM    1  C9  UNL     1      -2.245   8.171  14.313  1.00  0.00    -0.002 C 
HETATM    2  C10 UNL     1      -1.520   7.216  15.317  1.00  0.00     0.006 C 
HETATM    3  C11 UNL     1      -0.328   6.576  14.571  1.00  0.00     0.011 C 
HETATM    4  C12 UNL     1      -0.580   6.921  13.091  1.00  0.00    -0.032 C 
HETATM    5  C13 UNL     1      -1.636   5.873  12.596  1.00  0.00     0.016 C 
HETATM    6  C14 UNL     1       0.680   6.934  12.182  1.00  0.00     0.003 C 
HETATM    7  C15 UNL     1       1.513   5.640  12.214  1.00  0.00     0.009 C 
HETATM    8  C16 UNL     1       2.419   5.444  11.003  1.00  0.00     0.042 C 
HETATM    9  C17 UNL     1       2.994   6.727  10.346  1.00  0.00     0.095 C 
HETATM   10  O3  UNL     1       3.574   6.334   9.075  1.00  0.00    -0.377 OA
HETATM   11  C21 UNL     1       2.654   6.158   8.010  1.00  0.00     0.169 C 
HETATM   12  C22 UNL     1       2.067   7.487   7.587  1.00  0.00     0.027 C 
HETATM   13  C23 UNL     1       1.907   8.466   8.742  1.00  0.00     0.010 C 
HETATM   14  C24 UNL     1       1.882   7.843  10.155  1.00  0.00     0.032 C 
HETATM   15  C25 UNL     1       0.435   7.504  10.736  1.00  0.00    -0.033 C 
HETATM   16  C26 UNL     1      -0.351   6.548   9.811  1.00  0.00     0.016 C 
HETATM   17  C27 UNL     1      -0.412   8.831  10.811  1.00  0.00     0.011 C 
HETATM   18  C28 UNL     1      -1.582   8.861  11.824  1.00  0.00     0.011 C 
HETATM   19  C29 UNL     1      -1.146   8.392  13.225  1.00  0.00    -0.032 C 
HETATM   20  C30 UNL     1      -0.123   9.442  13.773  1.00  0.00     0.016 C 
ENDROOT
BRANCH   1  21
HETATM   21  C2  UNL     1      -2.887   9.393  15.033  1.00  0.00    -0.010 C 
HETATM   22  C1  UNL     1      -2.252  10.724  14.616  1.00  0.00     0.010 C 
BRANCH  21  23
HETATM   23  C3  UNL     1      -4.427   9.458  14.838  1.00  0.00     0.031 C 
BRANCH  23  24
HETATM   24  C4  UNL     1      -5.165   8.193  15.190  1.00  0.00    -0.027 C 
HETATM   25  C5  UNL     1      -5.957   7.533  14.326  1.00  0.00     0.006 C 
BRANCH  25  26
HETATM   26  C6  UNL     1      -6.760   6.282  14.578  1.00  0.00     0.068 C 
HETATM   27  C7  UNL     1      -6.873   5.872  16.051  1.00  0.00     0.050 C 
HETATM   28  C8  UNL     1      -6.197   5.126  13.747  1.00  0.00     0.050 C 
BRANCH  26  29
HETATM   29  O1  UNL     1      -8.078   6.570  14.098  1.00  0.00    -0.387 OA
HETATM   30  H15 UNL     1      -8.640   5.807  14.304  1.00  0.00     0.211 HD
ENDBRANCH  26  29
ENDBRANCH  25  26
ENDBRANCH  23  24
ENDBRANCH  21  23
ENDBRANCH   1  21
BRANCH   9  31
HETATM   31  C18 UNL     1       4.240   7.287  11.190  1.00  0.00     0.082 C 
HETATM   32  C19 UNL     1       3.795   8.233  12.325  1.00  0.00     0.049 C 
HETATM   33  C20 UNL     1       5.249   8.065  10.321  1.00  0.00     0.049 C 
BRANCH  31  34
HETATM   34  O2  UNL     1       4.961   6.208  11.803  1.00  0.00    -0.388 OA
HETATM   35  H35 UNL     1       5.712   6.589  12.288  1.00  0.00     0.210 HD
ENDBRANCH  31  34
ENDBRANCH   9  31
TORSDOF 7
ENDMDL
