MODEL 1
REMARK minimizedAffinity -9.92367744
REMARK CNNscore 0.402389348
REMARK CNNaffinity 6.43423891
REMARK  12 active torsions:
REMARK  status: ('A' for Active; 'I' for Inactive)
REMARK    1  A    between atoms: C3_3  and  O1_4 
REMARK    2  A    between atoms: N1_14  and  O2_16 
REMARK    3  A    between atoms: O2_16  and  C13_17 
REMARK    4  A    between atoms: C13_17  and  C14_18 
REMARK       I    between atoms: C14_18  and  N2_20 
REMARK    5  A    between atoms: N2_20  and  C15_21 
REMARK    6  A    between atoms: C15_21  and  C16_22 
REMARK    7  A    between atoms: C15_21  and  C27_38 
REMARK       I    between atoms: C16_22  and  N3_24 
REMARK    8  A    between atoms: N3_24  and  C17_25 
REMARK    9  A    between atoms: C17_25  and  C18_26 
REMARK   10  A    between atoms: C17_25  and  C20_30 
REMARK   11  A    between atoms: C18_26  and  C19_27 
REMARK   12  A    between atoms: C19_27  and  O6_29 
ROOT
HETATM    1  C1  UNL     1      -0.044  51.061 -26.993  1.00  0.00     0.015 C 
HETATM    2  C2  UNL     1      -1.114  51.265 -26.482  1.00  0.00    -0.078 C 
HETATM    3  C3  UNL     1      -2.429  51.549 -25.863  1.00  0.00     0.128 C 
HETATM    4  C4  UNL     1      -3.425  50.442 -26.234  1.00  0.00     0.052 C 
HETATM    5  C5  UNL     1      -3.277  49.369 -25.147  1.00  0.00     0.010 C 
HETATM    6  C6  UNL     1      -2.434  49.990 -24.018  1.00  0.00     0.002 C 
HETATM    7  C7  UNL     1      -2.802  49.601 -22.570  1.00  0.00    -0.004 C 
HETATM    8  C8  UNL     1      -2.824  48.070 -22.355  1.00  0.00     0.010 C 
HETATM    9  C9  UNL     1      -4.008  47.578 -21.535  1.00  0.00     0.035 C 
HETATM   10  C10 UNL     1      -5.266  48.154 -22.125  1.00  0.00    -0.069 C 
HETATM   11  C11 UNL     1      -6.133  47.369 -22.786  1.00  0.00     0.030 C 
HETATM   12  C12 UNL     1      -7.349  47.913 -23.437  1.00  0.00     0.032 C 
HETATM   13  N1  UNL     1      -8.140  47.068 -24.037  1.00  0.00    -0.271 N 
ATOM     14  H1  UNL     1      -7.975  46.062 -24.082  1.00  0.00     0.194 HD
HETATM   15  C30 UNL     1      -7.616  49.403 -23.331  1.00  0.00     0.060 C 
HETATM   16  C31 UNL     1      -6.329  50.201 -23.130  1.00  0.00     0.020 C 
HETATM   17  C32 UNL     1      -5.423  49.665 -21.994  1.00  0.00    -0.016 C 
HETATM   18  C33 UNL     1      -6.144  49.944 -20.645  1.00  0.00     0.020 C 
HETATM   19  C34 UNL     1      -3.999  50.362 -21.927  1.00  0.00     0.002 C 
HETATM   20  C35 UNL     1      -3.962  51.868 -22.249  1.00  0.00     0.007 C 
HETATM   21  C36 UNL     1      -3.688  52.202 -23.715  1.00  0.00     0.014 C 
HETATM   22  C37 UNL     1      -2.424  51.512 -24.301  1.00  0.00     0.003 C 
HETATM   23  C38 UNL     1      -1.178  52.197 -23.702  1.00  0.00     0.020 C 
ENDROOT
BRANCH   3  24
HETATM   24  O1  UNL     1      -2.880  52.807 -26.344  1.00  0.00    -0.377 OA
HETATM   25  H2  UNL     1      -2.807  52.774 -27.316  1.00  0.00     0.211 HD
ENDBRANCH   3  24
BRANCH  13  26
HETATM   26  O2  UNL     1      -9.244  47.711 -24.610  1.00  0.00    -0.271 OA
BRANCH  26  27
HETATM   27  C13 UNL     1     -10.415  46.924 -24.406  1.00  0.00     0.303 C 
BRANCH  27  28
HETATM   28  C14 UNL     1     -11.461  47.296 -25.449  1.00  0.00     0.244 C 
HETATM   29  O3  UNL     1     -11.360  48.287 -26.171  1.00  0.00    -0.271 OA
HETATM   30  N2  UNL     1     -12.504  46.397 -25.542  1.00  0.00    -0.346 N 
HETATM   31  H16 UNL     1     -12.613  45.828 -24.706  1.00  0.00     0.163 HD
BRANCH  30  32
HETATM   32  C15 UNL     1     -13.738  46.762 -26.230  1.00  0.00     0.180 C 
BRANCH  32  33
HETATM   33  C16 UNL     1     -14.834  46.871 -25.144  1.00  0.00     0.241 C 
HETATM   34  O4  UNL     1     -14.827  47.758 -24.287  1.00  0.00    -0.271 OA
HETATM   35  N3  UNL     1     -15.785  45.875 -25.179  1.00  0.00    -0.354 N 
HETATM   36  H18 UNL     1     -15.792  45.229 -25.968  1.00  0.00     0.162 HD
BRANCH  35  37
HETATM   37  C17 UNL     1     -16.973  45.882 -24.324  1.00  0.00     0.098 C 
BRANCH  37  38
HETATM   38  C18 UNL     1     -18.060  44.979 -24.936  1.00  0.00     0.135 C 
BRANCH  38  39
HETATM   39  C19 UNL     1     -19.086  45.754 -25.721  1.00  0.00     0.141 C 
HETATM   40  O5  UNL     1     -19.936  46.502 -25.267  1.00  0.00    -0.650 OA
BRANCH  39  41
HETATM   41  O6  UNL     1     -19.011  45.505 -27.042  1.00  0.00    -0.776 OA
HETATM   42  H22 UNL     1     -19.739  46.027 -27.438  1.00  0.00     0.167 HD
ENDBRANCH  39  41
ENDBRANCH  38  39
ENDBRANCH  37  38
BRANCH  37  43
HETATM   43  C20 UNL     1     -16.589  45.538 -22.864  1.00  0.00     0.014 C 
HETATM   44  C21 UNL     1     -17.003  44.109 -22.467  1.00  0.00     0.033 C 
HETATM   45  C22 UNL     1     -17.251  43.960 -20.971  1.00  0.00     0.169 C 
HETATM   46  O7  UNL     1     -16.422  44.839 -20.226  1.00  0.00    -0.381 OA
HETATM   47  C23 UNL     1     -16.716  46.230 -20.425  1.00  0.00     0.054 C 
HETATM   48  C24 UNL     1     -15.404  46.974 -20.146  1.00  0.00     0.045 C 
HETATM   49  C25 UNL     1     -17.765  46.669 -19.394  1.00  0.00     0.045 C 
HETATM   50  C26 UNL     1     -17.208  46.522 -21.857  1.00  0.00     0.044 C 
ENDBRANCH  37  43
ENDBRANCH  35  37
ENDBRANCH  32  33
BRANCH  32  51
HETATM   51  C27 UNL     1     -14.072  45.740 -27.340  1.00  0.00     0.009 C 
HETATM   52  C28 UNL     1     -13.327  44.414 -27.149  1.00  0.00     0.012 C 
HETATM   53  C29 UNL     1     -13.842  46.283 -28.755  1.00  0.00     0.012 C 
ENDBRANCH  32  51
ENDBRANCH  30  32
ENDBRANCH  27  28
ENDBRANCH  26  27
ENDBRANCH  13  26
TORSDOF 12
ENDMDL
MODEL 2
REMARK minimizedAffinity -8.26365089
REMARK CNNscore 0.32794705
REMARK CNNaffinity 6.26610804
REMARK  12 active torsions:
REMARK  status: ('A' for Active; 'I' for Inactive)
REMARK    1  A    between atoms: C3_3  and  O1_4 
REMARK    2  A    between atoms: N1_14  and  O2_16 
REMARK    3  A    between atoms: O2_16  and  C13_17 
REMARK    4  A    between atoms: C13_17  and  C14_18 
REMARK       I    between atoms: C14_18  and  N2_20 
REMARK    5  A    between atoms: N2_20  and  C15_21 
REMARK    6  A    between atoms: C15_21  and  C16_22 
REMARK    7  A    between atoms: C15_21  and  C27_38 
REMARK       I    between atoms: C16_22  and  N3_24 
REMARK    8  A    between atoms: N3_24  and  C17_25 
REMARK    9  A    between atoms: C17_25  and  C18_26 
REMARK   10  A    between atoms: C17_25  and  C20_30 
REMARK   11  A    between atoms: C18_26  and  C19_27 
REMARK   12  A    between atoms: C19_27  and  O6_29 
ROOT
HETATM    1  C1  UNL     1      -1.029  51.106 -17.530  1.00  0.00     0.015 C 
HETATM    2  C2  UNL     1      -1.476  50.278 -18.280  1.00  0.00    -0.078 C 
HETATM    3  C3  UNL     1      -2.000  49.237 -19.194  1.00  0.00     0.128 C 
HETATM    4  C4  UNL     1      -3.525  49.142 -19.049  1.00  0.00     0.052 C 
HETATM    5  C5  UNL     1      -4.101  50.149 -20.054  1.00  0.00     0.010 C 
HETATM    6  C6  UNL     1      -2.938  50.586 -20.964  1.00  0.00     0.002 C 
HETATM    7  C7  UNL     1      -3.266  50.838 -22.452  1.00  0.00    -0.004 C 
HETATM    8  C8  UNL     1      -4.420  51.849 -22.642  1.00  0.00     0.010 C 
HETATM    9  C9  UNL     1      -5.428  51.443 -23.708  1.00  0.00     0.035 C 
HETATM   10  C10 UNL     1      -5.861  50.028 -23.438  1.00  0.00    -0.069 C 
HETATM   11  C11 UNL     1      -7.099  49.766 -22.986  1.00  0.00     0.030 C 
HETATM   12  C12 UNL     1      -7.538  48.391 -22.646  1.00  0.00     0.032 C 
HETATM   13  N1  UNL     1      -8.765  48.237 -22.235  1.00  0.00    -0.271 N 
ATOM     14  H1  UNL     1      -9.437  48.998 -22.137  1.00  0.00     0.194 HD
HETATM   15  C30 UNL     1      -6.552  47.253 -22.836  1.00  0.00     0.060 C 
HETATM   16  C31 UNL     1      -5.104  47.732 -22.742  1.00  0.00     0.020 C 
HETATM   17  C32 UNL     1      -4.786  48.963 -23.626  1.00  0.00    -0.016 C 
HETATM   18  C33 UNL     1      -4.839  48.503 -25.110  1.00  0.00     0.020 C 
HETATM   19  C34 UNL     1      -3.348  49.582 -23.369  1.00  0.00     0.002 C 
HETATM   20  C35 UNL     1      -2.218  48.578 -23.071  1.00  0.00     0.007 C 
HETATM   21  C36 UNL     1      -1.993  48.289 -21.587  1.00  0.00     0.014 C 
HETATM   22  C37 UNL     1      -1.808  49.560 -20.711  1.00  0.00     0.003 C 
HETATM   23  C38 UNL     1      -0.417  50.156 -21.012  1.00  0.00     0.020 C 
ENDROOT
BRANCH   3  24
HETATM   24  O1  UNL     1      -1.389  48.002 -18.851  1.00  0.00    -0.377 OA
HETATM   25  H2  UNL     1      -1.503  47.893 -17.890  1.00  0.00     0.211 HD
ENDBRANCH   3  24
BRANCH  13  26
HETATM   26  O2  UNL     1      -9.049  46.895 -21.947  1.00  0.00    -0.271 OA
BRANCH  26  27
HETATM   27  C13 UNL     1     -10.457  46.682 -21.993  1.00  0.00     0.303 C 
BRANCH  27  28
HETATM   28  C14 UNL     1     -10.873  46.365 -23.423  1.00  0.00     0.244 C 
HETATM   29  O3  UNL     1     -10.276  46.805 -24.405  1.00  0.00    -0.271 OA
HETATM   30  N2  UNL     1     -11.948  45.504 -23.517  1.00  0.00    -0.346 N 
HETATM   31  H16 UNL     1     -12.510  45.479 -22.670  1.00  0.00     0.163 HD
BRANCH  30  32
HETATM   32  C15 UNL     1     -12.679  45.364 -24.772  1.00  0.00     0.180 C 
BRANCH  32  33
HETATM   33  C16 UNL     1     -13.914  46.289 -24.670  1.00  0.00     0.241 C 
HETATM   34  O4  UNL     1     -14.013  47.331 -25.321  1.00  0.00    -0.271 OA
HETATM   35  N3  UNL     1     -14.867  45.885 -23.760  1.00  0.00    -0.354 N 
HETATM   36  H18 UNL     1     -14.774  44.967 -23.325  1.00  0.00     0.162 HD
BRANCH  35  37
HETATM   37  C17 UNL     1     -16.163  46.551 -23.620  1.00  0.00     0.098 C 
BRANCH  37  38
HETATM   38  C18 UNL     1     -17.248  45.735 -24.347  1.00  0.00     0.135 C 
BRANCH  38  39
HETATM   39  C19 UNL     1     -18.579  46.439 -24.380  1.00  0.00     0.141 C 
HETATM   40  O5  UNL     1     -18.802  47.554 -24.823  1.00  0.00    -0.650 OA
BRANCH  39  41
HETATM   41  O6  UNL     1     -19.556  45.708 -23.810  1.00  0.00    -0.776 OA
HETATM   42  H22 UNL     1     -20.354  46.275 -23.857  1.00  0.00     0.167 HD
ENDBRANCH  39  41
ENDBRANCH  38  39
ENDBRANCH  37  38
BRANCH  37  43
HETATM   43  C20 UNL     1     -16.459  46.843 -22.128  1.00  0.00     0.014 C 
HETATM   44  C21 UNL     1     -15.204  47.284 -21.352  1.00  0.00     0.033 C 
HETATM   45  C22 UNL     1     -15.280  46.951 -19.867  1.00  0.00     0.169 C 
HETATM   46  O7  UNL     1     -16.620  46.992 -19.403  1.00  0.00    -0.381 OA
HETATM   47  C23 UNL     1     -17.466  45.976 -19.964  1.00  0.00     0.054 C 
HETATM   48  C24 UNL     1     -18.887  46.551 -19.920  1.00  0.00     0.045 C 
HETATM   49  C25 UNL     1     -17.406  44.729 -19.072  1.00  0.00     0.045 C 
HETATM   50  C26 UNL     1     -17.071  45.625 -21.413  1.00  0.00     0.044 C 
ENDBRANCH  37  43
ENDBRANCH  35  37
ENDBRANCH  32  33
BRANCH  32  51
HETATM   51  C27 UNL     1     -13.039  43.885 -25.037  1.00  0.00     0.009 C 
HETATM   52  C28 UNL     1     -11.844  42.950 -24.813  1.00  0.00     0.012 C 
HETATM   53  C29 UNL     1     -13.651  43.647 -26.422  1.00  0.00     0.012 C 
ENDBRANCH  32  51
ENDBRANCH  30  32
ENDBRANCH  27  28
ENDBRANCH  26  27
ENDBRANCH  13  26
TORSDOF 12
ENDMDL
MODEL 3
REMARK minimizedAffinity -9.02486229
REMARK CNNscore 0.290002078
REMARK CNNaffinity 6.57169867
REMARK  12 active torsions:
REMARK  status: ('A' for Active; 'I' for Inactive)
REMARK    1  A    between atoms: C3_3  and  O1_4 
REMARK    2  A    between atoms: N1_14  and  O2_16 
REMARK    3  A    between atoms: O2_16  and  C13_17 
REMARK    4  A    between atoms: C13_17  and  C14_18 
REMARK       I    between atoms: C14_18  and  N2_20 
REMARK    5  A    between atoms: N2_20  and  C15_21 
REMARK    6  A    between atoms: C15_21  and  C16_22 
REMARK    7  A    between atoms: C15_21  and  C27_38 
REMARK       I    between atoms: C16_22  and  N3_24 
REMARK    8  A    between atoms: N3_24  and  C17_25 
REMARK    9  A    between atoms: C17_25  and  C18_26 
REMARK   10  A    between atoms: C17_25  and  C20_30 
REMARK   11  A    between atoms: C18_26  and  C19_27 
REMARK   12  A    between atoms: C19_27  and  O6_29 
ROOT
HETATM    1  C1  UNL     1      -2.767  50.197 -16.056  1.00  0.00     0.015 C 
HETATM    2  C2  UNL     1      -3.010  49.510 -17.013  1.00  0.00    -0.078 C 
HETATM    3  C3  UNL     1      -3.298  48.636 -18.175  1.00  0.00     0.128 C 
HETATM    4  C4  UNL     1      -4.668  48.997 -18.765  1.00  0.00     0.052 C 
HETATM    5  C5  UNL     1      -4.396  50.092 -19.806  1.00  0.00     0.010 C 
HETATM    6  C6  UNL     1      -2.872  50.137 -20.018  1.00  0.00     0.002 C 
HETATM    7  C7  UNL     1      -2.369  50.420 -21.450  1.00  0.00    -0.004 C 
HETATM    8  C8  UNL     1      -2.967  51.717 -22.043  1.00  0.00     0.010 C 
HETATM    9  C9  UNL     1      -3.414  51.587 -23.492  1.00  0.00     0.035 C 
HETATM   10  C10 UNL     1      -4.291  50.371 -23.610  1.00  0.00    -0.069 C 
HETATM   11  C11 UNL     1      -5.613  50.499 -23.816  1.00  0.00     0.030 C 
HETATM   12  C12 UNL     1      -6.518  49.326 -23.872  1.00  0.00     0.032 C 
HETATM   13  N1  UNL     1      -7.782  49.552 -24.098  1.00  0.00    -0.271 N 
ATOM     14  H1  UNL     1      -8.182  50.479 -24.239  1.00  0.00     0.194 HD
HETATM   15  C30 UNL     1      -5.915  47.943 -23.706  1.00  0.00     0.060 C 
HETATM   16  C31 UNL     1      -4.618  47.980 -22.899  1.00  0.00     0.020 C 
HETATM   17  C32 UNL     1      -3.594  49.032 -23.393  1.00  0.00    -0.016 C 
HETATM   18  C33 UNL     1      -3.059  48.555 -24.773  1.00  0.00     0.020 C 
HETATM   19  C34 UNL     1      -2.345  49.211 -22.432  1.00  0.00     0.002 C 
HETATM   20  C35 UNL     1      -1.817  47.932 -21.756  1.00  0.00     0.007 C 
HETATM   21  C36 UNL     1      -2.414  47.643 -20.378  1.00  0.00     0.014 C 
HETATM   22  C37 UNL     1      -2.328  48.834 -19.383  1.00  0.00     0.003 C 
HETATM   23  C38 UNL     1      -0.859  48.986 -18.937  1.00  0.00     0.020 C 
ENDROOT
BRANCH   3  24
HETATM   24  O1  UNL     1      -3.288  47.289 -17.725  1.00  0.00    -0.377 OA
HETATM   25  H2  UNL     1      -3.871  47.253 -16.944  1.00  0.00     0.211 HD
ENDBRANCH   3  24
BRANCH  13  26
HETATM   26  O2  UNL     1      -8.523  48.363 -24.123  1.00  0.00    -0.271 OA
BRANCH  26  27
HETATM   27  C13 UNL     1      -8.672  47.919 -25.469  1.00  0.00     0.303 C 
BRANCH  27  28
HETATM   28  C14 UNL     1     -10.007  48.407 -26.016  1.00  0.00     0.244 C 
HETATM   29  O3  UNL     1     -10.320  49.596 -26.051  1.00  0.00    -0.271 OA
HETATM   30  N2  UNL     1     -10.811  47.400 -26.511  1.00  0.00    -0.346 N 
HETATM   31  H16 UNL     1     -10.570  46.483 -26.142  1.00  0.00     0.163 HD
BRANCH  30  32
HETATM   32  C15 UNL     1     -12.230  47.637 -26.756  1.00  0.00     0.180 C 
BRANCH  32  33
HETATM   33  C16 UNL     1     -13.001  46.889 -25.644  1.00  0.00     0.241 C 
HETATM   34  O4  UNL     1     -12.427  46.238 -24.767  1.00  0.00    -0.271 OA
HETATM   35  N3  UNL     1     -14.373  46.963 -25.740  1.00  0.00    -0.354 N 
HETATM   36  H18 UNL     1     -14.785  47.594 -26.427  1.00  0.00     0.162 HD
BRANCH  35  37
HETATM   37  C17 UNL     1     -15.270  46.438 -24.710  1.00  0.00     0.098 C 
BRANCH  37  38
HETATM   38  C18 UNL     1     -15.169  47.304 -23.440  1.00  0.00     0.135 C 
BRANCH  38  39
HETATM   39  C19 UNL     1     -15.013  46.483 -22.187  1.00  0.00     0.141 C 
HETATM   40  O5  UNL     1     -14.333  45.479 -22.055  1.00  0.00    -0.650 OA
BRANCH  39  41
HETATM   41  O6  UNL     1     -15.764  46.954 -21.174  1.00  0.00    -0.776 OA
HETATM   42  H22 UNL     1     -15.611  46.328 -20.436  1.00  0.00     0.167 HD
ENDBRANCH  39  41
ENDBRANCH  38  39
ENDBRANCH  37  38
BRANCH  37  43
HETATM   43  C20 UNL     1     -16.704  46.278 -25.274  1.00  0.00     0.014 C 
HETATM   44  C21 UNL     1     -17.729  47.164 -24.542  1.00  0.00     0.033 C 
HETATM   45  C22 UNL     1     -19.141  46.594 -24.586  1.00  0.00     0.169 C 
HETATM   46  O7  UNL     1     -19.358  45.860 -25.781  1.00  0.00    -0.381 OA
HETATM   47  C23 UNL     1     -18.567  44.666 -25.886  1.00  0.00     0.054 C 
HETATM   48  C24 UNL     1     -18.404  44.410 -27.389  1.00  0.00     0.045 C 
HETATM   49  C25 UNL     1     -19.345  43.498 -25.265  1.00  0.00     0.045 C 
HETATM   50  C26 UNL     1     -17.188  44.819 -25.212  1.00  0.00     0.044 C 
ENDBRANCH  37  43
ENDBRANCH  35  37
ENDBRANCH  32  33
BRANCH  32  51
HETATM   51  C27 UNL     1     -12.624  47.193 -28.183  1.00  0.00     0.009 C 
HETATM   52  C28 UNL     1     -12.186  45.755 -28.483  1.00  0.00     0.012 C 
HETATM   53  C29 UNL     1     -12.120  48.144 -29.275  1.00  0.00     0.012 C 
ENDBRANCH  32  51
ENDBRANCH  30  32
ENDBRANCH  27  28
ENDBRANCH  26  27
ENDBRANCH  13  26
TORSDOF 12
ENDMDL
MODEL 4
REMARK minimizedAffinity -8.45352459
REMARK CNNscore 0.239386737
REMARK CNNaffinity 6.87714195
REMARK  12 active torsions:
REMARK  status: ('A' for Active; 'I' for Inactive)
REMARK    1  A    between atoms: C3_3  and  O1_4 
REMARK    2  A    between atoms: N1_14  and  O2_16 
REMARK    3  A    between atoms: O2_16  and  C13_17 
REMARK    4  A    between atoms: C13_17  and  C14_18 
REMARK       I    between atoms: C14_18  and  N2_20 
REMARK    5  A    between atoms: N2_20  and  C15_21 
REMARK    6  A    between atoms: C15_21  and  C16_22 
REMARK    7  A    between atoms: C15_21  and  C27_38 
REMARK       I    between atoms: C16_22  and  N3_24 
REMARK    8  A    between atoms: N3_24  and  C17_25 
REMARK    9  A    between atoms: C17_25  and  C18_26 
REMARK   10  A    between atoms: C17_25  and  C20_30 
REMARK   11  A    between atoms: C18_26  and  C19_27 
REMARK   12  A    between atoms: C19_27  and  O6_29 
ROOT
HETATM    1  C1  UNL     1      -7.253  47.530 -24.793  1.00  0.00     0.015 C 
HETATM    2  C2  UNL     1      -6.644  48.414 -24.251  1.00  0.00    -0.078 C 
HETATM    3  C3  UNL     1      -5.908  49.526 -23.604  1.00  0.00     0.128 C 
HETATM    4  C4  UNL     1      -5.934  49.345 -22.080  1.00  0.00     0.052 C 
HETATM    5  C5  UNL     1      -4.704  48.491 -21.743  1.00  0.00     0.010 C 
HETATM    6  C6  UNL     1      -3.833  48.443 -23.011  1.00  0.00     0.002 C 
HETATM    7  C7  UNL     1      -2.301  48.457 -22.813  1.00  0.00    -0.004 C 
HETATM    8  C8  UNL     1      -1.815  47.338 -21.864  1.00  0.00     0.010 C 
HETATM    9  C9  UNL     1      -0.765  47.791 -20.860  1.00  0.00     0.035 C 
HETATM   10  C10 UNL     1      -1.267  49.032 -20.175  1.00  0.00    -0.069 C 
HETATM   11  C11 UNL     1      -1.651  48.994 -18.887  1.00  0.00     0.030 C 
HETATM   12  C12 UNL     1      -2.213  50.181 -18.198  1.00  0.00     0.032 C 
HETATM   13  N1  UNL     1      -2.536  50.050 -16.942  1.00  0.00    -0.271 N 
ATOM     14  H1  UNL     1      -2.424  49.187 -16.409  1.00  0.00     0.194 HD
HETATM   15  C30 UNL     1      -2.337  51.475 -18.981  1.00  0.00     0.060 C 
HETATM   16  C31 UNL     1      -2.464  51.223 -20.482  1.00  0.00     0.020 C 
HETATM   17  C32 UNL     1      -1.387  50.270 -21.057  1.00  0.00    -0.016 C 
HETATM   18  C33 UNL     1      -0.023  51.013 -21.005  1.00  0.00     0.020 C 
HETATM   19  C34 UNL     1      -1.644  49.847 -22.564  1.00  0.00     0.002 C 
HETATM   20  C35 UNL     1      -2.231  50.933 -23.485  1.00  0.00     0.007 C 
HETATM   21  C36 UNL     1      -3.757  50.939 -23.576  1.00  0.00     0.014 C 
HETATM   22  C37 UNL     1      -4.380  49.560 -23.931  1.00  0.00     0.003 C 
HETATM   23  C38 UNL     1      -4.092  49.268 -25.419  1.00  0.00     0.020 C 
ENDROOT
BRANCH   3  24
HETATM   24  O1  UNL     1      -6.539  50.744 -23.972  1.00  0.00    -0.377 OA
HETATM   25  H2  UNL     1      -7.489  50.631 -23.789  1.00  0.00     0.211 HD
ENDBRANCH   3  24
BRANCH  13  26
HETATM   26  O2  UNL     1      -3.055  51.239 -16.416  1.00  0.00    -0.271 OA
BRANCH  26  27
HETATM   27  C13 UNL     1      -3.043  51.178 -14.992  1.00  0.00     0.303 C 
BRANCH  27  28
HETATM   28  C14 UNL     1      -1.693  50.655 -14.521  1.00  0.00     0.244 C 
HETATM   29  O3  UNL     1      -1.414  49.457 -14.494  1.00  0.00    -0.271 OA
HETATM   30  N2  UNL     1      -0.798  51.647 -14.172  1.00  0.00    -0.346 N 
HETATM   31  H16 UNL     1      -1.251  52.529 -13.951  1.00  0.00     0.163 HD
BRANCH  30  32
HETATM   32  C15 UNL     1       0.395  51.329 -13.394  1.00  0.00     0.180 C 
BRANCH  32  33
HETATM   33  C16 UNL     1       0.266  52.093 -12.056  1.00  0.00     0.241 C 
HETATM   34  O4  UNL     1      -0.694  52.825 -11.805  1.00  0.00    -0.271 OA
HETATM   35  N3  UNL     1       1.328  51.933 -11.193  1.00  0.00    -0.354 N 
HETATM   36  H18 UNL     1       2.043  51.241 -11.416  1.00  0.00     0.162 HD
BRANCH  35  37
HETATM   37  C17 UNL     1       1.328  52.463  -9.829  1.00  0.00     0.098 C 
BRANCH  37  38
HETATM   38  C18 UNL     1       1.959  51.435  -8.872  1.00  0.00     0.135 C 
BRANCH  38  39
HETATM   39  C19 UNL     1       2.563  50.260  -9.596  1.00  0.00     0.141 C 
HETATM   40  O5  UNL     1       3.665  50.213 -10.115  1.00  0.00    -0.650 OA
BRANCH  39  41
HETATM   41  O6  UNL     1       1.716  49.215  -9.663  1.00  0.00    -0.776 OA
HETATM   42  H22 UNL     1       2.197  48.535 -10.180  1.00  0.00     0.167 HD
ENDBRANCH  39  41
ENDBRANCH  38  39
ENDBRANCH  37  38
BRANCH  37  43
HETATM   43  C20 UNL     1       1.981  53.867  -9.797  1.00  0.00     0.014 C 
HETATM   44  C21 UNL     1       3.091  54.026 -10.853  1.00  0.00     0.033 C 
HETATM   45  C22 UNL     1       4.145  55.051 -10.454  1.00  0.00     0.169 C 
HETATM   46  O7  UNL     1       3.579  56.081  -9.659  1.00  0.00    -0.381 OA
HETATM   47  C23 UNL     1       3.112  55.640  -8.374  1.00  0.00     0.054 C 
HETATM   48  C24 UNL     1       1.997  56.617  -7.983  1.00  0.00     0.045 C 
HETATM   49  C25 UNL     1       4.257  55.761  -7.359  1.00  0.00     0.045 C 
HETATM   50  C26 UNL     1       2.574  54.195  -8.415  1.00  0.00     0.044 C 
ENDBRANCH  37  43
ENDBRANCH  35  37
ENDBRANCH  32  33
BRANCH  32  51
HETATM   51  C27 UNL     1       1.676  51.681 -14.183  1.00  0.00     0.009 C 
HETATM   52  C28 UNL     1       1.363  52.280 -15.559  1.00  0.00     0.012 C 
HETATM   53  C29 UNL     1       2.647  50.503 -14.322  1.00  0.00     0.012 C 
ENDBRANCH  32  51
ENDBRANCH  30  32
ENDBRANCH  27  28
ENDBRANCH  26  27
ENDBRANCH  13  26
TORSDOF 12
ENDMDL
MODEL 5
REMARK minimizedAffinity -10.0339117
REMARK CNNscore 0.219916478
REMARK CNNaffinity 6.43881989
REMARK  12 active torsions:
REMARK  status: ('A' for Active; 'I' for Inactive)
REMARK    1  A    between atoms: C3_3  and  O1_4 
REMARK    2  A    between atoms: N1_14  and  O2_16 
REMARK    3  A    between atoms: O2_16  and  C13_17 
REMARK    4  A    between atoms: C13_17  and  C14_18 
REMARK       I    between atoms: C14_18  and  N2_20 
REMARK    5  A    between atoms: N2_20  and  C15_21 
REMARK    6  A    between atoms: C15_21  and  C16_22 
REMARK    7  A    between atoms: C15_21  and  C27_38 
REMARK       I    between atoms: C16_22  and  N3_24 
REMARK    8  A    between atoms: N3_24  and  C17_25 
REMARK    9  A    between atoms: C17_25  and  C18_26 
REMARK   10  A    between atoms: C17_25  and  C20_30 
REMARK   11  A    between atoms: C18_26  and  C19_27 
REMARK   12  A    between atoms: C19_27  and  O6_29 
ROOT
HETATM    1  C1  UNL     1       0.457  50.828 -26.546  1.00  0.00     0.015 C 
HETATM    2  C2  UNL     1      -0.643  51.076 -26.126  1.00  0.00    -0.078 C 
HETATM    3  C3  UNL     1      -1.992  51.416 -25.617  1.00  0.00     0.128 C 
HETATM    4  C4  UNL     1      -3.001  50.356 -26.081  1.00  0.00     0.052 C 
HETATM    5  C5  UNL     1      -2.992  49.272 -24.995  1.00  0.00     0.010 C 
HETATM    6  C6  UNL     1      -2.222  49.850 -23.793  1.00  0.00     0.002 C 
HETATM    7  C7  UNL     1      -2.728  49.471 -22.385  1.00  0.00    -0.004 C 
HETATM    8  C8  UNL     1      -2.836  47.941 -22.185  1.00  0.00     0.010 C 
HETATM    9  C9  UNL     1      -4.106  47.498 -21.473  1.00  0.00     0.035 C 
HETATM   10  C10 UNL     1      -5.282  48.133 -22.162  1.00  0.00    -0.069 C 
HETATM   11  C11 UNL     1      -6.124  47.390 -22.901  1.00  0.00     0.030 C 
HETATM   12  C12 UNL     1      -7.255  47.992 -23.648  1.00  0.00     0.032 C 
HETATM   13  N1  UNL     1      -8.029  47.186 -24.319  1.00  0.00    -0.271 N 
ATOM     14  H1  UNL     1      -7.905  46.174 -24.359  1.00  0.00     0.194 HD
HETATM   15  C30 UNL     1      -7.465  49.492 -23.551  1.00  0.00     0.060 C 
HETATM   16  C31 UNL     1      -6.165  50.230 -23.236  1.00  0.00     0.020 C 
HETATM   17  C32 UNL     1      -5.383  49.649 -22.032  1.00  0.00    -0.016 C 
HETATM   18  C33 UNL     1      -6.203  49.953 -20.746  1.00  0.00     0.020 C 
HETATM   19  C34 UNL     1      -3.941  50.281 -21.838  1.00  0.00     0.002 C 
HETATM   20  C35 UNL     1      -3.810  51.785 -22.143  1.00  0.00     0.007 C 
HETATM   21  C36 UNL     1      -3.398  52.114 -23.578  1.00  0.00     0.014 C 
HETATM   22  C37 UNL     1      -2.121  51.371 -24.061  1.00  0.00     0.003 C 
HETATM   23  C38 UNL     1      -0.901  51.996 -23.353  1.00  0.00     0.020 C 
ENDROOT
BRANCH   3  24
HETATM   24  O1  UNL     1      -2.344  52.695 -26.125  1.00  0.00    -0.377 OA
HETATM   25  H2  UNL     1      -2.191  52.664 -27.087  1.00  0.00     0.211 HD
ENDBRANCH   3  24
BRANCH  13  26
HETATM   26  O2  UNL     1      -9.052  47.880 -24.977  1.00  0.00    -0.271 OA
BRANCH  26  27
HETATM   27  C13 UNL     1     -10.228  47.077 -25.016  1.00  0.00     0.303 C 
BRANCH  27  28
HETATM   28  C14 UNL     1     -11.195  47.647 -26.045  1.00  0.00     0.244 C 
HETATM   29  O3  UNL     1     -11.263  48.848 -26.303  1.00  0.00    -0.271 OA
HETATM   30  N2  UNL     1     -11.952  46.691 -26.693  1.00  0.00    -0.346 N 
HETATM   31  H16 UNL     1     -12.013  45.818 -26.176  1.00  0.00     0.163 HD
BRANCH  30  32
HETATM   32  C15 UNL     1     -13.141  47.073 -27.446  1.00  0.00     0.180 C 
BRANCH  32  33
HETATM   33  C16 UNL     1     -14.352  46.474 -26.694  1.00  0.00     0.241 C 
HETATM   34  O4  UNL     1     -15.185  45.755 -27.251  1.00  0.00    -0.271 OA
HETATM   35  N3  UNL     1     -14.454  46.847 -25.372  1.00  0.00    -0.354 N 
HETATM   36  H18 UNL     1     -13.685  47.362 -24.945  1.00  0.00     0.162 HD
BRANCH  35  37
HETATM   37  C17 UNL     1     -15.450  46.278 -24.462  1.00  0.00     0.098 C 
BRANCH  37  38
HETATM   38  C18 UNL     1     -15.462  47.073 -23.143  1.00  0.00     0.135 C 
BRANCH  38  39
HETATM   39  C19 UNL     1     -15.523  46.184 -21.929  1.00  0.00     0.141 C 
HETATM   40  O5  UNL     1     -14.742  45.293 -21.639  1.00  0.00    -0.650 OA
BRANCH  39  41
HETATM   41  O6  UNL     1     -16.600  46.441 -21.162  1.00  0.00    -0.776 OA
HETATM   42  H22 UNL     1     -16.552  45.787 -20.434  1.00  0.00     0.167 HD
ENDBRANCH  39  41
ENDBRANCH  38  39
ENDBRANCH  37  38
BRANCH  37  43
HETATM   43  C20 UNL     1     -16.824  46.168 -25.167  1.00  0.00     0.014 C 
HETATM   44  C21 UNL     1     -17.877  47.114 -24.559  1.00  0.00     0.033 C 
HETATM   45  C22 UNL     1     -19.302  46.604 -24.737  1.00  0.00     0.169 C 
HETATM   46  O7  UNL     1     -19.430  45.854 -25.934  1.00  0.00    -0.381 OA
HETATM   47  C23 UNL     1     -18.687  44.624 -25.937  1.00  0.00     0.054 C 
HETATM   48  C24 UNL     1     -18.384  44.328 -27.412  1.00  0.00     0.045 C 
HETATM   49  C25 UNL     1     -19.575  43.505 -25.378  1.00  0.00     0.045 C 
HETATM   50  C26 UNL     1     -17.378  44.733 -25.129  1.00  0.00     0.044 C 
ENDBRANCH  37  43
ENDBRANCH  35  37
ENDBRANCH  32  33
BRANCH  32  51
HETATM   51  C27 UNL     1     -13.037  46.604 -28.915  1.00  0.00     0.009 C 
HETATM   52  C28 UNL     1     -12.366  45.230 -29.038  1.00  0.00     0.012 C 
HETATM   53  C29 UNL     1     -12.344  47.620 -29.830  1.00  0.00     0.012 C 
ENDBRANCH  32  51
ENDBRANCH  30  32
ENDBRANCH  27  28
ENDBRANCH  26  27
ENDBRANCH  13  26
TORSDOF 12
ENDMDL
MODEL 6
REMARK minimizedAffinity -8.49253845
REMARK CNNscore 0.20922564
REMARK CNNaffinity 6.65351439
REMARK  12 active torsions:
REMARK  status: ('A' for Active; 'I' for Inactive)
REMARK    1  A    between atoms: C3_3  and  O1_4 
REMARK    2  A    between atoms: N1_14  and  O2_16 
REMARK    3  A    between atoms: O2_16  and  C13_17 
REMARK    4  A    between atoms: C13_17  and  C14_18 
REMARK       I    between atoms: C14_18  and  N2_20 
REMARK    5  A    between atoms: N2_20  and  C15_21 
REMARK    6  A    between atoms: C15_21  and  C16_22 
REMARK    7  A    between atoms: C15_21  and  C27_38 
REMARK       I    between atoms: C16_22  and  N3_24 
REMARK    8  A    between atoms: N3_24  and  C17_25 
REMARK    9  A    between atoms: C17_25  and  C18_26 
REMARK   10  A    between atoms: C17_25  and  C20_30 
REMARK   11  A    between atoms: C18_26  and  C19_27 
REMARK   12  A    between atoms: C19_27  and  O6_29 
ROOT
HETATM    1  C1  UNL     1      -3.589  52.227 -25.294  1.00  0.00     0.015 C 
HETATM    2  C2  UNL     1      -2.964  51.642 -24.448  1.00  0.00    -0.078 C 
HETATM    3  C3  UNL     1      -2.169  50.917 -23.430  1.00  0.00     0.128 C 
HETATM    4  C4  UNL     1      -2.248  51.658 -22.088  1.00  0.00     0.052 C 
HETATM    5  C5  UNL     1      -3.476  51.084 -21.369  1.00  0.00     0.010 C 
HETATM    6  C6  UNL     1      -3.907  49.830 -22.153  1.00  0.00     0.002 C 
HETATM    7  C7  UNL     1      -4.446  48.638 -21.333  1.00  0.00    -0.004 C 
HETATM    8  C8  UNL     1      -5.615  49.039 -20.403  1.00  0.00     0.010 C 
HETATM    9  C9  UNL     1      -5.529  48.438 -19.007  1.00  0.00     0.035 C 
HETATM   10  C10 UNL     1      -4.156  48.713 -18.457  1.00  0.00    -0.069 C 
HETATM   11  C11 UNL     1      -3.984  49.599 -17.461  1.00  0.00     0.030 C 
HETATM   12  C12 UNL     1      -2.639  49.944 -16.939  1.00  0.00     0.032 C 
HETATM   13  N1  UNL     1      -2.577  50.799 -15.957  1.00  0.00    -0.271 N 
ATOM     14  H1  UNL     1      -3.391  51.240 -15.529  1.00  0.00     0.194 HD
HETATM   15  C30 UNL     1      -1.433  49.253 -17.547  1.00  0.00     0.060 C 
HETATM   16  C31 UNL     1      -1.697  48.800 -18.982  1.00  0.00     0.020 C 
HETATM   17  C32 UNL     1      -3.009  47.995 -19.160  1.00  0.00    -0.016 C 
HETATM   18  C33 UNL     1      -2.817  46.622 -18.457  1.00  0.00     0.020 C 
HETATM   19  C34 UNL     1      -3.385  47.709 -20.674  1.00  0.00     0.002 C 
HETATM   20  C35 UNL     1      -2.208  47.417 -21.624  1.00  0.00     0.007 C 
HETATM   21  C36 UNL     1      -1.646  48.644 -22.343  1.00  0.00     0.014 C 
HETATM   22  C37 UNL     1      -2.716  49.495 -23.082  1.00  0.00     0.003 C 
HETATM   23  C38 UNL     1      -3.170  48.718 -24.336  1.00  0.00     0.020 C 
ENDROOT
BRANCH   3  24
HETATM   24  O1  UNL     1      -0.826  50.852 -23.885  1.00  0.00    -0.377 OA
HETATM   25  H2  UNL     1      -0.571  51.761 -24.130  1.00  0.00     0.211 HD
ENDBRANCH   3  24
BRANCH  13  26
HETATM   26  O2  UNL     1      -1.254  51.037 -15.563  1.00  0.00    -0.271 OA
BRANCH  26  27
HETATM   27  C13 UNL     1      -1.071  50.606 -14.217  1.00  0.00     0.303 C 
BRANCH  27  28
HETATM   28  C14 UNL     1      -1.904  51.480 -13.289  1.00  0.00     0.244 C 
HETATM   29  O3  UNL     1      -3.053  51.830 -13.554  1.00  0.00    -0.271 OA
HETATM   30  N2  UNL     1      -1.270  51.803 -12.105  1.00  0.00    -0.346 N 
HETATM   31  H16 UNL     1      -0.259  51.716 -12.161  1.00  0.00     0.163 HD
BRANCH  30  32
HETATM   32  C15 UNL     1      -1.773  52.887 -11.268  1.00  0.00     0.180 C 
BRANCH  32  33
HETATM   33  C16 UNL     1      -0.789  53.023 -10.083  1.00  0.00     0.241 C 
HETATM   34  O4  UNL     1      -0.034  52.108  -9.745  1.00  0.00    -0.271 OA
HETATM   35  N3  UNL     1      -0.858  54.221  -9.407  1.00  0.00    -0.354 N 
HETATM   36  H18 UNL     1      -1.431  54.971  -9.792  1.00  0.00     0.162 HD
BRANCH  35  37
HETATM   37  C17 UNL     1       0.083  54.590  -8.348  1.00  0.00     0.098 C 
BRANCH  37  38
HETATM   38  C18 UNL     1       0.532  53.328  -7.588  1.00  0.00     0.135 C 
BRANCH  38  39
HETATM   39  C19 UNL     1      -0.250  53.102  -6.322  1.00  0.00     0.141 C 
HETATM   40  O5  UNL     1       0.176  53.171  -5.180  1.00  0.00    -0.650 OA
BRANCH  39  41
HETATM   41  O6  UNL     1      -1.527  52.754  -6.567  1.00  0.00    -0.776 OA
HETATM   42  H22 UNL     1      -1.920  52.600  -5.683  1.00  0.00     0.167 HD
ENDBRANCH  39  41
ENDBRANCH  38  39
ENDBRANCH  37  38
BRANCH  37  43
HETATM   43  C20 UNL     1       1.237  55.446  -8.926  1.00  0.00     0.014 C 
HETATM   44  C21 UNL     1       1.506  55.146 -10.412  1.00  0.00     0.033 C 
HETATM   45  C22 UNL     1       2.947  55.428 -10.820  1.00  0.00     0.169 C 
HETATM   46  O7  UNL     1       3.493  56.494 -10.060  1.00  0.00    -0.381 OA
HETATM   47  C23 UNL     1       3.647  56.199  -8.663  1.00  0.00     0.054 C 
HETATM   48  C24 UNL     1       3.573  57.551  -7.944  1.00  0.00     0.045 C 
HETATM   49  C25 UNL     1       5.037  55.590  -8.434  1.00  0.00     0.045 C 
HETATM   50  C26 UNL     1       2.547  55.250  -8.144  1.00  0.00     0.044 C 
ENDBRANCH  37  43
ENDBRANCH  35  37
ENDBRANCH  32  33
BRANCH  32  51
HETATM   51  C27 UNL     1      -3.229  52.614 -10.829  1.00  0.00     0.009 C 
HETATM   52  C28 UNL     1      -3.978  53.904 -10.472  1.00  0.00     0.012 C 
HETATM   53  C29 UNL     1      -3.340  51.599  -9.687  1.00  0.00     0.012 C 
ENDBRANCH  32  51
ENDBRANCH  30  32
ENDBRANCH  27  28
ENDBRANCH  26  27
ENDBRANCH  13  26
TORSDOF 12
ENDMDL
MODEL 7
REMARK minimizedAffinity -9.23736763
REMARK CNNscore 0.166124001
REMARK CNNaffinity 5.9019742
REMARK  12 active torsions:
REMARK  status: ('A' for Active; 'I' for Inactive)
REMARK    1  A    between atoms: C3_3  and  O1_4 
REMARK    2  A    between atoms: N1_14  and  O2_16 
REMARK    3  A    between atoms: O2_16  and  C13_17 
REMARK    4  A    between atoms: C13_17  and  C14_18 
REMARK       I    between atoms: C14_18  and  N2_20 
REMARK    5  A    between atoms: N2_20  and  C15_21 
REMARK    6  A    between atoms: C15_21  and  C16_22 
REMARK    7  A    between atoms: C15_21  and  C27_38 
REMARK       I    between atoms: C16_22  and  N3_24 
REMARK    8  A    between atoms: N3_24  and  C17_25 
REMARK    9  A    between atoms: C17_25  and  C18_26 
REMARK   10  A    between atoms: C17_25  and  C20_30 
REMARK   11  A    between atoms: C18_26  and  C19_27 
REMARK   12  A    between atoms: C19_27  and  O6_29 
ROOT
HETATM    1  C1  UNL     1       0.225  51.113 -26.996  1.00  0.00     0.015 C 
HETATM    2  C2  UNL     1      -0.873  51.287 -26.539  1.00  0.00    -0.078 C 
HETATM    3  C3  UNL     1      -2.225  51.535 -25.985  1.00  0.00     0.128 C 
HETATM    4  C4  UNL     1      -3.150  50.361 -26.337  1.00  0.00     0.052 C 
HETATM    5  C5  UNL     1      -2.994  49.353 -25.190  1.00  0.00     0.010 C 
HETATM    6  C6  UNL     1      -2.230  50.072 -24.064  1.00  0.00     0.002 C 
HETATM    7  C7  UNL     1      -2.637  49.738 -22.613  1.00  0.00    -0.004 C 
HETATM    8  C8  UNL     1      -2.593  48.221 -22.319  1.00  0.00     0.010 C 
HETATM    9  C9  UNL     1      -3.785  47.710 -21.521  1.00  0.00     0.035 C 
HETATM   10  C10 UNL     1      -5.043  48.192 -22.188  1.00  0.00    -0.069 C 
HETATM   11  C11 UNL     1      -5.844  47.331 -22.840  1.00  0.00     0.030 C 
HETATM   12  C12 UNL     1      -7.057  47.780 -23.565  1.00  0.00     0.032 C 
HETATM   13  N1  UNL     1      -7.780  46.866 -24.149  1.00  0.00    -0.271 N 
ATOM     14  H1  UNL     1      -7.565  45.869 -24.136  1.00  0.00     0.194 HD
HETATM   15  C30 UNL     1      -7.401  49.258 -23.546  1.00  0.00     0.060 C 
HETATM   16  C31 UNL     1      -6.163  50.129 -23.338  1.00  0.00     0.020 C 
HETATM   17  C32 UNL     1      -5.279  49.697 -22.142  1.00  0.00    -0.016 C 
HETATM   18  C33 UNL     1      -6.068  50.006 -20.838  1.00  0.00     0.020 C 
HETATM   19  C34 UNL     1      -3.895  50.468 -22.056  1.00  0.00     0.002 C 
HETATM   20  C35 UNL     1      -3.919  51.956 -22.455  1.00  0.00     0.007 C 
HETATM   21  C36 UNL     1      -3.601  52.230 -23.925  1.00  0.00     0.014 C 
HETATM   22  C37 UNL     1      -2.282  51.576 -24.425  1.00  0.00     0.003 C 
HETATM   23  C38 UNL     1      -1.096  52.352 -23.815  1.00  0.00     0.020 C 
ENDROOT
BRANCH   3  24
HETATM   24  O1  UNL     1      -2.717  52.742 -26.549  1.00  0.00    -0.377 OA
HETATM   25  H2  UNL     1      -2.603  52.665 -27.514  1.00  0.00     0.211 HD
ENDBRANCH   3  24
BRANCH  13  26
HETATM   26  O2  UNL     1      -8.891  47.423 -24.797  1.00  0.00    -0.271 OA
BRANCH  26  27
HETATM   27  C13 UNL     1     -10.083  46.802 -24.324  1.00  0.00     0.303 C 
BRANCH  27  28
HETATM   28  C14 UNL     1     -10.209  45.416 -24.942  1.00  0.00     0.244 C 
HETATM   29  O3  UNL     1      -9.338  44.554 -24.832  1.00  0.00    -0.271 OA
HETATM   30  N2  UNL     1     -11.407  45.200 -25.594  1.00  0.00    -0.346 N 
HETATM   31  H16 UNL     1     -11.871  46.063 -25.865  1.00  0.00     0.163 HD
BRANCH  30  32
HETATM   32  C15 UNL     1     -11.558  44.078 -26.514  1.00  0.00     0.180 C 
BRANCH  32  33
HETATM   33  C16 UNL     1     -11.891  44.683 -27.898  1.00  0.00     0.241 C 
HETATM   34  O4  UNL     1     -12.458  44.035 -28.781  1.00  0.00    -0.271 OA
HETATM   35  N3  UNL     1     -11.461  45.978 -28.082  1.00  0.00    -0.354 N 
HETATM   36  H18 UNL     1     -11.087  46.491 -27.285  1.00  0.00     0.162 HD
BRANCH  35  37
HETATM   37  C17 UNL     1     -11.801  46.765 -29.269  1.00  0.00     0.098 C 
BRANCH  37  38
HETATM   38  C18 UNL     1     -12.546  48.045 -28.848  1.00  0.00     0.135 C 
BRANCH  38  39
HETATM   39  C19 UNL     1     -12.663  48.185 -27.354  1.00  0.00     0.141 C 
HETATM   40  O5  UNL     1     -13.468  47.621 -26.631  1.00  0.00    -0.650 OA
BRANCH  39  41
HETATM   41  O6  UNL     1     -11.781  49.071 -26.854  1.00  0.00    -0.776 OA
HETATM   42  H22 UNL     1     -11.974  49.104 -25.894  1.00  0.00     0.167 HD
ENDBRANCH  39  41
ENDBRANCH  38  39
ENDBRANCH  37  38
BRANCH  37  43
HETATM   43  C20 UNL     1     -10.540  47.003 -30.136  1.00  0.00     0.014 C 
HETATM   44  C21 UNL     1     -10.001  45.703 -30.764  1.00  0.00     0.033 C 
HETATM   45  C22 UNL     1      -8.504  45.757 -31.039  1.00  0.00     0.169 C 
HETATM   46  O7  UNL     1      -8.087  47.079 -31.343  1.00  0.00    -0.381 OA
HETATM   47  C23 UNL     1      -8.206  47.997 -30.245  1.00  0.00     0.054 C 
HETATM   48  C24 UNL     1      -8.384  49.381 -30.882  1.00  0.00     0.045 C 
HETATM   49  C25 UNL     1      -6.898  47.985 -29.443  1.00  0.00     0.045 C 
HETATM   50  C26 UNL     1      -9.405  47.663 -29.334  1.00  0.00     0.044 C 
ENDBRANCH  37  43
ENDBRANCH  35  37
ENDBRANCH  32  33
BRANCH  32  51
HETATM   51  C27 UNL     1     -12.628  43.087 -26.002  1.00  0.00     0.009 C 
HETATM   52  C28 UNL     1     -13.969  43.776 -25.724  1.00  0.00     0.012 C 
HETATM   53  C29 UNL     1     -12.176  42.283 -24.778  1.00  0.00     0.012 C 
ENDBRANCH  32  51
ENDBRANCH  30  32
ENDBRANCH  27  28
ENDBRANCH  26  27
ENDBRANCH  13  26
TORSDOF 12
ENDMDL
MODEL 8
REMARK minimizedAffinity -9.90119457
REMARK CNNscore 0.163281739
REMARK CNNaffinity 6.90294838
REMARK  12 active torsions:
REMARK  status: ('A' for Active; 'I' for Inactive)
REMARK    1  A    between atoms: C3_3  and  O1_4 
REMARK    2  A    between atoms: N1_14  and  O2_16 
REMARK    3  A    between atoms: O2_16  and  C13_17 
REMARK    4  A    between atoms: C13_17  and  C14_18 
REMARK       I    between atoms: C14_18  and  N2_20 
REMARK    5  A    between atoms: N2_20  and  C15_21 
REMARK    6  A    between atoms: C15_21  and  C16_22 
REMARK    7  A    between atoms: C15_21  and  C27_38 
REMARK       I    between atoms: C16_22  and  N3_24 
REMARK    8  A    between atoms: N3_24  and  C17_25 
REMARK    9  A    between atoms: C17_25  and  C18_26 
REMARK   10  A    between atoms: C17_25  and  C20_30 
REMARK   11  A    between atoms: C18_26  and  C19_27 
REMARK   12  A    between atoms: C19_27  and  O6_29 
ROOT
HETATM    1  C1  UNL     1      -7.216  47.522 -24.923  1.00  0.00     0.015 C 
HETATM    2  C2  UNL     1      -6.623  48.402 -24.356  1.00  0.00    -0.078 C 
HETATM    3  C3  UNL     1      -5.908  49.510 -23.678  1.00  0.00     0.128 C 
HETATM    4  C4  UNL     1      -5.940  49.292 -22.159  1.00  0.00     0.052 C 
HETATM    5  C5  UNL     1      -4.698  48.449 -21.836  1.00  0.00     0.010 C 
HETATM    6  C6  UNL     1      -3.819  48.446 -23.100  1.00  0.00     0.002 C 
HETATM    7  C7  UNL     1      -2.290  48.480 -22.894  1.00  0.00    -0.004 C 
HETATM    8  C8  UNL     1      -1.791  47.346 -21.968  1.00  0.00     0.010 C 
HETATM    9  C9  UNL     1      -0.753  47.791 -20.948  1.00  0.00     0.035 C 
HETATM   10  C10 UNL     1      -1.279  49.007 -20.236  1.00  0.00    -0.069 C 
HETATM   11  C11 UNL     1      -1.668  48.932 -18.951  1.00  0.00     0.030 C 
HETATM   12  C12 UNL     1      -2.253  50.092 -18.238  1.00  0.00     0.032 C 
HETATM   13  N1  UNL     1      -2.581  49.926 -16.987  1.00  0.00    -0.271 N 
ATOM     14  H1  UNL     1      -2.458  49.053 -16.474  1.00  0.00     0.194 HD
HETATM   15  C30 UNL     1      -2.394  51.403 -18.989  1.00  0.00     0.060 C 
HETATM   16  C31 UNL     1      -2.509  51.186 -20.497  1.00  0.00     0.020 C 
HETATM   17  C32 UNL     1      -1.414  50.263 -21.089  1.00  0.00    -0.016 C 
HETATM   18  C33 UNL     1      -0.062  51.027 -21.012  1.00  0.00     0.020 C 
HETATM   19  C34 UNL     1      -1.656  49.873 -22.607  1.00  0.00     0.002 C 
HETATM   20  C35 UNL     1      -2.256  50.972 -23.505  1.00  0.00     0.007 C 
HETATM   21  C36 UNL     1      -3.781  50.956 -23.604  1.00  0.00     0.014 C 
HETATM   22  C37 UNL     1      -4.380  49.576 -23.996  1.00  0.00     0.003 C 
HETATM   23  C38 UNL     1      -4.079  49.325 -25.489  1.00  0.00     0.020 C 
ENDROOT
BRANCH   3  24
HETATM   24  O1  UNL     1      -6.557  50.726 -24.021  1.00  0.00    -0.377 OA
HETATM   25  H2  UNL     1      -7.506  50.594 -23.846  1.00  0.00     0.211 HD
ENDBRANCH   3  24
BRANCH  13  26
HETATM   26  O2  UNL     1      -3.122  51.094 -16.435  1.00  0.00    -0.271 OA
BRANCH  26  27
HETATM   27  C13 UNL     1      -2.922  51.094 -15.024  1.00  0.00     0.303 C 
BRANCH  27  28
HETATM   28  C14 UNL     1      -1.510  50.615 -14.714  1.00  0.00     0.244 C 
HETATM   29  O3  UNL     1      -1.266  49.486 -14.291  1.00  0.00    -0.271 OA
HETATM   30  N2  UNL     1      -0.528  51.544 -14.996  1.00  0.00    -0.346 N 
HETATM   31  H16 UNL     1      -0.884  52.496 -15.036  1.00  0.00     0.163 HD
BRANCH  30  32
HETATM   32  C15 UNL     1       0.818  51.387 -14.455  1.00  0.00     0.180 C 
BRANCH  32  33
HETATM   33  C16 UNL     1       0.744  51.782 -12.962  1.00  0.00     0.241 C 
HETATM   34  O4  UNL     1       0.997  50.985 -12.056  1.00  0.00    -0.271 OA
HETATM   35  N3  UNL     1       0.325  53.073 -12.725  1.00  0.00    -0.354 N 
HETATM   36  H18 UNL     1       0.225  53.711 -13.514  1.00  0.00     0.162 HD
BRANCH  35  37
HETATM   37  C17 UNL     1       0.322  53.673 -11.390  1.00  0.00     0.098 C 
BRANCH  37  38
HETATM   38  C18 UNL     1      -0.574  52.846 -10.450  1.00  0.00     0.135 C 
BRANCH  38  39
HETATM   39  C19 UNL     1      -1.646  53.674  -9.792  1.00  0.00     0.141 C 
HETATM   40  O5  UNL     1      -2.258  53.397  -8.773  1.00  0.00    -0.650 OA
BRANCH  39  41
HETATM   41  O6  UNL     1      -1.922  54.795 -10.485  1.00  0.00    -0.776 OA
HETATM   42  H22 UNL     1      -2.648  55.226  -9.988  1.00  0.00     0.167 HD
ENDBRANCH  39  41
ENDBRANCH  38  39
ENDBRANCH  37  38
BRANCH  37  43
HETATM   43  C20 UNL     1       1.773  53.880 -10.889  1.00  0.00     0.014 C 
HETATM   44  C21 UNL     1       2.107  52.999  -9.670  1.00  0.00     0.033 C 
HETATM   45  C22 UNL     1       3.191  53.603  -8.785  1.00  0.00     0.169 C 
HETATM   46  O7  UNL     1       4.106  54.371  -9.550  1.00  0.00    -0.381 OA
HETATM   47  C23 UNL     1       3.533  55.549 -10.138  1.00  0.00     0.054 C 
HETATM   48  C24 UNL     1       4.375  55.839 -11.387  1.00  0.00     0.045 C 
HETATM   49  C25 UNL     1       3.682  56.719  -9.157  1.00  0.00     0.045 C 
HETATM   50  C26 UNL     1       2.052  55.347 -10.521  1.00  0.00     0.044 C 
ENDBRANCH  37  43
ENDBRANCH  35  37
ENDBRANCH  32  33
BRANCH  32  51
HETATM   51  C27 UNL     1       1.836  52.223 -15.263  1.00  0.00     0.009 C 
HETATM   52  C28 UNL     1       1.526  52.220 -16.765  1.00  0.00     0.012 C 
HETATM   53  C29 UNL     1       3.292  51.812 -15.018  1.00  0.00     0.012 C 
ENDBRANCH  32  51
ENDBRANCH  30  32
ENDBRANCH  27  28
ENDBRANCH  26  27
ENDBRANCH  13  26
TORSDOF 12
ENDMDL
MODEL 9
REMARK minimizedAffinity -9.91317844
REMARK CNNscore 0.154779255
REMARK CNNaffinity 6.42605066
REMARK  12 active torsions:
REMARK  status: ('A' for Active; 'I' for Inactive)
REMARK    1  A    between atoms: C3_3  and  O1_4 
REMARK    2  A    between atoms: N1_14  and  O2_16 
REMARK    3  A    between atoms: O2_16  and  C13_17 
REMARK    4  A    between atoms: C13_17  and  C14_18 
REMARK       I    between atoms: C14_18  and  N2_20 
REMARK    5  A    between atoms: N2_20  and  C15_21 
REMARK    6  A    between atoms: C15_21  and  C16_22 
REMARK    7  A    between atoms: C15_21  and  C27_38 
REMARK       I    between atoms: C16_22  and  N3_24 
REMARK    8  A    between atoms: N3_24  and  C17_25 
REMARK    9  A    between atoms: C17_25  and  C18_26 
REMARK   10  A    between atoms: C17_25  and  C20_30 
REMARK   11  A    between atoms: C18_26  and  C19_27 
REMARK   12  A    between atoms: C19_27  and  O6_29 
ROOT
HETATM    1  C1  UNL     1       0.012  51.102 -27.097  1.00  0.00     0.015 C 
HETATM    2  C2  UNL     1      -1.020  51.332 -26.524  1.00  0.00    -0.078 C 
HETATM    3  C3  UNL     1      -2.288  51.649 -25.825  1.00  0.00     0.128 C 
HETATM    4  C4  UNL     1      -3.357  50.615 -26.201  1.00  0.00     0.052 C 
HETATM    5  C5  UNL     1      -3.214  49.479 -25.178  1.00  0.00     0.010 C 
HETATM    6  C6  UNL     1      -2.287  49.997 -24.063  1.00  0.00     0.002 C 
HETATM    7  C7  UNL     1      -2.605  49.550 -22.620  1.00  0.00    -0.004 C 
HETATM    8  C8  UNL     1      -2.698  48.013 -22.481  1.00  0.00     0.010 C 
HETATM    9  C9  UNL     1      -3.866  47.538 -21.629  1.00  0.00     0.035 C 
HETATM   10  C10 UNL     1      -5.118  48.208 -22.125  1.00  0.00    -0.069 C 
HETATM   11  C11 UNL     1      -6.057  47.504 -22.780  1.00  0.00     0.030 C 
HETATM   12  C12 UNL     1      -7.272  48.143 -23.341  1.00  0.00     0.032 C 
HETATM   13  N1  UNL     1      -8.134  47.372 -23.941  1.00  0.00    -0.271 N 
ATOM     14  H1  UNL     1      -8.025  46.363 -24.046  1.00  0.00     0.194 HD
HETATM   15  C30 UNL     1      -7.454  49.637 -23.145  1.00  0.00     0.060 C 
HETATM   16  C31 UNL     1      -6.118  50.356 -22.970  1.00  0.00     0.020 C 
HETATM   17  C32 UNL     1      -5.188  49.716 -21.910  1.00  0.00    -0.016 C 
HETATM   18  C33 UNL     1      -5.829  49.959 -20.514  1.00  0.00     0.020 C 
HETATM   19  C34 UNL     1      -3.728  50.336 -21.879  1.00  0.00     0.002 C 
HETATM   20  C35 UNL     1      -3.627  51.853 -22.127  1.00  0.00     0.007 C 
HETATM   21  C36 UNL     1      -3.405  52.250 -23.586  1.00  0.00     0.014 C 
HETATM   22  C37 UNL     1      -2.210  51.528 -24.269  1.00  0.00     0.003 C 
HETATM   23  C38 UNL     1      -0.901  52.116 -23.700  1.00  0.00     0.020 C 
ENDROOT
BRANCH   3  24
HETATM   24  O1  UNL     1      -2.693  52.951 -26.219  1.00  0.00    -0.377 OA
HETATM   25  H2  UNL     1      -2.669  52.967 -27.193  1.00  0.00     0.211 HD
ENDBRANCH   3  24
BRANCH  13  26
HETATM   26  O2  UNL     1      -9.229  48.099 -24.424  1.00  0.00    -0.271 OA
BRANCH  26  27
HETATM   27  C13 UNL     1      -8.832  48.868 -25.557  1.00  0.00     0.303 C 
BRANCH  27  28
HETATM   28  C14 UNL     1      -8.629  47.943 -26.749  1.00  0.00     0.244 C 
HETATM   29  O3  UNL     1      -8.564  46.719 -26.641  1.00  0.00    -0.271 OA
HETATM   30  N2  UNL     1      -8.574  48.597 -27.964  1.00  0.00    -0.346 N 
HETATM   31  H16 UNL     1      -8.333  49.581 -27.873  1.00  0.00     0.163 HD
BRANCH  30  32
HETATM   32  C15 UNL     1      -8.055  47.920 -29.148  1.00  0.00     0.180 C 
BRANCH  32  33
HETATM   33  C16 UNL     1      -9.187  46.999 -29.661  1.00  0.00     0.241 C 
HETATM   34  O4  UNL     1      -9.149  45.774 -29.530  1.00  0.00    -0.271 OA
HETATM   35  N3  UNL     1     -10.209  47.648 -30.317  1.00  0.00    -0.354 N 
HETATM   36  H18 UNL     1     -10.231  48.668 -30.307  1.00  0.00     0.162 HD
BRANCH  35  37
HETATM   37  C17 UNL     1     -11.430  46.969 -30.752  1.00  0.00     0.098 C 
BRANCH  37  38
HETATM   38  C18 UNL     1     -11.083  45.566 -31.284  1.00  0.00     0.135 C 
BRANCH  38  39
HETATM   39  C19 UNL     1     -10.833  45.552 -32.769  1.00  0.00     0.141 C 
HETATM   40  O5  UNL     1      -9.849  45.110 -33.338  1.00  0.00    -0.650 OA
BRANCH  39  41
HETATM   41  O6  UNL     1     -11.828  46.143 -33.458  1.00  0.00    -0.776 OA
HETATM   42  H22 UNL     1     -11.542  46.106 -34.394  1.00  0.00     0.167 HD
ENDBRANCH  39  41
ENDBRANCH  38  39
ENDBRANCH  37  38
BRANCH  37  43
HETATM   43  C20 UNL     1     -12.491  46.991 -29.625  1.00  0.00     0.014 C 
HETATM   44  C21 UNL     1     -12.218  48.089 -28.579  1.00  0.00     0.033 C 
HETATM   45  C22 UNL     1     -12.781  47.749 -27.205  1.00  0.00     0.169 C 
HETATM   46  O7  UNL     1     -13.955  46.959 -27.315  1.00  0.00    -0.381 OA
HETATM   47  C23 UNL     1     -13.730  45.649 -27.861  1.00  0.00     0.054 C 
HETATM   48  C24 UNL     1     -15.055  45.243 -28.518  1.00  0.00     0.045 C 
HETATM   49  C25 UNL     1     -13.426  44.677 -26.713  1.00  0.00     0.045 C 
HETATM   50  C26 UNL     1     -12.588  45.639 -28.898  1.00  0.00     0.044 C 
ENDBRANCH  37  43
ENDBRANCH  35  37
ENDBRANCH  32  33
BRANCH  32  51
HETATM   51  C27 UNL     1      -6.747  47.165 -28.821  1.00  0.00     0.009 C 
HETATM   52  C28 UNL     1      -5.518  48.079 -28.891  1.00  0.00     0.012 C 
HETATM   53  C29 UNL     1      -6.534  45.916 -29.685  1.00  0.00     0.012 C 
ENDBRANCH  32  51
ENDBRANCH  30  32
ENDBRANCH  27  28
ENDBRANCH  26  27
ENDBRANCH  13  26
TORSDOF 12
ENDMDL
