MODEL 1
REMARK minimizedAffinity -8.84265041
REMARK CNNscore 0.409270436
REMARK CNNaffinity 7.4088459
REMARK  9 active torsions:
REMARK  status: ('A' for Active; 'I' for Inactive)
REMARK    1  A    between atoms: C3_3  and  O1_4 
REMARK    2  A    between atoms: N1_14  and  O2_16 
REMARK    3  A    between atoms: O2_16  and  C13_17 
REMARK    4  A    between atoms: C13_17  and  C14_18 
REMARK       I    between atoms: C14_18  and  N2_20 
REMARK    5  A    between atoms: N2_20  and  C15_21 
REMARK    6  A    between atoms: C15_21  and  C16_22 
REMARK    7  A    between atoms: C15_21  and  C18_26 
REMARK    8  A    between atoms: C16_22  and  C17_23 
REMARK    9  A    between atoms: C17_23  and  O5_25 
ROOT
HETATM    1  C1  UNL     1      -9.511   8.467  15.267  1.00  0.00     0.015 C 
HETATM    2  C2  UNL     1      -8.648   7.636  15.169  1.00  0.00    -0.078 C 
HETATM    3  C3  UNL     1      -7.606   6.599  15.060  1.00  0.00     0.128 C 
HETATM    4  C4  UNL     1      -6.949   6.309  16.420  1.00  0.00     0.052 C 
HETATM    5  C5  UNL     1      -5.503   5.884  16.109  1.00  0.00     0.010 C 
HETATM    6  C6  UNL     1      -5.337   5.960  14.577  1.00  0.00     0.002 C 
HETATM    7  C7  UNL     1      -3.909   6.260  14.071  1.00  0.00    -0.004 C 
HETATM    8  C8  UNL     1      -2.897   5.258  14.645  1.00  0.00     0.010 C 
HETATM    9  C9  UNL     1      -1.517   5.467  14.038  1.00  0.00     0.035 C 
HETATM   10  C10 UNL     1      -1.022   6.884  14.217  1.00  0.00    -0.069 C 
HETATM   11  C11 UNL     1       0.240   7.093  14.635  1.00  0.00     0.030 C 
HETATM   12  C12 UNL     1       0.842   8.453  14.674  1.00  0.00     0.032 C 
HETATM   13  N1  UNL     1       2.114   8.547  14.944  1.00  0.00    -0.271 N 
ATOM     14  H1  UNL     1       2.717   7.754  15.160  1.00  0.00     0.194 HD
HETATM   15  C25 UNL     1      -0.031   9.634  14.304  1.00  0.00     0.060 C 
HETATM   16  C26 UNL     1      -1.511   9.334  14.497  1.00  0.00     0.020 C 
HETATM   17  C27 UNL     1      -1.986   8.012  13.830  1.00  0.00    -0.016 C 
HETATM   18  C28 UNL     1      -1.939   8.162  12.291  1.00  0.00     0.020 C 
HETATM   19  C29 UNL     1      -3.451   7.711  14.353  1.00  0.00     0.002 C 
HETATM   20  C30 UNL     1      -4.509   8.705  13.826  1.00  0.00     0.007 C 
HETATM   21  C31 UNL     1      -5.904   8.431  14.390  1.00  0.00     0.014 C 
HETATM   22  C32 UNL     1      -6.410   6.988  14.132  1.00  0.00     0.003 C 
HETATM   23  C33 UNL     1      -6.758   6.811  12.642  1.00  0.00     0.020 C 
ENDROOT
BRANCH   3  24
HETATM   24  O1  UNL     1      -8.244   5.406  14.597  1.00  0.00    -0.377 OA
HETATM   25  H2  UNL     1      -7.678   4.649  14.816  1.00  0.00     0.211 HD
ENDBRANCH   3  24
BRANCH  13  26
HETATM   26  O2  UNL     1       2.546   9.885  14.899  1.00  0.00    -0.271 OA
BRANCH  26  27
HETATM   27  C13 UNL     1       3.957   9.929  14.730  1.00  0.00     0.303 C 
BRANCH  27  28
HETATM   28  C14 UNL     1       4.292  10.012  13.251  1.00  0.00     0.244 C 
HETATM   29  O3  UNL     1       4.362  11.082  12.649  1.00  0.00    -0.271 OA
HETATM   30  N2  UNL     1       4.425   8.781  12.634  1.00  0.00    -0.354 N 
HETATM   31  H16 UNL     1       4.310   7.959  13.221  1.00  0.00     0.162 HD
BRANCH  30  32
HETATM   32  C15 UNL     1       4.513   8.632  11.181  1.00  0.00     0.098 C 
BRANCH  32  33
HETATM   33  C16 UNL     1       5.714   7.753  10.800  1.00  0.00     0.135 C 
BRANCH  33  34
HETATM   34  C17 UNL     1       6.079   6.814  11.914  1.00  0.00     0.141 C 
HETATM   35  O4  UNL     1       6.482   7.131  13.022  1.00  0.00    -0.650 OA
BRANCH  34  36
HETATM   36  O5  UNL     1       5.877   5.521  11.596  1.00  0.00    -0.776 OA
HETATM   37  H20 UNL     1       6.172   5.032  12.394  1.00  0.00     0.167 HD
ENDBRANCH  34  36
ENDBRANCH  33  34
ENDBRANCH  32  33
BRANCH  32  38
HETATM   38  C18 UNL     1       3.193   8.074  10.565  1.00  0.00     0.014 C 
HETATM   39  C19 UNL     1       2.580   6.946  11.414  1.00  0.00     0.033 C 
HETATM   40  C20 UNL     1       1.300   6.414  10.790  1.00  0.00     0.169 C 
HETATM   41  O6  UNL     1       1.534   5.964   9.458  1.00  0.00    -0.381 OA
HETATM   42  C21 UNL     1       2.039   6.962   8.558  1.00  0.00     0.054 C 
HETATM   43  C22 UNL     1       2.359   6.223   7.251  1.00  0.00     0.045 C 
HETATM   44  C23 UNL     1       0.962   8.020   8.262  1.00  0.00     0.045 C 
HETATM   45  C24 UNL     1       3.339   7.589   9.112  1.00  0.00     0.044 C 
ENDBRANCH  32  38
ENDBRANCH  30  32
ENDBRANCH  27  28
ENDBRANCH  26  27
ENDBRANCH  13  26
TORSDOF 9
ENDMDL
MODEL 2
REMARK minimizedAffinity -7.21451092
REMARK CNNscore 0.378855318
REMARK CNNaffinity 6.91256189
REMARK  9 active torsions:
REMARK  status: ('A' for Active; 'I' for Inactive)
REMARK    1  A    between atoms: C3_3  and  O1_4 
REMARK    2  A    between atoms: N1_14  and  O2_16 
REMARK    3  A    between atoms: O2_16  and  C13_17 
REMARK    4  A    between atoms: C13_17  and  C14_18 
REMARK       I    between atoms: C14_18  and  N2_20 
REMARK    5  A    between atoms: N2_20  and  C15_21 
REMARK    6  A    between atoms: C15_21  and  C16_22 
REMARK    7  A    between atoms: C15_21  and  C18_26 
REMARK    8  A    between atoms: C16_22  and  C17_23 
REMARK    9  A    between atoms: C17_23  and  O5_25 
ROOT
HETATM    1  C1  UNL     1      -4.303   4.815  13.325  1.00  0.00     0.015 C 
HETATM    2  C2  UNL     1      -5.505   4.798  13.343  1.00  0.00    -0.078 C 
HETATM    3  C3  UNL     1      -6.978   4.754  13.348  1.00  0.00     0.128 C 
HETATM    4  C4  UNL     1      -7.567   5.287  12.030  1.00  0.00     0.052 C 
HETATM    5  C5  UNL     1      -8.929   5.905  12.395  1.00  0.00     0.010 C 
HETATM    6  C6  UNL     1      -9.096   5.746  13.919  1.00  0.00     0.002 C 
HETATM    7  C7  UNL     1      -9.961   6.818  14.616  1.00  0.00    -0.004 C 
HETATM    8  C8  UNL     1     -11.344   6.925  13.959  1.00  0.00     0.010 C 
HETATM    9  C9  UNL     1     -12.243   7.880  14.731  1.00  0.00     0.035 C 
HETATM   10  C10 UNL     1     -11.623   9.249  14.887  1.00  0.00    -0.069 C 
HETATM   11  C11 UNL     1     -12.370  10.343  14.648  1.00  0.00     0.030 C 
HETATM   12  C12 UNL     1     -11.875  11.715  14.940  1.00  0.00     0.032 C 
HETATM   13  N1  UNL     1     -12.717  12.703  14.823  1.00  0.00    -0.271 N 
ATOM     14  H1  UNL     1     -13.684  12.602  14.515  1.00  0.00     0.194 HD
HETATM   15  C25 UNL     1     -10.456  11.872  15.447  1.00  0.00     0.060 C 
HETATM   16  C26 UNL     1      -9.573  10.697  15.051  1.00  0.00     0.020 C 
HETATM   17  C27 UNL     1     -10.175   9.305  15.392  1.00  0.00    -0.016 C 
HETATM   18  C28 UNL     1     -10.206   9.115  16.926  1.00  0.00     0.020 C 
HETATM   19  C29 UNL     1      -9.283   8.208  14.674  1.00  0.00     0.002 C 
HETATM   20  C30 UNL     1      -7.869   8.076  15.279  1.00  0.00     0.007 C 
HETATM   21  C31 UNL     1      -7.006   7.055  14.535  1.00  0.00     0.014 C 
HETATM   22  C32 UNL     1      -7.641   5.643  14.450  1.00  0.00     0.003 C 
HETATM   23  C33 UNL     1      -7.605   4.965  15.832  1.00  0.00     0.020 C 
ENDROOT
BRANCH   3  24
HETATM   24  O1  UNL     1      -7.361   3.385  13.498  1.00  0.00    -0.377 OA
HETATM   25  H2  UNL     1      -8.276   3.285  13.192  1.00  0.00     0.211 HD
ENDBRANCH   3  24
BRANCH  13  26
HETATM   26  O2  UNL     1     -12.119  13.926  15.176  1.00  0.00    -0.271 OA
BRANCH  26  27
HETATM   27  C13 UNL     1     -11.171  14.301  14.185  1.00  0.00     0.303 C 
BRANCH  27  28
HETATM   28  C14 UNL     1     -11.465  15.712  13.704  1.00  0.00     0.244 C 
HETATM   29  O3  UNL     1     -12.235  16.464  14.298  1.00  0.00    -0.271 OA
HETATM   30  N2  UNL     1     -10.859  16.035  12.503  1.00  0.00    -0.354 N 
HETATM   31  H16 UNL     1     -10.271  15.322  12.079  1.00  0.00     0.162 HD
BRANCH  30  32
HETATM   32  C15 UNL     1     -11.194  17.246  11.752  1.00  0.00     0.098 C 
BRANCH  32  33
HETATM   33  C16 UNL     1      -9.918  17.943  11.256  1.00  0.00     0.135 C 
BRANCH  33  34
HETATM   34  C17 UNL     1      -9.778  19.315  11.851  1.00  0.00     0.141 C 
HETATM   35  O4  UNL     1     -10.097  20.367  11.320  1.00  0.00    -0.650 OA
BRANCH  34  36
HETATM   36  O5  UNL     1      -9.284  19.295  13.104  1.00  0.00    -0.776 OA
HETATM   37  H20 UNL     1      -9.230  20.243  13.351  1.00  0.00     0.167 HD
ENDBRANCH  34  36
ENDBRANCH  33  34
ENDBRANCH  32  33
BRANCH  32  38
HETATM   38  C18 UNL     1     -12.168  16.953  10.569  1.00  0.00     0.014 C 
HETATM   39  C19 UNL     1     -12.735  15.523  10.615  1.00  0.00     0.033 C 
HETATM   40  C20 UNL     1     -13.674  15.260   9.449  1.00  0.00     0.169 C 
HETATM   41  O6  UNL     1     -13.019  15.497   8.205  1.00  0.00    -0.381 OA
HETATM   42  C21 UNL     1     -12.515  16.829   8.027  1.00  0.00     0.054 C 
HETATM   43  C22 UNL     1     -11.725  16.804   6.710  1.00  0.00     0.045 C 
HETATM   44  C23 UNL     1     -13.672  17.831   7.876  1.00  0.00     0.045 C 
HETATM   45  C24 UNL     1     -11.557  17.210   9.180  1.00  0.00     0.044 C 
ENDBRANCH  32  38
ENDBRANCH  30  32
ENDBRANCH  27  28
ENDBRANCH  26  27
ENDBRANCH  13  26
TORSDOF 9
ENDMDL
MODEL 3
REMARK minimizedAffinity -8.66130924
REMARK CNNscore 0.307085901
REMARK CNNaffinity 7.07574654
REMARK  9 active torsions:
REMARK  status: ('A' for Active; 'I' for Inactive)
REMARK    1  A    between atoms: C3_3  and  O1_4 
REMARK    2  A    between atoms: N1_14  and  O2_16 
REMARK    3  A    between atoms: O2_16  and  C13_17 
REMARK    4  A    between atoms: C13_17  and  C14_18 
REMARK       I    between atoms: C14_18  and  N2_20 
REMARK    5  A    between atoms: N2_20  and  C15_21 
REMARK    6  A    between atoms: C15_21  and  C16_22 
REMARK    7  A    between atoms: C15_21  and  C18_26 
REMARK    8  A    between atoms: C16_22  and  C17_23 
REMARK    9  A    between atoms: C17_23  and  O5_25 
ROOT
HETATM    1  C1  UNL     1      -7.470   2.884  13.265  1.00  0.00     0.015 C 
HETATM    2  C2  UNL     1      -7.432   4.047  13.568  1.00  0.00    -0.078 C 
HETATM    3  C3  UNL     1      -7.412   5.476  13.929  1.00  0.00     0.128 C 
HETATM    4  C4  UNL     1      -7.233   6.372  12.692  1.00  0.00     0.052 C 
HETATM    5  C5  UNL     1      -6.484   7.625  13.182  1.00  0.00     0.010 C 
HETATM    6  C6  UNL     1      -6.217   7.423  14.688  1.00  0.00     0.002 C 
HETATM    7  C7  UNL     1      -4.962   8.125  15.247  1.00  0.00    -0.004 C 
HETATM    8  C8  UNL     1      -4.980   9.627  14.929  1.00  0.00     0.010 C 
HETATM    9  C9  UNL     1      -3.815  10.342  15.599  1.00  0.00     0.035 C 
HETATM   10  C10 UNL     1      -2.482   9.737  15.226  1.00  0.00    -0.069 C 
HETATM   11  C11 UNL     1      -1.464  10.546  14.879  1.00  0.00     0.030 C 
HETATM   12  C12 UNL     1      -0.086  10.031  14.662  1.00  0.00     0.032 C 
HETATM   13  N1  UNL     1       0.867  10.901  14.480  1.00  0.00    -0.271 N 
ATOM     14  H1  UNL     1       0.726  11.911  14.446  1.00  0.00     0.194 HD
HETATM   15  C25 UNL     1       0.145   8.537  14.760  1.00  0.00     0.060 C 
HETATM   16  C26 UNL     1      -1.129   7.744  14.504  1.00  0.00     0.020 C 
HETATM   17  C27 UNL     1      -2.351   8.213  15.343  1.00  0.00    -0.016 C 
HETATM   18  C28 UNL     1      -2.117   7.875  16.834  1.00  0.00     0.020 C 
HETATM   19  C29 UNL     1      -3.637   7.488  14.764  1.00  0.00     0.002 C 
HETATM   20  C30 UNL     1      -3.658   5.968  15.034  1.00  0.00     0.007 C 
HETATM   21  C31 UNL     1      -4.877   5.280  14.416  1.00  0.00     0.014 C 
HETATM   22  C32 UNL     1      -6.232   5.882  14.870  1.00  0.00     0.003 C 
HETATM   23  C33 UNL     1      -6.511   5.504  16.337  1.00  0.00     0.020 C 
ENDROOT
BRANCH   3  24
HETATM   24  O1  UNL     1      -8.672   5.778  14.533  1.00  0.00    -0.377 OA
HETATM   25  H2  UNL     1      -8.815   6.736  14.488  1.00  0.00     0.211 HD
ENDBRANCH   3  24
BRANCH  13  26
HETATM   26  O2  UNL     1       2.115  10.268  14.335  1.00  0.00    -0.271 OA
BRANCH  26  27
HETATM   27  C13 UNL     1       3.083  11.209  13.891  1.00  0.00     0.303 C 
BRANCH  27  28
HETATM   28  C14 UNL     1       3.993  10.558  12.863  1.00  0.00     0.244 C 
HETATM   29  O3  UNL     1       4.882  11.178  12.282  1.00  0.00    -0.271 OA
HETATM   30  N2  UNL     1       3.675   9.241  12.583  1.00  0.00    -0.354 N 
HETATM   31  H16 UNL     1       2.896   8.839  13.097  1.00  0.00     0.162 HD
BRANCH  30  32
HETATM   32  C15 UNL     1       4.269   8.507  11.465  1.00  0.00     0.098 C 
BRANCH  32  33
HETATM   33  C16 UNL     1       5.446   7.646  11.949  1.00  0.00     0.135 C 
BRANCH  33  34
HETATM   34  C17 UNL     1       6.664   7.855  11.096  1.00  0.00     0.141 C 
HETATM   35  O4  UNL     1       7.206   7.015  10.395  1.00  0.00    -0.650 OA
BRANCH  34  36
HETATM   36  O5  UNL     1       7.117   9.123  11.131  1.00  0.00    -0.776 OA
HETATM   37  H20 UNL     1       7.911   9.106  10.556  1.00  0.00     0.167 HD
ENDBRANCH  34  36
ENDBRANCH  33  34
ENDBRANCH  32  33
BRANCH  32  38
HETATM   38  C18 UNL     1       3.218   7.642  10.705  1.00  0.00     0.014 C 
HETATM   39  C19 UNL     1       3.552   6.140  10.747  1.00  0.00     0.033 C 
HETATM   40  C20 UNL     1       2.517   5.319   9.993  1.00  0.00     0.169 C 
HETATM   41  O6  UNL     1       2.400   5.765   8.644  1.00  0.00    -0.381 OA
HETATM   42  C21 UNL     1       2.017   7.140   8.490  1.00  0.00     0.054 C 
HETATM   43  C22 UNL     1       2.108   7.432   6.985  1.00  0.00     0.045 C 
HETATM   44  C23 UNL     1       0.559   7.350   8.934  1.00  0.00     0.045 C 
HETATM   45  C24 UNL     1       2.998   8.068   9.242  1.00  0.00     0.044 C 
ENDBRANCH  32  38
ENDBRANCH  30  32
ENDBRANCH  27  28
ENDBRANCH  26  27
ENDBRANCH  13  26
TORSDOF 9
ENDMDL
MODEL 4
REMARK minimizedAffinity -7.19811773
REMARK CNNscore 0.289414406
REMARK CNNaffinity 6.4504981
REMARK  9 active torsions:
REMARK  status: ('A' for Active; 'I' for Inactive)
REMARK    1  A    between atoms: C3_3  and  O1_4 
REMARK    2  A    between atoms: N1_14  and  O2_16 
REMARK    3  A    between atoms: O2_16  and  C13_17 
REMARK    4  A    between atoms: C13_17  and  C14_18 
REMARK       I    between atoms: C14_18  and  N2_20 
REMARK    5  A    between atoms: N2_20  and  C15_21 
REMARK    6  A    between atoms: C15_21  and  C16_22 
REMARK    7  A    between atoms: C15_21  and  C18_26 
REMARK    8  A    between atoms: C16_22  and  C17_23 
REMARK    9  A    between atoms: C17_23  and  O5_25 
ROOT
HETATM    1  C1  UNL     1      -4.465   4.351  12.785  1.00  0.00     0.015 C 
HETATM    2  C2  UNL     1      -5.664   4.438  12.836  1.00  0.00    -0.078 C 
HETATM    3  C3  UNL     1      -7.134   4.525  12.880  1.00  0.00     0.128 C 
HETATM    4  C4  UNL     1      -7.695   5.278  11.661  1.00  0.00     0.052 C 
HETATM    5  C5  UNL     1      -8.988   5.959  12.143  1.00  0.00     0.010 C 
HETATM    6  C6  UNL     1      -9.141   5.615  13.638  1.00  0.00     0.002 C 
HETATM    7  C7  UNL     1      -9.892   6.658  14.494  1.00  0.00    -0.004 C 
HETATM    8  C8  UNL     1     -11.271   6.972  13.899  1.00  0.00     0.010 C 
HETATM    9  C9  UNL     1     -12.065   7.893  14.815  1.00  0.00     0.035 C 
HETATM   10  C10 UNL     1     -11.319   9.168  15.130  1.00  0.00    -0.069 C 
HETATM   11  C11 UNL     1     -11.967  10.346  15.058  1.00  0.00     0.030 C 
HETATM   12  C12 UNL     1     -11.343  11.618  15.512  1.00  0.00     0.032 C 
HETATM   13  N1  UNL     1     -12.093  12.683  15.550  1.00  0.00    -0.271 N 
ATOM     14  H1  UNL     1     -13.071  12.710  15.261  1.00  0.00     0.194 HD
HETATM   15  C25 UNL     1      -9.907  11.581  15.993  1.00  0.00     0.060 C 
HETATM   16  C26 UNL     1      -9.143  10.395  15.420  1.00  0.00     0.020 C 
HETATM   17  C27 UNL     1      -9.864   9.028  15.594  1.00  0.00    -0.016 C 
HETATM   18  C28 UNL     1      -9.884   8.640  17.091  1.00  0.00     0.020 C 
HETATM   19  C29 UNL     1      -9.089   7.962  14.714  1.00  0.00     0.002 C 
HETATM   20  C30 UNL     1      -7.682   7.626  15.254  1.00  0.00     0.007 C 
HETATM   21  C31 UNL     1      -6.930   6.641  14.357  1.00  0.00     0.014 C 
HETATM   22  C32 UNL     1      -7.693   5.314  14.107  1.00  0.00     0.003 C 
HETATM   23  C33 UNL     1      -7.695   4.459  15.388  1.00  0.00     0.020 C 
ENDROOT
BRANCH   3  24
HETATM   24  O1  UNL     1      -7.638   3.187  12.861  1.00  0.00    -0.377 OA
HETATM   25  H2  UNL     1      -8.564   3.209  12.572  1.00  0.00     0.211 HD
ENDBRANCH   3  24
BRANCH  13  26
HETATM   26  O2  UNL     1     -11.379  13.791  16.042  1.00  0.00    -0.271 OA
BRANCH  26  27
HETATM   27  C13 UNL     1     -11.995  14.272  17.229  1.00  0.00     0.303 C 
BRANCH  27  28
HETATM   28  C14 UNL     1     -11.415  13.550  18.434  1.00  0.00     0.244 C 
HETATM   29  O3  UNL     1     -10.207  13.377  18.580  1.00  0.00    -0.271 OA
HETATM   30  N2  UNL     1     -12.367  13.038  19.296  1.00  0.00    -0.354 N 
HETATM   31  H16 UNL     1     -13.341  13.208  19.058  1.00  0.00     0.162 HD
BRANCH  30  32
HETATM   32  C15 UNL     1     -12.033  12.115  20.382  1.00  0.00     0.098 C 
BRANCH  32  33
HETATM   33  C16 UNL     1     -11.116  10.992  19.873  1.00  0.00     0.135 C 
BRANCH  33  34
HETATM   34  C17 UNL     1     -11.622   9.642  20.290  1.00  0.00     0.141 C 
HETATM   35  O4  UNL     1     -12.386   8.931  19.656  1.00  0.00    -0.650 OA
BRANCH  34  36
HETATM   36  O5  UNL     1     -11.109   9.229  21.464  1.00  0.00    -0.776 OA
HETATM   37  H20 UNL     1     -11.536   8.359  21.617  1.00  0.00     0.167 HD
ENDBRANCH  34  36
ENDBRANCH  33  34
ENDBRANCH  32  33
BRANCH  32  38
HETATM   38  C18 UNL     1     -11.395  12.849  21.602  1.00  0.00     0.014 C 
HETATM   39  C19 UNL     1     -11.586  14.375  21.534  1.00  0.00     0.033 C 
HETATM   40  C20 UNL     1     -10.949  15.067  22.729  1.00  0.00     0.169 C 
HETATM   41  O6  UNL     1      -9.565  14.743  22.826  1.00  0.00    -0.381 OA
HETATM   42  C21 UNL     1      -9.278  13.343  22.968  1.00  0.00     0.054 C 
HETATM   43  C22 UNL     1      -7.748  13.221  22.895  1.00  0.00     0.045 C 
HETATM   44  C23 UNL     1      -9.735  12.833  24.346  1.00  0.00     0.045 C 
HETATM   45  C24 UNL     1      -9.902  12.536  21.808  1.00  0.00     0.044 C 
ENDBRANCH  32  38
ENDBRANCH  30  32
ENDBRANCH  27  28
ENDBRANCH  26  27
ENDBRANCH  13  26
TORSDOF 9
ENDMDL
MODEL 5
REMARK minimizedAffinity -7.60266876
REMARK CNNscore 0.268289298
REMARK CNNaffinity 6.03683805
REMARK  9 active torsions:
REMARK  status: ('A' for Active; 'I' for Inactive)
REMARK    1  A    between atoms: C3_3  and  O1_4 
REMARK    2  A    between atoms: N1_14  and  O2_16 
REMARK    3  A    between atoms: O2_16  and  C13_17 
REMARK    4  A    between atoms: C13_17  and  C14_18 
REMARK       I    between atoms: C14_18  and  N2_20 
REMARK    5  A    between atoms: N2_20  and  C15_21 
REMARK    6  A    between atoms: C15_21  and  C16_22 
REMARK    7  A    between atoms: C15_21  and  C18_26 
REMARK    8  A    between atoms: C16_22  and  C17_23 
REMARK    9  A    between atoms: C17_23  and  O5_25 
ROOT
HETATM    1  C1  UNL     1       0.051   7.853   8.781  1.00  0.00     0.015 C 
HETATM    2  C2  UNL     1      -0.075   7.827   9.976  1.00  0.00    -0.078 C 
HETATM    3  C3  UNL     1      -0.257   7.788  11.438  1.00  0.00     0.128 C 
HETATM    4  C4  UNL     1      -1.001   9.033  11.951  1.00  0.00     0.052 C 
HETATM    5  C5  UNL     1      -0.478   9.280  13.378  1.00  0.00     0.010 C 
HETATM    6  C6  UNL     1       0.579   8.193  13.659  1.00  0.00     0.002 C 
HETATM    7  C7  UNL     1       1.697   8.584  14.649  1.00  0.00    -0.004 C 
HETATM    8  C8  UNL     1       1.109   9.079  15.978  1.00  0.00     0.010 C 
HETATM    9  C9  UNL     1       2.208   9.332  17.001  1.00  0.00     0.035 C 
HETATM   10  C10 UNL     1       3.254  10.294  16.491  1.00  0.00    -0.069 C 
HETATM   11  C11 UNL     1       3.677  11.292  17.289  1.00  0.00     0.030 C 
HETATM   12  C12 UNL     1       4.817  12.171  16.915  1.00  0.00     0.032 C 
HETATM   13  N1  UNL     1       5.257  13.011  17.811  1.00  0.00    -0.271 N 
ATOM     14  H1  UNL     1       4.852  13.126  18.740  1.00  0.00     0.194 HD
HETATM   15  C25 UNL     1       5.459  11.975  15.558  1.00  0.00     0.060 C 
HETATM   16  C26 UNL     1       4.510  11.315  14.567  1.00  0.00     0.020 C 
HETATM   17  C27 UNL     1       3.833  10.020  15.098  1.00  0.00    -0.016 C 
HETATM   18  C28 UNL     1       4.893   8.903  15.242  1.00  0.00     0.020 C 
HETATM   19  C29 UNL     1       2.688   9.624  14.076  1.00  0.00     0.002 C 
HETATM   20  C30 UNL     1       3.222   9.141  12.711  1.00  0.00     0.007 C 
HETATM   21  C31 UNL     1       2.100   8.821  11.721  1.00  0.00     0.014 C 
HETATM   22  C32 UNL     1       1.079   7.780  12.249  1.00  0.00     0.003 C 
HETATM   23  C33 UNL     1       1.723   6.381  12.281  1.00  0.00     0.020 C 
ENDROOT
BRANCH   3  24
HETATM   24  O1  UNL     1      -1.042   6.632  11.737  1.00  0.00    -0.377 OA
HETATM   25  H2  UNL     1      -1.440   6.746  12.614  1.00  0.00     0.211 HD
ENDBRANCH   3  24
BRANCH  13  26
HETATM   26  O2  UNL     1       6.362  13.736  17.329  1.00  0.00    -0.271 OA
BRANCH  26  27
HETATM   27  C13 UNL     1       7.268  13.994  18.394  1.00  0.00     0.303 C 
BRANCH  27  28
HETATM   28  C14 UNL     1       7.275  12.818  19.355  1.00  0.00     0.244 C 
HETATM   29  O3  UNL     1       7.527  11.671  18.992  1.00  0.00    -0.271 OA
HETATM   30  N2  UNL     1       6.892  13.142  20.645  1.00  0.00    -0.354 N 
HETATM   31  H16 UNL     1       6.670  14.118  20.825  1.00  0.00     0.162 HD
BRANCH  30  32
HETATM   32  C15 UNL     1       6.607  12.129  21.661  1.00  0.00     0.098 C 
BRANCH  32  33
HETATM   33  C16 UNL     1       7.080  12.603  23.043  1.00  0.00     0.135 C 
BRANCH  33  34
HETATM   34  C17 UNL     1       8.578  12.680  23.112  1.00  0.00     0.141 C 
HETATM   35  O4  UNL     1       9.229  13.487  23.757  1.00  0.00    -0.650 OA
BRANCH  34  36
HETATM   36  O5  UNL     1       9.186  11.712  22.401  1.00  0.00    -0.776 OA
HETATM   37  H20 UNL     1      10.142  11.897  22.519  1.00  0.00     0.167 HD
ENDBRANCH  34  36
ENDBRANCH  33  34
ENDBRANCH  32  33
BRANCH  32  38
HETATM   38  C18 UNL     1       5.098  11.734  21.690  1.00  0.00     0.014 C 
HETATM   39  C19 UNL     1       4.170  12.961  21.733  1.00  0.00     0.033 C 
HETATM   40  C20 UNL     1       2.707  12.550  21.768  1.00  0.00     0.169 C 
HETATM   41  O6  UNL     1       2.447  11.691  22.876  1.00  0.00    -0.381 OA
HETATM   42  C21 UNL     1       3.211  10.475  22.894  1.00  0.00     0.054 C 
HETATM   43  C22 UNL     1       2.886   9.798  24.234  1.00  0.00     0.045 C 
HETATM   44  C23 UNL     1       2.762   9.537  21.761  1.00  0.00     0.045 C 
HETATM   45  C24 UNL     1       4.725  10.779  22.839  1.00  0.00     0.044 C 
ENDBRANCH  32  38
ENDBRANCH  30  32
ENDBRANCH  27  28
ENDBRANCH  26  27
ENDBRANCH  13  26
TORSDOF 9
ENDMDL
MODEL 6
REMARK minimizedAffinity -8.39398956
REMARK CNNscore 0.258983344
REMARK CNNaffinity 6.57097244
REMARK  9 active torsions:
REMARK  status: ('A' for Active; 'I' for Inactive)
REMARK    1  A    between atoms: C3_3  and  O1_4 
REMARK    2  A    between atoms: N1_14  and  O2_16 
REMARK    3  A    between atoms: O2_16  and  C13_17 
REMARK    4  A    between atoms: C13_17  and  C14_18 
REMARK       I    between atoms: C14_18  and  N2_20 
REMARK    5  A    between atoms: N2_20  and  C15_21 
REMARK    6  A    between atoms: C15_21  and  C16_22 
REMARK    7  A    between atoms: C15_21  and  C18_26 
REMARK    8  A    between atoms: C16_22  and  C17_23 
REMARK    9  A    between atoms: C17_23  and  O5_25 
ROOT
HETATM    1  C1  UNL     1      -7.428   4.801  15.919  1.00  0.00     0.015 C 
HETATM    2  C2  UNL     1      -6.780   5.260  15.016  1.00  0.00    -0.078 C 
HETATM    3  C3  UNL     1      -6.004   5.811  13.891  1.00  0.00     0.128 C 
HETATM    4  C4  UNL     1      -5.143   4.731  13.213  1.00  0.00     0.052 C 
HETATM    5  C5  UNL     1      -3.904   5.461  12.664  1.00  0.00     0.010 C 
HETATM    6  C6  UNL     1      -4.053   6.946  13.056  1.00  0.00     0.002 C 
HETATM    7  C7  UNL     1      -2.734   7.723  13.253  1.00  0.00    -0.004 C 
HETATM    8  C8  UNL     1      -1.835   7.610  12.014  1.00  0.00     0.010 C 
HETATM    9  C9  UNL     1      -0.599   8.489  12.152  1.00  0.00     0.035 C 
HETATM   10  C10 UNL     1       0.184   8.180  13.406  1.00  0.00    -0.069 C 
HETATM   11  C11 UNL     1       1.522   8.055  13.334  1.00  0.00     0.030 C 
HETATM   12  C12 UNL     1       2.368   7.916  14.549  1.00  0.00     0.032 C 
HETATM   13  N1  UNL     1       3.663   7.954  14.397  1.00  0.00    -0.271 N 
ATOM     14  H1  UNL     1       4.134   8.042  13.497  1.00  0.00     0.194 HD
HETATM   15  C25 UNL     1       1.680   7.836  15.896  1.00  0.00     0.060 C 
HETATM   16  C26 UNL     1       0.245   7.343  15.777  1.00  0.00     0.020 C 
HETATM   17  C27 UNL     1      -0.604   8.104  14.720  1.00  0.00    -0.016 C 
HETATM   18  C28 UNL     1      -0.854   9.552  15.201  1.00  0.00     0.020 C 
HETATM   19  C29 UNL     1      -1.957   7.301  14.523  1.00  0.00     0.002 C 
HETATM   20  C30 UNL     1      -2.890   7.360  15.751  1.00  0.00     0.007 C 
HETATM   21  C31 UNL     1      -4.162   6.530  15.562  1.00  0.00     0.014 C 
HETATM   22  C32 UNL     1      -4.978   6.916  14.301  1.00  0.00     0.003 C 
HETATM   23  C33 UNL     1      -5.659   8.281  14.513  1.00  0.00     0.020 C 
ENDROOT
BRANCH   3  24
HETATM   24  O1  UNL     1      -6.941   6.313  12.936  1.00  0.00    -0.377 OA
HETATM   25  H2  UNL     1      -6.498   6.384  12.076  1.00  0.00     0.211 HD
ENDBRANCH   3  24
BRANCH  13  26
HETATM   26  O2  UNL     1       4.324   7.857  15.635  1.00  0.00    -0.271 OA
BRANCH  26  27
HETATM   27  C13 UNL     1       5.613   7.286  15.448  1.00  0.00     0.303 C 
BRANCH  27  28
HETATM   28  C14 UNL     1       6.656   8.389  15.393  1.00  0.00     0.244 C 
HETATM   29  O3  UNL     1       6.486   9.428  14.759  1.00  0.00    -0.271 OA
HETATM   30  N2  UNL     1       7.836   8.080  16.047  1.00  0.00    -0.354 N 
HETATM   31  H16 UNL     1       7.881   7.175  16.508  1.00  0.00     0.162 HD
BRANCH  30  32
HETATM   32  C15 UNL     1       9.045   8.895  15.920  1.00  0.00     0.098 C 
BRANCH  32  33
HETATM   33  C16 UNL     1       8.971   9.776  14.663  1.00  0.00     0.135 C 
BRANCH  33  34
HETATM   34  C17 UNL     1       9.843   9.238  13.566  1.00  0.00     0.141 C 
HETATM   35  O4  UNL     1      10.377   9.891  12.683  1.00  0.00    -0.650 OA
BRANCH  34  36
HETATM   36  O5  UNL     1      10.040   7.909  13.656  1.00  0.00    -0.776 OA
HETATM   37  H20 UNL     1      10.599   7.699  12.878  1.00  0.00     0.167 HD
ENDBRANCH  34  36
ENDBRANCH  33  34
ENDBRANCH  32  33
BRANCH  32  38
HETATM   38  C18 UNL     1       9.310   9.757  17.193  1.00  0.00     0.014 C 
HETATM   39  C19 UNL     1       8.022  10.384  17.756  1.00  0.00     0.033 C 
HETATM   40  C20 UNL     1       8.308  11.224  18.991  1.00  0.00     0.169 C 
HETATM   41  O6  UNL     1       9.270  12.236  18.705  1.00  0.00    -0.381 OA
HETATM   42  C21 UNL     1      10.539  11.753  18.241  1.00  0.00     0.054 C 
HETATM   43  C22 UNL     1      11.345  13.002  17.853  1.00  0.00     0.045 C 
HETATM   44  C23 UNL     1      11.291  11.029  19.371  1.00  0.00     0.045 C 
HETATM   45  C24 UNL     1      10.362  10.862  16.990  1.00  0.00     0.044 C 
ENDBRANCH  32  38
ENDBRANCH  30  32
ENDBRANCH  27  28
ENDBRANCH  26  27
ENDBRANCH  13  26
TORSDOF 9
ENDMDL
MODEL 7
REMARK minimizedAffinity -8.56276512
REMARK CNNscore 0.256270081
REMARK CNNaffinity 6.86043119
REMARK  9 active torsions:
REMARK  status: ('A' for Active; 'I' for Inactive)
REMARK    1  A    between atoms: C3_3  and  O1_4 
REMARK    2  A    between atoms: N1_14  and  O2_16 
REMARK    3  A    between atoms: O2_16  and  C13_17 
REMARK    4  A    between atoms: C13_17  and  C14_18 
REMARK       I    between atoms: C14_18  and  N2_20 
REMARK    5  A    between atoms: N2_20  and  C15_21 
REMARK    6  A    between atoms: C15_21  and  C16_22 
REMARK    7  A    between atoms: C15_21  and  C18_26 
REMARK    8  A    between atoms: C16_22  and  C17_23 
REMARK    9  A    between atoms: C17_23  and  O5_25 
ROOT
HETATM    1  C1  UNL     1       2.383   6.285   6.867  1.00  0.00     0.015 C 
HETATM    2  C2  UNL     1       2.511   6.162   8.057  1.00  0.00    -0.078 C 
HETATM    3  C3  UNL     1       2.685   5.991   9.510  1.00  0.00     0.128 C 
HETATM    4  C4  UNL     1       1.939   4.750  10.029  1.00  0.00     0.052 C 
HETATM    5  C5  UNL     1       1.537   5.074  11.479  1.00  0.00     0.010 C 
HETATM    6  C6  UNL     1       2.031   6.506  11.768  1.00  0.00     0.002 C 
HETATM    7  C7  UNL     1       1.212   7.301  12.807  1.00  0.00    -0.004 C 
HETATM    8  C8  UNL     1       1.092   6.527  14.127  1.00  0.00     0.010 C 
HETATM    9  C9  UNL     1       0.406   7.368  15.194  1.00  0.00     0.035 C 
HETATM   10  C10 UNL     1      -0.948   7.867  14.746  1.00  0.00    -0.069 C 
HETATM   11  C11 UNL     1      -1.997   7.770  15.584  1.00  0.00     0.030 C 
HETATM   12  C12 UNL     1      -3.314   8.388  15.274  1.00  0.00     0.032 C 
HETATM   13  N1  UNL     1      -4.226   8.377  16.206  1.00  0.00    -0.271 N 
ATOM     14  H1  UNL     1      -4.107   7.947  17.123  1.00  0.00     0.194 HD
HETATM   15  C25 UNL     1      -3.486   9.074  13.935  1.00  0.00     0.060 C 
HETATM   16  C26 UNL     1      -2.505   8.552  12.894  1.00  0.00     0.020 C 
HETATM   17  C27 UNL     1      -1.024   8.534  13.367  1.00  0.00    -0.016 C 
HETATM   18  C28 UNL     1      -0.511   9.985  13.519  1.00  0.00     0.020 C 
HETATM   19  C29 UNL     1      -0.189   7.716  12.296  1.00  0.00     0.002 C 
HETATM   20  C30 UNL     1      -0.057   8.439  10.938  1.00  0.00     0.007 C 
HETATM   21  C31 UNL     1       0.701   7.607   9.902  1.00  0.00     0.014 C 
HETATM   22  C32 UNL     1       2.114   7.167  10.367  1.00  0.00     0.003 C 
HETATM   23  C33 UNL     1       3.063   8.379  10.384  1.00  0.00     0.020 C 
ENDROOT
BRANCH   3  24
HETATM   24  O1  UNL     1       4.083   5.817   9.751  1.00  0.00    -0.377 OA
HETATM   25  H2  UNL     1       4.198   5.395  10.617  1.00  0.00     0.211 HD
ENDBRANCH   3  24
BRANCH  13  26
HETATM   26  O2  UNL     1      -5.395   9.036  15.782  1.00  0.00    -0.271 OA
BRANCH  26  27
HETATM   27  C13 UNL     1      -6.532   8.236  16.082  1.00  0.00     0.303 C 
BRANCH  27  28
HETATM   28  C14 UNL     1      -7.112   7.671  14.796  1.00  0.00     0.244 C 
HETATM   29  O3  UNL     1      -6.441   7.530  13.776  1.00  0.00    -0.271 OA
HETATM   30  N2  UNL     1      -8.470   7.413  14.857  1.00  0.00    -0.354 N 
HETATM   31  H16 UNL     1      -8.933   7.602  15.742  1.00  0.00     0.162 HD
BRANCH  30  32
HETATM   32  C15 UNL     1      -9.265   7.091  13.672  1.00  0.00     0.098 C 
BRANCH  32  33
HETATM   33  C16 UNL     1      -9.235   5.579  13.397  1.00  0.00     0.135 C 
BRANCH  33  34
HETATM   34  C17 UNL     1      -8.485   5.267  12.134  1.00  0.00     0.141 C 
HETATM   35  O4  UNL     1      -7.532   4.512  12.029  1.00  0.00    -0.650 OA
BRANCH  34  36
HETATM   36  O5  UNL     1      -8.998   5.887  11.054  1.00  0.00    -0.776 OA
HETATM   37  H20 UNL     1      -8.406   5.612  10.321  1.00  0.00     0.167 HD
ENDBRANCH  34  36
ENDBRANCH  33  34
ENDBRANCH  32  33
BRANCH  32  38
HETATM   38  C18 UNL     1     -10.731   7.610  13.788  1.00  0.00     0.014 C 
HETATM   39  C19 UNL     1     -10.896   8.659  14.902  1.00  0.00     0.033 C 
HETATM   40  C20 UNL     1     -12.334   9.143  14.999  1.00  0.00     0.169 C 
HETATM   41  O6  UNL     1     -13.225   8.050  15.209  1.00  0.00    -0.381 OA
HETATM   42  C21 UNL     1     -13.205   7.045  14.185  1.00  0.00     0.054 C 
HETATM   43  C22 UNL     1     -14.109   5.912  14.693  1.00  0.00     0.045 C 
HETATM   44  C23 UNL     1     -13.807   7.590  12.878  1.00  0.00     0.045 C 
HETATM   45  C24 UNL     1     -11.774   6.495  13.986  1.00  0.00     0.044 C 
ENDBRANCH  32  38
ENDBRANCH  30  32
ENDBRANCH  27  28
ENDBRANCH  26  27
ENDBRANCH  13  26
TORSDOF 9
ENDMDL
MODEL 8
REMARK minimizedAffinity -8.66672134
REMARK CNNscore 0.247039095
REMARK CNNaffinity 6.74088478
REMARK  9 active torsions:
REMARK  status: ('A' for Active; 'I' for Inactive)
REMARK    1  A    between atoms: C3_3  and  O1_4 
REMARK    2  A    between atoms: N1_14  and  O2_16 
REMARK    3  A    between atoms: O2_16  and  C13_17 
REMARK    4  A    between atoms: C13_17  and  C14_18 
REMARK       I    between atoms: C14_18  and  N2_20 
REMARK    5  A    between atoms: N2_20  and  C15_21 
REMARK    6  A    between atoms: C15_21  and  C16_22 
REMARK    7  A    between atoms: C15_21  and  C18_26 
REMARK    8  A    between atoms: C16_22  and  C17_23 
REMARK    9  A    between atoms: C17_23  and  O5_25 
ROOT
HETATM    1  C1  UNL     1       2.717   8.403   7.911  1.00  0.00     0.015 C 
HETATM    2  C2  UNL     1       2.600   7.870   8.983  1.00  0.00    -0.078 C 
HETATM    3  C3  UNL     1       2.479   7.201  10.290  1.00  0.00     0.128 C 
HETATM    4  C4  UNL     1       1.889   5.787  10.153  1.00  0.00     0.052 C 
HETATM    5  C5  UNL     1       1.122   5.519  11.460  1.00  0.00     0.010 C 
HETATM    6  C6  UNL     1       1.256   6.791  12.322  1.00  0.00     0.002 C 
HETATM    7  C7  UNL     1       0.091   7.067  13.297  1.00  0.00    -0.004 C 
HETATM    8  C8  UNL     1      -0.166   5.858  14.207  1.00  0.00     0.010 C 
HETATM    9  C9  UNL     1      -1.219   6.179  15.259  1.00  0.00     0.035 C 
HETATM   10  C10 UNL     1      -2.510   6.666  14.644  1.00  0.00    -0.069 C 
HETATM   11  C11 UNL     1      -3.680   6.166  15.084  1.00  0.00     0.030 C 
HETATM   12  C12 UNL     1      -4.989   6.716  14.643  1.00  0.00     0.032 C 
HETATM   13  N1  UNL     1      -6.065   6.275  15.233  1.00  0.00    -0.271 N 
ATOM     14  H1  UNL     1      -6.071   5.556  15.956  1.00  0.00     0.194 HD
HETATM   15  C25 UNL     1      -4.990   7.821  13.607  1.00  0.00     0.060 C 
HETATM   16  C26 UNL     1      -3.722   7.815  12.764  1.00  0.00     0.020 C 
HETATM   17  C27 UNL     1      -2.406   7.777  13.592  1.00  0.00    -0.016 C 
HETATM   18  C28 UNL     1      -2.227   9.118  14.342  1.00  0.00     0.020 C 
HETATM   19  C29 UNL     1      -1.215   7.494  12.586  1.00  0.00     0.002 C 
HETATM   20  C30 UNL     1      -0.928   8.670  11.627  1.00  0.00     0.007 C 
HETATM   21  C31 UNL     1       0.185   8.353  10.627  1.00  0.00     0.014 C 
HETATM   22  C32 UNL     1       1.518   7.921  11.291  1.00  0.00     0.003 C 
HETATM   23  C33 UNL     1       2.190   9.133  11.961  1.00  0.00     0.020 C 
ENDROOT
BRANCH   3  24
HETATM   24  O1  UNL     1       3.796   7.095  10.835  1.00  0.00    -0.377 OA
HETATM   25  H2  UNL     1       3.796   6.401  11.513  1.00  0.00     0.211 HD
ENDBRANCH   3  24
BRANCH  13  26
HETATM   26  O2  UNL     1      -7.215   6.920  14.744  1.00  0.00    -0.271 OA
BRANCH  26  27
HETATM   27  C13 UNL     1      -8.264   5.974  14.581  1.00  0.00     0.303 C 
BRANCH  27  28
HETATM   28  C14 UNL     1      -9.321   6.538  13.647  1.00  0.00     0.244 C 
HETATM   29  O3  UNL     1      -9.311   6.328  12.436  1.00  0.00    -0.271 OA
HETATM   30  N2  UNL     1     -10.234   7.372  14.268  1.00  0.00    -0.354 N 
HETATM   31  H16 UNL     1     -10.125   7.505  15.270  1.00  0.00     0.162 HD
BRANCH  30  32
HETATM   32  C15 UNL     1     -11.183   8.198  13.521  1.00  0.00     0.098 C 
BRANCH  32  33
HETATM   33  C16 UNL     1     -12.433   7.384  13.153  1.00  0.00     0.135 C 
BRANCH  33  34
HETATM   34  C17 UNL     1     -13.680   8.213  13.272  1.00  0.00     0.141 C 
HETATM   35  O4  UNL     1     -14.389   8.310  14.261  1.00  0.00    -0.650 OA
BRANCH  34  36
HETATM   36  O5  UNL     1     -13.950   8.917  12.156  1.00  0.00    -0.776 OA
HETATM   37  H20 UNL     1     -14.786   9.384  12.368  1.00  0.00     0.167 HD
ENDBRANCH  34  36
ENDBRANCH  33  34
ENDBRANCH  32  33
BRANCH  32  38
HETATM   38  C18 UNL     1     -11.567   9.497  14.294  1.00  0.00     0.014 C 
HETATM   39  C19 UNL     1     -12.307   9.200  15.611  1.00  0.00     0.033 C 
HETATM   40  C20 UNL     1     -12.677  10.481  16.340  1.00  0.00     0.169 C 
HETATM   41  O6  UNL     1     -13.463  11.331  15.509  1.00  0.00    -0.381 OA
HETATM   42  C21 UNL     1     -12.835  11.731  14.282  1.00  0.00     0.054 C 
HETATM   43  C22 UNL     1     -13.908  12.495  13.492  1.00  0.00     0.045 C 
HETATM   44  C23 UNL     1     -11.666  12.692  14.559  1.00  0.00     0.045 C 
HETATM   45  C24 UNL     1     -12.396  10.495  13.464  1.00  0.00     0.044 C 
ENDBRANCH  32  38
ENDBRANCH  30  32
ENDBRANCH  27  28
ENDBRANCH  26  27
ENDBRANCH  13  26
TORSDOF 9
ENDMDL
MODEL 9
REMARK minimizedAffinity -9.11506271
REMARK CNNscore 0.217925251
REMARK CNNaffinity 6.27916288
REMARK  9 active torsions:
REMARK  status: ('A' for Active; 'I' for Inactive)
REMARK    1  A    between atoms: C3_3  and  O1_4 
REMARK    2  A    between atoms: N1_14  and  O2_16 
REMARK    3  A    between atoms: O2_16  and  C13_17 
REMARK    4  A    between atoms: C13_17  and  C14_18 
REMARK       I    between atoms: C14_18  and  N2_20 
REMARK    5  A    between atoms: N2_20  and  C15_21 
REMARK    6  A    between atoms: C15_21  and  C16_22 
REMARK    7  A    between atoms: C15_21  and  C18_26 
REMARK    8  A    between atoms: C16_22  and  C17_23 
REMARK    9  A    between atoms: C17_23  and  O5_25 
ROOT
HETATM    1  C1  UNL     1       3.211   8.639   8.043  1.00  0.00     0.015 C 
HETATM    2  C2  UNL     1       2.401   8.169   8.797  1.00  0.00    -0.078 C 
HETATM    3  C3  UNL     1       1.395   7.582   9.700  1.00  0.00     0.128 C 
HETATM    4  C4  UNL     1       0.089   8.395   9.700  1.00  0.00     0.052 C 
HETATM    5  C5  UNL     1      -0.519   8.220  11.103  1.00  0.00     0.010 C 
HETATM    6  C6  UNL     1       0.457   7.333  11.903  1.00  0.00     0.002 C 
HETATM    7  C7  UNL     1       0.473   7.559  13.430  1.00  0.00    -0.004 C 
HETATM    8  C8  UNL     1      -0.938   7.429  14.022  1.00  0.00     0.010 C 
HETATM    9  C9  UNL     1      -0.902   7.514  15.542  1.00  0.00     0.035 C 
HETATM   10  C10 UNL     1      -0.236   8.779  16.028  1.00  0.00    -0.069 C 
HETATM   11  C11 UNL     1      -0.816   9.494  17.011  1.00  0.00     0.030 C 
HETATM   12  C12 UNL     1      -0.138  10.654  17.649  1.00  0.00     0.032 C 
HETATM   13  N1  UNL     1      -0.704  11.191  18.692  1.00  0.00    -0.271 N 
ATOM     14  H1  UNL     1      -1.597  10.890  19.082  1.00  0.00     0.194 HD
HETATM   15  C25 UNL     1       1.213  11.078  17.111  1.00  0.00     0.060 C 
HETATM   16  C26 UNL     1       1.418  10.639  15.667  1.00  0.00     0.020 C 
HETATM   17  C27 UNL     1       1.122   9.134  15.412  1.00  0.00    -0.016 C 
HETATM   18  C28 UNL     1       2.196   8.268  16.113  1.00  0.00     0.020 C 
HETATM   19  C29 UNL     1       1.109   8.908  13.843  1.00  0.00     0.002 C 
HETATM   20  C30 UNL     1       2.500   9.052  13.189  1.00  0.00     0.007 C 
HETATM   21  C31 UNL     1       2.454   8.889  11.669  1.00  0.00     0.014 C 
HETATM   22  C32 UNL     1       1.825   7.550  11.203  1.00  0.00     0.003 C 
HETATM   23  C33 UNL     1       2.787   6.385  11.500  1.00  0.00     0.020 C 
ENDROOT
BRANCH   3  24
HETATM   24  O1  UNL     1       1.114   6.265   9.222  1.00  0.00    -0.377 OA
HETATM   25  H2  UNL     1       0.258   5.982   9.580  1.00  0.00     0.211 HD
ENDBRANCH   3  24
BRANCH  13  26
HETATM   26  O2  UNL     1       0.075  12.242  19.210  1.00  0.00    -0.271 OA
BRANCH  26  27
HETATM   27  C13 UNL     1       1.432  11.830  19.309  1.00  0.00     0.303 C 
BRANCH  27  28
HETATM   28  C14 UNL     1       1.938  12.074  20.721  1.00  0.00     0.244 C 
HETATM   29  O3  UNL     1       1.596  13.050  21.384  1.00  0.00    -0.271 OA
HETATM   30  N2  UNL     1       2.875  11.150  21.150  1.00  0.00    -0.354 N 
HETATM   31  H16 UNL     1       3.112  10.402  20.503  1.00  0.00     0.162 HD
BRANCH  30  32
HETATM   32  C15 UNL     1       3.656  11.331  22.374  1.00  0.00     0.098 C 
BRANCH  32  33
HETATM   33  C16 UNL     1       4.004   9.970  22.998  1.00  0.00     0.135 C 
BRANCH  33  34
HETATM   34  C17 UNL     1       2.818   9.050  23.001  1.00  0.00     0.141 C 
HETATM   35  O4  UNL     1       2.314   8.520  22.023  1.00  0.00    -0.650 OA
BRANCH  34  36
HETATM   36  O5  UNL     1       2.348   8.804  24.239  1.00  0.00    -0.776 OA
HETATM   37  H20 UNL     1       1.577   8.217  24.087  1.00  0.00     0.167 HD
ENDBRANCH  34  36
ENDBRANCH  33  34
ENDBRANCH  32  33
BRANCH  32  38
HETATM   38  C18 UNL     1       4.940  12.181  22.132  1.00  0.00     0.014 C 
HETATM   39  C19 UNL     1       5.351  12.216  20.649  1.00  0.00     0.033 C 
HETATM   40  C20 UNL     1       6.609  13.044  20.440  1.00  0.00     0.169 C 
HETATM   41  O6  UNL     1       7.680  12.552  21.242  1.00  0.00    -0.381 OA
HETATM   42  C21 UNL     1       7.429  12.547  22.655  1.00  0.00     0.054 C 
HETATM   43  C22 UNL     1       8.635  11.841  23.292  1.00  0.00     0.045 C 
HETATM   44  C23 UNL     1       7.369  13.984  23.201  1.00  0.00     0.045 C 
HETATM   45  C24 UNL     1       6.149  11.743  22.980  1.00  0.00     0.044 C 
ENDBRANCH  32  38
ENDBRANCH  30  32
ENDBRANCH  27  28
ENDBRANCH  26  27
ENDBRANCH  13  26
TORSDOF 9
ENDMDL
