MODEL 1
REMARK minimizedAffinity -9.15406418
REMARK CNNscore 0.595483959
REMARK CNNaffinity 7.2654767
REMARK  12 active torsions:
REMARK  status: ('A' for Active; 'I' for Inactive)
REMARK    1  A    between atoms: O1_2  and  C2_3 
REMARK    2  A    between atoms: C4_5  and  O2_6 
REMARK    3  A    between atoms: O2_6  and  C5_7 
REMARK    4  A    between atoms: C8_10  and  C9_11 
REMARK    5  A    between atoms: N1_12  and  C10_14 
REMARK    6  A    between atoms: C10_14  and  C11_15 
REMARK    7  A    between atoms: C11_15  and  C12_16 
REMARK    8  A    between atoms: C12_16  and  O3_17 
REMARK    9  A    between atoms: C18_23  and  C19_24 
REMARK   10  A    between atoms: C25_32  and  O6_33 
REMARK   11  A    between atoms: C29_37  and  O7_38 
REMARK   12  A    between atoms: C33_43  and  O9_44 
ROOT
HETATM    1  C5  UNL     1      -6.201  48.836 -24.116  1.00  0.00     0.127 C 
HETATM    2  C6  UNL     1      -6.185  50.168 -23.373  1.00  0.00     0.033 C 
HETATM    3  C7  UNL     1      -6.775  50.051 -21.979  1.00  0.00     0.021 C 
HETATM    4  C8  UNL     1      -6.070  48.973 -21.095  1.00  0.00     0.026 C 
HETATM    5  C13 UNL     1      -4.563  49.318 -20.824  1.00  0.00     0.009 C 
HETATM    6  C14 UNL     1      -4.353  50.684 -20.163  1.00  0.00     0.007 C 
HETATM    7  C15 UNL     1      -2.874  51.040 -20.210  1.00  0.00     0.013 C 
HETATM    8  C16 UNL     1      -1.978  50.063 -19.417  1.00  0.00    -0.005 C 
HETATM    9  C17 UNL     1      -2.168  50.370 -17.911  1.00  0.00     0.019 C 
HETATM   10  C18 UNL     1      -0.440  50.216 -19.787  1.00  0.00     0.028 C 
HETATM   11  C23 UNL     1      -0.034  48.873 -20.432  1.00  0.00     0.013 C 
HETATM   12  C24 UNL     1      -1.342  48.257 -20.907  1.00  0.00     0.040 C 
HETATM   13  C25 UNL     1      -2.304  48.564 -19.749  1.00  0.00     0.070 C 
HETATM   14  C26 UNL     1      -3.808  48.225 -20.025  1.00  0.00     0.026 C 
HETATM   15  C27 UNL     1      -3.979  46.846 -20.704  1.00  0.00     0.011 C 
HETATM   16  C28 UNL     1      -5.417  46.490 -21.088  1.00  0.00     0.039 C 
HETATM   17  C29 UNL     1      -6.152  47.608 -21.844  1.00  0.00     0.073 C 
HETATM   18  C30 UNL     1      -5.586  47.709 -23.285  1.00  0.00     0.071 C 
ENDROOT
BRANCH   1  19
HETATM   19  O2  UNL     1      -5.398  49.030 -25.283  1.00  0.00    -0.356 OA
BRANCH  19  20
HETATM   20  C4  UNL     1      -4.137  49.641 -25.020  1.00  0.00     0.263 C 
HETATM   21  C3  UNL     1      -3.455  49.841 -26.367  1.00  0.00     0.095 C 
HETATM   22  C2  UNL     1      -2.092  50.496 -26.180  1.00  0.00     0.156 C 
HETATM   23  C33 UNL     1      -2.248  51.794 -25.366  1.00  0.00     0.175 C 
HETATM   24  C31 UNL     1      -3.050  51.531 -24.073  1.00  0.00     0.151 C 
HETATM   25  O8  UNL     1      -4.298  50.881 -24.344  1.00  0.00    -0.354 OA
HETATM   26  C32 UNL     1      -3.370  52.821 -23.327  1.00  0.00     0.042 C 
BRANCH  22  27
HETATM   27  O1  UNL     1      -1.478  50.848 -27.433  1.00  0.00    -0.388 OA
HETATM   28  C1  UNL     1      -0.110  51.206 -27.317  1.00  0.00     0.202 C 
ENDBRANCH  22  27
BRANCH  23  29
HETATM   29  O9  UNL     1      -2.899  52.776 -26.186  1.00  0.00    -0.390 OA
HETATM   30  H51 UNL     1      -2.504  52.671 -27.076  1.00  0.00     0.210 HD
ENDBRANCH  23  29
ENDBRANCH  19  20
ENDBRANCH   1  19
BRANCH  17  31
HETATM   31  O7  UNL     1      -7.531  47.232 -21.979  1.00  0.00    -0.389 OA
HETATM   32  H43 UNL     1      -7.558  46.326 -22.336  1.00  0.00     0.210 HD
ENDBRANCH  17  31
BRANCH   4  33
HETATM   33  C9  UNL     1      -6.879  48.971 -19.782  1.00  0.00     0.068 C 
HETATM   34  N1  UNL     1      -7.425  47.908 -19.287  1.00  0.00    -0.401 N 
ATOM     35  H1  UNL     1      -7.382  47.001 -19.751  1.00  0.00     0.158 HD
BRANCH  34  36
HETATM   36  C10 UNL     1      -8.114  48.110 -18.004  1.00  0.00     0.121 C 
BRANCH  36  37
HETATM   37  C11 UNL     1      -9.604  48.349 -18.267  1.00  0.00     0.045 C 
BRANCH  37  38
HETATM   38  C12 UNL     1     -10.508  47.661 -17.248  1.00  0.00     0.165 C 
BRANCH  38  39
HETATM   39  O3  UNL     1     -10.251  48.140 -15.934  1.00  0.00    -0.401 OA
HETATM   40  H20 UNL     1      -9.276  48.245 -15.880  1.00  0.00     0.209 HD
ENDBRANCH  38  39
ENDBRANCH  37  38
ENDBRANCH  36  37
ENDBRANCH  34  36
ENDBRANCH   4  33
BRANCH  13  41
HETATM   41  O6  UNL     1      -1.854  47.762 -18.637  1.00  0.00    -0.389 OA
HETATM   42  H37 UNL     1      -2.320  46.907 -18.646  1.00  0.00     0.210 HD
ENDBRANCH  13  41
BRANCH  10  43
HETATM   43  C19 UNL     1      -0.035  51.411 -20.617  1.00  0.00    -0.045 A 
HETATM   44  C20 UNL     1       0.491  52.548 -20.157  1.00  0.00     0.087 A 
HETATM   45  C21 UNL     1       0.734  53.417 -21.309  1.00  0.00     0.283 A 
HETATM   46  O4  UNL     1       1.223  54.532 -21.253  1.00  0.00    -0.260 OA
HETATM   47  O5  UNL     1       0.324  52.783 -22.444  1.00  0.00    -0.314 OA
HETATM   48  C22 UNL     1      -0.127  51.471 -22.103  1.00  0.00     0.213 A 
ENDBRANCH  10  43
TORSDOF 12
ENDMDL
MODEL 2
REMARK minimizedAffinity -7.60776806
REMARK CNNscore 0.587575555
REMARK CNNaffinity 6.63824987
REMARK  12 active torsions:
REMARK  status: ('A' for Active; 'I' for Inactive)
REMARK    1  A    between atoms: O1_2  and  C2_3 
REMARK    2  A    between atoms: C4_5  and  O2_6 
REMARK    3  A    between atoms: O2_6  and  C5_7 
REMARK    4  A    between atoms: C8_10  and  C9_11 
REMARK    5  A    between atoms: N1_12  and  C10_14 
REMARK    6  A    between atoms: C10_14  and  C11_15 
REMARK    7  A    between atoms: C11_15  and  C12_16 
REMARK    8  A    between atoms: C12_16  and  O3_17 
REMARK    9  A    between atoms: C18_23  and  C19_24 
REMARK   10  A    between atoms: C25_32  and  O6_33 
REMARK   11  A    between atoms: C29_37  and  O7_38 
REMARK   12  A    between atoms: C33_43  and  O9_44 
ROOT
HETATM    1  C5  UNL     1      -7.570  44.629 -31.678  1.00  0.00     0.127 C 
HETATM    2  C6  UNL     1      -7.509  44.045 -30.271  1.00  0.00     0.033 C 
HETATM    3  C7  UNL     1      -6.976  45.046 -29.261  1.00  0.00     0.021 C 
HETATM    4  C8  UNL     1      -7.788  46.379 -29.219  1.00  0.00     0.026 C 
HETATM    5  C13 UNL     1      -9.273  46.157 -28.761  1.00  0.00     0.009 C 
HETATM    6  C14 UNL     1      -9.401  45.481 -27.392  1.00  0.00     0.007 C 
HETATM    7  C15 UNL     1     -10.846  45.056 -27.177  1.00  0.00     0.013 C 
HETATM    8  C16 UNL     1     -11.839  46.239 -27.140  1.00  0.00    -0.005 C 
HETATM    9  C17 UNL     1     -11.676  46.946 -25.772  1.00  0.00     0.019 C 
HETATM   10  C18 UNL     1     -13.348  45.769 -27.304  1.00  0.00     0.028 C 
HETATM   11  C23 UNL     1     -13.832  46.388 -28.632  1.00  0.00     0.013 C 
HETATM   12  C24 UNL     1     -12.560  46.680 -29.415  1.00  0.00     0.040 C 
HETATM   13  C25 UNL     1     -11.617  47.232 -28.335  1.00  0.00     0.070 C 
HETATM   14  C26 UNL     1     -10.134  47.446 -28.793  1.00  0.00     0.026 C 
HETATM   15  C27 UNL     1     -10.045  48.118 -30.183  1.00  0.00     0.011 C 
HETATM   16  C28 UNL     1      -8.627  48.273 -30.736  1.00  0.00     0.039 C 
HETATM   17  C29 UNL     1      -7.785  46.990 -30.653  1.00  0.00     0.073 C 
HETATM   18  C30 UNL     1      -8.294  45.975 -31.711  1.00  0.00     0.071 C 
ENDROOT
BRANCH   1  19
HETATM   19  O2  UNL     1      -8.317  43.692 -32.458  1.00  0.00    -0.356 OA
BRANCH  19  20
HETATM   20  C4  UNL     1      -7.566  42.547 -32.857  1.00  0.00     0.263 C 
HETATM   21  C3  UNL     1      -8.340  41.885 -33.990  1.00  0.00     0.095 C 
HETATM   22  C2  UNL     1      -7.604  40.646 -34.482  1.00  0.00     0.156 C 
HETATM   23  C33 UNL     1      -6.156  41.017 -34.856  1.00  0.00     0.175 C 
HETATM   24  C31 UNL     1      -5.479  41.785 -33.701  1.00  0.00     0.151 C 
HETATM   25  O8  UNL     1      -6.259  42.911 -33.281  1.00  0.00    -0.354 OA
HETATM   26  C32 UNL     1      -4.105  42.316 -34.097  1.00  0.00     0.042 C 
BRANCH  22  27
HETATM   27  O1  UNL     1      -8.216  40.077 -35.655  1.00  0.00    -0.388 OA
HETATM   28  C1  UNL     1      -9.629  40.208 -35.681  1.00  0.00     0.202 C 
ENDBRANCH  22  27
BRANCH  23  29
HETATM   29  O9  UNL     1      -6.178  41.803 -36.057  1.00  0.00    -0.390 OA
HETATM   30  H51 UNL     1      -6.854  41.383 -36.627  1.00  0.00     0.210 HD
ENDBRANCH  23  29
ENDBRANCH  19  20
ENDBRANCH   1  19
BRANCH  17  31
HETATM   31  O7  UNL     1      -6.434  47.310 -31.020  1.00  0.00    -0.389 OA
HETATM   32  H43 UNL     1      -6.465  47.800 -31.863  1.00  0.00     0.210 HD
ENDBRANCH  17  31
BRANCH   4  33
HETATM   33  C9  UNL     1      -7.025  47.257 -28.206  1.00  0.00     0.068 C 
HETATM   34  N1  UNL     1      -5.741  47.405 -28.222  1.00  0.00    -0.401 N 
ATOM     35  H1  UNL     1      -5.140  46.923 -28.892  1.00  0.00     0.158 HD
BRANCH  34  36
HETATM   36  C10 UNL     1      -5.213  48.320 -27.200  1.00  0.00     0.121 C 
BRANCH  36  37
HETATM   37  C11 UNL     1      -3.717  48.539 -27.449  1.00  0.00     0.045 C 
BRANCH  37  38
HETATM   38  C12 UNL     1      -3.357  50.005 -27.672  1.00  0.00     0.165 C 
BRANCH  38  39
HETATM   39  O3  UNL     1      -3.571  50.382 -29.027  1.00  0.00    -0.401 OA
HETATM   40  H20 UNL     1      -3.272  49.615 -29.562  1.00  0.00     0.209 HD
ENDBRANCH  38  39
ENDBRANCH  37  38
ENDBRANCH  36  37
ENDBRANCH  34  36
ENDBRANCH   4  33
BRANCH  13  41
HETATM   41  O6  UNL     1     -12.161  48.511 -27.949  1.00  0.00    -0.389 OA
HETATM   42  H37 UNL     1     -11.761  49.211 -28.495  1.00  0.00     0.210 HD
ENDBRANCH  13  41
BRANCH  10  43
HETATM   43  C19 UNL     1     -13.634  44.289 -27.207  1.00  0.00    -0.045 A 
HETATM   44  C20 UNL     1     -13.775  43.445 -28.232  1.00  0.00     0.087 A 
HETATM   45  C21 UNL     1     -14.030  42.116 -27.674  1.00  0.00     0.283 A 
HETATM   46  O4  UNL     1     -14.195  41.103 -28.330  1.00  0.00    -0.260 OA
HETATM   47  O5  UNL     1     -14.058  42.198 -26.313  1.00  0.00    -0.314 OA
HETATM   48  C22 UNL     1     -13.756  43.540 -25.925  1.00  0.00     0.213 A 
ENDBRANCH  10  43
TORSDOF 12
ENDMDL
MODEL 3
REMARK minimizedAffinity -9.08653259
REMARK CNNscore 0.550019681
REMARK CNNaffinity 7.11620188
REMARK  12 active torsions:
REMARK  status: ('A' for Active; 'I' for Inactive)
REMARK    1  A    between atoms: O1_2  and  C2_3 
REMARK    2  A    between atoms: C4_5  and  O2_6 
REMARK    3  A    between atoms: O2_6  and  C5_7 
REMARK    4  A    between atoms: C8_10  and  C9_11 
REMARK    5  A    between atoms: N1_12  and  C10_14 
REMARK    6  A    between atoms: C10_14  and  C11_15 
REMARK    7  A    between atoms: C11_15  and  C12_16 
REMARK    8  A    between atoms: C12_16  and  O3_17 
REMARK    9  A    between atoms: C18_23  and  C19_24 
REMARK   10  A    between atoms: C25_32  and  O6_33 
REMARK   11  A    between atoms: C29_37  and  O7_38 
REMARK   12  A    between atoms: C33_43  and  O9_44 
ROOT
HETATM    1  C5  UNL     1      -1.383  49.858 -18.830  1.00  0.00     0.127 C 
HETATM    2  C6  UNL     1      -0.929  48.839 -19.870  1.00  0.00     0.033 C 
HETATM    3  C7  UNL     1      -1.975  47.765 -20.112  1.00  0.00     0.021 C 
HETATM    4  C8  UNL     1      -3.366  48.336 -20.537  1.00  0.00     0.026 C 
HETATM    5  C13 UNL     1      -3.302  49.096 -21.909  1.00  0.00     0.009 C 
HETATM    6  C14 UNL     1      -2.768  48.240 -23.063  1.00  0.00     0.007 C 
HETATM    7  C15 UNL     1      -2.477  49.137 -24.257  1.00  0.00     0.013 C 
HETATM    8  C16 UNL     1      -3.731  49.841 -24.821  1.00  0.00    -0.005 C 
HETATM    9  C17 UNL     1      -4.547  48.786 -25.608  1.00  0.00     0.019 C 
HETATM   10  C18 UNL     1      -3.366  51.044 -25.793  1.00  0.00     0.028 C 
HETATM   11  C23 UNL     1      -3.895  52.315 -25.094  1.00  0.00     0.013 C 
HETATM   12  C24 UNL     1      -4.014  51.934 -23.626  1.00  0.00     0.040 C 
HETATM   13  C25 UNL     1      -4.589  50.511 -23.690  1.00  0.00     0.070 C 
HETATM   14  C26 UNL     1      -4.645  49.753 -22.320  1.00  0.00     0.026 C 
HETATM   15  C27 UNL     1      -5.176  50.651 -21.179  1.00  0.00     0.011 C 
HETATM   16  C28 UNL     1      -5.169  50.004 -19.792  1.00  0.00     0.039 C 
HETATM   17  C29 UNL     1      -3.838  49.326 -19.430  1.00  0.00     0.073 C 
HETATM   18  C30 UNL     1      -2.772  50.416 -19.140  1.00  0.00     0.071 C 
ENDROOT
BRANCH   1  19
HETATM   19  O2  UNL     1      -0.438  50.929 -18.893  1.00  0.00    -0.356 OA
BRANCH  19  20
HETATM   20  C4  UNL     1      -0.175  51.540 -17.631  1.00  0.00     0.263 C 
HETATM   21  C3  UNL     1      -0.608  50.545 -16.561  1.00  0.00     0.095 C 
HETATM   22  C2  UNL     1      -0.360  51.119 -15.173  1.00  0.00     0.156 C 
HETATM   23  C33 UNL     1       1.111  51.560 -15.049  1.00  0.00     0.175 C 
HETATM   24  C31 UNL     1       1.505  52.471 -16.232  1.00  0.00     0.151 C 
HETATM   25  O8  UNL     1       1.201  51.865 -17.494  1.00  0.00    -0.354 OA
HETATM   26  C32 UNL     1       2.996  52.790 -16.235  1.00  0.00     0.042 C 
BRANCH  22  27
HETATM   27  O1  UNL     1      -0.606  50.156 -14.131  1.00  0.00    -0.388 OA
HETATM   28  C1  UNL     1      -0.987  50.738 -12.894  1.00  0.00     0.202 C 
ENDBRANCH  22  27
BRANCH  23  29
HETATM   29  O9  UNL     1       1.940  50.390 -15.001  1.00  0.00    -0.390 OA
HETATM   30  H51 UNL     1       1.456  49.755 -14.434  1.00  0.00     0.210 HD
ENDBRANCH  23  29
ENDBRANCH  19  20
ENDBRANCH   1  19
BRANCH  17  31
HETATM   31  O7  UNL     1      -4.018  48.603 -18.203  1.00  0.00    -0.389 OA
HETATM   32  H43 UNL     1      -4.428  49.209 -17.559  1.00  0.00     0.210 HD
ENDBRANCH  17  31
BRANCH   4  33
HETATM   33  C9  UNL     1      -4.272  47.092 -20.638  1.00  0.00     0.068 C 
HETATM   34  N1  UNL     1      -5.422  47.004 -20.053  1.00  0.00    -0.401 N 
ATOM     35  H1  UNL     1      -5.794  47.744 -19.459  1.00  0.00     0.158 HD
BRANCH  34  36
HETATM   36  C10 UNL     1      -6.150  45.754 -20.312  1.00  0.00     0.121 C 
BRANCH  36  37
HETATM   37  C11 UNL     1      -6.421  45.634 -21.815  1.00  0.00     0.045 C 
BRANCH  37  38
HETATM   38  C12 UNL     1      -6.941  44.257 -22.219  1.00  0.00     0.165 C 
BRANCH  38  39
HETATM   39  O3  UNL     1      -5.922  43.272 -22.101  1.00  0.00    -0.401 OA
HETATM   40  H20 UNL     1      -5.100  43.707 -22.418  1.00  0.00     0.209 HD
ENDBRANCH  38  39
ENDBRANCH  37  38
ENDBRANCH  36  37
ENDBRANCH  34  36
ENDBRANCH   4  33
BRANCH  13  41
HETATM   41  O6  UNL     1      -5.937  50.650 -24.187  1.00  0.00    -0.389 OA
HETATM   42  H37 UNL     1      -6.550  50.742 -23.435  1.00  0.00     0.210 HD
ENDBRANCH  13  41
BRANCH  10  43
HETATM   43  C19 UNL     1      -1.928  51.173 -26.236  1.00  0.00    -0.045 A 
HETATM   44  C20 UNL     1      -0.876  51.395 -25.445  1.00  0.00     0.087 A 
HETATM   45  C21 UNL     1       0.313  51.435 -26.296  1.00  0.00     0.283 A 
HETATM   46  O4  UNL     1       1.452  51.606 -25.899  1.00  0.00    -0.260 OA
HETATM   47  O5  UNL     1      -0.059  51.256 -27.596  1.00  0.00    -0.314 OA
HETATM   48  C22 UNL     1      -1.468  51.021 -27.645  1.00  0.00     0.213 A 
ENDBRANCH  10  43
TORSDOF 12
ENDMDL
MODEL 4
REMARK minimizedAffinity -8.78942013
REMARK CNNscore 0.414003968
REMARK CNNaffinity 7.34373045
REMARK  12 active torsions:
REMARK  status: ('A' for Active; 'I' for Inactive)
REMARK    1  A    between atoms: O1_2  and  C2_3 
REMARK    2  A    between atoms: C4_5  and  O2_6 
REMARK    3  A    between atoms: O2_6  and  C5_7 
REMARK    4  A    between atoms: C8_10  and  C9_11 
REMARK    5  A    between atoms: N1_12  and  C10_14 
REMARK    6  A    between atoms: C10_14  and  C11_15 
REMARK    7  A    between atoms: C11_15  and  C12_16 
REMARK    8  A    between atoms: C12_16  and  O3_17 
REMARK    9  A    between atoms: C18_23  and  C19_24 
REMARK   10  A    between atoms: C25_32  and  O6_33 
REMARK   11  A    between atoms: C29_37  and  O7_38 
REMARK   12  A    between atoms: C33_43  and  O9_44 
ROOT
HETATM    1  C5  UNL     1       0.426  52.218 -21.553  1.00  0.00     0.127 C 
HETATM    2  C6  UNL     1       0.529  50.747 -21.938  1.00  0.00     0.033 C 
HETATM    3  C7  UNL     1       0.293  49.828 -20.753  1.00  0.00     0.021 C 
HETATM    4  C8  UNL     1      -1.077  50.068 -20.043  1.00  0.00     0.026 C 
HETATM    5  C13 UNL     1      -2.296  49.764 -20.985  1.00  0.00     0.009 C 
HETATM    6  C14 UNL     1      -2.298  48.341 -21.550  1.00  0.00     0.007 C 
HETATM    7  C15 UNL     1      -3.337  48.244 -22.658  1.00  0.00     0.013 C 
HETATM    8  C16 UNL     1      -4.783  48.489 -22.171  1.00  0.00    -0.005 C 
HETATM    9  C17 UNL     1      -5.243  47.222 -21.409  1.00  0.00     0.019 C 
HETATM   10  C18 UNL     1      -5.788  48.766 -23.371  1.00  0.00     0.028 C 
HETATM   11  C23 UNL     1      -6.280  50.215 -23.173  1.00  0.00     0.013 C 
HETATM   12  C24 UNL     1      -5.220  50.873 -22.301  1.00  0.00     0.040 C 
HETATM   13  C25 UNL     1      -4.893  49.775 -21.277  1.00  0.00     0.070 C 
HETATM   14  C26 UNL     1      -3.672  50.077 -20.343  1.00  0.00     0.026 C 
HETATM   15  C27 UNL     1      -3.697  51.526 -19.803  1.00  0.00     0.011 C 
HETATM   16  C28 UNL     1      -2.484  51.921 -18.958  1.00  0.00     0.039 C 
HETATM   17  C29 UNL     1      -1.135  51.562 -19.602  1.00  0.00     0.073 C 
HETATM   18  C30 UNL     1      -0.865  52.523 -20.791  1.00  0.00     0.071 C 
ENDROOT
BRANCH   1  19
HETATM   19  O2  UNL     1       0.408  52.945 -22.784  1.00  0.00    -0.356 OA
BRANCH  19  20
HETATM   20  C4  UNL     1       0.207  52.126 -23.934  1.00  0.00     0.263 C 
HETATM   21  C3  UNL     1      -1.162  52.485 -24.497  1.00  0.00     0.095 C 
HETATM   22  C2  UNL     1      -1.460  51.653 -25.737  1.00  0.00     0.156 C 
HETATM   23  C33 UNL     1      -0.313  51.808 -26.753  1.00  0.00     0.175 C 
HETATM   24  C31 UNL     1       1.049  51.540 -26.078  1.00  0.00     0.151 C 
HETATM   25  O8  UNL     1       1.225  52.339 -24.901  1.00  0.00    -0.354 OA
HETATM   26  C32 UNL     1       2.218  51.848 -27.007  1.00  0.00     0.042 C 
BRANCH  22  27
HETATM   27  O1  UNL     1      -2.672  52.067 -26.394  1.00  0.00    -0.388 OA
HETATM   28  C1  UNL     1      -3.739  52.347 -25.501  1.00  0.00     0.202 C 
ENDBRANCH  22  27
BRANCH  23  29
HETATM   29  O9  UNL     1      -0.364  53.130 -27.307  1.00  0.00    -0.390 OA
HETATM   30  H51 UNL     1      -1.316  53.315 -27.446  1.00  0.00     0.210 HD
ENDBRANCH  23  29
ENDBRANCH  19  20
ENDBRANCH   1  19
BRANCH  17  31
HETATM   31  O7  UNL     1      -0.096  51.806 -18.643  1.00  0.00    -0.389 OA
HETATM   32  H43 UNL     1      -0.225  52.705 -18.289  1.00  0.00     0.210 HD
ENDBRANCH  17  31
BRANCH   4  33
HETATM   33  C9  UNL     1      -1.057  49.102 -18.841  1.00  0.00     0.068 C 
HETATM   34  N1  UNL     1      -0.922  49.496 -17.617  1.00  0.00    -0.401 N 
ATOM     35  H1  UNL     1      -0.790  50.476 -17.367  1.00  0.00     0.158 HD
BRANCH  34  36
HETATM   36  C10 UNL     1      -0.974  48.422 -16.615  1.00  0.00     0.121 C 
BRANCH  36  37
HETATM   37  C11 UNL     1       0.139  48.643 -15.586  1.00  0.00     0.045 C 
BRANCH  37  38
HETATM   38  C12 UNL     1       0.466  47.388 -14.781  1.00  0.00     0.165 C 
BRANCH  38  39
HETATM   39  O3  UNL     1      -0.556  46.409 -14.928  1.00  0.00    -0.401 OA
HETATM   40  H20 UNL     1      -1.400  46.909 -14.921  1.00  0.00     0.209 HD
ENDBRANCH  38  39
ENDBRANCH  37  38
ENDBRANCH  36  37
ENDBRANCH  34  36
ENDBRANCH   4  33
BRANCH  13  41
HETATM   41  O6  UNL     1      -6.070  49.636 -20.455  1.00  0.00    -0.389 OA
HETATM   42  H37 UNL     1      -5.994  50.223 -19.680  1.00  0.00     0.210 HD
ENDBRANCH  13  41
BRANCH  10  43
HETATM   43  C19 UNL     1      -5.292  48.501 -24.773  1.00  0.00    -0.045 A 
HETATM   44  C20 UNL     1      -4.056  48.720 -25.227  1.00  0.00     0.087 A 
HETATM   45  C21 UNL     1      -4.025  48.311 -26.631  1.00  0.00     0.283 A 
HETATM   46  O4  UNL     1      -3.045  48.363 -27.353  1.00  0.00    -0.260 OA
HETATM   47  O5  UNL     1      -5.262  47.871 -26.998  1.00  0.00    -0.314 OA
HETATM   48  C22 UNL     1      -6.121  47.901 -25.856  1.00  0.00     0.213 A 
ENDBRANCH  10  43
TORSDOF 12
ENDMDL
MODEL 5
REMARK minimizedAffinity -7.3913908
REMARK CNNscore 0.408284664
REMARK CNNaffinity 6.238379
REMARK  12 active torsions:
REMARK  status: ('A' for Active; 'I' for Inactive)
REMARK    1  A    between atoms: O1_2  and  C2_3 
REMARK    2  A    between atoms: C4_5  and  O2_6 
REMARK    3  A    between atoms: O2_6  and  C5_7 
REMARK    4  A    between atoms: C8_10  and  C9_11 
REMARK    5  A    between atoms: N1_12  and  C10_14 
REMARK    6  A    between atoms: C10_14  and  C11_15 
REMARK    7  A    between atoms: C11_15  and  C12_16 
REMARK    8  A    between atoms: C12_16  and  O3_17 
REMARK    9  A    between atoms: C18_23  and  C19_24 
REMARK   10  A    between atoms: C25_32  and  O6_33 
REMARK   11  A    between atoms: C29_37  and  O7_38 
REMARK   12  A    between atoms: C33_43  and  O9_44 
ROOT
HETATM    1  C5  UNL     1      -7.707  47.062 -26.155  1.00  0.00     0.127 C 
HETATM    2  C6  UNL     1      -8.764  48.108 -26.491  1.00  0.00     0.033 C 
HETATM    3  C7  UNL     1      -9.099  48.126 -27.972  1.00  0.00     0.021 C 
HETATM    4  C8  UNL     1      -9.569  46.740 -28.520  1.00  0.00     0.026 C 
HETATM    5  C13 UNL     1     -10.905  46.258 -27.852  1.00  0.00     0.009 C 
HETATM    6  C14 UNL     1     -12.064  47.248 -28.009  1.00  0.00     0.007 C 
HETATM    7  C15 UNL     1     -13.206  46.830 -27.095  1.00  0.00     0.013 C 
HETATM    8  C16 UNL     1     -13.802  45.448 -27.443  1.00  0.00    -0.005 C 
HETATM    9  C17 UNL     1     -14.669  45.618 -28.715  1.00  0.00     0.019 C 
HETATM   10  C18 UNL     1     -14.706  44.865 -26.274  1.00  0.00     0.028 C 
HETATM   11  C23 UNL     1     -13.984  43.589 -25.789  1.00  0.00     0.013 C 
HETATM   12  C24 UNL     1     -12.540  43.764 -26.235  1.00  0.00     0.040 C 
HETATM   13  C25 UNL     1     -12.688  44.360 -27.644  1.00  0.00     0.070 C 
HETATM   14  C26 UNL     1     -11.354  44.846 -28.305  1.00  0.00     0.026 C 
HETATM   15  C27 UNL     1     -10.205  43.828 -28.114  1.00  0.00     0.011 C 
HETATM   16  C28 UNL     1      -8.847  44.280 -28.654  1.00  0.00     0.039 C 
HETATM   17  C29 UNL     1      -8.447  45.700 -28.221  1.00  0.00     0.073 C 
HETATM   18  C30 UNL     1      -8.063  45.685 -26.717  1.00  0.00     0.071 C 
ENDROOT
BRANCH   1  19
HETATM   19  O2  UNL     1      -7.681  46.977 -24.728  1.00  0.00    -0.356 OA
BRANCH  19  20
HETATM   20  C4  UNL     1      -6.548  47.608 -24.134  1.00  0.00     0.263 C 
HETATM   21  C3  UNL     1      -5.715  48.181 -25.274  1.00  0.00     0.095 C 
HETATM   22  C2  UNL     1      -4.478  48.879 -24.726  1.00  0.00     0.156 C 
HETATM   23  C33 UNL     1      -4.895  49.928 -23.678  1.00  0.00     0.175 C 
HETATM   24  C31 UNL     1      -5.831  49.298 -22.624  1.00  0.00     0.151 C 
HETATM   25  O8  UNL     1      -6.945  48.632 -23.232  1.00  0.00    -0.354 OA
HETATM   26  C32 UNL     1      -6.399  50.341 -21.669  1.00  0.00     0.042 C 
BRANCH  22  27
HETATM   27  O1  UNL     1      -3.742  49.571 -25.753  1.00  0.00    -0.388 OA
HETATM   28  C1  UNL     1      -2.905  48.723 -26.524  1.00  0.00     0.202 C 
ENDBRANCH  22  27
BRANCH  23  29
HETATM   29  O9  UNL     1      -5.537  51.021 -24.350  1.00  0.00    -0.390 OA
HETATM   30  H51 UNL     1      -5.013  51.165 -25.166  1.00  0.00     0.210 HD
ENDBRANCH  23  29
ENDBRANCH  19  20
ENDBRANCH   1  19
BRANCH  17  31
HETATM   31  O7  UNL     1      -7.260  46.075 -28.936  1.00  0.00    -0.389 OA
HETATM   32  H43 UNL     1      -6.614  45.352 -28.836  1.00  0.00     0.210 HD
ENDBRANCH  17  31
BRANCH   4  33
HETATM   33  C9  UNL     1      -9.763  46.975 -30.032  1.00  0.00     0.068 C 
HETATM   34  N1  UNL     1      -9.059  46.379 -30.938  1.00  0.00    -0.401 N 
ATOM     35  H1  UNL     1      -8.304  45.732 -30.710  1.00  0.00     0.158 HD
BRANCH  34  36
HETATM   36  C10 UNL     1      -9.432  46.706 -32.321  1.00  0.00     0.121 C 
BRANCH  36  37
HETATM   37  C11 UNL     1      -8.514  47.820 -32.837  1.00  0.00     0.045 C 
BRANCH  37  38
HETATM   38  C12 UNL     1      -7.696  47.402 -34.056  1.00  0.00     0.165 C 
BRANCH  38  39
HETATM   39  O3  UNL     1      -8.326  47.823 -35.260  1.00  0.00    -0.401 OA
HETATM   40  H20 UNL     1      -9.287  47.677 -35.118  1.00  0.00     0.209 HD
ENDBRANCH  38  39
ENDBRANCH  37  38
ENDBRANCH  36  37
ENDBRANCH  34  36
ENDBRANCH   4  33
BRANCH  13  41
HETATM   41  O6  UNL     1     -13.245  43.310 -28.462  1.00  0.00    -0.389 OA
HETATM   42  H37 UNL     1     -12.521  42.805 -28.875  1.00  0.00     0.210 HD
ENDBRANCH  13  41
BRANCH  10  43
HETATM   43  C19 UNL     1     -15.073  45.796 -25.143  1.00  0.00    -0.045 A 
HETATM   44  C20 UNL     1     -14.278  46.166 -24.137  1.00  0.00     0.087 A 
HETATM   45  C21 UNL     1     -15.041  47.080 -23.286  1.00  0.00     0.283 A 
HETATM   46  O4  UNL     1     -14.615  47.621 -22.281  1.00  0.00    -0.260 OA
HETATM   47  O5  UNL     1     -16.298  47.223 -23.796  1.00  0.00    -0.314 OA
HETATM   48  C22 UNL     1     -16.389  46.484 -25.016  1.00  0.00     0.213 A 
ENDBRANCH  10  43
TORSDOF 12
ENDMDL
MODEL 6
REMARK minimizedAffinity -7.32792997
REMARK CNNscore 0.390382856
REMARK CNNaffinity 6.41166925
REMARK  12 active torsions:
REMARK  status: ('A' for Active; 'I' for Inactive)
REMARK    1  A    between atoms: O1_2  and  C2_3 
REMARK    2  A    between atoms: C4_5  and  O2_6 
REMARK    3  A    between atoms: O2_6  and  C5_7 
REMARK    4  A    between atoms: C8_10  and  C9_11 
REMARK    5  A    between atoms: N1_12  and  C10_14 
REMARK    6  A    between atoms: C10_14  and  C11_15 
REMARK    7  A    between atoms: C11_15  and  C12_16 
REMARK    8  A    between atoms: C12_16  and  O3_17 
REMARK    9  A    between atoms: C18_23  and  C19_24 
REMARK   10  A    between atoms: C25_32  and  O6_33 
REMARK   11  A    between atoms: C29_37  and  O7_38 
REMARK   12  A    between atoms: C33_43  and  O9_44 
ROOT
HETATM    1  C5  UNL     1      -7.721  47.254 -26.497  1.00  0.00     0.127 C 
HETATM    2  C6  UNL     1      -8.835  48.216 -26.896  1.00  0.00     0.033 C 
HETATM    3  C7  UNL     1      -9.214  48.074 -28.359  1.00  0.00     0.021 C 
HETATM    4  C8  UNL     1      -9.635  46.623 -28.755  1.00  0.00     0.026 C 
HETATM    5  C13 UNL     1     -10.927  46.151 -27.998  1.00  0.00     0.009 C 
HETATM    6  C14 UNL     1     -12.135  47.069 -28.210  1.00  0.00     0.007 C 
HETATM    7  C15 UNL     1     -13.228  46.692 -27.221  1.00  0.00     0.013 C 
HETATM    8  C16 UNL     1     -13.770  45.258 -27.414  1.00  0.00    -0.005 C 
HETATM    9  C17 UNL     1     -14.681  45.266 -28.666  1.00  0.00     0.019 C 
HETATM   10  C18 UNL     1     -14.610  44.753 -26.164  1.00  0.00     0.028 C 
HETATM   11  C23 UNL     1     -13.815  43.564 -25.585  1.00  0.00     0.013 C 
HETATM   12  C24 UNL     1     -12.394  43.757 -26.094  1.00  0.00     0.040 C 
HETATM   13  C25 UNL     1     -12.612  44.205 -27.547  1.00  0.00     0.070 C 
HETATM   14  C26 UNL     1     -11.323  44.683 -28.298  1.00  0.00     0.026 C 
HETATM   15  C27 UNL     1     -10.123  43.739 -28.050  1.00  0.00     0.011 C 
HETATM   16  C28 UNL     1      -8.804  44.195 -28.677  1.00  0.00     0.039 C 
HETATM   17  C29 UNL     1      -8.458  45.666 -28.396  1.00  0.00     0.073 C 
HETATM   18  C30 UNL     1      -8.028  45.815 -26.912  1.00  0.00     0.071 C 
ENDROOT
BRANCH   1  19
HETATM   19  O2  UNL     1      -7.648  47.310 -25.070  1.00  0.00    -0.356 OA
BRANCH  19  20
HETATM   20  C4  UNL     1      -6.734  48.288 -24.578  1.00  0.00     0.263 C 
HETATM   21  C3  UNL     1      -6.743  48.174 -23.059  1.00  0.00     0.095 C 
HETATM   22  C2  UNL     1      -5.786  49.188 -22.445  1.00  0.00     0.156 C 
HETATM   23  C33 UNL     1      -4.388  49.024 -23.070  1.00  0.00     0.175 C 
HETATM   24  C31 UNL     1      -4.478  49.033 -24.611  1.00  0.00     0.151 C 
HETATM   25  O8  UNL     1      -5.427  48.075 -25.094  1.00  0.00    -0.354 OA
HETATM   26  C32 UNL     1      -3.139  48.705 -25.263  1.00  0.00     0.042 C 
BRANCH  22  27
HETATM   27  O1  UNL     1      -5.643  49.013 -21.023  1.00  0.00    -0.388 OA
HETATM   28  C1  UNL     1      -5.257  50.195 -20.339  1.00  0.00     0.202 C 
ENDBRANCH  22  27
BRANCH  23  29
HETATM   29  O9  UNL     1      -3.811  47.799 -22.594  1.00  0.00    -0.390 OA
HETATM   30  H51 UNL     1      -4.053  47.752 -21.645  1.00  0.00     0.210 HD
ENDBRANCH  23  29
ENDBRANCH  19  20
ENDBRANCH   1  19
BRANCH  17  31
HETATM   31  O7  UNL     1      -7.312  46.021 -29.184  1.00  0.00    -0.389 OA
HETATM   32  H43 UNL     1      -6.630  45.340 -29.038  1.00  0.00     0.210 HD
ENDBRANCH  17  31
BRANCH   4  33
HETATM   33  C9  UNL     1      -9.885  46.701 -30.275  1.00  0.00     0.068 C 
HETATM   34  N1  UNL     1      -8.955  46.961 -31.133  1.00  0.00    -0.401 N 
ATOM     35  H1  UNL     1      -7.994  47.163 -30.859  1.00  0.00     0.158 HD
BRANCH  34  36
HETATM   36  C10 UNL     1      -9.390  46.943 -32.538  1.00  0.00     0.121 C 
BRANCH  36  37
HETATM   37  C11 UNL     1      -8.460  47.840 -33.361  1.00  0.00     0.045 C 
BRANCH  37  38
HETATM   38  C12 UNL     1      -8.130  47.257 -34.733  1.00  0.00     0.165 C 
BRANCH  38  39
HETATM   39  O3  UNL     1      -6.832  47.655 -35.157  1.00  0.00    -0.401 OA
HETATM   40  H20 UNL     1      -6.741  48.592 -34.878  1.00  0.00     0.209 HD
ENDBRANCH  38  39
ENDBRANCH  37  38
ENDBRANCH  36  37
ENDBRANCH  34  36
ENDBRANCH   4  33
BRANCH  13  41
HETATM   41  O6  UNL     1     -13.144  43.057 -28.242  1.00  0.00    -0.389 OA
HETATM   42  H37 UNL     1     -12.410  42.547 -28.629  1.00  0.00     0.210 HD
ENDBRANCH  13  41
BRANCH  10  43
HETATM   43  C19 UNL     1     -14.986  45.774 -25.116  1.00  0.00    -0.045 A 
HETATM   44  C20 UNL     1     -14.218  46.185 -24.105  1.00  0.00     0.087 A 
HETATM   45  C21 UNL     1     -14.979  47.182 -23.352  1.00  0.00     0.283 A 
HETATM   46  O4  UNL     1     -14.573  47.776 -22.369  1.00  0.00    -0.260 OA
HETATM   47  O5  UNL     1     -16.209  47.333 -23.922  1.00  0.00    -0.314 OA
HETATM   48  C22 UNL     1     -16.279  46.514 -25.092  1.00  0.00     0.213 A 
ENDBRANCH  10  43
TORSDOF 12
ENDMDL
MODEL 7
REMARK minimizedAffinity -7.47158098
REMARK CNNscore 0.366003901
REMARK CNNaffinity 6.31058741
REMARK  12 active torsions:
REMARK  status: ('A' for Active; 'I' for Inactive)
REMARK    1  A    between atoms: O1_2  and  C2_3 
REMARK    2  A    between atoms: C4_5  and  O2_6 
REMARK    3  A    between atoms: O2_6  and  C5_7 
REMARK    4  A    between atoms: C8_10  and  C9_11 
REMARK    5  A    between atoms: N1_12  and  C10_14 
REMARK    6  A    between atoms: C10_14  and  C11_15 
REMARK    7  A    between atoms: C11_15  and  C12_16 
REMARK    8  A    between atoms: C12_16  and  O3_17 
REMARK    9  A    between atoms: C18_23  and  C19_24 
REMARK   10  A    between atoms: C25_32  and  O6_33 
REMARK   11  A    between atoms: C29_37  and  O7_38 
REMARK   12  A    between atoms: C33_43  and  O9_44 
ROOT
HETATM    1  C5  UNL     1      -7.724  47.855 -24.741  1.00  0.00     0.127 C 
HETATM    2  C6  UNL     1      -8.813  48.854 -25.118  1.00  0.00     0.033 C 
HETATM    3  C7  UNL     1      -8.914  49.049 -26.620  1.00  0.00     0.021 C 
HETATM    4  C8  UNL     1      -9.155  47.720 -27.405  1.00  0.00     0.026 C 
HETATM    5  C13 UNL     1     -10.525  47.050 -27.034  1.00  0.00     0.009 C 
HETATM    6  C14 UNL     1     -11.737  47.961 -27.259  1.00  0.00     0.007 C 
HETATM    7  C15 UNL     1     -12.961  47.334 -26.607  1.00  0.00     0.013 C 
HETATM    8  C16 UNL     1     -13.358  45.972 -27.218  1.00  0.00    -0.005 C 
HETATM    9  C17 UNL     1     -14.029  46.249 -28.586  1.00  0.00     0.019 C 
HETATM   10  C18 UNL     1     -14.371  45.166 -26.297  1.00  0.00     0.028 C 
HETATM   11  C23 UNL     1     -13.612  43.895 -25.860  1.00  0.00     0.013 C 
HETATM   12  C24 UNL     1     -12.140  44.240 -26.034  1.00  0.00     0.040 C 
HETATM   13  C25 UNL     1     -12.125  45.010 -27.363  1.00  0.00     0.070 C 
HETATM   14  C26 UNL     1     -10.759  45.684 -27.727  1.00  0.00     0.026 C 
HETATM   15  C27 UNL     1      -9.559  44.740 -27.474  1.00  0.00     0.011 C 
HETATM   16  C28 UNL     1      -8.184  45.365 -27.720  1.00  0.00     0.039 C 
HETATM   17  C29 UNL     1      -7.998  46.737 -27.054  1.00  0.00     0.073 C 
HETATM   18  C30 UNL     1      -7.852  46.545 -25.521  1.00  0.00     0.071 C 
ENDROOT
BRANCH   1  19
HETATM   19  O2  UNL     1      -7.912  47.577 -23.352  1.00  0.00    -0.356 OA
BRANCH  19  20
HETATM   20  C4  UNL     1      -6.699  47.539 -22.603  1.00  0.00     0.263 C 
HETATM   21  C3  UNL     1      -5.595  48.038 -23.527  1.00  0.00     0.095 C 
HETATM   22  C2  UNL     1      -4.256  48.033 -22.803  1.00  0.00     0.156 C 
HETATM   23  C33 UNL     1      -4.372  48.832 -21.491  1.00  0.00     0.175 C 
HETATM   24  C31 UNL     1      -5.582  48.345 -20.666  1.00  0.00     0.151 C 
HETATM   25  O8  UNL     1      -6.789  48.348 -21.438  1.00  0.00    -0.354 OA
HETATM   26  C32 UNL     1      -5.830  49.222 -19.444  1.00  0.00     0.042 C 
BRANCH  22  27
HETATM   27  O1  UNL     1      -3.211  48.643 -23.583  1.00  0.00    -0.388 OA
HETATM   28  C1  UNL     1      -3.482  48.672 -24.976  1.00  0.00     0.202 C 
ENDBRANCH  22  27
BRANCH  23  29
HETATM   29  O9  UNL     1      -4.492  50.226 -21.810  1.00  0.00    -0.390 OA
HETATM   30  H51 UNL     1      -3.866  50.376 -22.549  1.00  0.00     0.210 HD
ENDBRANCH  23  29
ENDBRANCH  19  20
ENDBRANCH   1  19
BRANCH  17  31
HETATM   31  O7  UNL     1      -6.756  47.297 -27.509  1.00  0.00    -0.389 OA
HETATM   32  H43 UNL     1      -6.066  46.619 -27.393  1.00  0.00     0.210 HD
ENDBRANCH  17  31
BRANCH   4  33
HETATM   33  C9  UNL     1      -9.134  48.145 -28.888  1.00  0.00     0.068 C 
HETATM   34  N1  UNL     1      -8.442  49.144 -29.329  1.00  0.00    -0.401 N 
ATOM     35  H1  UNL     1      -7.884  49.740 -28.717  1.00  0.00     0.158 HD
BRANCH  34  36
HETATM   36  C10 UNL     1      -8.522  49.356 -30.781  1.00  0.00     0.121 C 
BRANCH  36  37
HETATM   37  C11 UNL     1      -7.787  48.215 -31.494  1.00  0.00     0.045 C 
BRANCH  37  38
HETATM   38  C12 UNL     1      -6.343  48.052 -31.027  1.00  0.00     0.165 C 
BRANCH  38  39
HETATM   39  O3  UNL     1      -5.829  49.278 -30.521  1.00  0.00    -0.401 OA
HETATM   40  H20 UNL     1      -6.180  49.975 -31.117  1.00  0.00     0.209 HD
ENDBRANCH  38  39
ENDBRANCH  37  38
ENDBRANCH  36  37
ENDBRANCH  34  36
ENDBRANCH   4  33
BRANCH  13  41
HETATM   41  O6  UNL     1     -12.442  44.044 -28.386  1.00  0.00    -0.389 OA
HETATM   42  H37 UNL     1     -11.617  43.657 -28.731  1.00  0.00     0.210 HD
ENDBRANCH  13  41
BRANCH  10  43
HETATM   43  C19 UNL     1     -14.999  45.903 -25.137  1.00  0.00    -0.045 A 
HETATM   44  C20 UNL     1     -14.355  46.400 -24.079  1.00  0.00     0.087 A 
HETATM   45  C21 UNL     1     -15.353  47.036 -23.217  1.00  0.00     0.283 A 
HETATM   46  O4  UNL     1     -15.110  47.605 -22.168  1.00  0.00    -0.260 OA
HETATM   47  O5  UNL     1     -16.588  46.885 -23.775  1.00  0.00    -0.314 OA
HETATM   48  C22 UNL     1     -16.450  46.224 -25.034  1.00  0.00     0.213 A 
ENDBRANCH  10  43
TORSDOF 12
ENDMDL
MODEL 8
REMARK minimizedAffinity -7.08575583
REMARK CNNscore 0.365392029
REMARK CNNaffinity 6.27960348
REMARK  12 active torsions:
REMARK  status: ('A' for Active; 'I' for Inactive)
REMARK    1  A    between atoms: O1_2  and  C2_3 
REMARK    2  A    between atoms: C4_5  and  O2_6 
REMARK    3  A    between atoms: O2_6  and  C5_7 
REMARK    4  A    between atoms: C8_10  and  C9_11 
REMARK    5  A    between atoms: N1_12  and  C10_14 
REMARK    6  A    between atoms: C10_14  and  C11_15 
REMARK    7  A    between atoms: C11_15  and  C12_16 
REMARK    8  A    between atoms: C12_16  and  O3_17 
REMARK    9  A    between atoms: C18_23  and  C19_24 
REMARK   10  A    between atoms: C25_32  and  O6_33 
REMARK   11  A    between atoms: C29_37  and  O7_38 
REMARK   12  A    between atoms: C33_43  and  O9_44 
ROOT
HETATM    1  C5  UNL     1      -7.878  47.998 -24.654  1.00  0.00     0.127 C 
HETATM    2  C6  UNL     1      -9.016  48.941 -25.030  1.00  0.00     0.033 C 
HETATM    3  C7  UNL     1      -9.121  49.139 -26.532  1.00  0.00     0.021 C 
HETATM    4  C8  UNL     1      -9.290  47.804 -27.325  1.00  0.00     0.026 C 
HETATM    5  C13 UNL     1     -10.625  47.062 -26.963  1.00  0.00     0.009 C 
HETATM    6  C14 UNL     1     -11.881  47.910 -27.189  1.00  0.00     0.007 C 
HETATM    7  C15 UNL     1     -13.073  47.218 -26.545  1.00  0.00     0.013 C 
HETATM    8  C16 UNL     1     -13.397  45.840 -27.165  1.00  0.00    -0.005 C 
HETATM    9  C17 UNL     1     -14.076  46.089 -28.534  1.00  0.00     0.019 C 
HETATM   10  C18 UNL     1     -14.371  44.978 -26.253  1.00  0.00     0.028 C 
HETATM   11  C23 UNL     1     -13.549  43.745 -25.819  1.00  0.00     0.013 C 
HETATM   12  C24 UNL     1     -12.096  44.166 -25.984  1.00  0.00     0.040 C 
HETATM   13  C25 UNL     1     -12.116  44.944 -27.309  1.00  0.00     0.070 C 
HETATM   14  C26 UNL     1     -10.784  45.689 -27.664  1.00  0.00     0.026 C 
HETATM   15  C27 UNL     1      -9.539  44.808 -27.411  1.00  0.00     0.011 C 
HETATM   16  C28 UNL     1      -8.197  45.504 -27.648  1.00  0.00     0.039 C 
HETATM   17  C29 UNL     1      -8.084  46.880 -26.974  1.00  0.00     0.073 C 
HETATM   18  C30 UNL     1      -7.935  46.688 -25.441  1.00  0.00     0.071 C 
ENDROOT
BRANCH   1  19
HETATM   19  O2  UNL     1      -8.057  47.703 -23.267  1.00  0.00    -0.356 OA
BRANCH  19  20
HETATM   20  C4  UNL     1      -6.854  47.769 -22.504  1.00  0.00     0.263 C 
HETATM   21  C3  UNL     1      -6.748  49.192 -21.970  1.00  0.00     0.095 C 
HETATM   22  C2  UNL     1      -5.484  49.352 -21.137  1.00  0.00     0.156 C 
HETATM   23  C33 UNL     1      -5.448  48.274 -20.037  1.00  0.00     0.175 C 
HETATM   24  C31 UNL     1      -5.678  46.874 -20.643  1.00  0.00     0.151 C 
HETATM   25  O8  UNL     1      -6.868  46.828 -21.440  1.00  0.00    -0.354 OA
HETATM   26  C32 UNL     1      -5.817  45.802 -19.568  1.00  0.00     0.042 C 
BRANCH  22  27
HETATM   27  O1  UNL     1      -5.420  50.633 -20.482  1.00  0.00    -0.388 OA
HETATM   28  C1  UNL     1      -4.390  51.476 -20.976  1.00  0.00     0.202 C 
ENDBRANCH  22  27
BRANCH  23  29
HETATM   29  O9  UNL     1      -6.449  48.583 -19.056  1.00  0.00    -0.390 OA
HETATM   30  H51 UNL     1      -6.407  49.556 -18.943  1.00  0.00     0.210 HD
ENDBRANCH  23  29
ENDBRANCH  19  20
ENDBRANCH   1  19
BRANCH  17  31
HETATM   31  O7  UNL     1      -6.872  47.505 -27.421  1.00  0.00    -0.389 OA
HETATM   32  H43 UNL     1      -6.147  46.863 -27.305  1.00  0.00     0.210 HD
ENDBRANCH  17  31
BRANCH   4  33
HETATM   33  C9  UNL     1      -9.284  48.238 -28.805  1.00  0.00     0.068 C 
HETATM   34  N1  UNL     1      -8.586  49.230 -29.250  1.00  0.00    -0.401 N 
ATOM     35  H1  UNL     1      -8.011  49.814 -28.643  1.00  0.00     0.158 HD
BRANCH  34  36
HETATM   36  C10 UNL     1      -8.684  49.451 -30.700  1.00  0.00     0.121 C 
BRANCH  36  37
HETATM   37  C11 UNL     1      -7.825  48.410 -31.425  1.00  0.00     0.045 C 
BRANCH  37  38
HETATM   38  C12 UNL     1      -8.565  47.713 -32.564  1.00  0.00     0.165 C 
BRANCH  38  39
HETATM   39  O3  UNL     1      -7.958  48.001 -33.817  1.00  0.00    -0.401 OA
HETATM   40  H20 UNL     1      -7.703  48.948 -33.774  1.00  0.00     0.209 HD
ENDBRANCH  38  39
ENDBRANCH  37  38
ENDBRANCH  36  37
ENDBRANCH  34  36
ENDBRANCH   4  33
BRANCH  13  41
HETATM   41  O6  UNL     1     -12.378  43.968 -28.339  1.00  0.00    -0.389 OA
HETATM   42  H37 UNL     1     -11.533  43.627 -28.683  1.00  0.00     0.210 HD
ENDBRANCH  13  41
BRANCH  10  43
HETATM   43  C19 UNL     1     -15.040  45.675 -25.091  1.00  0.00    -0.045 A 
HETATM   44  C20 UNL     1     -14.500  45.905 -23.893  1.00  0.00     0.087 A 
HETATM   45  C21 UNL     1     -15.498  46.612 -23.090  1.00  0.00     0.283 A 
HETATM   46  O4  UNL     1     -15.333  46.990 -21.943  1.00  0.00    -0.260 OA
HETATM   47  O5  UNL     1     -16.635  46.772 -23.826  1.00  0.00    -0.314 OA
HETATM   48  C22 UNL     1     -16.412  46.255 -25.139  1.00  0.00     0.213 A 
ENDBRANCH  10  43
TORSDOF 12
ENDMDL
MODEL 9
REMARK minimizedAffinity -7.01876116
REMARK CNNscore 0.348050684
REMARK CNNaffinity 6.0193634
REMARK  12 active torsions:
REMARK  status: ('A' for Active; 'I' for Inactive)
REMARK    1  A    between atoms: O1_2  and  C2_3 
REMARK    2  A    between atoms: C4_5  and  O2_6 
REMARK    3  A    between atoms: O2_6  and  C5_7 
REMARK    4  A    between atoms: C8_10  and  C9_11 
REMARK    5  A    between atoms: N1_12  and  C10_14 
REMARK    6  A    between atoms: C10_14  and  C11_15 
REMARK    7  A    between atoms: C11_15  and  C12_16 
REMARK    8  A    between atoms: C12_16  and  O3_17 
REMARK    9  A    between atoms: C18_23  and  C19_24 
REMARK   10  A    between atoms: C25_32  and  O6_33 
REMARK   11  A    between atoms: C29_37  and  O7_38 
REMARK   12  A    between atoms: C33_43  and  O9_44 
ROOT
HETATM    1  C5  UNL     1       0.427  53.465 -10.504  1.00  0.00     0.127 C 
HETATM    2  C6  UNL     1       0.771  52.715  -9.221  1.00  0.00     0.033 C 
HETATM    3  C7  UNL     1       2.235  52.318  -9.167  1.00  0.00     0.021 C 
HETATM    4  C8  UNL     1       3.213  53.527  -9.323  1.00  0.00     0.026 C 
HETATM    5  C13 UNL     1       3.074  54.560  -8.149  1.00  0.00     0.009 C 
HETATM    6  C14 UNL     1       3.293  53.949  -6.762  1.00  0.00     0.007 C 
HETATM    7  C15 UNL     1       2.857  54.948  -5.701  1.00  0.00     0.013 C 
HETATM    8  C16 UNL     1       3.683  56.253  -5.704  1.00  0.00    -0.005 C 
HETATM    9  C17 UNL     1       5.060  55.938  -5.070  1.00  0.00     0.019 C 
HETATM   10  C18 UNL     1       2.985  57.415  -4.875  1.00  0.00     0.028 C 
HETATM   11  C23 UNL     1       2.651  58.515  -5.906  1.00  0.00     0.013 C 
HETATM   12  C24 UNL     1       2.629  57.800  -7.248  1.00  0.00     0.040 C 
HETATM   13  C25 UNL     1       3.833  56.851  -7.148  1.00  0.00     0.070 C 
HETATM   14  C26 UNL     1       3.965  55.816  -8.317  1.00  0.00     0.026 C 
HETATM   15  C27 UNL     1       3.725  56.467  -9.699  1.00  0.00     0.011 C 
HETATM   16  C28 UNL     1       3.746  55.496 -10.882  1.00  0.00     0.039 C 
HETATM   17  C29 UNL     1       2.885  54.240 -10.669  1.00  0.00     0.073 C 
HETATM   18  C30 UNL     1       1.385  54.628 -10.764  1.00  0.00     0.071 C 
ENDROOT
BRANCH   1  19
HETATM   19  O2  UNL     1      -0.887  53.994 -10.307  1.00  0.00    -0.356 OA
BRANCH  19  20
HETATM   20  C4  UNL     1      -1.886  53.366 -11.108  1.00  0.00     0.263 C 
HETATM   21  C3  UNL     1      -1.155  52.591 -12.197  1.00  0.00     0.095 C 
HETATM   22  C2  UNL     1      -2.153  51.883 -13.104  1.00  0.00     0.156 C 
HETATM   23  C33 UNL     1      -3.099  51.013 -12.255  1.00  0.00     0.175 C 
HETATM   24  C31 UNL     1      -3.709  51.841 -11.104  1.00  0.00     0.151 C 
HETATM   25  O8  UNL     1      -2.700  52.500 -10.329  1.00  0.00    -0.354 OA
HETATM   26  C32 UNL     1      -4.517  50.976 -10.144  1.00  0.00     0.042 C 
BRANCH  22  27
HETATM   27  O1  UNL     1      -1.507  51.012 -14.052  1.00  0.00    -0.388 OA
HETATM   28  C1  UNL     1      -2.298  50.724 -15.194  1.00  0.00     0.202 C 
ENDBRANCH  22  27
BRANCH  23  29
HETATM   29  O9  UNL     1      -2.362  49.890 -11.749  1.00  0.00    -0.390 OA
HETATM   30  H51 UNL     1      -1.789  49.604 -12.489  1.00  0.00     0.210 HD
ENDBRANCH  23  29
ENDBRANCH  19  20
ENDBRANCH   1  19
BRANCH  17  31
HETATM   31  O7  UNL     1       3.135  53.331 -11.752  1.00  0.00    -0.389 OA
HETATM   32  H43 UNL     1       3.043  53.830 -12.585  1.00  0.00     0.210 HD
ENDBRANCH  17  31
BRANCH   4  33
HETATM   33  C9  UNL     1       4.615  52.883  -9.327  1.00  0.00     0.068 C 
HETATM   34  N1  UNL     1       4.857  51.716  -9.826  1.00  0.00    -0.401 N 
ATOM     35  H1  UNL     1       4.127  51.126 -10.226  1.00  0.00     0.158 HD
BRANCH  34  36
HETATM   36  C10 UNL     1       6.267  51.303  -9.772  1.00  0.00     0.121 C 
BRANCH  36  37
HETATM   37  C11 UNL     1       6.421  49.950 -10.475  1.00  0.00     0.045 C 
BRANCH  37  38
HETATM   38  C12 UNL     1       7.710  49.225 -10.097  1.00  0.00     0.165 C 
BRANCH  38  39
HETATM   39  O3  UNL     1       8.530  49.017 -11.240  1.00  0.00    -0.401 OA
HETATM   40  H20 UNL     1       7.913  48.781 -11.966  1.00  0.00     0.209 HD
ENDBRANCH  38  39
ENDBRANCH  37  38
ENDBRANCH  36  37
ENDBRANCH  34  36
ENDBRANCH   4  33
BRANCH  13  41
HETATM   41  O6  UNL     1       5.004  57.694  -7.153  1.00  0.00    -0.389 OA
HETATM   42  H37 UNL     1       5.315  57.809  -8.069  1.00  0.00     0.210 HD
ENDBRANCH  13  41
BRANCH  10  43
HETATM   43  C19 UNL     1       1.804  57.044  -4.009  1.00  0.00    -0.045 A 
HETATM   44  C20 UNL     1       0.523  57.320  -4.264  1.00  0.00     0.087 A 
HETATM   45  C21 UNL     1      -0.272  56.766  -3.167  1.00  0.00     0.283 A 
HETATM   46  O4  UNL     1      -1.486  56.824  -3.083  1.00  0.00    -0.260 OA
HETATM   47  O5  UNL     1       0.562  56.182  -2.259  1.00  0.00    -0.314 OA
HETATM   48  C22 UNL     1       1.903  56.261  -2.746  1.00  0.00     0.213 A 
ENDBRANCH  10  43
TORSDOF 12
ENDMDL
