MODEL 1
REMARK minimizedAffinity -8.9820385
REMARK  8 active torsions:
REMARK  status: ('A' for Active; 'I' for Inactive)
REMARK    1  A    between atoms: O1_2  and  C2_3 
REMARK    2  A    between atoms: C9_12  and  O4_13 
REMARK    3  A    between atoms: C10_14  and  C11_15 
REMARK    4  A    between atoms: C11_15  and  C12_16 
REMARK    5  A    between atoms: C13_17  and  C15_19 
REMARK    6  A    between atoms: C15_19  and  C16_20 
REMARK    7  A    between atoms: C16_20  and  C17_21 
REMARK       I    between atoms: C17_21  and  N1_23 
REMARK    8  A    between atoms: N1_23  and  C18_24 
ROOT
HETATM    1  C12 UNL     1      -2.080  50.920 -25.050  1.00  0.00    -0.020 C 
HETATM    2  C13 UNL     1      -2.546  50.363 -26.186  1.00  0.00    -0.087 C 
HETATM    3  C14 UNL     1      -2.870  51.222 -27.381  1.00  0.00     0.043 C 
ENDROOT
BRANCH   1   4
HETATM    4  C11 UNL     1      -1.720  50.232 -23.757  1.00  0.00     0.072 C 
BRANCH   4   5
HETATM    5  C10 UNL     1      -0.912  51.121 -22.835  1.00  0.00     0.013 A 
HETATM    6  C2  UNL     1      -0.907  50.911 -21.427  1.00  0.00     0.084 A 
HETATM    7  C3  UNL     1      -0.271  51.799 -20.532  1.00  0.00    -0.018 A 
HETATM    8  C4  UNL     1      -0.318  51.602 -19.045  1.00  0.00     0.052 C 
HETATM    9  C5  UNL     1       0.439  52.856 -21.089  1.00  0.00    -0.006 A 
HETATM   10  C6  UNL     1       0.473  53.036 -22.456  1.00  0.00     0.082 A 
HETATM   11  C8  UNL     1       1.232  53.929 -20.451  1.00  0.00     0.219 A 
HETATM   12  C7  UNL     1       1.278  54.204 -22.756  1.00  0.00     0.297 A 
HETATM   13  C9  UNL     1      -0.186  52.205 -23.345  1.00  0.00     0.091 A 
HETATM   14  O2  UNL     1       1.504  54.632 -23.872  1.00  0.00    -0.259 OA
HETATM   15  O3  UNL     1       1.719  54.705 -21.567  1.00  0.00    -0.313 OA
BRANCH   6  16
HETATM   16  O1  UNL     1      -1.613  49.845 -20.917  1.00  0.00    -0.355 OA
HETATM   17  C1  UNL     1      -0.784  48.682 -20.851  1.00  0.00     0.210 C 
ENDBRANCH   6  16
BRANCH  13  18
HETATM   18  O4  UNL     1      -0.135  52.422 -24.691  1.00  0.00    -0.359 OA
HETATM   19  H9  UNL     1       0.380  53.237 -24.873  1.00  0.00     0.217 HD
ENDBRANCH  13  18
ENDBRANCH   4   5
ENDBRANCH   1   4
BRANCH   2  20
HETATM   20  C15 UNL     1      -2.751  48.876 -26.390  1.00  0.00     0.042 C 
BRANCH  20  21
HETATM   21  C16 UNL     1      -4.226  48.488 -26.320  1.00  0.00     0.107 C 
BRANCH  21  22
HETATM   22  C17 UNL     1      -4.793  48.174 -27.689  1.00  0.00     0.218 C 
HETATM   23  O5  UNL     1      -4.127  48.139 -28.717  1.00  0.00    -0.274 OA
HETATM   24  N1  UNL     1      -6.155  47.939 -27.660  1.00  0.00    -0.356 N 
HETATM   25  H20 UNL     1      -6.668  48.211 -26.829  1.00  0.00     0.162 HD
BRANCH  24  26
HETATM   26  C18 UNL     1      -6.924  47.741 -28.882  1.00  0.00     0.089 C 
HETATM   27  C19 UNL     1      -7.050  46.250 -29.207  1.00  0.00     0.051 C 
HETATM   28  C20 UNL     1      -8.364  45.651 -28.722  1.00  0.00     0.171 C 
HETATM   29  O6  UNL     1      -8.832  46.322 -27.558  1.00  0.00    -0.381 OA
HETATM   30  C21 UNL     1      -9.243  47.681 -27.796  1.00  0.00     0.055 C 
HETATM   31  C22 UNL     1      -9.219  48.373 -26.425  1.00  0.00     0.045 C 
HETATM   32  C23 UNL     1     -10.692  47.694 -28.306  1.00  0.00     0.045 C 
HETATM   33  C24 UNL     1      -8.307  48.395 -28.796  1.00  0.00     0.062 C 
ENDBRANCH  24  26
ENDBRANCH  21  22
ENDBRANCH  20  21
ENDBRANCH   2  20
TORSDOF 8
ENDMDL
MODEL 2
REMARK minimizedAffinity -8.96357727
REMARK  8 active torsions:
REMARK  status: ('A' for Active; 'I' for Inactive)
REMARK    1  A    between atoms: O1_2  and  C2_3 
REMARK    2  A    between atoms: C9_12  and  O4_13 
REMARK    3  A    between atoms: C10_14  and  C11_15 
REMARK    4  A    between atoms: C11_15  and  C12_16 
REMARK    5  A    between atoms: C13_17  and  C15_19 
REMARK    6  A    between atoms: C15_19  and  C16_20 
REMARK    7  A    between atoms: C16_20  and  C17_21 
REMARK       I    between atoms: C17_21  and  N1_23 
REMARK    8  A    between atoms: N1_23  and  C18_24 
ROOT
HETATM    1  C12 UNL     1       0.136  53.154 -19.682  1.00  0.00    -0.020 C 
HETATM    2  C13 UNL     1       0.762  52.999 -20.865  1.00  0.00    -0.087 C 
HETATM    3  C14 UNL     1       1.506  54.149 -21.493  1.00  0.00     0.043 C 
ENDROOT
BRANCH   1   4
HETATM    4  C11 UNL     1      -0.666  52.134 -18.912  1.00  0.00     0.072 C 
BRANCH   4   5
HETATM    5  C10 UNL     1       0.101  51.562 -17.738  1.00  0.00     0.013 A 
HETATM    6  C2  UNL     1      -0.377  50.423 -17.031  1.00  0.00     0.084 A 
HETATM    7  C3  UNL     1       0.244  49.947 -15.855  1.00  0.00    -0.018 A 
HETATM    8  C4  UNL     1      -0.298  48.780 -15.083  1.00  0.00     0.052 C 
HETATM    9  C5  UNL     1       1.411  50.586 -15.455  1.00  0.00    -0.006 A 
HETATM   10  C6  UNL     1       1.901  51.663 -16.164  1.00  0.00     0.082 A 
HETATM   11  C8  UNL     1       2.312  50.324 -14.311  1.00  0.00     0.219 A 
HETATM   12  C7  UNL     1       3.118  52.130 -15.529  1.00  0.00     0.297 A 
HETATM   13  C9  UNL     1       1.278  52.174 -17.290  1.00  0.00     0.091 A 
HETATM   14  O2  UNL     1       3.794  53.066 -15.911  1.00  0.00    -0.259 OA
HETATM   15  O3  UNL     1       3.343  51.325 -14.452  1.00  0.00    -0.313 OA
BRANCH   6  16
HETATM   16  O1  UNL     1      -1.531  49.812 -17.468  1.00  0.00    -0.355 OA
HETATM   17  C1  UNL     1      -1.225  48.792 -18.422  1.00  0.00     0.210 C 
ENDBRANCH   6  16
BRANCH  13  18
HETATM   18  O4  UNL     1       1.790  53.247 -17.959  1.00  0.00    -0.359 OA
HETATM   19  H9  UNL     1       2.589  53.574 -17.493  1.00  0.00     0.217 HD
ENDBRANCH  13  18
ENDBRANCH   4   5
ENDBRANCH   1   4
BRANCH   2  20
HETATM   20  C15 UNL     1       0.817  51.699 -21.642  1.00  0.00     0.042 C 
BRANCH  20  21
HETATM   21  C16 UNL     1      -0.573  51.103 -21.855  1.00  0.00     0.107 C 
BRANCH  21  22
HETATM   22  C17 UNL     1      -1.216  51.609 -23.129  1.00  0.00     0.218 C 
HETATM   23  O5  UNL     1      -2.264  52.244 -23.165  1.00  0.00    -0.274 OA
HETATM   24  N1  UNL     1      -0.499  51.268 -24.260  1.00  0.00    -0.356 N 
HETATM   25  H20 UNL     1       0.217  50.556 -24.173  1.00  0.00     0.162 HD
BRANCH  24  26
HETATM   26  C18 UNL     1      -1.001  51.546 -25.599  1.00  0.00     0.089 C 
HETATM   27  C19 UNL     1      -1.193  53.052 -25.804  1.00  0.00     0.051 C 
HETATM   28  C20 UNL     1      -0.013  53.704 -26.513  1.00  0.00     0.171 C 
HETATM   29  O6  UNL     1       1.199  53.022 -26.218  1.00  0.00    -0.381 OA
HETATM   30  C21 UNL     1       1.270  51.695 -26.773  1.00  0.00     0.055 C 
HETATM   31  C22 UNL     1       2.349  50.959 -25.964  1.00  0.00     0.045 C 
HETATM   32  C23 UNL     1       1.746  51.776 -28.230  1.00  0.00     0.045 C 
HETATM   33  C24 UNL     1      -0.088  50.964 -26.683  1.00  0.00     0.062 C 
ENDBRANCH  24  26
ENDBRANCH  21  22
ENDBRANCH  20  21
ENDBRANCH   2  20
TORSDOF 8
ENDMDL
MODEL 3
REMARK minimizedAffinity -8.80888844
REMARK  8 active torsions:
REMARK  status: ('A' for Active; 'I' for Inactive)
REMARK    1  A    between atoms: O1_2  and  C2_3 
REMARK    2  A    between atoms: C9_12  and  O4_13 
REMARK    3  A    between atoms: C10_14  and  C11_15 
REMARK    4  A    between atoms: C11_15  and  C12_16 
REMARK    5  A    between atoms: C13_17  and  C15_19 
REMARK    6  A    between atoms: C15_19  and  C16_20 
REMARK    7  A    between atoms: C16_20  and  C17_21 
REMARK       I    between atoms: C17_21  and  N1_23 
REMARK    8  A    between atoms: N1_23  and  C18_24 
ROOT
HETATM    1  C12 UNL     1      -2.204  50.867 -24.787  1.00  0.00    -0.020 C 
HETATM    2  C13 UNL     1      -2.757  50.327 -25.892  1.00  0.00    -0.087 C 
HETATM    3  C14 UNL     1      -3.125  51.198 -27.066  1.00  0.00     0.043 C 
ENDROOT
BRANCH   1   4
HETATM    4  C11 UNL     1      -1.788  50.166 -23.518  1.00  0.00     0.072 C 
BRANCH   4   5
HETATM    5  C10 UNL     1      -0.945  51.047 -22.620  1.00  0.00     0.013 A 
HETATM    6  C2  UNL     1      -0.893  50.831 -21.215  1.00  0.00     0.084 A 
HETATM    7  C3  UNL     1      -0.223  51.712 -20.338  1.00  0.00    -0.018 A 
HETATM    8  C4  UNL     1      -0.221  51.510 -18.851  1.00  0.00     0.052 C 
HETATM    9  C5  UNL     1       0.473  52.768 -20.914  1.00  0.00    -0.006 A 
HETATM   10  C6  UNL     1       0.461  52.953 -22.281  1.00  0.00     0.082 A 
HETATM   11  C8  UNL     1       1.293  53.835 -20.300  1.00  0.00     0.219 A 
HETATM   12  C7  UNL     1       1.261  54.119 -22.604  1.00  0.00     0.297 A 
HETATM   13  C9  UNL     1      -0.232  52.129 -23.151  1.00  0.00     0.091 A 
HETATM   14  O2  UNL     1       1.452  54.550 -23.725  1.00  0.00    -0.259 OA
HETATM   15  O3  UNL     1       1.745  54.612 -21.429  1.00  0.00    -0.313 OA
BRANCH   6  16
HETATM   16  O1  UNL     1      -1.587  49.767 -20.685  1.00  0.00    -0.355 OA
HETATM   17  C1  UNL     1      -0.785  48.583 -20.714  1.00  0.00     0.210 C 
ENDBRANCH   6  16
BRANCH  13  18
HETATM   18  O4  UNL     1      -0.225  52.351 -24.497  1.00  0.00    -0.359 OA
HETATM   19  H9  UNL     1       0.287  53.165 -24.693  1.00  0.00     0.217 HD
ENDBRANCH  13  18
ENDBRANCH   4   5
ENDBRANCH   1   4
BRANCH   2  20
HETATM   20  C15 UNL     1      -3.023  48.848 -26.082  1.00  0.00     0.042 C 
BRANCH  20  21
HETATM   21  C16 UNL     1      -3.460  48.525 -27.509  1.00  0.00     0.107 C 
BRANCH  21  22
HETATM   22  C17 UNL     1      -4.906  48.081 -27.571  1.00  0.00     0.218 C 
HETATM   23  O5  UNL     1      -5.638  47.984 -26.592  1.00  0.00    -0.274 OA
HETATM   24  N1  UNL     1      -5.318  47.780 -28.855  1.00  0.00    -0.356 N 
HETATM   25  H20 UNL     1      -4.606  47.659 -29.567  1.00  0.00     0.162 HD
BRANCH  24  26
HETATM   26  C18 UNL     1      -6.632  47.214 -29.126  1.00  0.00     0.089 C 
HETATM   27  C19 UNL     1      -7.594  48.294 -29.630  1.00  0.00     0.051 C 
HETATM   28  C20 UNL     1      -7.702  48.325 -31.149  1.00  0.00     0.171 C 
HETATM   29  O6  UNL     1      -6.487  47.903 -31.755  1.00  0.00    -0.381 OA
HETATM   30  C21 UNL     1      -6.187  46.510 -31.548  1.00  0.00     0.055 C 
HETATM   31  C22 UNL     1      -4.679  46.362 -31.803  1.00  0.00     0.045 C 
HETATM   32  C23 UNL     1      -6.927  45.667 -32.597  1.00  0.00     0.045 C 
HETATM   33  C24 UNL     1      -6.558  46.050 -30.120  1.00  0.00     0.062 C 
ENDBRANCH  24  26
ENDBRANCH  21  22
ENDBRANCH  20  21
ENDBRANCH   2  20
TORSDOF 8
ENDMDL
MODEL 4
REMARK minimizedAffinity -8.70584869
REMARK  8 active torsions:
REMARK  status: ('A' for Active; 'I' for Inactive)
REMARK    1  A    between atoms: O1_2  and  C2_3 
REMARK    2  A    between atoms: C9_12  and  O4_13 
REMARK    3  A    between atoms: C10_14  and  C11_15 
REMARK    4  A    between atoms: C11_15  and  C12_16 
REMARK    5  A    between atoms: C13_17  and  C15_19 
REMARK    6  A    between atoms: C15_19  and  C16_20 
REMARK    7  A    between atoms: C16_20  and  C17_21 
REMARK       I    between atoms: C17_21  and  N1_23 
REMARK    8  A    between atoms: N1_23  and  C18_24 
ROOT
HETATM    1  C12 UNL     1      -3.529  48.987 -25.455  1.00  0.00    -0.020 C 
HETATM    2  C13 UNL     1      -4.688  48.478 -25.917  1.00  0.00    -0.087 C 
HETATM    3  C14 UNL     1      -5.870  48.311 -24.997  1.00  0.00     0.043 C 
ENDROOT
BRANCH   1   4
HETATM    4  C11 UNL     1      -2.244  49.212 -26.213  1.00  0.00     0.072 C 
BRANCH   4   5
HETATM    5  C10 UNL     1      -1.543  50.488 -25.797  1.00  0.00     0.013 A 
HETATM    6  C2  UNL     1      -1.239  50.751 -24.432  1.00  0.00     0.084 A 
HETATM    7  C3  UNL     1      -0.706  51.985 -23.999  1.00  0.00    -0.018 A 
HETATM    8  C4  UNL     1      -0.441  52.275 -22.551  1.00  0.00     0.052 C 
HETATM    9  C5  UNL     1      -0.399  52.919 -24.981  1.00  0.00    -0.006 A 
HETATM   10  C6  UNL     1      -0.652  52.649 -26.309  1.00  0.00     0.082 A 
HETATM   11  C8  UNL     1       0.191  54.272 -24.877  1.00  0.00     0.219 A 
HETATM   12  C7  UNL     1      -0.239  53.789 -27.107  1.00  0.00     0.297 A 
HETATM   13  C9  UNL     1      -1.221  51.466 -26.747  1.00  0.00     0.091 A 
HETATM   14  O2  UNL     1      -0.328  53.867 -28.317  1.00  0.00    -0.259 OA
HETATM   15  O3  UNL     1       0.259  54.721 -26.247  1.00  0.00    -0.313 OA
BRANCH   6  16
HETATM   16  O1  UNL     1      -1.548  49.794 -23.492  1.00  0.00    -0.355 OA
HETATM   17  C1  UNL     1      -2.646  50.224 -22.683  1.00  0.00     0.210 C 
ENDBRANCH   6  16
BRANCH  13  18
HETATM   18  O4  UNL     1      -1.462  51.240 -28.071  1.00  0.00    -0.359 OA
HETATM   19  H9  UNL     1      -1.213  52.035 -28.590  1.00  0.00     0.217 HD
ENDBRANCH  13  18
ENDBRANCH   4   5
ENDBRANCH   1   4
BRANCH   2  20
HETATM   20  C15 UNL     1      -4.932  48.070 -27.356  1.00  0.00     0.042 C 
BRANCH  20  21
HETATM   21  C16 UNL     1      -6.384  47.661 -27.595  1.00  0.00     0.107 C 
BRANCH  21  22
HETATM   22  C17 UNL     1      -6.817  47.926 -29.022  1.00  0.00     0.218 C 
HETATM   23  O5  UNL     1      -7.859  48.493 -29.330  1.00  0.00    -0.274 OA
HETATM   24  N1  UNL     1      -5.913  47.446 -29.951  1.00  0.00    -0.356 N 
HETATM   25  H20 UNL     1      -5.205  46.794 -29.633  1.00  0.00     0.162 HD
BRANCH  24  26
HETATM   26  C18 UNL     1      -6.192  47.481 -31.381  1.00  0.00     0.089 C 
HETATM   27  C19 UNL     1      -4.894  47.383 -32.188  1.00  0.00     0.051 C 
HETATM   28  C20 UNL     1      -4.598  45.964 -32.656  1.00  0.00     0.171 C 
HETATM   29  O6  UNL     1      -5.119  45.007 -31.742  1.00  0.00    -0.381 OA
HETATM   30  C21 UNL     1      -6.557  44.967 -31.700  1.00  0.00     0.055 C 
HETATM   31  C22 UNL     1      -6.920  44.296 -30.366  1.00  0.00     0.045 C 
HETATM   32  C23 UNL     1      -7.077  44.071 -32.834  1.00  0.00     0.045 C 
HETATM   33  C24 UNL     1      -7.173  46.381 -31.798  1.00  0.00     0.062 C 
ENDBRANCH  24  26
ENDBRANCH  21  22
ENDBRANCH  20  21
ENDBRANCH   2  20
TORSDOF 8
ENDMDL
MODEL 5
REMARK minimizedAffinity -8.58544445
REMARK  8 active torsions:
REMARK  status: ('A' for Active; 'I' for Inactive)
REMARK    1  A    between atoms: O1_2  and  C2_3 
REMARK    2  A    between atoms: C9_12  and  O4_13 
REMARK    3  A    between atoms: C10_14  and  C11_15 
REMARK    4  A    between atoms: C11_15  and  C12_16 
REMARK    5  A    between atoms: C13_17  and  C15_19 
REMARK    6  A    between atoms: C15_19  and  C16_20 
REMARK    7  A    between atoms: C16_20  and  C17_21 
REMARK       I    between atoms: C17_21  and  N1_23 
REMARK    8  A    between atoms: N1_23  and  C18_24 
ROOT
HETATM    1  C12 UNL     1      -5.055  50.522 -23.557  1.00  0.00    -0.020 C 
HETATM    2  C13 UNL     1      -4.712  49.505 -24.373  1.00  0.00    -0.087 C 
HETATM    3  C14 UNL     1      -5.217  48.110 -24.109  1.00  0.00     0.043 C 
ENDROOT
BRANCH   1   4
HETATM    4  C11 UNL     1      -4.638  51.970 -23.649  1.00  0.00     0.072 C 
BRANCH   4   5
HETATM    5  C10 UNL     1      -3.133  52.140 -23.636  1.00  0.00     0.013 A 
HETATM    6  C2  UNL     1      -2.367  51.835 -22.476  1.00  0.00     0.084 A 
HETATM    7  C3  UNL     1      -0.984  52.106 -22.390  1.00  0.00    -0.018 A 
HETATM    8  C4  UNL     1      -0.195  51.835 -21.143  1.00  0.00     0.052 C 
HETATM    9  C5  UNL     1      -0.366  52.607 -23.530  1.00  0.00    -0.006 A 
HETATM   10  C6  UNL     1      -1.099  52.861 -24.670  1.00  0.00     0.082 A 
HETATM   11  C8  UNL     1       1.047  52.962 -23.786  1.00  0.00     0.219 A 
HETATM   12  C7  UNL     1      -0.209  53.374 -25.695  1.00  0.00     0.297 A 
HETATM   13  C9  UNL     1      -2.464  52.649 -24.757  1.00  0.00     0.091 A 
HETATM   14  O2  UNL     1      -0.545  53.695 -26.819  1.00  0.00    -0.259 OA
HETATM   15  O3  UNL     1       1.042  53.415 -25.156  1.00  0.00    -0.313 OA
BRANCH   6  16
HETATM   16  O1  UNL     1      -3.016  51.329 -21.373  1.00  0.00    -0.355 OA
HETATM   17  C1  UNL     1      -2.747  49.932 -21.232  1.00  0.00     0.210 C 
ENDBRANCH   6  16
BRANCH  13  18
HETATM   18  O4  UNL     1      -3.154  52.921 -25.902  1.00  0.00    -0.359 OA
HETATM   19  H9  UNL     1      -2.545  53.304 -26.569  1.00  0.00     0.217 HD
ENDBRANCH  13  18
ENDBRANCH   4   5
ENDBRANCH   1   4
BRANCH   2  20
HETATM   20  C15 UNL     1      -3.850  49.652 -25.610  1.00  0.00     0.042 C 
BRANCH  20  21
HETATM   21  C16 UNL     1      -3.807  48.365 -26.431  1.00  0.00     0.107 C 
BRANCH  21  22
HETATM   22  C17 UNL     1      -4.402  48.556 -27.811  1.00  0.00     0.218 C 
HETATM   23  O5  UNL     1      -3.941  49.311 -28.660  1.00  0.00    -0.274 OA
HETATM   24  N1  UNL     1      -5.536  47.793 -28.012  1.00  0.00    -0.356 N 
HETATM   25  H20 UNL     1      -5.983  47.381 -27.201  1.00  0.00     0.162 HD
BRANCH  24  26
HETATM   26  C18 UNL     1      -6.339  47.917 -29.222  1.00  0.00     0.089 C 
HETATM   27  C19 UNL     1      -5.881  46.909 -30.281  1.00  0.00     0.051 C 
HETATM   28  C20 UNL     1      -6.727  45.643 -30.293  1.00  0.00     0.171 C 
HETATM   29  O6  UNL     1      -7.238  45.358 -28.996  1.00  0.00    -0.381 OA
HETATM   30  C21 UNL     1      -8.212  46.312 -28.533  1.00  0.00     0.055 C 
HETATM   31  C22 UNL     1      -8.259  46.155 -27.005  1.00  0.00     0.045 C 
HETATM   32  C23 UNL     1      -9.595  45.940 -29.088  1.00  0.00     0.045 C 
HETATM   33  C24 UNL     1      -7.835  47.756 -28.933  1.00  0.00     0.062 C 
ENDBRANCH  24  26
ENDBRANCH  21  22
ENDBRANCH  20  21
ENDBRANCH   2  20
TORSDOF 8
ENDMDL
MODEL 6
REMARK minimizedAffinity -8.56024742
REMARK  8 active torsions:
REMARK  status: ('A' for Active; 'I' for Inactive)
REMARK    1  A    between atoms: O1_2  and  C2_3 
REMARK    2  A    between atoms: C9_12  and  O4_13 
REMARK    3  A    between atoms: C10_14  and  C11_15 
REMARK    4  A    between atoms: C11_15  and  C12_16 
REMARK    5  A    between atoms: C13_17  and  C15_19 
REMARK    6  A    between atoms: C15_19  and  C16_20 
REMARK    7  A    between atoms: C16_20  and  C17_21 
REMARK       I    between atoms: C17_21  and  N1_23 
REMARK    8  A    between atoms: N1_23  and  C18_24 
ROOT
HETATM    1  C12 UNL     1      -3.804  49.987 -24.175  1.00  0.00    -0.020 C 
HETATM    2  C13 UNL     1      -2.949  50.680 -23.397  1.00  0.00    -0.087 C 
HETATM    3  C14 UNL     1      -3.389  51.955 -22.725  1.00  0.00     0.043 C 
ENDROOT
BRANCH   1   4
HETATM    4  C11 UNL     1      -3.543  48.710 -24.936  1.00  0.00     0.072 C 
BRANCH   4   5
HETATM    5  C10 UNL     1      -4.669  48.364 -25.888  1.00  0.00     0.013 A 
HETATM    6  C2  UNL     1      -5.919  47.883 -25.406  1.00  0.00     0.084 A 
HETATM    7  C3  UNL     1      -6.939  47.430 -26.272  1.00  0.00    -0.018 A 
HETATM    8  C4  UNL     1      -8.232  46.871 -25.755  1.00  0.00     0.052 C 
HETATM    9  C5  UNL     1      -6.712  47.555 -27.636  1.00  0.00    -0.006 A 
HETATM   10  C6  UNL     1      -5.518  48.062 -28.105  1.00  0.00     0.082 A 
HETATM   11  C8  UNL     1      -7.567  47.214 -28.794  1.00  0.00     0.219 A 
HETATM   12  C7  UNL     1      -5.551  48.079 -29.555  1.00  0.00     0.297 A 
HETATM   13  C9  UNL     1      -4.487  48.464 -27.273  1.00  0.00     0.091 A 
HETATM   14  O2  UNL     1      -4.651  48.469 -30.273  1.00  0.00    -0.259 OA
HETATM   15  O3  UNL     1      -6.764  47.586 -29.934  1.00  0.00    -0.313 OA
BRANCH   6  16
HETATM   16  O1  UNL     1      -6.108  47.786 -24.046  1.00  0.00    -0.355 OA
HETATM   17  C1  UNL     1      -6.963  48.836 -23.585  1.00  0.00     0.210 C 
ENDBRANCH   6  16
BRANCH  13  18
HETATM   18  O4  UNL     1      -3.317  48.954 -27.776  1.00  0.00    -0.359 OA
HETATM   19  H9  UNL     1      -3.343  48.921 -28.757  1.00  0.00     0.217 HD
ENDBRANCH  13  18
ENDBRANCH   4   5
ENDBRANCH   1   4
BRANCH   2  20
HETATM   20  C15 UNL     1      -1.527  50.254 -23.095  1.00  0.00     0.042 C 
BRANCH  20  21
HETATM   21  C16 UNL     1      -0.819  51.241 -22.170  1.00  0.00     0.107 C 
BRANCH  21  22
HETATM   22  C17 UNL     1       0.104  52.168 -22.932  1.00  0.00     0.218 C 
HETATM   23  O5  UNL     1       0.658  53.144 -22.439  1.00  0.00    -0.274 OA
HETATM   24  N1  UNL     1       0.252  51.803 -24.257  1.00  0.00    -0.356 N 
HETATM   25  H20 UNL     1      -0.408  51.137 -24.643  1.00  0.00     0.162 HD
BRANCH  24  26
HETATM   26  C18 UNL     1       0.995  52.627 -25.201  1.00  0.00     0.089 C 
HETATM   27  C19 UNL     1       1.810  51.752 -26.158  1.00  0.00     0.051 C 
HETATM   28  C20 UNL     1       1.104  51.518 -27.487  1.00  0.00     0.171 C 
HETATM   29  O6  UNL     1      -0.309  51.531 -27.323  1.00  0.00    -0.381 OA
HETATM   30  C21 UNL     1      -0.842  52.822 -26.975  1.00  0.00     0.055 C 
HETATM   31  C22 UNL     1      -2.224  52.554 -26.359  1.00  0.00     0.045 C 
HETATM   32  C23 UNL     1      -1.049  53.651 -28.251  1.00  0.00     0.045 C 
HETATM   33  C24 UNL     1       0.074  53.571 -25.981  1.00  0.00     0.062 C 
ENDBRANCH  24  26
ENDBRANCH  21  22
ENDBRANCH  20  21
ENDBRANCH   2  20
TORSDOF 8
ENDMDL
MODEL 7
REMARK minimizedAffinity -8.54716587
REMARK  8 active torsions:
REMARK  status: ('A' for Active; 'I' for Inactive)
REMARK    1  A    between atoms: O1_2  and  C2_3 
REMARK    2  A    between atoms: C9_12  and  O4_13 
REMARK    3  A    between atoms: C10_14  and  C11_15 
REMARK    4  A    between atoms: C11_15  and  C12_16 
REMARK    5  A    between atoms: C13_17  and  C15_19 
REMARK    6  A    between atoms: C15_19  and  C16_20 
REMARK    7  A    between atoms: C16_20  and  C17_21 
REMARK       I    between atoms: C17_21  and  N1_23 
REMARK    8  A    between atoms: N1_23  and  C18_24 
ROOT
HETATM    1  C12 UNL     1      -3.328  50.572 -23.124  1.00  0.00    -0.020 C 
HETATM    2  C13 UNL     1      -4.334  50.193 -23.936  1.00  0.00    -0.087 C 
HETATM    3  C14 UNL     1      -5.715  50.772 -23.763  1.00  0.00     0.043 C 
ENDROOT
BRANCH   1   4
HETATM    4  C11 UNL     1      -1.896  50.095 -23.133  1.00  0.00     0.072 C 
BRANCH   4   5
HETATM    5  C10 UNL     1      -1.018  50.883 -22.183  1.00  0.00     0.013 A 
HETATM    6  C2  UNL     1      -0.920  50.531 -20.808  1.00  0.00     0.084 A 
HETATM    7  C3  UNL     1      -0.216  51.321 -19.873  1.00  0.00    -0.018 A 
HETATM    8  C4  UNL     1      -0.164  50.974 -18.414  1.00  0.00     0.052 C 
HETATM    9  C5  UNL     1       0.465  52.427 -20.366  1.00  0.00    -0.006 A 
HETATM   10  C6  UNL     1       0.408  52.745 -21.707  1.00  0.00     0.082 A 
HETATM   11  C8  UNL     1       1.310  53.428 -19.679  1.00  0.00     0.219 A 
HETATM   12  C7  UNL     1       1.202  53.936 -21.942  1.00  0.00     0.297 A 
HETATM   13  C9  UNL     1      -0.319  52.011 -22.629  1.00  0.00     0.091 A 
HETATM   14  O2  UNL     1       1.356  54.475 -23.021  1.00  0.00    -0.259 OA
HETATM   15  O3  UNL     1       1.727  54.311 -20.742  1.00  0.00    -0.313 OA
BRANCH   6  16
HETATM   16  O1  UNL     1      -1.601  49.421 -20.361  1.00  0.00    -0.355 OA
HETATM   17  C1  UNL     1      -0.827  48.239 -20.580  1.00  0.00     0.210 C 
ENDBRANCH   6  16
BRANCH  13  18
HETATM   18  O4  UNL     1      -0.356  52.364 -23.947  1.00  0.00    -0.359 OA
HETATM   19  H9  UNL     1       0.153  53.192 -24.080  1.00  0.00     0.217 HD
ENDBRANCH  13  18
ENDBRANCH   4   5
ENDBRANCH   1   4
BRANCH   2  20
HETATM   20  C15 UNL     1      -4.188  49.215 -25.084  1.00  0.00     0.042 C 
BRANCH  20  21
HETATM   21  C16 UNL     1      -2.746  49.124 -25.576  1.00  0.00     0.107 C 
BRANCH  21  22
HETATM   22  C17 UNL     1      -2.528  49.925 -26.842  1.00  0.00     0.218 C 
HETATM   23  O5  UNL     1      -3.115  49.714 -27.898  1.00  0.00    -0.274 OA
HETATM   24  N1  UNL     1      -1.582  50.920 -26.688  1.00  0.00    -0.356 N 
HETATM   25  H20 UNL     1      -0.980  50.882 -25.872  1.00  0.00     0.162 HD
BRANCH  24  26
HETATM   26  C18 UNL     1      -1.127  51.727 -27.813  1.00  0.00     0.089 C 
HETATM   27  C19 UNL     1      -1.228  53.219 -27.484  1.00  0.00     0.051 C 
HETATM   28  C20 UNL     1       0.092  53.808 -27.005  1.00  0.00     0.171 C 
HETATM   29  O6  UNL     1       0.872  52.828 -26.331  1.00  0.00    -0.381 OA
HETATM   30  C21 UNL     1       1.357  51.779 -27.190  1.00  0.00     0.055 C 
HETATM   31  C22 UNL     1       1.709  50.606 -26.262  1.00  0.00     0.045 C 
HETATM   32  C23 UNL     1       2.649  52.239 -27.880  1.00  0.00     0.045 C 
HETATM   33  C24 UNL     1       0.299  51.362 -28.237  1.00  0.00     0.062 C 
ENDBRANCH  24  26
ENDBRANCH  21  22
ENDBRANCH  20  21
ENDBRANCH   2  20
TORSDOF 8
ENDMDL
MODEL 8
REMARK minimizedAffinity -8.53509521
REMARK  8 active torsions:
REMARK  status: ('A' for Active; 'I' for Inactive)
REMARK    1  A    between atoms: O1_2  and  C2_3 
REMARK    2  A    between atoms: C9_12  and  O4_13 
REMARK    3  A    between atoms: C10_14  and  C11_15 
REMARK    4  A    between atoms: C11_15  and  C12_16 
REMARK    5  A    between atoms: C13_17  and  C15_19 
REMARK    6  A    between atoms: C15_19  and  C16_20 
REMARK    7  A    between atoms: C16_20  and  C17_21 
REMARK       I    between atoms: C17_21  and  N1_23 
REMARK    8  A    between atoms: N1_23  and  C18_24 
ROOT
HETATM    1  C12 UNL     1      -1.165  50.916 -20.657  1.00  0.00    -0.020 C 
HETATM    2  C13 UNL     1      -1.429  51.011 -21.975  1.00  0.00    -0.087 C 
HETATM    3  C14 UNL     1      -1.558  49.769 -22.820  1.00  0.00     0.043 C 
ENDROOT
BRANCH   1   4
HETATM    4  C11 UNL     1      -0.985  52.035 -19.661  1.00  0.00     0.072 C 
BRANCH   4   5
HETATM    5  C10 UNL     1      -0.266  51.584 -18.407  1.00  0.00     0.013 A 
HETATM    6  C2  UNL     1      -0.762  50.507 -17.621  1.00  0.00     0.084 A 
HETATM    7  C3  UNL     1      -0.189  50.149 -16.381  1.00  0.00    -0.018 A 
HETATM    8  C4  UNL     1      -0.753  49.049 -15.530  1.00  0.00     0.052 C 
HETATM    9  C5  UNL     1       0.952  50.839 -15.989  1.00  0.00    -0.006 A 
HETATM   10  C6  UNL     1       1.461  51.854 -16.772  1.00  0.00     0.082 A 
HETATM   11  C8  UNL     1       1.803  50.695 -14.788  1.00  0.00     0.219 A 
HETATM   12  C7  UNL     1       2.643  52.395 -16.129  1.00  0.00     0.297 A 
HETATM   13  C9  UNL     1       0.883  52.252 -17.966  1.00  0.00     0.091 A 
HETATM   14  O2  UNL     1       3.325  53.302 -16.565  1.00  0.00    -0.259 OA
HETATM   15  O3  UNL     1       2.828  51.695 -14.975  1.00  0.00    -0.313 OA
BRANCH   6  16
HETATM   16  O1  UNL     1      -1.888  49.842 -18.050  1.00  0.00    -0.355 OA
HETATM   17  C1  UNL     1      -3.062  50.425 -17.478  1.00  0.00     0.210 C 
ENDBRANCH   6  16
BRANCH  13  18
HETATM   18  O4  UNL     1       1.414  53.267 -18.708  1.00  0.00    -0.359 OA
HETATM   19  H9  UNL     1       2.188  53.646 -18.239  1.00  0.00     0.217 HD
ENDBRANCH  13  18
ENDBRANCH   4   5
ENDBRANCH   1   4
BRANCH   2  20
HETATM   20  C15 UNL     1      -1.652  52.315 -22.713  1.00  0.00     0.042 C 
BRANCH  20  21
HETATM   21  C16 UNL     1      -3.060  52.408 -23.296  1.00  0.00     0.107 C 
BRANCH  21  22
HETATM   22  C17 UNL     1      -3.088  52.043 -24.766  1.00  0.00     0.218 C 
HETATM   23  O5  UNL     1      -3.987  51.402 -25.298  1.00  0.00    -0.274 OA
HETATM   24  N1  UNL     1      -1.978  52.501 -25.451  1.00  0.00    -0.356 N 
HETATM   25  H20 UNL     1      -1.180  52.812 -24.909  1.00  0.00     0.162 HD
BRANCH  24  26
HETATM   26  C18 UNL     1      -1.741  52.155 -26.846  1.00  0.00     0.089 C 
HETATM   27  C19 UNL     1      -1.695  53.415 -27.716  1.00  0.00     0.051 C 
HETATM   28  C20 UNL     1      -0.274  53.897 -27.979  1.00  0.00     0.171 C 
HETATM   29  O6  UNL     1       0.585  53.566 -26.894  1.00  0.00    -0.381 OA
HETATM   30  C21 UNL     1       0.818  52.153 -26.747  1.00  0.00     0.055 C 
HETATM   31  C22 UNL     1       1.306  51.956 -25.304  1.00  0.00     0.045 C 
HETATM   32  C23 UNL     1       1.950  51.721 -27.691  1.00  0.00     0.045 C 
HETATM   33  C24 UNL     1      -0.461  51.331 -27.019  1.00  0.00     0.062 C 
ENDBRANCH  24  26
ENDBRANCH  21  22
ENDBRANCH  20  21
ENDBRANCH   2  20
TORSDOF 8
ENDMDL
MODEL 9
REMARK minimizedAffinity -8.4650526
REMARK  8 active torsions:
REMARK  status: ('A' for Active; 'I' for Inactive)
REMARK    1  A    between atoms: O1_2  and  C2_3 
REMARK    2  A    between atoms: C9_12  and  O4_13 
REMARK    3  A    between atoms: C10_14  and  C11_15 
REMARK    4  A    between atoms: C11_15  and  C12_16 
REMARK    5  A    between atoms: C13_17  and  C15_19 
REMARK    6  A    between atoms: C15_19  and  C16_20 
REMARK    7  A    between atoms: C16_20  and  C17_21 
REMARK       I    between atoms: C17_21  and  N1_23 
REMARK    8  A    between atoms: N1_23  and  C18_24 
ROOT
HETATM    1  C12 UNL     1      -2.658  50.069 -26.933  1.00  0.00    -0.020 C 
HETATM    2  C13 UNL     1      -2.732  51.308 -26.407  1.00  0.00    -0.087 C 
HETATM    3  C14 UNL     1      -2.315  52.507 -27.218  1.00  0.00     0.043 C 
ENDROOT
BRANCH   1   4
HETATM    4  C11 UNL     1      -3.011  48.757 -26.276  1.00  0.00     0.072 C 
BRANCH   4   5
HETATM    5  C10 UNL     1      -4.452  48.358 -26.518  1.00  0.00     0.013 A 
HETATM    6  C2  UNL     1      -5.360  48.187 -25.436  1.00  0.00     0.084 A 
HETATM    7  C3  UNL     1      -6.670  47.691 -25.619  1.00  0.00    -0.018 A 
HETATM    8  C4  UNL     1      -7.603  47.459 -24.466  1.00  0.00     0.052 C 
HETATM    9  C5  UNL     1      -7.079  47.455 -26.925  1.00  0.00    -0.006 A 
HETATM   10  C6  UNL     1      -6.214  47.663 -27.979  1.00  0.00     0.082 A 
HETATM   11  C8  UNL     1      -8.372  46.975 -27.461  1.00  0.00     0.219 A 
HETATM   12  C7  UNL     1      -6.898  47.340 -29.218  1.00  0.00     0.297 A 
HETATM   13  C9  UNL     1      -4.912  48.101 -27.815  1.00  0.00     0.091 A 
HETATM   14  O2  UNL     1      -6.409  47.418 -30.329  1.00  0.00    -0.259 OA
HETATM   15  O3  UNL     1      -8.161  46.948 -28.889  1.00  0.00    -0.313 OA
BRANCH   6  16
HETATM   16  O1  UNL     1      -4.919  48.443 -24.157  1.00  0.00    -0.355 OA
HETATM   17  C1  UNL     1      -5.506  49.647 -23.657  1.00  0.00     0.210 C 
ENDBRANCH   6  16
BRANCH  13  18
HETATM   18  O4  UNL     1      -4.085  48.286 -28.884  1.00  0.00    -0.359 OA
HETATM   19  H9  UNL     1      -4.550  48.026 -29.708  1.00  0.00     0.217 HD
ENDBRANCH  13  18
ENDBRANCH   4   5
ENDBRANCH   1   4
BRANCH   2  20
HETATM   20  C15 UNL     1      -3.252  51.621 -25.019  1.00  0.00     0.042 C 
BRANCH  20  21
HETATM   21  C16 UNL     1      -2.339  52.591 -24.273  1.00  0.00     0.107 C 
BRANCH  21  22
HETATM   22  C17 UNL     1      -1.110  51.900 -23.721  1.00  0.00     0.218 C 
HETATM   23  O5  UNL     1      -0.699  50.813 -24.113  1.00  0.00    -0.274 OA
HETATM   24  N1  UNL     1      -0.500  52.621 -22.712  1.00  0.00    -0.356 N 
HETATM   25  H20 UNL     1      -1.021  53.382 -22.290  1.00  0.00     0.162 HD
BRANCH  24  26
HETATM   26  C18 UNL     1       0.623  52.083 -21.956  1.00  0.00     0.089 C 
HETATM   27  C19 UNL     1       1.335  53.195 -21.179  1.00  0.00     0.051 C 
HETATM   28  C20 UNL     1       0.879  53.284 -19.729  1.00  0.00     0.171 C 
HETATM   29  O6  UNL     1      -0.475  52.868 -19.593  1.00  0.00    -0.381 OA
HETATM   30  C21 UNL     1      -0.679  51.465 -19.839  1.00  0.00     0.055 C 
HETATM   31  C22 UNL     1      -2.176  51.306 -20.149  1.00  0.00     0.045 C 
HETATM   32  C23 UNL     1      -0.376  50.672 -18.559  1.00  0.00     0.045 C 
HETATM   33  C24 UNL     1       0.188  50.957 -21.013  1.00  0.00     0.062 C 
ENDBRANCH  24  26
ENDBRANCH  21  22
ENDBRANCH  20  21
ENDBRANCH   2  20
TORSDOF 8
ENDMDL
