MODEL 1
REMARK minimizedAffinity -10.1778851
REMARK CNNscore 0.130402878
REMARK CNNaffinity 6.41411448
REMARK  11 active torsions:
REMARK  status: ('A' for Active; 'I' for Inactive)
REMARK    1  A    between atoms: C13_13  and  S1_14 
REMARK    2  A    between atoms: C25_30  and  O5_31 
REMARK    3  A    between atoms: C31_37  and  C32_38 
REMARK    4  A    between atoms: C32_38  and  O6_39 
REMARK    5  A    between atoms: C40_47  and  C41_48 
REMARK    6  A    between atoms: C40_47  and  N1_63 
REMARK    7  A    between atoms: C41_48  and  C42_49 
REMARK    8  A    between atoms: C42_49  and  C43_50 
REMARK    9  A    between atoms: C42_49  and  C50_57 
REMARK   10  A    between atoms: C43_50  and  C44_51 
REMARK   11  A    between atoms: C50_57  and  O7_58 
REMARK       I    between atoms: C55_65  and  N2_66 
REMARK       I    between atoms: C55_65  and  N3_67 
ROOT
HETATM    1  C1  UNL     1     -10.240  39.031 -26.368  1.00  0.00     0.010 C 
HETATM    2  C2  UNL     1     -11.327  39.782 -25.599  1.00  0.00    -0.010 C 
HETATM    3  C3  UNL     1     -10.720  40.613 -24.474  1.00  0.00     0.009 C 
HETATM    4  C4  UNL     1     -11.770  41.355 -23.646  1.00  0.00     0.039 C 
HETATM    5  C5  UNL     1     -12.994  41.826 -24.391  1.00  0.00    -0.049 C 
HETATM    6  C6  UNL     1     -13.851  42.753 -23.773  1.00  0.00     0.044 C 
HETATM    7  C7  UNL     1     -15.014  43.190 -24.409  1.00  0.00     0.073 C 
HETATM    8  C8  UNL     1     -15.417  42.568 -25.586  1.00  0.00     0.037 C 
HETATM    9  C9  UNL     1     -14.554  41.684 -26.235  1.00  0.00     0.011 C 
HETATM   10  C10 UNL     1     -13.306  41.362 -25.678  1.00  0.00    -0.047 C 
HETATM   11  C11 UNL     1     -12.281  40.607 -26.500  1.00  0.00     0.024 C 
HETATM   12  C12 UNL     1     -11.664  41.439 -27.684  1.00  0.00     0.033 C 
HETATM   13  C13 UNL     1     -11.591  43.008 -27.630  1.00  0.00     0.139 C 
HETATM   14  C14 UNL     1     -11.708  43.630 -29.087  1.00  0.00     0.037 C 
HETATM   15  C15 UNL     1     -10.421  43.775 -29.910  1.00  0.00    -0.014 C 
HETATM   16  C16 UNL     1     -10.344  44.615 -30.966  1.00  0.00    -0.050 C 
HETATM   17  C17 UNL     1     -11.596  45.310 -31.425  1.00  0.00     0.042 C 
HETATM   18  C18 UNL     1     -12.177  46.029 -30.204  1.00  0.00    -0.001 C 
HETATM   19  C19 UNL     1     -11.208  47.064 -29.537  1.00  0.00     0.038 C 
HETATM   20  C20 UNL     1      -9.924  47.439 -30.328  1.00  0.00     0.130 C 
HETATM   21  O4  UNL     1      -9.008  46.345 -30.284  1.00  0.00    -0.371 OA
HETATM   22  C21 UNL     1      -9.108  45.390 -31.342  1.00  0.00     0.185 C 
HETATM   23  C22 UNL     1      -7.738  44.755 -31.553  1.00  0.00    -0.006 A 
HETATM   24  C23 UNL     1      -7.566  43.371 -31.709  1.00  0.00     0.014 A 
HETATM   25  C24 UNL     1      -6.298  42.833 -31.953  1.00  0.00     0.037 A 
HETATM   26  C25 UNL     1      -5.197  43.676 -32.072  1.00  0.00     0.067 A 
HETATM   27  C26 UNL     1      -5.332  45.053 -31.953  1.00  0.00     0.057 A 
HETATM   28  C27 UNL     1      -6.591  45.597 -31.693  1.00  0.00     0.029 A 
HETATM   29  C28 UNL     1      -6.723  47.021 -31.530  1.00  0.00    -0.066 C 
HETATM   30  C29 UNL     1      -7.159  48.102 -31.230  1.00  0.00    -0.101 C 
HETATM   31  C30 UNL     1      -8.039  49.175 -30.725  1.00  0.00     0.103 C 
HETATM   32  C31 UNL     1      -9.152  48.660 -29.747  1.00  0.00     0.049 C 
HETATM   33  C33 UNL     1     -12.701  44.891 -29.267  1.00  0.00     0.033 C 
HETATM   34  C34 UNL     1     -13.613  45.355 -28.138  1.00  0.00     0.073 A 
HETATM   35  C35 UNL     1     -15.004  45.259 -28.309  1.00  0.00     0.007 C 
HETATM   36  C36 UNL     1     -15.875  45.378 -27.227  1.00  0.00     0.010 C 
HETATM   37  C37 UNL     1     -15.377  45.573 -25.930  1.00  0.00    -0.005 C 
HETATM   38  C38 UNL     1     -14.006  45.860 -25.795  1.00  0.00     0.012 C 
HETATM   39  C39 UNL     1     -13.140  45.777 -26.893  1.00  0.00     0.133 A 
HETATM   40  C40 UNL     1     -16.265  45.283 -24.689  1.00  0.00     0.171 C 
HETATM   41  O8  UNL     1     -15.649  44.257 -23.827  1.00  0.00    -0.316 OA
HETATM   42 NA1  UNL     1     -13.155  45.483 -26.801  1.00  0.00    -0.397 Na
ATOM     43  HA1 UNL     1     -12.972  44.909 -25.978  1.00  0.00     0.155 HD
ENDROOT
BRANCH  40  44
HETATM   44  C41 UNL     1     -16.300  46.560 -23.771  1.00  0.00     0.075 C 
BRANCH  44  45
HETATM   45  C42 UNL     1     -15.682  46.485 -22.338  1.00  0.00     0.029 C 
BRANCH  45  46
HETATM   46  C43 UNL     1     -14.780  47.686 -21.928  1.00  0.00     0.046 C 
BRANCH  46  47
HETATM   47  C44 UNL     1     -13.383  47.437 -21.397  1.00  0.00    -0.058 A 
HETATM   48  C45 UNL     1     -12.467  46.699 -22.164  1.00  0.00     0.007 A 
HETATM   49  C46 UNL     1     -11.176  46.442 -21.696  1.00  0.00     0.001 A 
HETATM   50  C47 UNL     1     -10.776  46.930 -20.456  1.00  0.00     0.000 A 
HETATM   51  C48 UNL     1     -11.660  47.692 -19.698  1.00  0.00     0.001 A 
HETATM   52  C49 UNL     1     -12.950  47.948 -20.169  1.00  0.00     0.007 A 
ENDBRANCH  46  47
ENDBRANCH  45  46
BRANCH  45  53
HETATM   53  C50 UNL     1     -16.763  46.105 -21.276  1.00  0.00     0.062 C 
HETATM   54  C51 UNL     1     -16.600  46.875 -19.953  1.00  0.00     0.038 C 
HETATM   55  C52 UNL     1     -17.974  46.834 -19.277  1.00  0.00     0.003 C 
HETATM   56  C53 UNL     1     -18.970  46.409 -20.350  1.00  0.00     0.003 C 
HETATM   57  C54 UNL     1     -18.201  46.475 -21.664  1.00  0.00     0.038 C 
BRANCH  53  58
HETATM   58  O7  UNL     1     -16.692  44.714 -20.953  1.00  0.00    -0.389 OA
HETATM   59  H50 UNL     1     -17.056  44.212 -21.705  1.00  0.00     0.210 HD
ENDBRANCH  53  58
ENDBRANCH  45  53
ENDBRANCH  44  45
ENDBRANCH  40  44
BRANCH  40  60
HETATM   60  N1  UNL     1     -17.667  45.012 -25.080  1.00  0.00    -0.336 N 
HETATM   61  C55 UNL     1     -18.529  45.944 -25.197  1.00  0.00     0.124 C 
HETATM   62  N2  UNL     1     -19.783  45.645 -25.598  1.00  0.00    -0.279 NA
HETATM   63  N3  UNL     1     -18.434  47.273 -24.989  1.00  0.00    -0.279 NA
HETATM   64  H59 UNL     1     -20.482  46.126 -25.045  1.00  0.00     0.126 HD
HETATM   65  H60 UNL     1     -19.929  44.641 -25.581  1.00  0.00     0.126 HD
HETATM   66  H61 UNL     1     -17.489  47.573 -24.755  1.00  0.00     0.126 HD
HETATM   67  H62 UNL     1     -18.818  47.825 -25.745  1.00  0.00     0.126 HD
ATOM     68  H1  UNL     1     -17.952  44.050 -25.262  1.00  0.00     0.165 HD
ENDBRANCH  40  60
BRANCH  13  69
HETATM   69  S1  UNL     1     -10.148  43.611 -26.704  1.00  0.00     0.106 S 
HETATM   70  O1  UNL     1     -10.636  43.909 -25.361  1.00  0.00    -0.595 OA
HETATM   71  O2  UNL     1      -9.711  44.786 -27.456  1.00  0.00    -0.595 OA
HETATM   72  O3  UNL     1      -9.208  42.495 -26.715  1.00  0.00    -0.595 OA
ENDBRANCH  13  69
BRANCH  32  73
HETATM   73  C32 UNL     1      -8.557  48.353 -28.365  1.00  0.00     0.172 C 
BRANCH  73  74
HETATM   74  O6  UNL     1      -9.131  49.229 -27.389  1.00  0.00    -0.400 OA
HETATM   75  H34 UNL     1      -8.711  48.968 -26.549  1.00  0.00     0.209 HD
ENDBRANCH  73  74
ENDBRANCH  32  73
BRANCH  26  76
HETATM   76  O5  UNL     1      -3.947  43.173 -32.302  1.00  0.00    -0.361 OA
HETATM   77  H27 UNL     1      -3.986  42.213 -32.160  1.00  0.00     0.217 HD
ENDBRANCH  26  76
TORSDOF 11
ENDMDL
MODEL 2
REMARK minimizedAffinity -9.36640835
REMARK CNNscore 0.0931943506
REMARK CNNaffinity 6.68304682
REMARK  11 active torsions:
REMARK  status: ('A' for Active; 'I' for Inactive)
REMARK    1  A    between atoms: C13_13  and  S1_14 
REMARK    2  A    between atoms: C25_30  and  O5_31 
REMARK    3  A    between atoms: C31_37  and  C32_38 
REMARK    4  A    between atoms: C32_38  and  O6_39 
REMARK    5  A    between atoms: C40_47  and  C41_48 
REMARK    6  A    between atoms: C40_47  and  N1_63 
REMARK    7  A    between atoms: C41_48  and  C42_49 
REMARK    8  A    between atoms: C42_49  and  C43_50 
REMARK    9  A    between atoms: C42_49  and  C50_57 
REMARK   10  A    between atoms: C43_50  and  C44_51 
REMARK   11  A    between atoms: C50_57  and  O7_58 
REMARK       I    between atoms: C55_65  and  N2_66 
REMARK       I    between atoms: C55_65  and  N3_67 
ROOT
HETATM    1  C1  UNL     1      -8.660  45.751 -15.380  1.00  0.00     0.010 C 
HETATM    2  C2  UNL     1      -7.604  46.603 -16.086  1.00  0.00    -0.010 C 
HETATM    3  C3  UNL     1      -6.332  45.797 -16.330  1.00  0.00     0.009 C 
HETATM    4  C4  UNL     1      -5.227  46.616 -17.000  1.00  0.00     0.039 C 
HETATM    5  C5  UNL     1      -5.680  47.674 -17.975  1.00  0.00    -0.049 C 
HETATM    6  C6  UNL     1      -4.732  48.256 -18.833  1.00  0.00     0.044 C 
HETATM    7  C7  UNL     1      -5.097  49.265 -19.726  1.00  0.00     0.073 C 
HETATM    8  C8  UNL     1      -6.370  49.818 -19.640  1.00  0.00     0.037 C 
HETATM    9  C9  UNL     1      -7.335  49.218 -18.829  1.00  0.00     0.011 C 
HETATM   10  C10 UNL     1      -7.015  48.098 -18.045  1.00  0.00    -0.047 C 
HETATM   11  C11 UNL     1      -8.117  47.307 -17.369  1.00  0.00     0.024 C 
HETATM   12  C12 UNL     1      -9.030  46.494 -18.358  1.00  0.00     0.033 C 
HETATM   13  C13 UNL     1      -8.494  46.012 -19.756  1.00  0.00     0.139 C 
HETATM   14  C14 UNL     1      -9.668  45.963 -20.824  1.00  0.00     0.037 C 
HETATM   15  C15 UNL     1     -10.512  44.684 -20.904  1.00  0.00    -0.014 C 
HETATM   16  C16 UNL     1     -11.255  44.390 -21.995  1.00  0.00    -0.050 C 
HETATM   17  C17 UNL     1     -11.365  45.416 -23.088  1.00  0.00     0.042 C 
HETATM   18  C18 UNL     1      -9.935  45.786 -23.493  1.00  0.00    -0.001 C 
HETATM   19  C19 UNL     1      -9.064  44.579 -23.981  1.00  0.00     0.038 C 
HETATM   20  C20 UNL     1      -9.804  43.243 -24.262  1.00  0.00     0.130 C 
HETATM   21  O4  UNL     1     -10.184  42.646 -23.022  1.00  0.00    -0.371 OA
HETATM   22  C21 UNL     1     -11.474  42.994 -22.517  1.00  0.00     0.185 C 
HETATM   23  C22 UNL     1     -11.990  41.839 -21.666  1.00  0.00    -0.006 A 
HETATM   24  C23 UNL     1     -12.585  42.036 -20.411  1.00  0.00     0.014 A 
HETATM   25  C24 UNL     1     -13.093  40.954 -19.684  1.00  0.00     0.037 A 
HETATM   26  C25 UNL     1     -13.036  39.671 -20.220  1.00  0.00     0.067 A 
HETATM   27  C26 UNL     1     -12.482  39.439 -21.471  1.00  0.00     0.057 A 
HETATM   28  C27 UNL     1     -11.958  40.511 -22.196  1.00  0.00     0.029 A 
HETATM   29  C28 UNL     1     -11.347  40.265 -23.476  1.00  0.00    -0.066 C 
HETATM   30  C29 UNL     1     -10.688  40.402 -24.474  1.00  0.00    -0.101 C 
HETATM   31  C30 UNL     1      -9.799  40.969 -25.508  1.00  0.00     0.103 C 
HETATM   32  C31 UNL     1      -8.939  42.177 -24.997  1.00  0.00     0.049 C 
HETATM   33  C33 UNL     1      -9.359  46.591 -22.280  1.00  0.00     0.033 C 
HETATM   34  C34 UNL     1      -8.068  47.347 -22.564  1.00  0.00     0.073 A 
HETATM   35  C35 UNL     1      -8.140  48.716 -22.876  1.00  0.00     0.007 C 
HETATM   36  C36 UNL     1      -7.005  49.523 -22.851  1.00  0.00     0.010 C 
HETATM   37  C37 UNL     1      -5.760  48.991 -22.485  1.00  0.00    -0.005 C 
HETATM   38  C38 UNL     1      -5.660  47.592 -22.363  1.00  0.00     0.012 C 
HETATM   39  C39 UNL     1      -6.799  46.780 -22.428  1.00  0.00     0.133 A 
HETATM   40  C40 UNL     1      -4.600  49.923 -22.038  1.00  0.00     0.171 C 
HETATM   41  O8  UNL     1      -4.158  49.597 -20.669  1.00  0.00    -0.316 OA
HETATM   42 NA1  UNL     1      -6.803  46.871 -22.134  1.00  0.00    -0.397 Na
ATOM     43  HA1 UNL     1      -6.219  46.845 -21.298  1.00  0.00     0.155 HD
ENDROOT
BRANCH  40  44
HETATM   44  C41 UNL     1      -3.330  49.621 -22.915  1.00  0.00     0.075 C 
BRANCH  44  45
HETATM   45  C42 UNL     1      -2.193  50.689 -23.003  1.00  0.00     0.029 C 
BRANCH  45  46
HETATM   46  C43 UNL     1      -0.949  50.428 -22.106  1.00  0.00     0.046 C 
BRANCH  46  47
HETATM   47  C44 UNL     1      -0.353  51.556 -21.289  1.00  0.00    -0.058 A 
HETATM   48  C45 UNL     1       0.578  52.427 -21.878  1.00  0.00     0.007 A 
HETATM   49  C46 UNL     1       1.154  53.469 -21.148  1.00  0.00     0.001 A 
HETATM   50  C47 UNL     1       0.798  53.664 -19.816  1.00  0.00     0.000 A 
HETATM   51  C48 UNL     1      -0.147  52.831 -19.227  1.00  0.00     0.001 A 
HETATM   52  C49 UNL     1      -0.722  51.790 -19.960  1.00  0.00     0.007 A 
ENDBRANCH  46  47
ENDBRANCH  45  46
BRANCH  45  53
HETATM   53  C50 UNL     1      -1.851  51.028 -24.489  1.00  0.00     0.062 C 
HETATM   54  C51 UNL     1      -0.336  51.104 -24.753  1.00  0.00     0.038 C 
HETATM   55  C52 UNL     1      -0.165  50.877 -26.258  1.00  0.00     0.003 C 
HETATM   56  C53 UNL     1      -1.483  50.300 -26.760  1.00  0.00     0.003 C 
HETATM   57  C54 UNL     1      -2.279  49.961 -25.506  1.00  0.00     0.038 C 
BRANCH  53  58
HETATM   58  O7  UNL     1      -2.397  52.296 -24.862  1.00  0.00    -0.389 OA
HETATM   59  H50 UNL     1      -3.360  52.191 -24.963  1.00  0.00     0.210 HD
ENDBRANCH  53  58
ENDBRANCH  45  53
ENDBRANCH  44  45
ENDBRANCH  40  44
BRANCH  40  60
HETATM   60  N1  UNL     1      -4.934  51.348 -22.265  1.00  0.00    -0.336 N 
HETATM   61  C55 UNL     1      -5.256  51.792 -23.416  1.00  0.00     0.124 C 
HETATM   62  N2  UNL     1      -5.593  53.092 -23.557  1.00  0.00    -0.279 NA
HETATM   63  N3  UNL     1      -5.338  51.178 -24.614  1.00  0.00    -0.279 NA
HETATM   64  H59 UNL     1      -5.162  53.508 -24.374  1.00  0.00     0.126 HD
HETATM   65  H60 UNL     1      -5.362  53.610 -22.716  1.00  0.00     0.126 HD
HETATM   66  H61 UNL     1      -5.167  50.176 -24.560  1.00  0.00     0.126 HD
HETATM   67  H62 UNL     1      -6.198  51.379 -25.108  1.00  0.00     0.126 HD
ATOM     68  H1  UNL     1      -4.907  51.993 -21.476  1.00  0.00     0.165 HD
ENDBRANCH  40  60
BRANCH  13  69
HETATM   69  S1  UNL     1      -7.553  44.461 -19.648  1.00  0.00     0.106 S 
HETATM   70  O1  UNL     1      -8.042  43.784 -18.451  1.00  0.00    -0.595 OA
HETATM   71  O2  UNL     1      -6.160  44.898 -19.562  1.00  0.00    -0.595 OA
HETATM   72  O3  UNL     1      -7.891  43.737 -20.869  1.00  0.00    -0.595 OA
ENDBRANCH  13  69
BRANCH  32  73
HETATM   73  C32 UNL     1      -7.780  41.683 -24.121  1.00  0.00     0.172 C 
BRANCH  73  74
HETATM   74  O6  UNL     1      -8.226  41.543 -22.767  1.00  0.00    -0.400 OA
HETATM   75  H34 UNL     1      -7.442  41.222 -22.283  1.00  0.00     0.209 HD
ENDBRANCH  73  74
ENDBRANCH  32  73
BRANCH  26  76
HETATM   76  O5  UNL     1     -13.518  38.596 -19.525  1.00  0.00    -0.361 OA
HETATM   77  H27 UNL     1     -13.681  38.886 -18.613  1.00  0.00     0.217 HD
ENDBRANCH  26  76
TORSDOF 11
ENDMDL
MODEL 3
REMARK minimizedAffinity -9.41176128
REMARK CNNscore 0.0902464315
REMARK CNNaffinity 6.72678518
REMARK  11 active torsions:
REMARK  status: ('A' for Active; 'I' for Inactive)
REMARK    1  A    between atoms: C13_13  and  S1_14 
REMARK    2  A    between atoms: C25_30  and  O5_31 
REMARK    3  A    between atoms: C31_37  and  C32_38 
REMARK    4  A    between atoms: C32_38  and  O6_39 
REMARK    5  A    between atoms: C40_47  and  C41_48 
REMARK    6  A    between atoms: C40_47  and  N1_63 
REMARK    7  A    between atoms: C41_48  and  C42_49 
REMARK    8  A    between atoms: C42_49  and  C43_50 
REMARK    9  A    between atoms: C42_49  and  C50_57 
REMARK   10  A    between atoms: C43_50  and  C44_51 
REMARK   11  A    between atoms: C50_57  and  O7_58 
REMARK       I    between atoms: C55_65  and  N2_66 
REMARK       I    between atoms: C55_65  and  N3_67 
ROOT
HETATM    1  C1  UNL     1      -1.539  50.951  -2.960  1.00  0.00     0.010 C 
HETATM    2  C2  UNL     1      -0.326  51.879  -2.889  1.00  0.00    -0.010 C 
HETATM    3  C3  UNL     1       0.955  51.124  -3.227  1.00  0.00     0.009 C 
HETATM    4  C4  UNL     1       2.206  52.000  -3.132  1.00  0.00     0.039 C 
HETATM    5  C5  UNL     1       2.033  53.451  -3.505  1.00  0.00    -0.049 C 
HETATM    6  C6  UNL     1       3.177  54.237  -3.722  1.00  0.00     0.044 C 
HETATM    7  C7  UNL     1       3.067  55.593  -4.033  1.00  0.00     0.073 C 
HETATM    8  C8  UNL     1       1.823  56.208  -3.954  1.00  0.00     0.037 C 
HETATM    9  C9  UNL     1       0.674  55.432  -3.791  1.00  0.00     0.011 C 
HETATM   10  C10 UNL     1       0.766  54.039  -3.637  1.00  0.00    -0.047 C 
HETATM   11  C11 UNL     1      -0.483  53.184  -3.712  1.00  0.00     0.024 C 
HETATM   12  C12 UNL     1      -1.120  53.096  -5.146  1.00  0.00     0.033 C 
HETATM   13  C13 UNL     1      -0.249  53.286  -6.441  1.00  0.00     0.139 C 
HETATM   14  C14 UNL     1      -1.109  53.931  -7.611  1.00  0.00     0.037 C 
HETATM   15  C15 UNL     1      -1.920  52.988  -8.508  1.00  0.00    -0.014 C 
HETATM   16  C16 UNL     1      -2.361  53.371  -9.728  1.00  0.00    -0.050 C 
HETATM   17  C17 UNL     1      -2.173  54.804 -10.142  1.00  0.00     0.042 C 
HETATM   18  C18 UNL     1      -0.682  55.119  -9.984  1.00  0.00    -0.001 C 
HETATM   19  C19 UNL     1       0.270  54.194 -10.816  1.00  0.00     0.038 C 
HETATM   20  C20 UNL     1      -0.391  53.284 -11.888  1.00  0.00     0.130 C 
HETATM   21  O4  UNL     1      -1.085  52.219 -11.239  1.00  0.00    -0.371 OA
HETATM   22  C21 UNL     1      -2.457  52.455 -10.920  1.00  0.00     0.185 C 
HETATM   23  C22 UNL     1      -3.189  51.118 -10.907  1.00  0.00    -0.006 A 
HETATM   24  C23 UNL     1      -4.084  50.760  -9.888  1.00  0.00     0.014 A 
HETATM   25  C24 UNL     1      -4.776  49.545  -9.940  1.00  0.00     0.037 A 
HETATM   26  C25 UNL     1      -4.600  48.692 -11.026  1.00  0.00     0.067 A 
HETATM   27  C26 UNL     1      -3.746  49.025 -12.069  1.00  0.00     0.057 A 
HETATM   28  C27 UNL     1      -3.039  50.228 -12.016  1.00  0.00     0.029 A 
HETATM   29  C28 UNL     1      -2.122  50.554 -13.078  1.00  0.00    -0.066 C 
HETATM   30  C29 UNL     1      -1.227  51.065 -13.698  1.00  0.00    -0.101 C 
HETATM   31  C30 UNL     1      -0.094  51.933 -14.081  1.00  0.00     0.103 C 
HETATM   32  C31 UNL     1       0.620  52.602 -12.856  1.00  0.00     0.049 C 
HETATM   33  C33 UNL     1      -0.427  55.138  -8.440  1.00  0.00     0.033 C 
HETATM   34  C34 UNL     1       0.903  55.746  -8.014  1.00  0.00     0.073 A 
HETATM   35  C35 UNL     1       0.931  57.087  -7.596  1.00  0.00     0.007 C 
HETATM   36  C36 UNL     1       2.032  57.610  -6.919  1.00  0.00     0.010 C 
HETATM   37  C37 UNL     1       3.134  56.796  -6.616  1.00  0.00    -0.005 C 
HETATM   38  C38 UNL     1       3.181  55.519  -7.204  1.00  0.00     0.012 C 
HETATM   39  C39 UNL     1       2.087  55.012  -7.915  1.00  0.00     0.133 A 
HETATM   40  C40 UNL     1       4.151  57.217  -5.521  1.00  0.00     0.171 C 
HETATM   41  O8  UNL     1       4.222  56.207  -4.449  1.00  0.00    -0.316 OA
HETATM   42 NA1  UNL     1       2.008  54.947  -7.625  1.00  0.00    -0.397 Na
ATOM     43  HA1 UNL     1       2.357  54.434  -6.815  1.00  0.00     0.155 HD
ENDROOT
BRANCH  40  44
HETATM   44  C41 UNL     1       5.600  57.205  -6.132  1.00  0.00     0.075 C 
BRANCH  44  45
HETATM   45  C42 UNL     1       6.736  56.435  -5.385  1.00  0.00     0.029 C 
BRANCH  45  46
HETATM   46  C43 UNL     1       7.386  55.259  -6.171  1.00  0.00     0.046 C 
BRANCH  46  47
HETATM   47  C44 UNL     1       6.694  54.691  -7.392  1.00  0.00    -0.058 A 
HETATM   48  C45 UNL     1       6.680  55.424  -8.590  1.00  0.00     0.007 A 
HETATM   49  C46 UNL     1       6.040  54.933  -9.730  1.00  0.00     0.001 A 
HETATM   50  C47 UNL     1       5.411  53.691  -9.693  1.00  0.00     0.000 A 
HETATM   51  C48 UNL     1       5.444  52.937  -8.525  1.00  0.00     0.001 A 
HETATM   52  C49 UNL     1       6.086  53.431  -7.387  1.00  0.00     0.007 A 
ENDBRANCH  46  47
ENDBRANCH  45  46
BRANCH  45  53
HETATM   53  C50 UNL     1       7.764  57.423  -4.746  1.00  0.00     0.062 C 
HETATM   54  C51 UNL     1       9.224  57.069  -5.083  1.00  0.00     0.038 C 
HETATM   55  C52 UNL     1      10.019  58.365  -4.893  1.00  0.00     0.003 C 
HETATM   56  C53 UNL     1       8.998  59.494  -4.844  1.00  0.00     0.003 C 
HETATM   57  C54 UNL     1       7.677  58.864  -5.268  1.00  0.00     0.038 C 
BRANCH  53  58
HETATM   58  O7  UNL     1       7.658  57.419  -3.320  1.00  0.00    -0.389 OA
HETATM   59  H50 UNL     1       6.842  57.893  -3.078  1.00  0.00     0.210 HD
ENDBRANCH  53  58
ENDBRANCH  45  53
ENDBRANCH  44  45
ENDBRANCH  40  44
BRANCH  40  60
HETATM   60  N1  UNL     1       3.905  58.603  -5.059  1.00  0.00    -0.336 N 
HETATM   61  C55 UNL     1       4.286  59.011  -3.913  1.00  0.00     0.124 C 
HETATM   62  N2  UNL     1       4.074  60.298  -3.560  1.00  0.00    -0.279 NA
HETATM   63  N3  UNL     1       4.910  58.371  -2.904  1.00  0.00    -0.279 NA
HETATM   64  H59 UNL     1       3.726  60.378  -2.612  1.00  0.00     0.126 HD
HETATM   65  H60 UNL     1       3.447  60.746  -4.220  1.00  0.00     0.126 HD
HETATM   66  H61 UNL     1       5.165  57.414  -3.138  1.00  0.00     0.126 HD
HETATM   67  H62 UNL     1       5.701  58.883  -2.533  1.00  0.00     0.126 HD
ATOM     68  H1  UNL     1       3.417  59.250  -5.677  1.00  0.00     0.165 HD
ENDBRANCH  40  60
BRANCH  13  69
HETATM   69  S1  UNL     1       0.612  51.765  -6.936  1.00  0.00     0.106 S 
HETATM   70  O1  UNL     1      -0.169  50.667  -6.375  1.00  0.00    -0.595 OA
HETATM   71  O2  UNL     1       1.946  51.909  -6.355  1.00  0.00    -0.595 OA
HETATM   72  O3  UNL     1       0.578  51.778  -8.395  1.00  0.00    -0.595 OA
ENDBRANCH  13  69
BRANCH  32  73
HETATM   73  C32 UNL     1       1.509  51.585 -12.126  1.00  0.00     0.172 C 
BRANCH  73  74
HETATM   74  O6  UNL     1       2.437  51.007 -13.051  1.00  0.00    -0.400 OA
HETATM   75  H34 UNL     1       2.962  50.386 -12.514  1.00  0.00     0.209 HD
ENDBRANCH  73  74
ENDBRANCH  32  73
BRANCH  26  76
HETATM   76  O5  UNL     1      -5.258  47.497 -11.097  1.00  0.00    -0.361 OA
HETATM   77  H27 UNL     1      -5.647  47.324 -10.223  1.00  0.00     0.217 HD
ENDBRANCH  26  76
TORSDOF 11
ENDMDL
MODEL 4
REMARK minimizedAffinity -9.22410297
REMARK CNNscore 0.0900443792
REMARK CNNaffinity 7.01304245
REMARK  11 active torsions:
REMARK  status: ('A' for Active; 'I' for Inactive)
REMARK    1  A    between atoms: C13_13  and  S1_14 
REMARK    2  A    between atoms: C25_30  and  O5_31 
REMARK    3  A    between atoms: C31_37  and  C32_38 
REMARK    4  A    between atoms: C32_38  and  O6_39 
REMARK    5  A    between atoms: C40_47  and  C41_48 
REMARK    6  A    between atoms: C40_47  and  N1_63 
REMARK    7  A    between atoms: C41_48  and  C42_49 
REMARK    8  A    between atoms: C42_49  and  C43_50 
REMARK    9  A    between atoms: C42_49  and  C50_57 
REMARK   10  A    between atoms: C43_50  and  C44_51 
REMARK   11  A    between atoms: C50_57  and  O7_58 
REMARK       I    between atoms: C55_65  and  N2_66 
REMARK       I    between atoms: C55_65  and  N3_67 
ROOT
HETATM    1  C1  UNL     1       6.699  48.143  -8.362  1.00  0.00     0.010 C 
HETATM    2  C2  UNL     1       5.350  47.774  -8.980  1.00  0.00    -0.010 C 
HETATM    3  C3  UNL     1       4.294  47.576  -7.899  1.00  0.00     0.009 C 
HETATM    4  C4  UNL     1       2.933  47.166  -8.463  1.00  0.00     0.039 C 
HETATM    5  C5  UNL     1       2.571  47.736  -9.812  1.00  0.00    -0.049 C 
HETATM    6  C6  UNL     1       1.241  47.643 -10.254  1.00  0.00     0.044 C 
HETATM    7  C7  UNL     1       0.868  48.123 -11.510  1.00  0.00     0.073 C 
HETATM    8  C8  UNL     1       1.854  48.536 -12.399  1.00  0.00     0.037 C 
HETATM    9  C9  UNL     1       3.170  48.681 -11.957  1.00  0.00     0.011 C 
HETATM   10  C10 UNL     1       3.524  48.350 -10.639  1.00  0.00    -0.047 C 
HETATM   11  C11 UNL     1       4.884  48.743 -10.098  1.00  0.00     0.024 C 
HETATM   12  C12 UNL     1       5.070  50.288  -9.878  1.00  0.00     0.033 C 
HETATM   13  C13 UNL     1       3.840  51.229  -9.603  1.00  0.00     0.139 C 
HETATM   14  C14 UNL     1       4.100  52.684 -10.186  1.00  0.00     0.037 C 
HETATM   15  C15 UNL     1       4.843  53.690  -9.297  1.00  0.00    -0.014 C 
HETATM   16  C16 UNL     1       4.780  55.021  -9.525  1.00  0.00    -0.050 C 
HETATM   17  C17 UNL     1       4.082  55.506 -10.764  1.00  0.00     0.042 C 
HETATM   18  C18 UNL     1       2.678  54.893 -10.751  1.00  0.00    -0.001 C 
HETATM   19  C19 UNL     1       1.825  55.249  -9.486  1.00  0.00     0.038 C 
HETATM   20  C20 UNL     1       2.370  56.372  -8.561  1.00  0.00     0.130 C 
HETATM   21  O4  UNL     1       3.495  55.877  -7.834  1.00  0.00    -0.371 OA
HETATM   22  C21 UNL     1       4.776  56.065  -8.438  1.00  0.00     0.185 C 
HETATM   23  C22 UNL     1       5.825  56.149  -7.336  1.00  0.00    -0.006 A 
HETATM   24  C23 UNL     1       7.043  55.456  -7.402  1.00  0.00     0.014 A 
HETATM   25  C24 UNL     1       8.002  55.601  -6.395  1.00  0.00     0.037 A 
HETATM   26  C25 UNL     1       7.763  56.462  -5.327  1.00  0.00     0.067 A 
HETATM   27  C26 UNL     1       6.583  57.188  -5.242  1.00  0.00     0.057 A 
HETATM   28  C27 UNL     1       5.614  57.036  -6.235  1.00  0.00     0.029 A 
HETATM   29  C28 UNL     1       4.372  57.758  -6.125  1.00  0.00    -0.066 C 
HETATM   30  C29 UNL     1       3.228  58.096  -6.283  1.00  0.00    -0.101 C 
HETATM   31  C30 UNL     1       1.837  58.171  -6.772  1.00  0.00     0.103 C 
HETATM   32  C31 UNL     1       1.355  56.861  -7.487  1.00  0.00     0.049 C 
HETATM   33  C33 UNL     1       2.894  53.366 -11.015  1.00  0.00     0.033 C 
HETATM   34  C34 UNL     1       1.632  52.589 -11.371  1.00  0.00     0.073 A 
HETATM   35  C35 UNL     1       1.351  52.339 -12.725  1.00  0.00     0.007 C 
HETATM   36  C36 UNL     1       0.396  51.396 -13.102  1.00  0.00     0.010 C 
HETATM   37  C37 UNL     1      -0.291  50.652 -12.132  1.00  0.00    -0.005 C 
HETATM   38  C38 UNL     1      -0.146  51.042 -10.788  1.00  0.00     0.012 C 
HETATM   39  C39 UNL     1       0.787  52.018 -10.418  1.00  0.00     0.133 A 
HETATM   40  C40 UNL     1      -1.018  49.333 -12.514  1.00  0.00     0.171 C 
HETATM   41  O8  UNL     1      -0.482  48.194 -11.746  1.00  0.00    -0.316 OA
HETATM   42 NA1  UNL     1       0.962  51.765 -10.431  1.00  0.00    -0.397 Na
ATOM     43  HA1 UNL     1       1.026  50.833 -10.021  1.00  0.00     0.155 HD
ENDROOT
BRANCH  40  44
HETATM   44  C41 UNL     1      -2.517  49.417 -12.047  1.00  0.00     0.075 C 
BRANCH  44  45
HETATM   45  C42 UNL     1      -2.916  48.831 -10.655  1.00  0.00     0.029 C 
BRANCH  45  46
HETATM   46  C43 UNL     1      -3.369  49.872  -9.589  1.00  0.00     0.046 C 
BRANCH  46  47
HETATM   47  C44 UNL     1      -3.399  51.346  -9.934  1.00  0.00    -0.058 A 
HETATM   48  C45 UNL     1      -2.606  52.248  -9.206  1.00  0.00     0.007 A 
HETATM   49  C46 UNL     1      -2.622  53.615  -9.492  1.00  0.00     0.001 A 
HETATM   50  C47 UNL     1      -3.423  54.101 -10.521  1.00  0.00     0.000 A 
HETATM   51  C48 UNL     1      -4.189  53.217 -11.274  1.00  0.00     0.001 A 
HETATM   52  C49 UNL     1      -4.171  51.850 -10.986  1.00  0.00     0.007 A 
ENDBRANCH  46  47
ENDBRANCH  45  46
BRANCH  45  53
HETATM   53  C50 UNL     1      -3.880  47.612 -10.809  1.00  0.00     0.062 C 
HETATM   54  C51 UNL     1      -4.824  47.744 -12.018  1.00  0.00     0.038 C 
HETATM   55  C52 UNL     1      -5.266  46.317 -12.357  1.00  0.00     0.003 C 
HETATM   56  C53 UNL     1      -4.304  45.384 -11.632  1.00  0.00     0.003 C 
HETATM   57  C54 UNL     1      -3.184  46.279 -11.117  1.00  0.00     0.038 C 
BRANCH  53  58
HETATM   58  O7  UNL     1      -4.710  47.468  -9.654  1.00  0.00    -0.389 OA
HETATM   59  H50 UNL     1      -4.159  47.118  -8.930  1.00  0.00     0.210 HD
ENDBRANCH  53  58
ENDBRANCH  45  53
ENDBRANCH  44  45
ENDBRANCH  40  44
BRANCH  40  60
HETATM   60  N1  UNL     1      -1.048  49.139 -13.982  1.00  0.00    -0.336 N 
HETATM   61  C55 UNL     1      -1.972  49.631 -14.710  1.00  0.00     0.124 C 
HETATM   62  N2  UNL     1      -1.926  49.459 -16.049  1.00  0.00    -0.279 NA
HETATM   63  N3  UNL     1      -3.068  50.347 -14.391  1.00  0.00    -0.279 NA
HETATM   64  H59 UNL     1      -2.830  49.205 -16.429  1.00  0.00     0.126 HD
HETATM   65  H60 UNL     1      -1.220  48.773 -16.293  1.00  0.00     0.126 HD
HETATM   66  H61 UNL     1      -3.120  50.574 -13.400  1.00  0.00     0.126 HD
HETATM   67  H62 UNL     1      -3.188  51.172 -14.964  1.00  0.00     0.126 HD
ATOM     68  H1  UNL     1      -0.307  48.595 -14.424  1.00  0.00     0.165 HD
ENDBRANCH  40  60
BRANCH  13  69
HETATM   69  S1  UNL     1       3.337  51.233  -7.857  1.00  0.00     0.106 S 
HETATM   70  O1  UNL     1       2.246  50.269  -7.757  1.00  0.00    -0.595 OA
HETATM   71  O2  UNL     1       2.939  52.617  -7.607  1.00  0.00    -0.595 OA
HETATM   72  O3  UNL     1       4.525  50.799  -7.129  1.00  0.00    -0.595 OA
ENDBRANCH  13  69
BRANCH  32  73
HETATM   73  C32 UNL     1       1.045  55.766  -6.456  1.00  0.00     0.172 C 
BRANCH  73  74
HETATM   74  O6  UNL     1      -0.369  55.547  -6.398  1.00  0.00    -0.400 OA
HETATM   75  H34 UNL     1      -0.481  54.842  -5.735  1.00  0.00     0.209 HD
ENDBRANCH  73  74
ENDBRANCH  32  73
BRANCH  26  76
HETATM   76  O5  UNL     1       8.681  56.614  -4.326  1.00  0.00    -0.361 OA
HETATM   77  H27 UNL     1       9.341  55.909  -4.423  1.00  0.00     0.217 HD
ENDBRANCH  26  76
TORSDOF 11
ENDMDL
MODEL 5
REMARK minimizedAffinity -8.64546204
REMARK CNNscore 0.0807747915
REMARK CNNaffinity 7.09113932
REMARK  11 active torsions:
REMARK  status: ('A' for Active; 'I' for Inactive)
REMARK    1  A    between atoms: C13_13  and  S1_14 
REMARK    2  A    between atoms: C25_30  and  O5_31 
REMARK    3  A    between atoms: C31_37  and  C32_38 
REMARK    4  A    between atoms: C32_38  and  O6_39 
REMARK    5  A    between atoms: C40_47  and  C41_48 
REMARK    6  A    between atoms: C40_47  and  N1_63 
REMARK    7  A    between atoms: C41_48  and  C42_49 
REMARK    8  A    between atoms: C42_49  and  C43_50 
REMARK    9  A    between atoms: C42_49  and  C50_57 
REMARK   10  A    between atoms: C43_50  and  C44_51 
REMARK   11  A    between atoms: C50_57  and  O7_58 
REMARK       I    between atoms: C55_65  and  N2_66 
REMARK       I    between atoms: C55_65  and  N3_67 
ROOT
HETATM    1  C1  UNL     1       6.260  47.798  -7.306  1.00  0.00     0.010 C 
HETATM    2  C2  UNL     1       5.037  47.600  -8.202  1.00  0.00    -0.010 C 
HETATM    3  C3  UNL     1       3.757  47.570  -7.375  1.00  0.00     0.009 C 
HETATM    4  C4  UNL     1       2.505  47.335  -8.222  1.00  0.00     0.039 C 
HETATM    5  C5  UNL     1       2.522  47.918  -9.613  1.00  0.00    -0.049 C 
HETATM    6  C6  UNL     1       1.318  47.994 -10.332  1.00  0.00     0.044 C 
HETATM    7  C7  UNL     1       1.291  48.493 -11.635  1.00  0.00     0.073 C 
HETATM    8  C8  UNL     1       2.492  48.749 -12.288  1.00  0.00     0.037 C 
HETATM    9  C9  UNL     1       3.690  48.726 -11.572  1.00  0.00     0.011 C 
HETATM   10  C10 UNL     1       3.705  48.379 -10.211  1.00  0.00    -0.047 C 
HETATM   11  C11 UNL     1       4.958  48.598  -9.387  1.00  0.00     0.024 C 
HETATM   12  C12 UNL     1       5.301  50.109  -9.121  1.00  0.00     0.033 C 
HETATM   13  C13 UNL     1       4.181  51.212  -9.111  1.00  0.00     0.139 C 
HETATM   14  C14 UNL     1       4.755  52.605  -9.614  1.00  0.00     0.037 C 
HETATM   15  C15 UNL     1       5.421  53.521  -8.578  1.00  0.00    -0.014 C 
HETATM   16  C16 UNL     1       5.589  54.844  -8.804  1.00  0.00    -0.050 C 
HETATM   17  C17 UNL     1       5.246  55.391 -10.162  1.00  0.00     0.042 C 
HETATM   18  C18 UNL     1       3.802  54.973 -10.456  1.00  0.00    -0.001 C 
HETATM   19  C19 UNL     1       2.754  55.468  -9.401  1.00  0.00     0.038 C 
HETATM   20  C20 UNL     1       3.236  56.528  -8.372  1.00  0.00     0.130 C 
HETATM   21  O4  UNL     1       4.101  55.902  -7.424  1.00  0.00    -0.371 OA
HETATM   22  C21 UNL     1       5.494  55.903  -7.737  1.00  0.00     0.185 C 
HETATM   23  C22 UNL     1       6.285  55.870  -6.434  1.00  0.00    -0.006 A 
HETATM   24  C23 UNL     1       7.383  55.018  -6.242  1.00  0.00     0.014 A 
HETATM   25  C24 UNL     1       8.114  55.055  -5.050  1.00  0.00     0.037 A 
HETATM   26  C25 UNL     1       7.772  55.964  -4.053  1.00  0.00     0.067 A 
HETATM   27  C26 UNL     1       6.710  56.844  -4.219  1.00  0.00     0.057 A 
HETATM   28  C27 UNL     1       5.965  56.802  -5.398  1.00  0.00     0.029 A 
HETATM   29  C28 UNL     1       4.839  57.686  -5.552  1.00  0.00    -0.066 C 
HETATM   30  C29 UNL     1       3.813  58.171  -5.951  1.00  0.00    -0.101 C 
HETATM   31  C30 UNL     1       2.582  58.422  -6.728  1.00  0.00     0.103 C 
HETATM   32  C31 UNL     1       2.090  57.173  -7.539  1.00  0.00     0.049 C 
HETATM   33  C33 UNL     1       3.859  53.425 -10.678  1.00  0.00     0.033 C 
HETATM   34  C34 UNL     1       2.609  52.817 -11.303  1.00  0.00     0.073 A 
HETATM   35  C35 UNL     1       2.593  52.577 -12.687  1.00  0.00     0.007 C 
HETATM   36  C36 UNL     1       1.622  51.763 -13.268  1.00  0.00     0.010 C 
HETATM   37  C37 UNL     1       0.648  51.140 -12.474  1.00  0.00    -0.005 C 
HETATM   38  C38 UNL     1       0.553  51.537 -11.128  1.00  0.00     0.012 C 
HETATM   39  C39 UNL     1       1.510  52.386 -10.558  1.00  0.00     0.133 A 
HETATM   40  C40 UNL     1      -0.152  49.922 -13.013  1.00  0.00     0.171 C 
HETATM   41  O8  UNL     1       0.046  48.739 -12.156  1.00  0.00    -0.316 OA
HETATM   42 NA1  UNL     1       1.647  52.112 -10.535  1.00  0.00    -0.397 Na
ATOM     43  HA1 UNL     1       1.495  51.189 -10.128  1.00  0.00     0.155 HD
ENDROOT
BRANCH  40  44
HETATM   44  C41 UNL     1      -1.691  50.218 -12.880  1.00  0.00     0.075 C 
BRANCH  44  45
HETATM   45  C42 UNL     1      -2.272  50.621 -11.486  1.00  0.00     0.029 C 
BRANCH  45  46
HETATM   46  C43 UNL     1      -1.446  50.159 -10.250  1.00  0.00     0.046 C 
BRANCH  46  47
HETATM   47  C44 UNL     1      -2.133  49.448  -9.103  1.00  0.00    -0.058 A 
HETATM   48  C45 UNL     1      -1.546  49.454  -7.827  1.00  0.00     0.007 A 
HETATM   49  C46 UNL     1      -2.149  48.797  -6.752  1.00  0.00     0.001 A 
HETATM   50  C47 UNL     1      -3.358  48.132  -6.934  1.00  0.00     0.000 A 
HETATM   51  C48 UNL     1      -3.971  48.144  -8.183  1.00  0.00     0.001 A 
HETATM   52  C49 UNL     1      -3.365  48.803  -9.256  1.00  0.00     0.007 A 
ENDBRANCH  46  47
ENDBRANCH  45  46
BRANCH  45  53
HETATM   53  C50 UNL     1      -2.676  52.130 -11.458  1.00  0.00     0.062 C 
HETATM   54  C51 UNL     1      -4.169  52.345 -11.146  1.00  0.00     0.038 C 
HETATM   55  C52 UNL     1      -4.279  53.776 -10.610  1.00  0.00     0.003 C 
HETATM   56  C53 UNL     1      -2.863  54.213 -10.254  1.00  0.00     0.003 C 
HETATM   57  C54 UNL     1      -2.016  52.949 -10.340  1.00  0.00     0.038 C 
BRANCH  53  58
HETATM   58  O7  UNL     1      -2.427  52.749 -12.722  1.00  0.00    -0.389 OA
HETATM   59  H50 UNL     1      -1.463  52.866 -12.814  1.00  0.00     0.210 HD
ENDBRANCH  53  58
ENDBRANCH  45  53
ENDBRANCH  44  45
ENDBRANCH  40  44
BRANCH  40  60
HETATM   60  N1  UNL     1       0.106  49.701 -14.454  1.00  0.00    -0.336 N 
HETATM   61  C55 UNL     1      -0.155  48.592 -15.026  1.00  0.00     0.124 C 
HETATM   62  N2  UNL     1       0.061  48.460 -16.353  1.00  0.00    -0.279 NA
HETATM   63  N3  UNL     1      -0.645  47.435 -14.538  1.00  0.00    -0.279 NA
HETATM   64  H59 UNL     1       0.510  47.580 -16.577  1.00  0.00     0.126 HD
HETATM   65  H60 UNL     1       0.598  49.247 -16.703  1.00  0.00     0.126 HD
HETATM   66  H61 UNL     1      -0.899  47.494 -13.554  1.00  0.00     0.126 HD
HETATM   67  H62 UNL     1      -1.403  47.056 -15.091  1.00  0.00     0.126 HD
ATOM     68  H1  UNL     1       0.505  50.460 -15.007  1.00  0.00     0.165 HD
ENDBRANCH  40  60
BRANCH  13  69
HETATM   69  S1  UNL     1       3.321  51.322  -7.514  1.00  0.00     0.106 S 
HETATM   70  O1  UNL     1       2.115  50.512  -7.657  1.00  0.00    -0.595 OA
HETATM   71  O2  UNL     1       3.065  52.753  -7.348  1.00  0.00    -0.595 OA
HETATM   72  O3  UNL     1       4.257  50.754  -6.549  1.00  0.00    -0.595 OA
ENDBRANCH  13  69
BRANCH  32  73
HETATM   73  C32 UNL     1       1.420  56.153  -6.607  1.00  0.00     0.172 C 
BRANCH  73  74
HETATM   74  O6  UNL     1      -0.002  56.300  -6.678  1.00  0.00    -0.400 OA
HETATM   75  H34 UNL     1      -0.349  55.620  -6.070  1.00  0.00     0.209 HD
ENDBRANCH  73  74
ENDBRANCH  32  73
BRANCH  26  76
HETATM   76  O5  UNL     1       8.466  56.014  -2.877  1.00  0.00    -0.361 OA
HETATM   77  H27 UNL     1       9.029  55.224  -2.834  1.00  0.00     0.217 HD
ENDBRANCH  26  76
TORSDOF 11
ENDMDL
MODEL 6
REMARK minimizedAffinity -10.6740189
REMARK CNNscore 0.0773284882
REMARK CNNaffinity 6.40733957
REMARK  11 active torsions:
REMARK  status: ('A' for Active; 'I' for Inactive)
REMARK    1  A    between atoms: C13_13  and  S1_14 
REMARK    2  A    between atoms: C25_30  and  O5_31 
REMARK    3  A    between atoms: C31_37  and  C32_38 
REMARK    4  A    between atoms: C32_38  and  O6_39 
REMARK    5  A    between atoms: C40_47  and  C41_48 
REMARK    6  A    between atoms: C40_47  and  N1_63 
REMARK    7  A    between atoms: C41_48  and  C42_49 
REMARK    8  A    between atoms: C42_49  and  C43_50 
REMARK    9  A    between atoms: C42_49  and  C50_57 
REMARK   10  A    between atoms: C43_50  and  C44_51 
REMARK   11  A    between atoms: C50_57  and  O7_58 
REMARK       I    between atoms: C55_65  and  N2_66 
REMARK       I    between atoms: C55_65  and  N3_67 
ROOT
HETATM    1  C1  UNL     1      -9.918  39.194 -26.286  1.00  0.00     0.010 C 
HETATM    2  C2  UNL     1     -11.002  39.978 -25.544  1.00  0.00    -0.010 C 
HETATM    3  C3  UNL     1     -10.389  40.860 -24.462  1.00  0.00     0.009 C 
HETATM    4  C4  UNL     1     -11.436  41.636 -23.662  1.00  0.00     0.039 C 
HETATM    5  C5  UNL     1     -12.666  42.071 -24.420  1.00  0.00    -0.049 C 
HETATM    6  C6  UNL     1     -13.520  43.024 -23.839  1.00  0.00     0.044 C 
HETATM    7  C7  UNL     1     -14.687  43.429 -24.487  1.00  0.00     0.073 C 
HETATM    8  C8  UNL     1     -15.097  42.754 -25.631  1.00  0.00     0.037 C 
HETATM    9  C9  UNL     1     -14.236  41.844 -26.245  1.00  0.00     0.011 C 
HETATM   10  C10 UNL     1     -12.984  41.549 -25.682  1.00  0.00    -0.047 C 
HETATM   11  C11 UNL     1     -11.963  40.760 -26.476  1.00  0.00     0.024 C 
HETATM   12  C12 UNL     1     -11.355  41.538 -27.700  1.00  0.00     0.033 C 
HETATM   13  C13 UNL     1     -11.285  43.109 -27.717  1.00  0.00     0.139 C 
HETATM   14  C14 UNL     1     -11.412  43.664 -29.200  1.00  0.00     0.037 C 
HETATM   15  C15 UNL     1     -10.130  43.773 -30.036  1.00  0.00    -0.014 C 
HETATM   16  C16 UNL     1     -10.061  44.565 -31.130  1.00  0.00    -0.050 C 
HETATM   17  C17 UNL     1     -11.317  45.237 -31.612  1.00  0.00     0.042 C 
HETATM   18  C18 UNL     1     -11.892  46.009 -30.421  1.00  0.00    -0.001 C 
HETATM   19  C19 UNL     1     -10.921  47.075 -29.807  1.00  0.00     0.038 C 
HETATM   20  C20 UNL     1      -9.643  47.416 -30.622  1.00  0.00     0.130 C 
HETATM   21  O4  UNL     1      -8.724  46.326 -30.535  1.00  0.00    -0.371 OA
HETATM   22  C21 UNL     1      -8.829  45.325 -31.548  1.00  0.00     0.185 C 
HETATM   23  C22 UNL     1      -7.459  44.683 -31.739  1.00  0.00    -0.006 A 
HETATM   24  C23 UNL     1      -7.286  43.294 -31.833  1.00  0.00     0.014 A 
HETATM   25  C24 UNL     1      -6.018  42.747 -32.061  1.00  0.00     0.037 A 
HETATM   26  C25 UNL     1      -4.920  43.586 -32.224  1.00  0.00     0.067 A 
HETATM   27  C26 UNL     1      -5.056  44.966 -32.167  1.00  0.00     0.057 A 
HETATM   28  C27 UNL     1      -6.314  45.519 -31.924  1.00  0.00     0.029 A 
HETATM   29  C28 UNL     1      -6.448  46.950 -31.824  1.00  0.00    -0.066 C 
HETATM   30  C29 UNL     1      -6.885  48.042 -31.571  1.00  0.00    -0.101 C 
HETATM   31  C30 UNL     1      -7.764  49.135 -31.109  1.00  0.00     0.103 C 
HETATM   32  C31 UNL     1      -8.869  48.664 -30.102  1.00  0.00     0.049 C 
HETATM   33  C33 UNL     1     -12.408  44.914 -29.430  1.00  0.00     0.033 C 
HETATM   34  C34 UNL     1     -13.314  45.427 -28.317  1.00  0.00     0.073 A 
HETATM   35  C35 UNL     1     -14.706  45.320 -28.475  1.00  0.00     0.007 C 
HETATM   36  C36 UNL     1     -15.570  45.487 -27.394  1.00  0.00     0.010 C 
HETATM   37  C37 UNL     1     -15.064  45.741 -26.110  1.00  0.00    -0.005 C 
HETATM   38  C38 UNL     1     -13.693  46.036 -25.998  1.00  0.00     0.012 C 
HETATM   39  C39 UNL     1     -12.835  45.905 -27.096  1.00  0.00     0.133 A 
HETATM   40  C40 UNL     1     -15.944  45.506 -24.852  1.00  0.00     0.171 C 
HETATM   41  O8  UNL     1     -15.321  44.521 -23.949  1.00  0.00    -0.316 OA
HETATM   42 NA1  UNL     1     -12.848  45.615 -26.991  1.00  0.00    -0.397 Na
ATOM     43  HA1 UNL     1     -12.659  45.080 -26.144  1.00  0.00     0.155 HD
ENDROOT
BRANCH  40  44
HETATM   44  C41 UNL     1     -15.976  46.823 -23.993  1.00  0.00     0.075 C 
BRANCH  44  45
HETATM   45  C42 UNL     1     -15.925  46.717 -22.435  1.00  0.00     0.029 C 
BRANCH  45  46
HETATM   46  C43 UNL     1     -16.633  45.475 -21.818  1.00  0.00     0.046 C 
BRANCH  46  47
HETATM   47  C44 UNL     1     -17.680  45.658 -20.740  1.00  0.00    -0.058 A 
HETATM   48  C45 UNL     1     -18.162  44.540 -20.039  1.00  0.00     0.007 A 
HETATM   49  C46 UNL     1     -19.136  44.675 -19.047  1.00  0.00     0.001 A 
HETATM   50  C47 UNL     1     -19.638  45.934 -18.732  1.00  0.00     0.000 A 
HETATM   51  C48 UNL     1     -19.148  47.056 -19.393  1.00  0.00     0.001 A 
HETATM   52  C49 UNL     1     -18.173  46.918 -20.384  1.00  0.00     0.007 A 
ENDBRANCH  46  47
ENDBRANCH  45  46
BRANCH  45  53
HETATM   53  C50 UNL     1     -14.479  46.962 -21.898  1.00  0.00     0.062 C 
HETATM   54  C51 UNL     1     -14.426  48.011 -20.773  1.00  0.00     0.038 C 
HETATM   55  C52 UNL     1     -13.130  47.731 -20.005  1.00  0.00     0.003 C 
HETATM   56  C53 UNL     1     -12.672  46.340 -20.425  1.00  0.00     0.003 C 
HETATM   57  C54 UNL     1     -13.838  45.749 -21.208  1.00  0.00     0.038 C 
BRANCH  53  58
HETATM   58  O7  UNL     1     -13.621  47.434 -22.940  1.00  0.00    -0.389 OA
HETATM   59  H50 UNL     1     -13.424  46.683 -23.530  1.00  0.00     0.210 HD
ENDBRANCH  53  58
ENDBRANCH  45  53
ENDBRANCH  44  45
ENDBRANCH  40  44
BRANCH  40  60
HETATM   60  N1  UNL     1     -17.349  45.215 -25.222  1.00  0.00    -0.336 N 
HETATM   61  C55 UNL     1     -18.247  46.120 -25.231  1.00  0.00     0.124 C 
HETATM   62  N2  UNL     1     -19.502  45.808 -25.618  1.00  0.00    -0.279 NA
HETATM   63  N3  UNL     1     -18.192  47.429 -24.912  1.00  0.00    -0.279 NA
HETATM   64  H59 UNL     1     -20.199  46.213 -25.005  1.00  0.00     0.126 HD
HETATM   65  H60 UNL     1     -19.611  44.801 -25.684  1.00  0.00     0.126 HD
HETATM   66  H61 UNL     1     -17.251  47.744 -24.682  1.00  0.00     0.126 HD
HETATM   67  H62 UNL     1     -18.622  48.029 -25.605  1.00  0.00     0.126 HD
ATOM     68  H1  UNL     1     -17.605  44.262 -25.477  1.00  0.00     0.165 HD
ENDBRANCH  40  60
BRANCH  13  69
HETATM   69  S1  UNL     1      -9.837  43.755 -26.828  1.00  0.00     0.106 S 
HETATM   70  O1  UNL     1      -9.641  42.862 -25.690  1.00  0.00    -0.595 OA
HETATM   71  O2  UNL     1     -10.227  45.116 -26.462  1.00  0.00    -0.595 OA
HETATM   72  O3  UNL     1      -8.744  43.672 -27.790  1.00  0.00    -0.595 OA
ENDBRANCH  13  69
BRANCH  32  73
HETATM   73  C32 UNL     1      -8.266  48.419 -28.711  1.00  0.00     0.172 C 
BRANCH  73  74
HETATM   74  O6  UNL     1      -6.838  48.493 -28.788  1.00  0.00    -0.400 OA
HETATM   75  H34 UNL     1      -6.535  48.335 -27.874  1.00  0.00     0.209 HD
ENDBRANCH  73  74
ENDBRANCH  32  73
BRANCH  26  76
HETATM   76  O5  UNL     1      -3.670  43.076 -32.439  1.00  0.00    -0.361 OA
HETATM   77  H27 UNL     1      -3.706  42.123 -32.255  1.00  0.00     0.217 HD
ENDBRANCH  26  76
TORSDOF 11
ENDMDL
MODEL 7
REMARK minimizedAffinity -9.73268032
REMARK CNNscore 0.0772942156
REMARK CNNaffinity 6.15177536
REMARK  11 active torsions:
REMARK  status: ('A' for Active; 'I' for Inactive)
REMARK    1  A    between atoms: C13_13  and  S1_14 
REMARK    2  A    between atoms: C25_30  and  O5_31 
REMARK    3  A    between atoms: C31_37  and  C32_38 
REMARK    4  A    between atoms: C32_38  and  O6_39 
REMARK    5  A    between atoms: C40_47  and  C41_48 
REMARK    6  A    between atoms: C40_47  and  N1_63 
REMARK    7  A    between atoms: C41_48  and  C42_49 
REMARK    8  A    between atoms: C42_49  and  C43_50 
REMARK    9  A    between atoms: C42_49  and  C50_57 
REMARK   10  A    between atoms: C43_50  and  C44_51 
REMARK   11  A    between atoms: C50_57  and  O7_58 
REMARK       I    between atoms: C55_65  and  N2_66 
REMARK       I    between atoms: C55_65  and  N3_67 
ROOT
HETATM    1  C1  UNL     1     -12.517  41.562 -15.471  1.00  0.00     0.010 C 
HETATM    2  C2  UNL     1     -11.153  42.039 -15.968  1.00  0.00    -0.010 C 
HETATM    3  C3  UNL     1     -10.712  41.243 -17.192  1.00  0.00     0.009 C 
HETATM    4  C4  UNL     1      -9.332  41.655 -17.707  1.00  0.00     0.039 C 
HETATM    5  C5  UNL     1      -8.971  43.111 -17.551  1.00  0.00    -0.049 C 
HETATM    6  C6  UNL     1      -7.861  43.613 -18.252  1.00  0.00     0.044 C 
HETATM    7  C7  UNL     1      -7.468  44.945 -18.111  1.00  0.00     0.073 C 
HETATM    8  C8  UNL     1      -8.070  45.731 -17.136  1.00  0.00     0.037 C 
HETATM    9  C9  UNL     1      -9.204  45.262 -16.469  1.00  0.00     0.011 C 
HETATM   10  C10 UNL     1      -9.704  43.975 -16.725  1.00  0.00    -0.047 C 
HETATM   11  C11 UNL     1     -11.064  43.571 -16.192  1.00  0.00     0.024 C 
HETATM   12  C12 UNL     1     -12.272  44.300 -16.884  1.00  0.00     0.033 C 
HETATM   13  C13 UNL     1     -12.163  44.849 -18.354  1.00  0.00     0.139 C 
HETATM   14  C14 UNL     1     -13.070  46.139 -18.545  1.00  0.00     0.037 C 
HETATM   15  C15 UNL     1     -14.543  45.930 -18.920  1.00  0.00    -0.014 C 
HETATM   16  C16 UNL     1     -15.283  46.920 -19.469  1.00  0.00    -0.050 C 
HETATM   17  C17 UNL     1     -14.681  48.294 -19.575  1.00  0.00     0.042 C 
HETATM   18  C18 UNL     1     -13.351  48.139 -20.318  1.00  0.00    -0.001 C 
HETATM   19  C19 UNL     1     -13.473  47.500 -21.743  1.00  0.00     0.038 C 
HETATM   20  C20 UNL     1     -14.903  47.365 -22.335  1.00  0.00     0.130 C 
HETATM   21  O4  UNL     1     -15.597  46.319 -21.655  1.00  0.00    -0.371 OA
HETATM   22  C21 UNL     1     -16.354  46.700 -20.506  1.00  0.00     0.185 C 
HETATM   23  C22 UNL     1     -17.510  45.721 -20.338  1.00  0.00    -0.006 A 
HETATM   24  C23 UNL     1     -17.848  45.160 -19.097  1.00  0.00     0.014 A 
HETATM   25  C24 UNL     1     -18.949  44.306 -18.977  1.00  0.00     0.037 A 
HETATM   26  C25 UNL     1     -19.737  44.028 -20.090  1.00  0.00     0.067 A 
HETATM   27  C26 UNL     1     -19.452  44.587 -21.329  1.00  0.00     0.057 A 
HETATM   28  C27 UNL     1     -18.346  45.427 -21.461  1.00  0.00     0.029 A 
HETATM   29  C28 UNL     1     -18.027  45.974 -22.754  1.00  0.00    -0.066 C 
HETATM   30  C29 UNL     1     -17.425  46.484 -23.663  1.00  0.00    -0.101 C 
HETATM   31  C30 UNL     1     -16.368  47.135 -24.463  1.00  0.00     0.103 C 
HETATM   32  C31 UNL     1     -14.935  46.982 -23.844  1.00  0.00     0.049 C 
HETATM   33  C33 UNL     1     -12.406  47.391 -19.319  1.00  0.00     0.033 C 
HETATM   34  C34 UNL     1     -10.930  47.403 -19.697  1.00  0.00     0.073 A 
HETATM   35  C35 UNL     1     -10.088  48.357 -19.101  1.00  0.00     0.007 C 
HETATM   36  C36 UNL     1      -8.701  48.236 -19.167  1.00  0.00     0.010 C 
HETATM   37  C37 UNL     1      -8.111  47.140 -19.812  1.00  0.00    -0.005 C 
HETATM   38  C38 UNL     1      -8.950  46.300 -20.568  1.00  0.00     0.012 C 
HETATM   39  C39 UNL     1     -10.342  46.449 -20.529  1.00  0.00     0.133 A 
HETATM   40  C40 UNL     1      -6.630  46.760 -19.536  1.00  0.00     0.171 C 
HETATM   41  O8  UNL     1      -6.527  45.388 -19.006  1.00  0.00    -0.316 OA
HETATM   42 NA1  UNL     1     -10.290  46.279 -20.277  1.00  0.00    -0.397 Na
ATOM     43  HA1 UNL     1      -9.876  45.387 -20.006  1.00  0.00     0.155 HD
ENDROOT
BRANCH  40  44
HETATM   44  C41 UNL     1      -5.854  46.686 -20.902  1.00  0.00     0.075 C 
BRANCH  44  45
HETATM   45  C42 UNL     1      -4.935  47.877 -21.322  1.00  0.00     0.029 C 
BRANCH  45  46
HETATM   46  C43 UNL     1      -3.405  47.642 -21.158  1.00  0.00     0.046 C 
BRANCH  46  47
HETATM   47  C44 UNL     1      -2.489  48.806 -20.846  1.00  0.00    -0.058 A 
HETATM   48  C45 UNL     1      -3.013  49.967 -20.254  1.00  0.00     0.007 A 
HETATM   49  C46 UNL     1      -2.195  51.062 -19.966  1.00  0.00     0.001 A 
HETATM   50  C47 UNL     1      -0.835  51.009 -20.253  1.00  0.00     0.000 A 
HETATM   51  C48 UNL     1      -0.292  49.854 -20.808  1.00  0.00     0.001 A 
HETATM   52  C49 UNL     1      -1.112  48.760 -21.095  1.00  0.00     0.007 A 
ENDBRANCH  46  47
ENDBRANCH  45  46
BRANCH  45  53
HETATM   53  C50 UNL     1      -5.349  48.446 -22.717  1.00  0.00     0.062 C 
HETATM   54  C51 UNL     1      -4.190  48.450 -23.731  1.00  0.00     0.038 C 
HETATM   55  C52 UNL     1      -4.849  48.479 -25.114  1.00  0.00     0.003 C 
HETATM   56  C53 UNL     1      -6.310  48.102 -24.903  1.00  0.00     0.003 C 
HETATM   57  C54 UNL     1      -6.398  47.610 -23.464  1.00  0.00     0.038 C 
BRANCH  53  58
HETATM   58  O7  UNL     1      -5.801  49.798 -22.604  1.00  0.00    -0.389 OA
HETATM   59  H50 UNL     1      -6.684  49.786 -22.192  1.00  0.00     0.210 HD
ENDBRANCH  53  58
ENDBRANCH  45  53
ENDBRANCH  44  45
ENDBRANCH  40  44
BRANCH  40  60
HETATM   60  N1  UNL     1      -5.949  47.797 -18.725  1.00  0.00    -0.336 N 
HETATM   61  C55 UNL     1      -4.960  47.522 -17.970  1.00  0.00     0.124 C 
HETATM   62  N2  UNL     1      -4.350  48.514 -17.286  1.00  0.00    -0.279 NA
HETATM   63  N3  UNL     1      -4.348  46.352 -17.697  1.00  0.00    -0.279 NA
HETATM   64  H59 UNL     1      -4.158  48.251 -16.327  1.00  0.00     0.126 HD
HETATM   65  H60 UNL     1      -4.902  49.365 -17.330  1.00  0.00     0.126 HD
HETATM   66  H61 UNL     1      -4.717  45.575 -18.241  1.00  0.00     0.126 HD
HETATM   67  H62 UNL     1      -3.340  46.403 -17.763  1.00  0.00     0.126 HD
ATOM     68  H1  UNL     1      -6.282  48.759 -18.774  1.00  0.00     0.165 HD
ENDBRANCH  40  60
BRANCH  13  69
HETATM   69  S1  UNL     1     -12.465  43.565 -19.605  1.00  0.00     0.106 S 
HETATM   70  O1  UNL     1     -13.156  44.236 -20.701  1.00  0.00    -0.595 OA
HETATM   71  O2  UNL     1     -13.277  42.572 -18.903  1.00  0.00    -0.595 OA
HETATM   72  O3  UNL     1     -11.136  43.103 -19.990  1.00  0.00    -0.595 OA
ENDBRANCH  13  69
BRANCH  32  73
HETATM   73  C32 UNL     1     -14.391  45.566 -24.083  1.00  0.00     0.172 C 
BRANCH  73  74
HETATM   74  O6  UNL     1     -15.426  44.740 -24.628  1.00  0.00    -0.400 OA
HETATM   75  H34 UNL     1     -15.003  43.871 -24.756  1.00  0.00     0.209 HD
ENDBRANCH  73  74
ENDBRANCH  32  73
BRANCH  26  76
HETATM   76  O5  UNL     1     -20.813  43.190 -19.999  1.00  0.00    -0.361 OA
HETATM   77  H27 UNL     1     -20.760  42.735 -19.143  1.00  0.00     0.217 HD
ENDBRANCH  26  76
TORSDOF 11
ENDMDL
MODEL 8
REMARK minimizedAffinity -8.56346607
REMARK CNNscore 0.0724783018
REMARK CNNaffinity 6.73494577
REMARK  11 active torsions:
REMARK  status: ('A' for Active; 'I' for Inactive)
REMARK    1  A    between atoms: C13_13  and  S1_14 
REMARK    2  A    between atoms: C25_30  and  O5_31 
REMARK    3  A    between atoms: C31_37  and  C32_38 
REMARK    4  A    between atoms: C32_38  and  O6_39 
REMARK    5  A    between atoms: C40_47  and  C41_48 
REMARK    6  A    between atoms: C40_47  and  N1_63 
REMARK    7  A    between atoms: C41_48  and  C42_49 
REMARK    8  A    between atoms: C42_49  and  C43_50 
REMARK    9  A    between atoms: C42_49  and  C50_57 
REMARK   10  A    between atoms: C43_50  and  C44_51 
REMARK   11  A    between atoms: C50_57  and  O7_58 
REMARK       I    between atoms: C55_65  and  N2_66 
REMARK       I    between atoms: C55_65  and  N3_67 
ROOT
HETATM    1  C1  UNL     1       6.460  47.837  -6.173  1.00  0.00     0.010 C 
HETATM    2  C2  UNL     1       5.276  47.571  -7.103  1.00  0.00    -0.010 C 
HETATM    3  C3  UNL     1       3.959  47.635  -6.338  1.00  0.00     0.009 C 
HETATM    4  C4  UNL     1       2.743  47.336  -7.216  1.00  0.00     0.039 C 
HETATM    5  C5  UNL     1       2.833  47.786  -8.653  1.00  0.00    -0.049 C 
HETATM    6  C6  UNL     1       1.664  47.809  -9.432  1.00  0.00     0.044 C 
HETATM    7  C7  UNL     1       1.705  48.183 -10.776  1.00  0.00     0.073 C 
HETATM    8  C8  UNL     1       2.938  48.362 -11.393  1.00  0.00     0.037 C 
HETATM    9  C9  UNL     1       4.102  48.392 -10.622  1.00  0.00     0.011 C 
HETATM   10  C10 UNL     1       4.049  48.174  -9.236  1.00  0.00    -0.047 C 
HETATM   11  C11 UNL     1       5.267  48.454  -8.378  1.00  0.00     0.024 C 
HETATM   12  C12 UNL     1       5.623  49.979  -8.239  1.00  0.00     0.033 C 
HETATM   13  C13 UNL     1       4.522  51.092  -8.384  1.00  0.00     0.139 C 
HETATM   14  C14 UNL     1       5.141  52.425  -8.987  1.00  0.00     0.037 C 
HETATM   15  C15 UNL     1       5.774  53.426  -8.011  1.00  0.00    -0.014 C 
HETATM   16  C16 UNL     1       5.975  54.719  -8.351  1.00  0.00    -0.050 C 
HETATM   17  C17 UNL     1       5.702  55.140  -9.769  1.00  0.00     0.042 C 
HETATM   18  C18 UNL     1       4.267  54.714 -10.089  1.00  0.00    -0.001 C 
HETATM   19  C19 UNL     1       3.180  55.319  -9.136  1.00  0.00     0.038 C 
HETATM   20  C20 UNL     1       3.633  56.464  -8.189  1.00  0.00     0.130 C 
HETATM   21  O4  UNL     1       4.443  55.920  -7.147  1.00  0.00    -0.371 OA
HETATM   22  C21 UNL     1       5.849  55.875  -7.393  1.00  0.00     0.185 C 
HETATM   23  C22 UNL     1       6.579  55.954  -6.057  1.00  0.00    -0.006 A 
HETATM   24  C23 UNL     1       7.653  55.110  -5.735  1.00  0.00     0.014 A 
HETATM   25  C24 UNL     1       8.330  55.250  -4.519  1.00  0.00     0.037 A 
HETATM   26  C25 UNL     1       7.957  56.253  -3.628  1.00  0.00     0.067 A 
HETATM   27  C26 UNL     1       6.919  57.126  -3.925  1.00  0.00     0.057 A 
HETATM   28  C27 UNL     1       6.228  56.983  -5.128  1.00  0.00     0.029 A 
HETATM   29  C28 UNL     1       5.125  57.863  -5.417  1.00  0.00    -0.066 C 
HETATM   30  C29 UNL     1       4.126  58.321  -5.907  1.00  0.00    -0.101 C 
HETATM   31  C30 UNL     1       2.936  58.513  -6.760  1.00  0.00     0.103 C 
HETATM   32  C31 UNL     1       2.461  57.200  -7.473  1.00  0.00     0.049 C 
HETATM   33  C33 UNL     1       4.308  53.151 -10.164  1.00  0.00     0.033 C 
HETATM   34  C34 UNL     1       3.078  52.503 -10.787  1.00  0.00     0.073 A 
HETATM   35  C35 UNL     1       3.121  52.134 -12.142  1.00  0.00     0.007 C 
HETATM   36  C36 UNL     1       2.164  51.281 -12.689  1.00  0.00     0.010 C 
HETATM   37  C37 UNL     1       1.144  50.747 -11.887  1.00  0.00    -0.005 C 
HETATM   38  C38 UNL     1       0.995  51.270 -10.589  1.00  0.00     0.012 C 
HETATM   39  C39 UNL     1       1.939  52.158 -10.057  1.00  0.00     0.133 A 
HETATM   40  C40 UNL     1       0.349  49.495 -12.347  1.00  0.00     0.171 C 
HETATM   41  O8  UNL     1       0.489  48.394 -11.375  1.00  0.00    -0.316 OA
HETATM   42 NA1  UNL     1       2.071  51.885 -10.003  1.00  0.00    -0.397 Na
ATOM     43  HA1 UNL     1       1.884  51.007  -9.519  1.00  0.00     0.155 HD
ENDROOT
BRANCH  40  44
HETATM   44  C41 UNL     1      -1.189  49.820 -12.314  1.00  0.00     0.075 C 
BRANCH  44  45
HETATM   45  C42 UNL     1      -1.720  51.073 -13.082  1.00  0.00     0.029 C 
BRANCH  45  46
HETATM   46  C43 UNL     1      -2.690  50.781 -14.263  1.00  0.00     0.046 C 
BRANCH  46  47
HETATM   47  C44 UNL     1      -2.175  50.790 -15.687  1.00  0.00    -0.058 A 
HETATM   48  C45 UNL     1      -0.818  51.057 -15.936  1.00  0.00     0.007 A 
HETATM   49  C46 UNL     1      -0.315  51.085 -17.238  1.00  0.00     0.001 A 
HETATM   50  C47 UNL     1      -1.160  50.834 -18.315  1.00  0.00     0.000 A 
HETATM   51  C48 UNL     1      -2.500  50.534 -18.085  1.00  0.00     0.001 A 
HETATM   52  C49 UNL     1      -2.999  50.506 -16.781  1.00  0.00     0.007 A 
ENDBRANCH  46  47
ENDBRANCH  45  46
BRANCH  45  53
HETATM   53  C50 UNL     1      -2.229  52.169 -12.092  1.00  0.00     0.062 C 
HETATM   54  C51 UNL     1      -3.591  52.759 -12.500  1.00  0.00     0.038 C 
HETATM   55  C52 UNL     1      -4.189  53.348 -11.218  1.00  0.00     0.003 C 
HETATM   56  C53 UNL     1      -3.388  52.764 -10.061  1.00  0.00     0.003 C 
HETATM   57  C54 UNL     1      -2.534  51.662 -10.675  1.00  0.00     0.038 C 
BRANCH  53  58
HETATM   58  O7  UNL     1      -1.310  53.263 -12.025  1.00  0.00    -0.389 OA
HETATM   59  H50 UNL     1      -0.531  52.970 -11.518  1.00  0.00     0.210 HD
ENDBRANCH  53  58
ENDBRANCH  45  53
ENDBRANCH  44  45
ENDBRANCH  40  44
BRANCH  40  60
HETATM   60  N1  UNL     1       0.669  49.136 -13.748  1.00  0.00    -0.336 N 
HETATM   61  C55 UNL     1       0.411  47.983 -14.227  1.00  0.00     0.124 C 
HETATM   62  N2  UNL     1       0.685  47.725 -15.524  1.00  0.00    -0.279 NA
HETATM   63  N3  UNL     1      -0.126  46.885 -13.658  1.00  0.00    -0.279 NA
HETATM   64  H59 UNL     1       1.125  46.820 -15.644  1.00  0.00     0.126 HD
HETATM   65  H60 UNL     1       1.254  48.466 -15.919  1.00  0.00     0.126 HD
HETATM   66  H61 UNL     1      -0.424  47.040 -12.697  1.00  0.00     0.126 HD
HETATM   67  H62 UNL     1      -0.866  46.470 -14.210  1.00  0.00     0.126 HD
ATOM     68  H1  UNL     1       1.110  49.833 -14.348  1.00  0.00     0.165 HD
ENDBRANCH  40  60
BRANCH  13  69
HETATM   69  S1  UNL     1       3.592  51.362  -6.846  1.00  0.00     0.106 S 
HETATM   70  O1  UNL     1       3.306  52.793  -6.802  1.00  0.00    -0.595 OA
HETATM   71  O2  UNL     1       4.501  50.900  -5.798  1.00  0.00    -0.595 OA
HETATM   72  O3  UNL     1       2.381  50.561  -6.999  1.00  0.00    -0.595 OA
ENDBRANCH  13  69
BRANCH  32  73
HETATM   73  C32 UNL     1       1.733  56.280  -6.483  1.00  0.00     0.172 C 
BRANCH  73  74
HETATM   74  O6  UNL     1       1.190  57.060  -5.412  1.00  0.00    -0.400 OA
HETATM   75  H34 UNL     1       0.744  56.411  -4.838  1.00  0.00     0.209 HD
ENDBRANCH  73  74
ENDBRANCH  32  73
BRANCH  26  76
HETATM   76  O5  UNL     1       8.598  56.405  -2.431  1.00  0.00    -0.361 OA
HETATM   77  H27 UNL     1       9.146  55.615  -2.288  1.00  0.00     0.217 HD
ENDBRANCH  26  76
TORSDOF 11
ENDMDL
MODEL 9
REMARK minimizedAffinity -10.017519
REMARK CNNscore 0.0683688149
REMARK CNNaffinity 7.38362551
REMARK  11 active torsions:
REMARK  status: ('A' for Active; 'I' for Inactive)
REMARK    1  A    between atoms: C13_13  and  S1_14 
REMARK    2  A    between atoms: C25_30  and  O5_31 
REMARK    3  A    between atoms: C31_37  and  C32_38 
REMARK    4  A    between atoms: C32_38  and  O6_39 
REMARK    5  A    between atoms: C40_47  and  C41_48 
REMARK    6  A    between atoms: C40_47  and  N1_63 
REMARK    7  A    between atoms: C41_48  and  C42_49 
REMARK    8  A    between atoms: C42_49  and  C43_50 
REMARK    9  A    between atoms: C42_49  and  C50_57 
REMARK   10  A    between atoms: C43_50  and  C44_51 
REMARK   11  A    between atoms: C50_57  and  O7_58 
REMARK       I    between atoms: C55_65  and  N2_66 
REMARK       I    between atoms: C55_65  and  N3_67 
ROOT
HETATM    1  C1  UNL     1       1.428  51.707 -15.409  1.00  0.00     0.010 C 
HETATM    2  C2  UNL     1       0.375  50.866 -14.685  1.00  0.00    -0.010 C 
HETATM    3  C3  UNL     1      -0.881  51.687 -14.411  1.00  0.00     0.009 C 
HETATM    4  C4  UNL     1      -1.952  50.903 -13.653  1.00  0.00     0.039 C 
HETATM    5  C5  UNL     1      -2.034  49.427 -13.953  1.00  0.00    -0.049 C 
HETATM    6  C6  UNL     1      -3.163  48.709 -13.523  1.00  0.00     0.044 C 
HETATM    7  C7  UNL     1      -3.266  47.335 -13.746  1.00  0.00     0.073 C 
HETATM    8  C8  UNL     1      -2.165  46.643 -14.238  1.00  0.00     0.037 C 
HETATM    9  C9  UNL     1      -1.059  47.348 -14.715  1.00  0.00     0.011 C 
HETATM   10  C10 UNL     1      -1.016  48.750 -14.640  1.00  0.00    -0.047 C 
HETATM   11  C11 UNL     1       0.063  49.515 -15.379  1.00  0.00     0.024 C 
HETATM   12  C12 UNL     1      -0.083  49.490 -16.944  1.00  0.00     0.033 C 
HETATM   13  C13 UNL     1      -1.484  49.295 -17.632  1.00  0.00     0.139 C 
HETATM   14  C14 UNL     1      -1.332  48.537 -19.020  1.00  0.00     0.037 C 
HETATM   15  C15 UNL     1      -1.034  49.380 -20.267  1.00  0.00    -0.014 C 
HETATM   16  C16 UNL     1      -1.262  48.908 -21.514  1.00  0.00    -0.050 C 
HETATM   17  C17 UNL     1      -1.679  47.473 -21.674  1.00  0.00     0.042 C 
HETATM   18  C18 UNL     1      -2.909  47.266 -20.785  1.00  0.00    -0.001 C 
HETATM   19  C19 UNL     1      -4.115  48.210 -21.115  1.00  0.00     0.038 C 
HETATM   20  C20 UNL     1      -4.035  49.020 -22.438  1.00  0.00     0.130 C 
HETATM   21  O4  UNL     1      -3.077  50.068 -22.292  1.00  0.00    -0.371 OA
HETATM   22  C21 UNL     1      -1.734  49.757 -22.666  1.00  0.00     0.185 C 
HETATM   23  C22 UNL     1      -1.044  51.041 -23.113  1.00  0.00    -0.006 A 
HETATM   24  C23 UNL     1       0.248  51.389 -22.690  1.00  0.00     0.014 A 
HETATM   25  C24 UNL     1       0.865  52.550 -23.165  1.00  0.00     0.037 A 
HETATM   26  C25 UNL     1       0.207  53.359 -24.088  1.00  0.00     0.067 A 
HETATM   27  C26 UNL     1      -1.060  53.033 -24.552  1.00  0.00     0.057 A 
HETATM   28  C27 UNL     1      -1.689  51.884 -24.071  1.00  0.00     0.029 A 
HETATM   29  C28 UNL     1      -3.020  51.568 -24.523  1.00  0.00    -0.066 C 
HETATM   30  C29 UNL     1      -4.121  51.087 -24.587  1.00  0.00    -0.101 C 
HETATM   31  C30 UNL     1      -5.325  50.280 -24.303  1.00  0.00     0.103 C 
HETATM   32  C31 UNL     1      -5.368  49.720 -22.839  1.00  0.00     0.049 C 
HETATM   33  C33 UNL     1      -2.373  47.339 -19.317  1.00  0.00     0.033 C 
HETATM   34  C34 UNL     1      -3.343  46.843 -18.252  1.00  0.00     0.073 A 
HETATM   35  C35 UNL     1      -3.207  45.529 -17.773  1.00  0.00     0.007 C 
HETATM   36  C36 UNL     1      -3.851  45.114 -16.609  1.00  0.00     0.010 C 
HETATM   37  C37 UNL     1      -4.634  46.013 -15.869  1.00  0.00    -0.005 C 
HETATM   38  C38 UNL     1      -4.920  47.261 -16.453  1.00  0.00     0.012 C 
HETATM   39  C39 UNL     1      -4.300  47.658 -17.644  1.00  0.00     0.133 A 
HETATM   40  C40 UNL     1      -4.996  45.715 -14.388  1.00  0.00     0.171 C 
HETATM   41  O8  UNL     1      -4.496  46.780 -13.498  1.00  0.00    -0.316 OA
HETATM   42 NA1  UNL     1      -4.087  47.732 -17.435  1.00  0.00    -0.397 Na
ATOM     43  HA1 UNL     1      -3.975  48.306 -16.599  1.00  0.00     0.155 HD
ENDROOT
BRANCH  40  44
HETATM   44  C41 UNL     1      -6.557  45.794 -14.214  1.00  0.00     0.075 C 
BRANCH  44  45
HETATM   45  C42 UNL     1      -7.148  46.247 -12.841  1.00  0.00     0.029 C 
BRANCH  45  46
HETATM   46  C43 UNL     1      -6.591  47.586 -12.273  1.00  0.00     0.046 C 
BRANCH  46  47
HETATM   47  C44 UNL     1      -7.043  48.079 -10.915  1.00  0.00    -0.058 A 
HETATM   48  C45 UNL     1      -6.638  47.398  -9.755  1.00  0.00     0.007 A 
HETATM   49  C46 UNL     1      -7.049  47.822  -8.489  1.00  0.00     0.001 A 
HETATM   50  C47 UNL     1      -7.863  48.943  -8.362  1.00  0.00     0.000 A 
HETATM   51  C48 UNL     1      -8.246  49.650  -9.498  1.00  0.00     0.001 A 
HETATM   52  C49 UNL     1      -7.833  49.224 -10.762  1.00  0.00     0.007 A 
ENDBRANCH  46  47
ENDBRANCH  45  46
BRANCH  45  53
HETATM   53  C50 UNL     1      -8.707  46.151 -12.837  1.00  0.00     0.062 C 
HETATM   54  C51 UNL     1      -9.242  45.036 -13.755  1.00  0.00     0.038 C 
HETATM   55  C52 UNL     1     -10.643  44.704 -13.232  1.00  0.00     0.003 C 
HETATM   56  C53 UNL     1     -10.740  45.317 -11.840  1.00  0.00     0.003 C 
HETATM   57  C54 UNL     1      -9.322  45.750 -11.489  1.00  0.00     0.038 C 
BRANCH  53  58
HETATM   58  O7  UNL     1      -9.295  47.374 -13.291  1.00  0.00    -0.389 OA
HETATM   59  H50 UNL     1      -9.196  48.036 -12.583  1.00  0.00     0.210 HD
ENDBRANCH  53  58
ENDBRANCH  45  53
ENDBRANCH  44  45
ENDBRANCH  40  44
BRANCH  40  60
HETATM   60  N1  UNL     1      -4.602  44.341 -14.002  1.00  0.00    -0.336 N 
HETATM   61  C55 UNL     1      -4.356  44.022 -12.792  1.00  0.00     0.124 C 
HETATM   62  N2  UNL     1      -4.043  42.744 -12.491  1.00  0.00    -0.279 NA
HETATM   63  N3  UNL     1      -4.349  44.760 -11.664  1.00  0.00    -0.279 NA
HETATM   64  H59 UNL     1      -3.262  42.686 -11.849  1.00  0.00     0.126 HD
HETATM   65  H60 UNL     1      -3.862  42.215 -13.339  1.00  0.00     0.126 HD
HETATM   66  H61 UNL     1      -4.651  45.720 -11.814  1.00  0.00     0.126 HD
HETATM   67  H62 UNL     1      -4.857  44.330 -10.901  1.00  0.00     0.126 HD
ATOM     68  H1  UNL     1      -4.525  43.627 -14.726  1.00  0.00     0.165 HD
ENDBRANCH  40  60
BRANCH  13  69
HETATM   69  S1  UNL     1      -2.425  50.844 -17.757  1.00  0.00     0.106 S 
HETATM   70  O1  UNL     1      -3.204  50.935 -16.525  1.00  0.00    -0.595 OA
HETATM   71  O2  UNL     1      -3.232  50.671 -18.964  1.00  0.00    -0.595 OA
HETATM   72  O3  UNL     1      -1.410  51.889 -17.847  1.00  0.00    -0.595 OA
ENDBRANCH  13  69
BRANCH  32  73
HETATM   73  C32 UNL     1      -5.748  50.828 -21.847  1.00  0.00     0.172 C 
BRANCH  73  74
HETATM   74  O6  UNL     1      -4.588  51.604 -21.525  1.00  0.00    -0.400 OA
HETATM   75  H34 UNL     1      -4.912  52.282 -20.903  1.00  0.00     0.209 HD
ENDBRANCH  73  74
ENDBRANCH  32  73
BRANCH  26  76
HETATM   76  O5  UNL     1       0.787  54.503 -24.560  1.00  0.00    -0.361 OA
HETATM   77  H27 UNL     1       1.560  54.692 -24.003  1.00  0.00     0.217 HD
ENDBRANCH  26  76
TORSDOF 11
ENDMDL
