MODEL 1
REMARK minimizedAffinity -6.78765726
REMARK CNNscore 0.507730186
REMARK CNNaffinity 6.85015106
REMARK  19 active torsions:
REMARK  status: ('A' for Active; 'I' for Inactive)
REMARK    1  A    between atoms: C2_2  and  C3_3 
REMARK    2  A    between atoms: C2_2  and  C30_37 
REMARK    3  A    between atoms: C4_4  and  C5_5 
REMARK    4  A    between atoms: C6_6  and  C7_7 
REMARK    5  A    between atoms: C6_6  and  C11_14 
REMARK    6  A    between atoms: C7_7  and  O1_8 
REMARK    7  A    between atoms: O1_8  and  C8_9 
REMARK    8  A    between atoms: C8_9  and  C9_10 
REMARK    9  A    between atoms: C9_10  and  O2_11 
REMARK   10  A    between atoms: C9_10  and  C10_12 
REMARK   11  A    between atoms: C10_12  and  O3_13 
REMARK   12  A    between atoms: C17_20  and  C19_22 
REMARK   13  A    between atoms: C22_26  and  O5_28 
REMARK   14  A    between atoms: C24_29  and  C25_30 
REMARK   15  A    between atoms: C25_30  and  C26_31 
REMARK   16  A    between atoms: C26_31  and  O6_32 
REMARK   17  A    between atoms: C29_35  and  O7_36 
REMARK   18  A    between atoms: C30_37  and  C31_38 
REMARK   19  A    between atoms: C31_38  and  C32_39 
ROOT
HETATM    1  C11 UNL     1     -11.654   9.880  14.443  1.00  0.00     0.052 C 
HETATM    2  C12 UNL     1     -12.628  11.038  14.177  1.00  0.00     0.013 C 
HETATM    3  C13 UNL     1     -13.736  10.850  15.191  1.00  0.00     0.017 C 
HETATM    4  C14 UNL     1     -13.944   9.301  15.352  1.00  0.00     0.030 C 
HETATM    5  C15 UNL     1     -14.728   8.727  14.096  1.00  0.00     0.033 C 
HETATM    6  C16 UNL     1     -16.117   9.361  13.983  1.00  0.00    -0.066 C 
HETATM    7  C17 UNL     1     -16.663   9.831  12.829  1.00  0.00    -0.021 C 
HETATM    8  C18 UNL     1     -17.963  10.589  12.736  1.00  0.00     0.052 C 
HETATM    9  C20 UNL     1     -16.832   9.568  15.308  1.00  0.00     0.038 C 
HETATM   10  C21 UNL     1     -16.251   8.771  16.464  1.00  0.00     0.042 C 
HETATM   11  C22 UNL     1     -14.747   9.005  16.702  1.00  0.00     0.066 C 
HETATM   12  C23 UNL     1     -14.610  10.082  17.803  1.00  0.00     0.047 C 
HETATM   13  C24 UNL     1     -14.613   7.176  13.852  1.00  0.00    -0.003 C 
HETATM   14  C27 UNL     1     -13.473   6.535  14.662  1.00  0.00     0.008 C 
HETATM   15  C28 UNL     1     -12.228   7.401  14.698  1.00  0.00     0.040 C 
HETATM   16  C29 UNL     1     -12.447   8.807  15.302  1.00  0.00     0.076 C 
ENDROOT
BRANCH   1  17
HETATM   17  C6  UNL     1     -10.280  10.305  14.989  1.00  0.00    -0.049 C 
HETATM   18  C5  UNL     1      -9.248   9.448  15.169  1.00  0.00     0.005 C 
BRANCH  18  19
HETATM   19  C4  UNL     1      -9.201   8.032  14.881  1.00  0.00     0.001 C 
HETATM   20  C3  UNL     1      -8.049   7.341  14.842  1.00  0.00     0.006 C 
BRANCH  20  21
HETATM   21  C2  UNL     1      -7.907   5.926  14.513  1.00  0.00    -0.067 C 
HETATM   22  C1  UNL     1      -7.568   5.053  15.480  1.00  0.00     0.019 C 
BRANCH  21  23
HETATM   23  C30 UNL     1      -8.084   5.451  13.082  1.00  0.00     0.041 C 
BRANCH  23  24
HETATM   24  C31 UNL     1      -7.500   4.051  12.848  1.00  0.00     0.032 C 
BRANCH  24  25
HETATM   25  C32 UNL     1      -6.061   4.043  12.403  1.00  0.00    -0.024 C 
HETATM   26  C33 UNL     1      -5.394   3.050  11.782  1.00  0.00    -0.091 C 
HETATM   27  C34 UNL     1      -6.006   1.741  11.374  1.00  0.00     0.042 C 
HETATM   28  C35 UNL     1      -3.936   3.205  11.432  1.00  0.00     0.042 C 
ENDBRANCH  24  25
ENDBRANCH  23  24
ENDBRANCH  21  23
ENDBRANCH  20  21
ENDBRANCH  18  19
BRANCH  17  29
HETATM   29  C7  UNL     1     -10.115  11.788  15.335  1.00  0.00     0.202 C 
BRANCH  29  30
HETATM   30  O1  UNL     1      -8.840  12.069  15.926  1.00  0.00    -0.384 OA
BRANCH  30  31
HETATM   31  C8  UNL     1      -8.875  13.248  16.750  1.00  0.00     0.201 C 
BRANCH  31  32
HETATM   32  C9  UNL     1      -7.469  13.857  16.738  1.00  0.00     0.165 C 
BRANCH  32  33
HETATM   33  O2  UNL     1      -7.240  14.509  17.998  1.00  0.00    -0.391 OA
HETATM   34  H11 UNL     1      -7.514  13.851  18.670  1.00  0.00     0.210 HD
ENDBRANCH  32  33
BRANCH  32  35
HETATM   35  C10 UNL     1      -7.292  14.882  15.620  1.00  0.00     0.198 C 
BRANCH  35  36
HETATM   36  O3  UNL     1      -7.672  14.316  14.366  1.00  0.00    -0.398 OA
HETATM   37  H14 UNL     1      -8.566  13.946  14.519  1.00  0.00     0.209 HD
ENDBRANCH  35  36
ENDBRANCH  32  35
ENDBRANCH  31  32
ENDBRANCH  30  31
ENDBRANCH  29  30
ENDBRANCH  17  29
ENDBRANCH   1  17
BRANCH  16  38
HETATM   38  O7  UNL     1     -11.941   8.772  16.647  1.00  0.00    -0.388 OA
HETATM   39  H43 UNL     1     -11.007   8.490  16.600  1.00  0.00     0.210 HD
ENDBRANCH  16  38
BRANCH  11  40
HETATM   40  O5  UNL     1     -14.272   7.808  17.333  1.00  0.00    -0.389 OA
HETATM   41  H32 UNL     1     -13.305   7.936  17.440  1.00  0.00     0.210 HD
ENDBRANCH  11  40
BRANCH  13  42
HETATM   42  C25 UNL     1     -15.851   6.246  13.952  1.00  0.00     0.031 C 
BRANCH  42  43
HETATM   43  C26 UNL     1     -16.707   6.061  12.704  1.00  0.00     0.164 C 
BRANCH  43  44
HETATM   44  O6  UNL     1     -15.959   6.364  11.537  1.00  0.00    -0.401 OA
HETATM   45  H38 UNL     1     -16.531   6.174  10.772  1.00  0.00     0.209 HD
ENDBRANCH  43  44
ENDBRANCH  42  43
ENDBRANCH  13  42
BRANCH   7  46
HETATM   46  C19 UNL     1     -16.019   9.633  11.490  1.00  0.00     0.265 C 
HETATM   47  O4  UNL     1     -16.496   8.897  10.631  1.00  0.00    -0.302 OA
ENDBRANCH   7  46
TORSDOF 19
ENDMDL
MODEL 2
REMARK minimizedAffinity -7.25002718
REMARK CNNscore 0.492835581
REMARK CNNaffinity 7.04364729
REMARK  19 active torsions:
REMARK  status: ('A' for Active; 'I' for Inactive)
REMARK    1  A    between atoms: C2_2  and  C3_3 
REMARK    2  A    between atoms: C2_2  and  C30_37 
REMARK    3  A    between atoms: C4_4  and  C5_5 
REMARK    4  A    between atoms: C6_6  and  C7_7 
REMARK    5  A    between atoms: C6_6  and  C11_14 
REMARK    6  A    between atoms: C7_7  and  O1_8 
REMARK    7  A    between atoms: O1_8  and  C8_9 
REMARK    8  A    between atoms: C8_9  and  C9_10 
REMARK    9  A    between atoms: C9_10  and  O2_11 
REMARK   10  A    between atoms: C9_10  and  C10_12 
REMARK   11  A    between atoms: C10_12  and  O3_13 
REMARK   12  A    between atoms: C17_20  and  C19_22 
REMARK   13  A    between atoms: C22_26  and  O5_28 
REMARK   14  A    between atoms: C24_29  and  C25_30 
REMARK   15  A    between atoms: C25_30  and  C26_31 
REMARK   16  A    between atoms: C26_31  and  O6_32 
REMARK   17  A    between atoms: C29_35  and  O7_36 
REMARK   18  A    between atoms: C30_37  and  C31_38 
REMARK   19  A    between atoms: C31_38  and  C32_39 
ROOT
HETATM    1  C11 UNL     1      -0.478   9.409  12.657  1.00  0.00     0.052 C 
HETATM    2  C12 UNL     1      -0.912   8.845  11.295  1.00  0.00     0.013 C 
HETATM    3  C13 UNL     1      -0.588   7.368  11.369  1.00  0.00     0.017 C 
HETATM    4  C14 UNL     1       0.738   7.236  12.200  1.00  0.00     0.030 C 
HETATM    5  C15 UNL     1       1.980   7.664  11.308  1.00  0.00     0.033 C 
HETATM    6  C16 UNL     1       2.118   6.749  10.089  1.00  0.00    -0.066 C 
HETATM    7  C17 UNL     1       2.353   7.179   8.820  1.00  0.00    -0.021 C 
HETATM    8  C18 UNL     1       2.341   6.301   7.595  1.00  0.00     0.052 C 
HETATM    9  C20 UNL     1       1.834   5.281  10.359  1.00  0.00     0.038 C 
HETATM   10  C21 UNL     1       1.853   4.900  11.830  1.00  0.00     0.042 C 
HETATM   11  C22 UNL     1       0.902   5.731  12.713  1.00  0.00     0.066 C 
HETATM   12  C23 UNL     1      -0.415   4.935  12.859  1.00  0.00     0.047 C 
HETATM   13  C24 UNL     1       3.296   8.047  12.084  1.00  0.00    -0.003 C 
HETATM   14  C27 UNL     1       3.047   8.286  13.584  1.00  0.00     0.008 C 
HETATM   15  C28 UNL     1       1.755   9.036  13.846  1.00  0.00     0.040 C 
HETATM   16  C29 UNL     1       0.489   8.332  13.307  1.00  0.00     0.076 C 
ENDROOT
BRANCH   1  17
HETATM   17  C6  UNL     1      -1.629   9.912  13.544  1.00  0.00    -0.049 C 
HETATM   18  C5  UNL     1      -2.788   9.236  13.721  1.00  0.00     0.005 C 
BRANCH  18  19
HETATM   19  C4  UNL     1      -3.170   7.956  13.168  1.00  0.00     0.001 C 
HETATM   20  C3  UNL     1      -4.079   7.158  13.754  1.00  0.00     0.006 C 
BRANCH  20  21
HETATM   21  C2  UNL     1      -4.487   5.835  13.292  1.00  0.00    -0.067 C 
HETATM   22  C1  UNL     1      -3.709   5.171  12.416  1.00  0.00     0.019 C 
BRANCH  21  23
HETATM   23  C30 UNL     1      -5.804   5.237  13.751  1.00  0.00     0.041 C 
BRANCH  23  24
HETATM   24  C31 UNL     1      -6.634   4.674  12.589  1.00  0.00     0.032 C 
BRANCH  24  25
HETATM   25  C32 UNL     1      -6.517   3.185  12.403  1.00  0.00    -0.024 C 
HETATM   26  C33 UNL     1      -6.010   2.521  11.346  1.00  0.00    -0.091 C 
HETATM   27  C34 UNL     1      -5.411   3.180  10.137  1.00  0.00     0.042 C 
HETATM   28  C35 UNL     1      -5.999   1.013  11.317  1.00  0.00     0.042 C 
ENDBRANCH  24  25
ENDBRANCH  23  24
ENDBRANCH  21  23
ENDBRANCH  20  21
ENDBRANCH  18  19
BRANCH  17  29
HETATM   29  C7  UNL     1      -1.409  11.254  14.247  1.00  0.00     0.202 C 
BRANCH  29  30
HETATM   30  O1  UNL     1      -0.386  11.181  15.249  1.00  0.00    -0.384 OA
BRANCH  30  31
HETATM   31  C8  UNL     1      -0.870  11.579  16.544  1.00  0.00     0.201 C 
BRANCH  31  32
HETATM   32  C9  UNL     1      -0.912  10.324  17.422  1.00  0.00     0.165 C 
BRANCH  32  33
HETATM   33  O2  UNL     1       0.103   9.412  16.969  1.00  0.00    -0.391 OA
HETATM   34  H11 UNL     1       0.910   9.961  16.890  1.00  0.00     0.210 HD
ENDBRANCH  32  33
BRANCH  32  35
HETATM   35  C10 UNL     1      -2.266   9.617  17.355  1.00  0.00     0.198 C 
BRANCH  35  36
HETATM   36  O3  UNL     1      -3.307  10.509  17.752  1.00  0.00    -0.398 OA
HETATM   37  H14 UNL     1      -3.175  11.309  17.203  1.00  0.00     0.209 HD
ENDBRANCH  35  36
ENDBRANCH  32  35
ENDBRANCH  31  32
ENDBRANCH  30  31
ENDBRANCH  29  30
ENDBRANCH  17  29
ENDBRANCH   1  17
BRANCH  16  38
HETATM   38  O7  UNL     1      -0.151   7.700  14.428  1.00  0.00    -0.388 OA
HETATM   39  H43 UNL     1      -0.324   8.393  15.094  1.00  0.00     0.210 HD
ENDBRANCH  16  38
BRANCH  11  40
HETATM   40  O5  UNL     1       1.475   5.693  14.027  1.00  0.00    -0.389 OA
HETATM   41  H32 UNL     1       0.898   6.262  14.579  1.00  0.00     0.210 HD
ENDBRANCH  11  40
BRANCH  13  42
HETATM   42  C25 UNL     1       4.593   7.209  11.943  1.00  0.00     0.031 C 
BRANCH  42  43
HETATM   43  C26 UNL     1       5.600   7.625  10.876  1.00  0.00     0.164 C 
BRANCH  43  44
HETATM   44  O6  UNL     1       6.467   6.547  10.562  1.00  0.00    -0.401 OA
HETATM   45  H38 UNL     1       7.047   6.846   9.839  1.00  0.00     0.209 HD
ENDBRANCH  43  44
ENDBRANCH  42  43
ENDBRANCH  13  42
BRANCH   7  46
HETATM   46  C19 UNL     1       2.666   8.609   8.495  1.00  0.00     0.265 C 
HETATM   47  O4  UNL     1       1.887   9.331   7.879  1.00  0.00    -0.302 OA
ENDBRANCH   7  46
TORSDOF 19
ENDMDL
MODEL 3
REMARK minimizedAffinity -7.23802757
REMARK CNNscore 0.475503564
REMARK CNNaffinity 6.59546995
REMARK  19 active torsions:
REMARK  status: ('A' for Active; 'I' for Inactive)
REMARK    1  A    between atoms: C2_2  and  C3_3 
REMARK    2  A    between atoms: C2_2  and  C30_37 
REMARK    3  A    between atoms: C4_4  and  C5_5 
REMARK    4  A    between atoms: C6_6  and  C7_7 
REMARK    5  A    between atoms: C6_6  and  C11_14 
REMARK    6  A    between atoms: C7_7  and  O1_8 
REMARK    7  A    between atoms: O1_8  and  C8_9 
REMARK    8  A    between atoms: C8_9  and  C9_10 
REMARK    9  A    between atoms: C9_10  and  O2_11 
REMARK   10  A    between atoms: C9_10  and  C10_12 
REMARK   11  A    between atoms: C10_12  and  O3_13 
REMARK   12  A    between atoms: C17_20  and  C19_22 
REMARK   13  A    between atoms: C22_26  and  O5_28 
REMARK   14  A    between atoms: C24_29  and  C25_30 
REMARK   15  A    between atoms: C25_30  and  C26_31 
REMARK   16  A    between atoms: C26_31  and  O6_32 
REMARK   17  A    between atoms: C29_35  and  O7_36 
REMARK   18  A    between atoms: C30_37  and  C31_38 
REMARK   19  A    between atoms: C31_38  and  C32_39 
ROOT
HETATM    1  C11 UNL     1      -2.442   8.936  15.410  1.00  0.00     0.052 C 
HETATM    2  C12 UNL     1      -2.226   8.614  16.897  1.00  0.00     0.013 C 
HETATM    3  C13 UNL     1      -2.705   9.848  17.632  1.00  0.00     0.017 C 
HETATM    4  C14 UNL     1      -2.314  11.084  16.744  1.00  0.00     0.030 C 
HETATM    5  C15 UNL     1      -0.757  11.371  16.873  1.00  0.00     0.033 C 
HETATM    6  C16 UNL     1      -0.383  11.714  18.317  1.00  0.00    -0.066 C 
HETATM    7  C17 UNL     1       0.689  11.205  18.981  1.00  0.00    -0.021 C 
HETATM    8  C18 UNL     1       0.980  11.421  20.445  1.00  0.00     0.052 C 
HETATM    9  C20 UNL     1      -1.389  12.589  19.045  1.00  0.00     0.038 C 
HETATM   10  C21 UNL     1      -2.377  13.299  18.133  1.00  0.00     0.042 C 
HETATM   11  C22 UNL     1      -3.163  12.360  17.198  1.00  0.00     0.066 C 
HETATM   12  C23 UNL     1      -4.515  12.047  17.878  1.00  0.00     0.047 C 
HETATM   13  C24 UNL     1      -0.112  12.237  15.727  1.00  0.00    -0.003 C 
HETATM   14  C27 UNL     1      -1.024  12.357  14.494  1.00  0.00     0.008 C 
HETATM   15  C28 UNL     1      -1.733  11.055  14.167  1.00  0.00     0.040 C 
HETATM   16  C29 UNL     1      -2.621  10.510  15.308  1.00  0.00     0.076 C 
ENDROOT
BRANCH   1  17
HETATM   17  C6  UNL     1      -3.516   8.084  14.714  1.00  0.00    -0.049 C 
HETATM   18  C5  UNL     1      -3.314   7.431  13.546  1.00  0.00     0.005 C 
BRANCH  18  19
HETATM   19  C4  UNL     1      -2.107   7.372  12.752  1.00  0.00     0.001 C 
HETATM   20  C3  UNL     1      -1.484   6.215  12.471  1.00  0.00     0.006 C 
BRANCH  20  21
HETATM   21  C2  UNL     1      -0.240   6.070  11.720  1.00  0.00    -0.067 C 
HETATM   22  C1  UNL     1       0.417   4.896  11.750  1.00  0.00     0.019 C 
BRANCH  21  23
HETATM   23  C30 UNL     1       0.335   7.250  10.958  1.00  0.00     0.041 C 
BRANCH  23  24
HETATM   24  C31 UNL     1       1.663   6.914  10.266  1.00  0.00     0.032 C 
BRANCH  24  25
HETATM   25  C32 UNL     1       1.554   6.695   8.780  1.00  0.00    -0.024 C 
HETATM   26  C33 UNL     1       2.097   7.435   7.793  1.00  0.00    -0.091 C 
HETATM   27  C34 UNL     1       2.976   8.632   8.015  1.00  0.00     0.042 C 
HETATM   28  C35 UNL     1       1.857   7.083   6.347  1.00  0.00     0.042 C 
ENDBRANCH  24  25
ENDBRANCH  23  24
ENDBRANCH  21  23
ENDBRANCH  20  21
ENDBRANCH  18  19
BRANCH  17  29
HETATM   29  C7  UNL     1      -4.875   7.997  15.417  1.00  0.00     0.202 C 
BRANCH  29  30
HETATM   30  O1  UNL     1      -5.609   6.826  15.035  1.00  0.00    -0.384 OA
BRANCH  30  31
HETATM   31  C8  UNL     1      -6.392   6.302  16.123  1.00  0.00     0.201 C 
BRANCH  31  32
HETATM   32  C9  UNL     1      -7.735   5.847  15.542  1.00  0.00     0.165 C 
BRANCH  32  33
HETATM   33  O2  UNL     1      -7.961   4.480  15.925  1.00  0.00    -0.391 OA
HETATM   34  H11 UNL     1      -7.779   4.461  16.887  1.00  0.00     0.210 HD
ENDBRANCH  32  33
BRANCH  32  35
HETATM   35  C10 UNL     1      -7.766   5.938  14.017  1.00  0.00     0.198 C 
BRANCH  35  36
HETATM   36  O3  UNL     1      -8.734   5.032  13.489  1.00  0.00    -0.398 OA
HETATM   37  H14 UNL     1      -9.558   5.230  13.983  1.00  0.00     0.209 HD
ENDBRANCH  35  36
ENDBRANCH  32  35
ENDBRANCH  31  32
ENDBRANCH  30  31
ENDBRANCH  29  30
ENDBRANCH  17  29
ENDBRANCH   1  17
BRANCH  16  38
HETATM   38  O7  UNL     1      -3.981  10.836  14.975  1.00  0.00    -0.388 OA
HETATM   39  H43 UNL     1      -4.167  10.453  14.097  1.00  0.00     0.210 HD
ENDBRANCH  16  38
BRANCH  11  40
HETATM   40  O5  UNL     1      -3.525  13.167  16.069  1.00  0.00    -0.389 OA
HETATM   41  H32 UNL     1      -3.982  12.558  15.450  1.00  0.00     0.210 HD
ENDBRANCH  11  40
BRANCH  13  42
HETATM   42  C25 UNL     1       0.492  13.637  16.011  1.00  0.00     0.031 C 
BRANCH  42  43
HETATM   43  C26 UNL     1       1.977  13.718  16.348  1.00  0.00     0.164 C 
BRANCH  43  44
HETATM   44  O6  UNL     1       2.161  14.183  17.676  1.00  0.00    -0.401 OA
HETATM   45  H38 UNL     1       3.118  14.161  17.858  1.00  0.00     0.209 HD
ENDBRANCH  43  44
ENDBRANCH  42  43
ENDBRANCH  13  42
BRANCH   7  46
HETATM   46  C19 UNL     1       1.730  10.359  18.311  1.00  0.00     0.265 C 
HETATM   47  O4  UNL     1       2.529   9.672  18.942  1.00  0.00    -0.302 OA
ENDBRANCH   7  46
TORSDOF 19
ENDMDL
MODEL 4
REMARK minimizedAffinity -6.165627
REMARK CNNscore 0.387997568
REMARK CNNaffinity 6.61382675
REMARK  19 active torsions:
REMARK  status: ('A' for Active; 'I' for Inactive)
REMARK    1  A    between atoms: C2_2  and  C3_3 
REMARK    2  A    between atoms: C2_2  and  C30_37 
REMARK    3  A    between atoms: C4_4  and  C5_5 
REMARK    4  A    between atoms: C6_6  and  C7_7 
REMARK    5  A    between atoms: C6_6  and  C11_14 
REMARK    6  A    between atoms: C7_7  and  O1_8 
REMARK    7  A    between atoms: O1_8  and  C8_9 
REMARK    8  A    between atoms: C8_9  and  C9_10 
REMARK    9  A    between atoms: C9_10  and  O2_11 
REMARK   10  A    between atoms: C9_10  and  C10_12 
REMARK   11  A    between atoms: C10_12  and  O3_13 
REMARK   12  A    between atoms: C17_20  and  C19_22 
REMARK   13  A    between atoms: C22_26  and  O5_28 
REMARK   14  A    between atoms: C24_29  and  C25_30 
REMARK   15  A    between atoms: C25_30  and  C26_31 
REMARK   16  A    between atoms: C26_31  and  O6_32 
REMARK   17  A    between atoms: C29_35  and  O7_36 
REMARK   18  A    between atoms: C30_37  and  C31_38 
REMARK   19  A    between atoms: C31_38  and  C32_39 
ROOT
HETATM    1  C11 UNL     1     -11.861   9.089  14.260  1.00  0.00     0.052 C 
HETATM    2  C12 UNL     1     -10.393   9.489  14.476  1.00  0.00     0.013 C 
HETATM    3  C13 UNL     1     -10.294   9.808  15.952  1.00  0.00     0.017 C 
HETATM    4  C14 UNL     1     -11.652  10.484  16.361  1.00  0.00     0.030 C 
HETATM    5  C15 UNL     1     -11.688  11.983  15.839  1.00  0.00     0.033 C 
HETATM    6  C16 UNL     1     -10.563  12.808  16.470  1.00  0.00    -0.066 C 
HETATM    7  C17 UNL     1      -9.753  13.663  15.789  1.00  0.00    -0.021 C 
HETATM    8  C18 UNL     1      -8.552  14.363  16.372  1.00  0.00     0.052 C 
HETATM    9  C20 UNL     1     -10.300  12.511  17.937  1.00  0.00     0.038 C 
HETATM   10  C21 UNL     1     -11.422  11.758  18.634  1.00  0.00     0.042 C 
HETATM   11  C22 UNL     1     -11.818  10.435  17.950  1.00  0.00     0.066 C 
HETATM   12  C23 UNL     1     -11.052   9.295  18.661  1.00  0.00     0.047 C 
HETATM   13  C24 UNL     1     -13.110  12.651  15.735  1.00  0.00    -0.003 C 
HETATM   14  C27 UNL     1     -14.251  11.621  15.815  1.00  0.00     0.008 C 
HETATM   15  C28 UNL     1     -13.941  10.349  15.049  1.00  0.00     0.040 C 
HETATM   16  C29 UNL     1     -12.666   9.616  15.522  1.00  0.00     0.076 C 
ENDROOT
BRANCH   1  17
HETATM   17  C6  UNL     1     -12.079   7.614  13.883  1.00  0.00    -0.049 C 
HETATM   18  C5  UNL     1     -11.070   6.732  13.693  1.00  0.00     0.005 C 
BRANCH  18  19
HETATM   19  C4  UNL     1      -9.648   6.960  13.821  1.00  0.00     0.001 C 
HETATM   20  C3  UNL     1      -8.814   6.048  14.350  1.00  0.00     0.006 C 
BRANCH  20  21
HETATM   21  C2  UNL     1      -7.380   6.214  14.559  1.00  0.00    -0.067 C 
HETATM   22  C1  UNL     1      -6.914   6.448  15.800  1.00  0.00     0.019 C 
BRANCH  21  23
HETATM   23  C30 UNL     1      -6.426   6.178  13.378  1.00  0.00     0.041 C 
BRANCH  23  24
HETATM   24  C31 UNL     1      -5.482   4.969  13.419  1.00  0.00     0.032 C 
BRANCH  24  25
HETATM   25  C32 UNL     1      -5.976   3.767  12.660  1.00  0.00    -0.024 C 
HETATM   26  C33 UNL     1      -5.254   2.903  11.919  1.00  0.00    -0.091 C 
HETATM   27  C34 UNL     1      -3.764   2.970  11.747  1.00  0.00     0.042 C 
HETATM   28  C35 UNL     1      -5.925   1.761  11.198  1.00  0.00     0.042 C 
ENDBRANCH  24  25
ENDBRANCH  23  24
ENDBRANCH  21  23
ENDBRANCH  20  21
ENDBRANCH  18  19
BRANCH  17  29
HETATM   29  C7  UNL     1     -13.534   7.161  13.723  1.00  0.00     0.202 C 
BRANCH  29  30
HETATM   30  O1  UNL     1     -14.086   7.545  12.457  1.00  0.00    -0.384 OA
BRANCH  30  31
HETATM   31  C8  UNL     1     -15.383   6.963  12.236  1.00  0.00     0.201 C 
BRANCH  31  32
HETATM   32  C9  UNL     1     -16.339   8.102  11.868  1.00  0.00     0.165 C 
BRANCH  32  33
HETATM   33  O2  UNL     1     -15.677   8.973  10.935  1.00  0.00    -0.391 OA
HETATM   34  H11 UNL     1     -15.303   8.372  10.259  1.00  0.00     0.210 HD
ENDBRANCH  32  33
BRANCH  32  35
HETATM   35  C10 UNL     1     -16.758   8.922  13.087  1.00  0.00     0.198 C 
BRANCH  35  36
HETATM   36  O3  UNL     1     -16.925  10.293  12.726  1.00  0.00    -0.398 OA
HETATM   37  H14 UNL     1     -17.524  10.276  11.950  1.00  0.00     0.209 HD
ENDBRANCH  35  36
ENDBRANCH  32  35
ENDBRANCH  31  32
ENDBRANCH  30  31
ENDBRANCH  29  30
ENDBRANCH  17  29
ENDBRANCH   1  17
BRANCH  16  38
HETATM   38  O7  UNL     1     -13.092   8.511  16.337  1.00  0.00    -0.388 OA
HETATM   39  H43 UNL     1     -13.698   7.967  15.797  1.00  0.00     0.210 HD
ENDBRANCH  16  38
BRANCH  11  40
HETATM   40  O5  UNL     1     -13.186  10.212  18.320  1.00  0.00    -0.389 OA
HETATM   41  H32 UNL     1     -13.454   9.397  17.845  1.00  0.00     0.210 HD
ENDBRANCH  11  40
BRANCH  13  42
HETATM   42  C25 UNL     1     -13.502  13.867  16.614  1.00  0.00     0.031 C 
BRANCH  42  43
HETATM   43  C26 UNL     1     -13.494  15.247  15.967  1.00  0.00     0.164 C 
BRANCH  43  44
HETATM   44  O6  UNL     1     -14.768  15.548  15.418  1.00  0.00    -0.401 OA
HETATM   45  H38 UNL     1     -14.724  16.457  15.072  1.00  0.00     0.209 HD
ENDBRANCH  43  44
ENDBRANCH  42  43
ENDBRANCH  13  42
BRANCH   7  46
HETATM   46  C19 UNL     1      -9.979  14.017  14.349  1.00  0.00     0.265 C 
HETATM   47  O4  UNL     1      -9.586  15.073  13.861  1.00  0.00    -0.302 OA
ENDBRANCH   7  46
TORSDOF 19
ENDMDL
MODEL 5
REMARK minimizedAffinity -7.83844233
REMARK CNNscore 0.342429072
REMARK CNNaffinity 7.00723028
REMARK  19 active torsions:
REMARK  status: ('A' for Active; 'I' for Inactive)
REMARK    1  A    between atoms: C2_2  and  C3_3 
REMARK    2  A    between atoms: C2_2  and  C30_37 
REMARK    3  A    between atoms: C4_4  and  C5_5 
REMARK    4  A    between atoms: C6_6  and  C7_7 
REMARK    5  A    between atoms: C6_6  and  C11_14 
REMARK    6  A    between atoms: C7_7  and  O1_8 
REMARK    7  A    between atoms: O1_8  and  C8_9 
REMARK    8  A    between atoms: C8_9  and  C9_10 
REMARK    9  A    between atoms: C9_10  and  O2_11 
REMARK   10  A    between atoms: C9_10  and  C10_12 
REMARK   11  A    between atoms: C10_12  and  O3_13 
REMARK   12  A    between atoms: C17_20  and  C19_22 
REMARK   13  A    between atoms: C22_26  and  O5_28 
REMARK   14  A    between atoms: C24_29  and  C25_30 
REMARK   15  A    between atoms: C25_30  and  C26_31 
REMARK   16  A    between atoms: C26_31  and  O6_32 
REMARK   17  A    between atoms: C29_35  and  O7_36 
REMARK   18  A    between atoms: C30_37  and  C31_38 
REMARK   19  A    between atoms: C31_38  and  C32_39 
ROOT
HETATM    1  C11 UNL     1      -3.644   7.757  13.987  1.00  0.00     0.052 C 
HETATM    2  C12 UNL     1      -3.500   6.270  14.343  1.00  0.00     0.013 C 
HETATM    3  C13 UNL     1      -2.029   6.088  14.654  1.00  0.00     0.017 C 
HETATM    4  C14 UNL     1      -1.241   7.028  13.672  1.00  0.00     0.030 C 
HETATM    5  C15 UNL     1      -1.214   6.391  12.218  1.00  0.00     0.033 C 
HETATM    6  C16 UNL     1      -0.494   5.040  12.227  1.00  0.00    -0.066 C 
HETATM    7  C17 UNL     1      -0.945   3.917  11.604  1.00  0.00    -0.021 C 
HETATM    8  C18 UNL     1      -0.322   2.550  11.732  1.00  0.00     0.052 C 
HETATM    9  C20 UNL     1       0.737   4.979  13.116  1.00  0.00     0.038 C 
HETATM   10  C21 UNL     1       1.278   6.338  13.528  1.00  0.00     0.042 C 
HETATM   11  C22 UNL     1       0.245   7.249  14.220  1.00  0.00     0.066 C 
HETATM   12  C23 UNL     1       0.420   7.080  15.746  1.00  0.00     0.047 C 
HETATM   13  C24 UNL     1      -0.899   7.376  11.031  1.00  0.00    -0.003 C 
HETATM   14  C27 UNL     1      -1.022   8.854  11.443  1.00  0.00     0.008 C 
HETATM   15  C28 UNL     1      -2.208   9.104  12.356  1.00  0.00     0.040 C 
HETATM   16  C29 UNL     1      -2.184   8.292  13.670  1.00  0.00     0.076 C 
ENDROOT
BRANCH   1  17
HETATM   17  C6  UNL     1      -4.467   8.584  14.990  1.00  0.00    -0.049 C 
HETATM   18  C5  UNL     1      -5.820   8.597  15.018  1.00  0.00     0.005 C 
BRANCH  18  19
HETATM   19  C4  UNL     1      -6.738   7.861  14.178  1.00  0.00     0.001 C 
HETATM   20  C3  UNL     1      -7.853   7.284  14.659  1.00  0.00     0.006 C 
BRANCH  20  21
HETATM   21  C2  UNL     1      -8.806   6.486  13.894  1.00  0.00    -0.067 C 
HETATM   22  C1  UNL     1     -10.125   6.699  14.053  1.00  0.00     0.019 C 
BRANCH  21  23
HETATM   23  C30 UNL     1      -8.315   5.387  12.969  1.00  0.00     0.041 C 
BRANCH  23  24
HETATM   24  C31 UNL     1      -7.813   4.154  13.733  1.00  0.00     0.032 C 
BRANCH  24  25
HETATM   25  C32 UNL     1      -7.474   2.975  12.859  1.00  0.00    -0.024 C 
HETATM   26  C33 UNL     1      -6.318   2.733  12.210  1.00  0.00    -0.091 C 
HETATM   27  C34 UNL     1      -5.103   3.612  12.281  1.00  0.00     0.042 C 
HETATM   28  C35 UNL     1      -6.163   1.505  11.348  1.00  0.00     0.042 C 
ENDBRANCH  24  25
ENDBRANCH  23  24
ENDBRANCH  21  23
ENDBRANCH  20  21
ENDBRANCH  18  19
BRANCH  17  29
HETATM   29  C7  UNL     1      -3.671   9.423  15.994  1.00  0.00     0.202 C 
BRANCH  29  30
HETATM   30  O1  UNL     1      -4.037  10.808  15.954  1.00  0.00    -0.384 OA
BRANCH  30  31
HETATM   31  C8  UNL     1      -2.973  11.661  16.417  1.00  0.00     0.201 C 
BRANCH  31  32
HETATM   32  C9  UNL     1      -3.132  13.012  15.714  1.00  0.00     0.165 C 
BRANCH  32  33
HETATM   33  O2  UNL     1      -4.418  13.049  15.073  1.00  0.00    -0.391 OA
HETATM   34  H11 UNL     1      -5.045  12.746  15.761  1.00  0.00     0.210 HD
ENDBRANCH  32  33
BRANCH  32  35
HETATM   35  C10 UNL     1      -2.054  13.245  14.657  1.00  0.00     0.198 C 
BRANCH  35  36
HETATM   36  O3  UNL     1      -1.708  12.012  14.026  1.00  0.00    -0.398 OA
HETATM   37  H14 UNL     1      -2.563  11.629  13.740  1.00  0.00     0.209 HD
ENDBRANCH  35  36
ENDBRANCH  32  35
ENDBRANCH  31  32
ENDBRANCH  30  31
ENDBRANCH  29  30
ENDBRANCH  17  29
ENDBRANCH   1  17
BRANCH  16  38
HETATM   38  O7  UNL     1      -1.743   9.183  14.708  1.00  0.00    -0.388 OA
HETATM   39  H43 UNL     1      -2.351   9.947  14.714  1.00  0.00     0.210 HD
ENDBRANCH  16  38
BRANCH  11  40
HETATM   40  O5  UNL     1       0.693   8.588  13.969  1.00  0.00    -0.389 OA
HETATM   41  H32 UNL     1       0.010   9.170  14.366  1.00  0.00     0.210 HD
ENDBRANCH  11  40
BRANCH  13  42
HETATM   42  C25 UNL     1       0.384   7.227  10.172  1.00  0.00     0.031 C 
BRANCH  42  43
HETATM   43  C26 UNL     1       1.105   8.498   9.738  1.00  0.00     0.164 C 
BRANCH  43  44
HETATM   44  O6  UNL     1       0.682   8.893   8.442  1.00  0.00    -0.401 OA
HETATM   45  H38 UNL     1       1.126   9.736   8.239  1.00  0.00     0.209 HD
ENDBRANCH  43  44
ENDBRANCH  42  43
ENDBRANCH  13  42
BRANCH   7  46
HETATM   46  C19 UNL     1      -2.137   3.920  10.694  1.00  0.00     0.265 C 
HETATM   47  O4  UNL     1      -2.307   3.065   9.829  1.00  0.00    -0.302 OA
ENDBRANCH   7  46
TORSDOF 19
ENDMDL
MODEL 6
REMARK minimizedAffinity -6.06916189
REMARK CNNscore 0.238507107
REMARK CNNaffinity 6.37773085
REMARK  19 active torsions:
REMARK  status: ('A' for Active; 'I' for Inactive)
REMARK    1  A    between atoms: C2_2  and  C3_3 
REMARK    2  A    between atoms: C2_2  and  C30_37 
REMARK    3  A    between atoms: C4_4  and  C5_5 
REMARK    4  A    between atoms: C6_6  and  C7_7 
REMARK    5  A    between atoms: C6_6  and  C11_14 
REMARK    6  A    between atoms: C7_7  and  O1_8 
REMARK    7  A    between atoms: O1_8  and  C8_9 
REMARK    8  A    between atoms: C8_9  and  C9_10 
REMARK    9  A    between atoms: C9_10  and  O2_11 
REMARK   10  A    between atoms: C9_10  and  C10_12 
REMARK   11  A    between atoms: C10_12  and  O3_13 
REMARK   12  A    between atoms: C17_20  and  C19_22 
REMARK   13  A    between atoms: C22_26  and  O5_28 
REMARK   14  A    between atoms: C24_29  and  C25_30 
REMARK   15  A    between atoms: C25_30  and  C26_31 
REMARK   16  A    between atoms: C26_31  and  O6_32 
REMARK   17  A    between atoms: C29_35  and  O7_36 
REMARK   18  A    between atoms: C30_37  and  C31_38 
REMARK   19  A    between atoms: C31_38  and  C32_39 
ROOT
HETATM    1  C11 UNL     1       2.479  10.236  14.410  1.00  0.00     0.052 C 
HETATM    2  C12 UNL     1       2.908  11.704  14.553  1.00  0.00     0.013 C 
HETATM    3  C13 UNL     1       2.519  12.083  15.966  1.00  0.00     0.017 C 
HETATM    4  C14 UNL     1       1.176  11.332  16.283  1.00  0.00     0.030 C 
HETATM    5  C15 UNL     1      -0.033  12.052  15.547  1.00  0.00     0.033 C 
HETATM    6  C16 UNL     1      -0.192  13.492  16.041  1.00  0.00    -0.066 C 
HETATM    7  C17 UNL     1      -0.390  14.570  15.235  1.00  0.00    -0.021 C 
HETATM    8  C18 UNL     1      -0.399  16.005  15.699  1.00  0.00     0.052 C 
HETATM    9  C20 UNL     1       0.023  13.682  17.533  1.00  0.00     0.038 C 
HETATM   10  C21 UNL     1      -0.035  12.396  18.342  1.00  0.00     0.042 C 
HETATM   11  C22 UNL     1       0.939  11.302  17.863  1.00  0.00     0.066 C 
HETATM   12  C23 UNL     1       2.217  11.404  18.726  1.00  0.00     0.047 C 
HETATM   13  C24 UNL     1      -1.341  11.198  15.358  1.00  0.00    -0.003 C 
HETATM   14  C27 UNL     1      -1.105   9.696  15.598  1.00  0.00     0.008 C 
HETATM   15  C28 UNL     1       0.215   9.217  15.023  1.00  0.00     0.040 C 
HETATM   16  C29 UNL     1       1.457   9.944  15.588  1.00  0.00     0.076 C 
ENDROOT
BRANCH   1  17
HETATM   17  C6  UNL     1       3.639   9.237  14.254  1.00  0.00    -0.049 C 
HETATM   18  C5  UNL     1       3.645   8.231  13.349  1.00  0.00     0.005 C 
BRANCH  18  19
HETATM   19  C4  UNL     1       2.635   7.906  12.367  1.00  0.00     0.001 C 
HETATM   20  C3  UNL     1       1.726   6.934  12.559  1.00  0.00     0.006 C 
BRANCH  20  21
HETATM   21  C2  UNL     1       0.706   6.510  11.605  1.00  0.00    -0.067 C 
HETATM   22  C1  UNL     1      -0.408   5.904  12.055  1.00  0.00     0.019 C 
BRANCH  21  23
HETATM   23  C30 UNL     1       0.927   6.699  10.115  1.00  0.00     0.041 C 
BRANCH  23  24
HETATM   24  C31 UNL     1       2.414   6.799   9.748  1.00  0.00     0.032 C 
BRANCH  24  25
HETATM   25  C32 UNL     1       2.849   5.863   8.651  1.00  0.00    -0.024 C 
HETATM   26  C33 UNL     1       2.612   5.973   7.329  1.00  0.00    -0.091 C 
HETATM   27  C34 UNL     1       1.877   7.115   6.689  1.00  0.00     0.042 C 
HETATM   28  C35 UNL     1       3.103   4.917   6.370  1.00  0.00     0.042 C 
ENDBRANCH  24  25
ENDBRANCH  23  24
ENDBRANCH  21  23
ENDBRANCH  20  21
ENDBRANCH  18  19
BRANCH  17  29
HETATM   29  C7  UNL     1       4.831   9.429  15.196  1.00  0.00     0.202 C 
BRANCH  29  30
HETATM   30  O1  UNL     1       6.076   9.091  14.571  1.00  0.00    -0.384 OA
BRANCH  30  31
HETATM   31  C8  UNL     1       7.196   9.298  15.451  1.00  0.00     0.201 C 
BRANCH  31  32
HETATM   32  C9  UNL     1       8.057   8.032  15.401  1.00  0.00     0.165 C 
BRANCH  32  33
HETATM   33  O2  UNL     1       8.628   7.813  16.702  1.00  0.00    -0.391 OA
HETATM   34  H11 UNL     1       7.874   7.902  17.320  1.00  0.00     0.210 HD
ENDBRANCH  32  33
BRANCH  32  35
HETATM   35  C10 UNL     1       9.192   8.144  14.385  1.00  0.00     0.198 C 
BRANCH  35  36
HETATM   36  O3  UNL     1       8.670   8.469  13.097  1.00  0.00    -0.398 OA
HETATM   37  H14 UNL     1       8.103   9.254  13.247  1.00  0.00     0.209 HD
ENDBRANCH  35  36
ENDBRANCH  32  35
ENDBRANCH  31  32
ENDBRANCH  30  31
ENDBRANCH  29  30
ENDBRANCH  17  29
ENDBRANCH   1  17
BRANCH  16  38
HETATM   38  O7  UNL     1       2.053   9.068  16.559  1.00  0.00    -0.388 OA
HETATM   39  H43 UNL     1       2.246   8.222  16.110  1.00  0.00     0.210 HD
ENDBRANCH  16  38
BRANCH  11  40
HETATM   40  O5  UNL     1       0.346  10.062  18.272  1.00  0.00    -0.389 OA
HETATM   41  H32 UNL     1       0.940   9.362  17.925  1.00  0.00     0.210 HD
ENDBRANCH  11  40
BRANCH  13  42
HETATM   42  C25 UNL     1      -2.672  11.588  16.052  1.00  0.00     0.031 C 
BRANCH  42  43
HETATM   43  C26 UNL     1      -3.699  10.488  16.297  1.00  0.00     0.164 C 
BRANCH  43  44
HETATM   44  O6  UNL     1      -4.806  10.636  15.423  1.00  0.00    -0.401 OA
HETATM   45  H38 UNL     1      -5.400   9.880  15.580  1.00  0.00     0.209 HD
ENDBRANCH  43  44
ENDBRANCH  42  43
ENDBRANCH  13  42
BRANCH   7  46
HETATM   46  C19 UNL     1      -0.635  14.445  13.761  1.00  0.00     0.265 C 
HETATM   47  O4  UNL     1      -1.740  14.175  13.297  1.00  0.00    -0.302 OA
ENDBRANCH   7  46
TORSDOF 19
ENDMDL
MODEL 7
REMARK minimizedAffinity -6.52678537
REMARK CNNscore 0.232597902
REMARK CNNaffinity 6.41217279
REMARK  19 active torsions:
REMARK  status: ('A' for Active; 'I' for Inactive)
REMARK    1  A    between atoms: C2_2  and  C3_3 
REMARK    2  A    between atoms: C2_2  and  C30_37 
REMARK    3  A    between atoms: C4_4  and  C5_5 
REMARK    4  A    between atoms: C6_6  and  C7_7 
REMARK    5  A    between atoms: C6_6  and  C11_14 
REMARK    6  A    between atoms: C7_7  and  O1_8 
REMARK    7  A    between atoms: O1_8  and  C8_9 
REMARK    8  A    between atoms: C8_9  and  C9_10 
REMARK    9  A    between atoms: C9_10  and  O2_11 
REMARK   10  A    between atoms: C9_10  and  C10_12 
REMARK   11  A    between atoms: C10_12  and  O3_13 
REMARK   12  A    between atoms: C17_20  and  C19_22 
REMARK   13  A    between atoms: C22_26  and  O5_28 
REMARK   14  A    between atoms: C24_29  and  C25_30 
REMARK   15  A    between atoms: C25_30  and  C26_31 
REMARK   16  A    between atoms: C26_31  and  O6_32 
REMARK   17  A    between atoms: C29_35  and  O7_36 
REMARK   18  A    between atoms: C30_37  and  C31_38 
REMARK   19  A    between atoms: C31_38  and  C32_39 
ROOT
HETATM    1  C11 UNL     1     -13.010   7.465  14.723  1.00  0.00     0.052 C 
HETATM    2  C12 UNL     1     -13.278   6.482  13.574  1.00  0.00     0.013 C 
HETATM    3  C13 UNL     1     -14.683   6.803  13.112  1.00  0.00     0.017 C 
HETATM    4  C14 UNL     1     -15.504   7.187  14.395  1.00  0.00     0.030 C 
HETATM    5  C15 UNL     1     -15.863   5.878  15.220  1.00  0.00     0.033 C 
HETATM    6  C16 UNL     1     -16.736   4.933  14.391  1.00  0.00    -0.066 C 
HETATM    7  C17 UNL     1     -16.545   3.590  14.292  1.00  0.00    -0.021 C 
HETATM    8  C18 UNL     1     -17.305   2.676  13.363  1.00  0.00     0.052 C 
HETATM    9  C20 UNL     1     -17.791   5.621  13.541  1.00  0.00     0.038 C 
HETATM   10  C21 UNL     1     -18.076   7.059  13.940  1.00  0.00     0.042 C 
HETATM   11  C22 UNL     1     -16.832   7.968  13.967  1.00  0.00     0.066 C 
HETATM   12  C23 UNL     1     -16.760   8.702  12.609  1.00  0.00     0.047 C 
HETATM   13  C24 UNL     1     -16.251   6.092  16.730  1.00  0.00    -0.003 C 
HETATM   14  C27 UNL     1     -15.871   7.492  17.244  1.00  0.00     0.008 C 
HETATM   15  C28 UNL     1     -14.523   7.955  16.725  1.00  0.00     0.040 C 
HETATM   16  C29 UNL     1     -14.423   8.020  15.184  1.00  0.00     0.076 C 
ENDROOT
BRANCH   1  17
HETATM   17  C6  UNL     1     -11.927   8.518  14.433  1.00  0.00    -0.049 C 
HETATM   18  C5  UNL     1     -10.606   8.235  14.362  1.00  0.00     0.005 C 
BRANCH  18  19
HETATM   19  C4  UNL     1      -9.958   6.951  14.509  1.00  0.00     0.001 C 
HETATM   20  C3  UNL     1      -8.681   6.739  14.145  1.00  0.00     0.006 C 
BRANCH  20  21
HETATM   21  C2  UNL     1      -7.967   5.469  14.214  1.00  0.00    -0.067 C 
HETATM   22  C1  UNL     1      -7.231   5.182  15.303  1.00  0.00     0.019 C 
BRANCH  21  23
HETATM   23  C30 UNL     1      -8.008   4.504  13.043  1.00  0.00     0.041 C 
BRANCH  23  24
HETATM   24  C31 UNL     1      -7.066   3.307  13.231  1.00  0.00     0.032 C 
BRANCH  24  25
HETATM   25  C32 UNL     1      -6.039   3.145  12.142  1.00  0.00    -0.024 C 
HETATM   26  C33 UNL     1      -4.850   3.769  12.028  1.00  0.00    -0.091 C 
HETATM   27  C34 UNL     1      -4.303   4.744  13.030  1.00  0.00     0.042 C 
HETATM   28  C35 UNL     1      -3.953   3.504  10.845  1.00  0.00     0.042 C 
ENDBRANCH  24  25
ENDBRANCH  23  24
ENDBRANCH  21  23
ENDBRANCH  20  21
ENDBRANCH  18  19
BRANCH  17  29
HETATM   29  C7  UNL     1     -12.417   9.954  14.219  1.00  0.00     0.202 C 
BRANCH  29  30
HETATM   30  O1  UNL     1     -11.808  10.876  15.132  1.00  0.00    -0.384 OA
BRANCH  30  31
HETATM   31  C8  UNL     1     -10.632  11.491  14.574  1.00  0.00     0.201 C 
BRANCH  31  32
HETATM   32  C9  UNL     1     -10.687  12.982  14.921  1.00  0.00     0.165 C 
BRANCH  32  33
HETATM   33  O2  UNL     1     -10.833  13.732  13.703  1.00  0.00    -0.391 OA
HETATM   34  H11 UNL     1     -11.561  13.284  13.225  1.00  0.00     0.210 HD
ENDBRANCH  32  33
BRANCH  32  35
HETATM   35  C10 UNL     1      -9.422  13.456  15.635  1.00  0.00     0.198 C 
BRANCH  35  36
HETATM   36  O3  UNL     1      -8.431  13.839  14.683  1.00  0.00    -0.398 OA
HETATM   37  H14 UNL     1      -8.888  14.466  14.084  1.00  0.00     0.209 HD
ENDBRANCH  35  36
ENDBRANCH  32  35
ENDBRANCH  31  32
ENDBRANCH  30  31
ENDBRANCH  29  30
ENDBRANCH  17  29
ENDBRANCH   1  17
BRANCH  16  38
HETATM   38  O7  UNL     1     -14.560   9.402  14.811  1.00  0.00    -0.388 OA
HETATM   39  H43 UNL     1     -13.869   9.903  15.286  1.00  0.00     0.210 HD
ENDBRANCH  16  38
BRANCH  11  40
HETATM   40  O5  UNL     1     -17.143   9.008  14.904  1.00  0.00    -0.389 OA
HETATM   41  H32 UNL     1     -16.333   9.559  14.960  1.00  0.00     0.210 HD
ENDBRANCH  11  40
BRANCH  13  42
HETATM   42  C25 UNL     1     -17.672   5.760  17.257  1.00  0.00     0.031 C 
BRANCH  42  43
HETATM   43  C26 UNL     1     -18.806   6.715  16.902  1.00  0.00     0.164 C 
BRANCH  43  44
HETATM   44  O6  UNL     1     -18.657   7.945  17.594  1.00  0.00    -0.401 OA
HETATM   45  H38 UNL     1     -19.370   8.534  17.288  1.00  0.00     0.209 HD
ENDBRANCH  43  44
ENDBRANCH  42  43
ENDBRANCH  13  42
BRANCH   7  46
HETATM   46  C19 UNL     1     -15.539   2.852  15.123  1.00  0.00     0.265 C 
HETATM   47  O4  UNL     1     -14.499   2.398  14.651  1.00  0.00    -0.302 OA
ENDBRANCH   7  46
TORSDOF 19
ENDMDL
MODEL 8
REMARK minimizedAffinity -7.25481081
REMARK CNNscore 0.22386235
REMARK CNNaffinity 6.4860034
REMARK  19 active torsions:
REMARK  status: ('A' for Active; 'I' for Inactive)
REMARK    1  A    between atoms: C2_2  and  C3_3 
REMARK    2  A    between atoms: C2_2  and  C30_37 
REMARK    3  A    between atoms: C4_4  and  C5_5 
REMARK    4  A    between atoms: C6_6  and  C7_7 
REMARK    5  A    between atoms: C6_6  and  C11_14 
REMARK    6  A    between atoms: C7_7  and  O1_8 
REMARK    7  A    between atoms: O1_8  and  C8_9 
REMARK    8  A    between atoms: C8_9  and  C9_10 
REMARK    9  A    between atoms: C9_10  and  O2_11 
REMARK   10  A    between atoms: C9_10  and  C10_12 
REMARK   11  A    between atoms: C10_12  and  O3_13 
REMARK   12  A    between atoms: C17_20  and  C19_22 
REMARK   13  A    between atoms: C22_26  and  O5_28 
REMARK   14  A    between atoms: C24_29  and  C25_30 
REMARK   15  A    between atoms: C25_30  and  C26_31 
REMARK   16  A    between atoms: C26_31  and  O6_32 
REMARK   17  A    between atoms: C29_35  and  O7_36 
REMARK   18  A    between atoms: C30_37  and  C31_38 
REMARK   19  A    between atoms: C31_38  and  C32_39 
ROOT
HETATM    1  C11 UNL     1      -3.629   8.024  14.076  1.00  0.00     0.052 C 
HETATM    2  C12 UNL     1      -3.547   6.524  14.397  1.00  0.00     0.013 C 
HETATM    3  C13 UNL     1      -2.090   6.280  14.725  1.00  0.00     0.017 C 
HETATM    4  C14 UNL     1      -1.250   7.212  13.780  1.00  0.00     0.030 C 
HETATM    5  C15 UNL     1      -1.224   6.610  12.311  1.00  0.00     0.033 C 
HETATM    6  C16 UNL     1      -0.556   5.233  12.297  1.00  0.00    -0.066 C 
HETATM    7  C17 UNL     1      -1.038   4.144  11.640  1.00  0.00    -0.021 C 
HETATM    8  C18 UNL     1      -0.470   2.752  11.743  1.00  0.00     0.052 C 
HETATM    9  C20 UNL     1       0.657   5.104  13.203  1.00  0.00     0.038 C 
HETATM   10  C21 UNL     1       1.243   6.431  13.658  1.00  0.00     0.042 C 
HETATM   11  C22 UNL     1       0.233   7.363  14.356  1.00  0.00     0.066 C 
HETATM   12  C23 UNL     1       0.376   7.150  15.880  1.00  0.00     0.047 C 
HETATM   13  C24 UNL     1      -0.852   7.612  11.155  1.00  0.00    -0.003 C 
HETATM   14  C27 UNL     1      -0.927   9.082  11.602  1.00  0.00     0.008 C 
HETATM   15  C28 UNL     1      -2.117   9.356  12.501  1.00  0.00     0.040 C 
HETATM   16  C29 UNL     1      -2.145   8.511  13.795  1.00  0.00     0.076 C 
ENDROOT
BRANCH   1  17
HETATM   17  C6  UNL     1      -4.437   8.857  15.086  1.00  0.00    -0.049 C 
HETATM   18  C5  UNL     1      -5.769   8.715  15.279  1.00  0.00     0.005 C 
BRANCH  18  19
HETATM   19  C4  UNL     1      -6.671   7.786  14.636  1.00  0.00     0.001 C 
HETATM   20  C3  UNL     1      -7.987   7.750  14.909  1.00  0.00     0.006 C 
BRANCH  20  21
HETATM   21  C2  UNL     1      -8.957   6.818  14.344  1.00  0.00    -0.067 C 
HETATM   22  C1  UNL     1      -8.528   5.809  13.564  1.00  0.00     0.019 C 
BRANCH  21  23
HETATM   23  C30 UNL     1     -10.442   7.018  14.588  1.00  0.00     0.041 C 
BRANCH  23  24
HETATM   24  C31 UNL     1     -11.141   7.725  13.419  1.00  0.00     0.032 C 
BRANCH  24  25
HETATM   25  C32 UNL     1     -12.517   7.199  13.106  1.00  0.00    -0.024 C 
HETATM   26  C33 UNL     1     -13.638   7.908  12.865  1.00  0.00    -0.091 C 
HETATM   27  C34 UNL     1     -13.703   9.407  12.824  1.00  0.00     0.042 C 
HETATM   28  C35 UNL     1     -14.946   7.208  12.595  1.00  0.00     0.042 C 
ENDBRANCH  24  25
ENDBRANCH  23  24
ENDBRANCH  21  23
ENDBRANCH  20  21
ENDBRANCH  18  19
BRANCH  17  29
HETATM   29  C7  UNL     1      -3.650   9.892  15.897  1.00  0.00     0.202 C 
BRANCH  29  30
HETATM   30  O1  UNL     1      -3.843  11.225  15.407  1.00  0.00    -0.384 OA
BRANCH  30  31
HETATM   31  C8  UNL     1      -3.446  12.217  16.371  1.00  0.00     0.201 C 
BRANCH  31  32
HETATM   32  C9  UNL     1      -1.916  12.198  16.443  1.00  0.00     0.165 C 
BRANCH  32  33
HETATM   33  O2  UNL     1      -1.506  12.815  17.675  1.00  0.00    -0.391 OA
HETATM   34  H11 UNL     1      -2.062  12.391  18.360  1.00  0.00     0.210 HD
ENDBRANCH  32  33
BRANCH  32  35
HETATM   35  C10 UNL     1      -1.273  12.954  15.282  1.00  0.00     0.198 C 
BRANCH  35  36
HETATM   36  O3  UNL     1      -1.522  12.273  14.052  1.00  0.00    -0.398 OA
HETATM   37  H14 UNL     1      -2.491  12.134  14.035  1.00  0.00     0.209 HD
ENDBRANCH  35  36
ENDBRANCH  32  35
ENDBRANCH  31  32
ENDBRANCH  30  31
ENDBRANCH  29  30
ENDBRANCH  17  29
ENDBRANCH   1  17
BRANCH  16  38
HETATM   38  O7  UNL     1      -1.688   9.359  14.862  1.00  0.00    -0.388 OA
HETATM   39  H43 UNL     1      -2.267  10.146  14.878  1.00  0.00     0.210 HD
ENDBRANCH  16  38
BRANCH  11  40
HETATM   40  O5  UNL     1       0.735   8.690  14.146  1.00  0.00    -0.389 OA
HETATM   41  H32 UNL     1       0.068   9.288  14.547  1.00  0.00     0.210 HD
ENDBRANCH  11  40
BRANCH  13  42
HETATM   42  C25 UNL     1       0.438   7.435  10.312  1.00  0.00     0.031 C 
BRANCH  42  43
HETATM   43  C26 UNL     1       0.401   7.866   8.850  1.00  0.00     0.164 C 
BRANCH  43  44
HETATM   44  O6  UNL     1      -0.327   9.075   8.706  1.00  0.00    -0.401 OA
HETATM   45  H38 UNL     1      -0.270   9.334   7.768  1.00  0.00     0.209 HD
ENDBRANCH  43  44
ENDBRANCH  42  43
ENDBRANCH  13  42
BRANCH   7  46
HETATM   46  C19 UNL     1      -2.214   4.215  10.712  1.00  0.00     0.265 C 
HETATM   47  O4  UNL     1      -2.542   3.276   9.991  1.00  0.00    -0.302 OA
ENDBRANCH   7  46
TORSDOF 19
ENDMDL
MODEL 9
REMARK minimizedAffinity -7.31876469
REMARK CNNscore 0.221771836
REMARK CNNaffinity 6.41155434
REMARK  19 active torsions:
REMARK  status: ('A' for Active; 'I' for Inactive)
REMARK    1  A    between atoms: C2_2  and  C3_3 
REMARK    2  A    between atoms: C2_2  and  C30_37 
REMARK    3  A    between atoms: C4_4  and  C5_5 
REMARK    4  A    between atoms: C6_6  and  C7_7 
REMARK    5  A    between atoms: C6_6  and  C11_14 
REMARK    6  A    between atoms: C7_7  and  O1_8 
REMARK    7  A    between atoms: O1_8  and  C8_9 
REMARK    8  A    between atoms: C8_9  and  C9_10 
REMARK    9  A    between atoms: C9_10  and  O2_11 
REMARK   10  A    between atoms: C9_10  and  C10_12 
REMARK   11  A    between atoms: C10_12  and  O3_13 
REMARK   12  A    between atoms: C17_20  and  C19_22 
REMARK   13  A    between atoms: C22_26  and  O5_28 
REMARK   14  A    between atoms: C24_29  and  C25_30 
REMARK   15  A    between atoms: C25_30  and  C26_31 
REMARK   16  A    between atoms: C26_31  and  O6_32 
REMARK   17  A    between atoms: C29_35  and  O7_36 
REMARK   18  A    between atoms: C30_37  and  C31_38 
REMARK   19  A    between atoms: C31_38  and  C32_39 
ROOT
HETATM    1  C11 UNL     1      -2.455   9.205  14.105  1.00  0.00     0.052 C 
HETATM    2  C12 UNL     1      -2.301   8.860  12.616  1.00  0.00     0.013 C 
HETATM    3  C13 UNL     1      -1.950   7.387  12.596  1.00  0.00     0.017 C 
HETATM    4  C14 UNL     1      -1.040   7.123  13.849  1.00  0.00     0.030 C 
HETATM    5  C15 UNL     1       0.424   7.677  13.580  1.00  0.00     0.033 C 
HETATM    6  C16 UNL     1       1.070   6.960  12.392  1.00  0.00    -0.066 C 
HETATM    7  C17 UNL     1       1.750   7.579  11.390  1.00  0.00    -0.021 C 
HETATM    8  C18 UNL     1       2.259   6.899  10.144  1.00  0.00     0.052 C 
HETATM    9  C20 UNL     1       0.785   5.469  12.317  1.00  0.00     0.038 C 
HETATM   10  C21 UNL     1       0.259   4.865  13.608  1.00  0.00     0.042 C 
HETATM   11  C22 UNL     1      -1.003   5.556  14.162  1.00  0.00     0.066 C 
HETATM   12  C23 UNL     1      -2.229   4.753  13.670  1.00  0.00     0.047 C 
HETATM   13  C24 UNL     1       1.317   7.929  14.852  1.00  0.00    -0.003 C 
HETATM   14  C27 UNL     1       0.499   7.935  16.155  1.00  0.00     0.008 C 
HETATM   15  C28 UNL     1      -0.834   8.642  16.000  1.00  0.00     0.040 C 
HETATM   16  C29 UNL     1      -1.755   8.036  14.917  1.00  0.00     0.076 C 
ENDROOT
BRANCH   1  17
HETATM   17  C6  UNL     1      -3.885   9.571  14.538  1.00  0.00    -0.049 C 
HETATM   18  C5  UNL     1      -4.971   8.815  14.252  1.00  0.00     0.005 C 
BRANCH  18  19
HETATM   19  C4  UNL     1      -5.022   7.557  13.541  1.00  0.00     0.001 C 
HETATM   20  C3  UNL     1      -5.991   6.649  13.749  1.00  0.00     0.006 C 
BRANCH  20  21
HETATM   21  C2  UNL     1      -6.092   5.340  13.112  1.00  0.00    -0.067 C 
HETATM   22  C1  UNL     1      -4.994   4.780  12.572  1.00  0.00     0.019 C 
BRANCH  21  23
HETATM   23  C30 UNL     1      -7.436   4.641  13.010  1.00  0.00     0.041 C 
BRANCH  23  24
HETATM   24  C31 UNL     1      -8.576   5.605  12.653  1.00  0.00     0.032 C 
BRANCH  24  25
HETATM   25  C32 UNL     1      -9.150   6.353  13.826  1.00  0.00    -0.024 C 
HETATM   26  C33 UNL     1     -10.222   7.170  13.841  1.00  0.00    -0.091 C 
HETATM   27  C34 UNL     1     -11.090   7.455  12.650  1.00  0.00     0.042 C 
HETATM   28  C35 UNL     1     -10.641   7.866  15.112  1.00  0.00     0.042 C 
ENDBRANCH  24  25
ENDBRANCH  23  24
ENDBRANCH  21  23
ENDBRANCH  20  21
ENDBRANCH  18  19
BRANCH  17  29
HETATM   29  C7  UNL     1      -4.043  10.870  15.334  1.00  0.00     0.202 C 
BRANCH  29  30
HETATM   30  O1  UNL     1      -2.786  11.375  15.804  1.00  0.00    -0.384 OA
BRANCH  30  31
HETATM   31  C8  UNL     1      -2.608  12.765  15.478  1.00  0.00     0.201 C 
BRANCH  31  32
HETATM   32  C9  UNL     1      -1.476  12.853  14.449  1.00  0.00     0.165 C 
BRANCH  32  33
HETATM   33  O2  UNL     1      -0.238  12.516  15.097  1.00  0.00    -0.391 OA
HETATM   34  H11 UNL     1      -0.433  11.689  15.585  1.00  0.00     0.210 HD
ENDBRANCH  32  33
BRANCH  32  35
HETATM   35  C10 UNL     1      -1.347  14.252  13.849  1.00  0.00     0.198 C 
BRANCH  35  36
HETATM   36  O3  UNL     1      -2.499  14.562  13.066  1.00  0.00    -0.398 OA
HETATM   37  H14 UNL     1      -3.259  14.379  13.657  1.00  0.00     0.209 HD
ENDBRANCH  35  36
ENDBRANCH  32  35
ENDBRANCH  31  32
ENDBRANCH  30  31
ENDBRANCH  29  30
ENDBRANCH  17  29
ENDBRANCH   1  17
BRANCH  16  38
HETATM   38  O7  UNL     1      -2.741   7.243  15.598  1.00  0.00    -0.388 OA
HETATM   39  H43 UNL     1      -3.195   7.826  16.237  1.00  0.00     0.210 HD
ENDBRANCH  16  38
BRANCH  11  40
HETATM   40  O5  UNL     1      -0.978   5.313  15.576  1.00  0.00    -0.389 OA
HETATM   41  H32 UNL     1      -1.753   5.793  15.936  1.00  0.00     0.210 HD
ENDBRANCH  11  40
BRANCH  13  42
HETATM   42  C25 UNL     1       2.613   7.116  15.107  1.00  0.00     0.031 C 
BRANCH  42  43
HETATM   43  C26 UNL     1       3.941   7.864  15.083  1.00  0.00     0.164 C 
BRANCH  43  44
HETATM   44  O6  UNL     1       4.983   7.046  15.593  1.00  0.00    -0.401 OA
HETATM   45  H38 UNL     1       5.813   7.547  15.501  1.00  0.00     0.209 HD
ENDBRANCH  43  44
ENDBRANCH  42  43
ENDBRANCH  13  42
BRANCH   7  46
HETATM   46  C19 UNL     1       2.084   9.040  11.422  1.00  0.00     0.265 C 
HETATM   47  O4  UNL     1       3.044   9.483  12.047  1.00  0.00    -0.302 OA
ENDBRANCH   7  46
TORSDOF 19
ENDMDL
