MODEL 1
REMARK minimizedAffinity -9.83817863
REMARK  7 active torsions:
REMARK  status: ('A' for Active; 'I' for Inactive)
REMARK    1  A    between atoms: C2_2  and  C4_4 
REMARK    2  A    between atoms: C7_7  and  C8_8 
REMARK    3  A    between atoms: C8_8  and  O2_10 
REMARK    4  A    between atoms: C15_17  and  O3_18 
REMARK    5  A    between atoms: C21_24  and  O4_25 
REMARK    6  A    between atoms: C22_26  and  C24_28 
REMARK    7  A    between atoms: C24_28  and  O5_29 
ROOT
HETATM    1  C4  UNL     1       0.130  52.106 -23.151  1.00  0.00     0.019 C 
HETATM    2  C5  UNL     1       0.736  52.932 -24.319  1.00  0.00     0.011 C 
HETATM    3  C6  UNL     1      -0.418  53.234 -25.291  1.00  0.00     0.021 C 
HETATM    4  C7  UNL     1      -1.447  52.140 -24.994  1.00  0.00     0.050 C 
HETATM    5  C9  UNL     1      -2.884  52.455 -25.418  1.00  0.00     0.022 C 
HETATM    6  C10 UNL     1      -3.837  51.371 -24.878  1.00  0.00     0.011 C 
HETATM    7  C11 UNL     1      -3.797  51.151 -23.317  1.00  0.00    -0.032 C 
HETATM    8  C12 UNL     1      -4.433  52.451 -22.724  1.00  0.00     0.016 C 
HETATM    9  C13 UNL     1      -2.304  51.020 -22.842  1.00  0.00     0.003 C 
HETATM   10  C14 UNL     1      -2.224  51.001 -21.311  1.00  0.00     0.038 C 
HETATM   11  C15 UNL     1      -3.245  50.084 -20.627  1.00  0.00     0.124 C 
HETATM   12  C16 UNL     1      -3.946  49.078 -21.573  1.00  0.00     0.032 C 
HETATM   13  C17 UNL     1      -4.881  47.993 -20.802  1.00  0.00    -0.033 C 
HETATM   14  C18 UNL     1      -4.834  46.659 -21.610  1.00  0.00     0.016 C 
HETATM   15  C19 UNL     1      -4.306  47.650 -19.390  1.00  0.00     0.012 C 
HETATM   16  C20 UNL     1      -5.209  46.765 -18.526  1.00  0.00     0.033 C 
HETATM   17  C21 UNL     1      -6.613  47.346 -18.372  1.00  0.00     0.128 C 
HETATM   18  C22 UNL     1      -7.319  47.678 -19.723  1.00  0.00     0.007 C 
HETATM   19  C23 UNL     1      -7.762  46.363 -20.402  1.00  0.00     0.020 C 
HETATM   20  C25 UNL     1      -6.344  48.548 -20.622  1.00  0.00     0.007 C 
HETATM   21  C26 UNL     1      -6.931  48.989 -21.974  1.00  0.00     0.007 C 
HETATM   22  C27 UNL     1      -6.103  50.123 -22.573  1.00  0.00     0.011 C 
HETATM   23  C28 UNL     1      -4.614  49.793 -22.847  1.00  0.00    -0.030 C 
HETATM   24  C29 UNL     1      -4.590  48.766 -24.020  1.00  0.00     0.016 C 
HETATM   25  C30 UNL     1      -1.390  52.115 -23.451  1.00  0.00     0.017 C 
ENDROOT
BRANCH   4  26
HETATM   26  C8  UNL     1      -0.972  50.856 -25.692  1.00  0.00     0.149 C 
HETATM   27  O1  UNL     1       0.147  50.598 -26.099  1.00  0.00    -0.649 OA
BRANCH  26  28
HETATM   28  O2  UNL     1      -1.962  49.954 -25.861  1.00  0.00    -0.776 OA
HETATM   29  H11 UNL     1      -1.524  49.204 -26.314  1.00  0.00     0.167 HD
ENDBRANCH  26  28
ENDBRANCH   4  26
BRANCH   1  30
HETATM   30  C2  UNL     1       0.628  52.636 -21.815  1.00  0.00    -0.088 C 
HETATM   31  C1  UNL     1       0.566  51.963 -20.653  1.00  0.00     0.014 C 
HETATM   32  C3  UNL     1       1.193  54.033 -21.856  1.00  0.00     0.043 C 
ENDBRANCH   1  30
BRANCH  11  33
HETATM   33  O3  UNL     1      -4.202  50.845 -19.899  1.00  0.00    -0.395 OA
HETATM   34  H23 UNL     1      -3.714  51.464 -19.328  1.00  0.00     0.210 HD
ENDBRANCH  11  33
BRANCH  18  35
HETATM   35  C24 UNL     1      -8.609  48.489 -19.364  1.00  0.00     0.176 C 
BRANCH  35  36
HETATM   36  O5  UNL     1      -8.459  49.324 -18.220  1.00  0.00    -0.400 OA
HETATM   37  H39 UNL     1      -7.967  50.116 -18.497  1.00  0.00     0.209 HD
ENDBRANCH  35  36
ENDBRANCH  18  35
BRANCH  17  38
HETATM   38  O4  UNL     1      -6.533  48.502 -17.530  1.00  0.00    -0.395 OA
HETATM   39  H33 UNL     1      -6.008  49.186 -17.984  1.00  0.00     0.210 HD
ENDBRANCH  17  38
TORSDOF 7
ENDMDL
MODEL 2
REMARK minimizedAffinity -9.22935772
REMARK  7 active torsions:
REMARK  status: ('A' for Active; 'I' for Inactive)
REMARK    1  A    between atoms: C2_2  and  C4_4 
REMARK    2  A    between atoms: C7_7  and  C8_8 
REMARK    3  A    between atoms: C8_8  and  O2_10 
REMARK    4  A    between atoms: C15_17  and  O3_18 
REMARK    5  A    between atoms: C21_24  and  O4_25 
REMARK    6  A    between atoms: C22_26  and  C24_28 
REMARK    7  A    between atoms: C24_28  and  O5_29 
ROOT
HETATM    1  C4  UNL     1      -0.349  51.056 -26.018  1.00  0.00     0.019 C 
HETATM    2  C5  UNL     1      -0.836  51.263 -27.479  1.00  0.00     0.011 C 
HETATM    3  C6  UNL     1      -2.364  51.429 -27.416  1.00  0.00     0.021 C 
HETATM    4  C7  UNL     1      -2.755  50.754 -26.098  1.00  0.00     0.050 C 
HETATM    5  C9  UNL     1      -4.100  51.186 -25.509  1.00  0.00     0.022 C 
HETATM    6  C10 UNL     1      -4.269  50.591 -24.099  1.00  0.00     0.011 C 
HETATM    7  C11 UNL     1      -3.121  50.941 -23.075  1.00  0.00    -0.032 C 
HETATM    8  C12 UNL     1      -3.303  52.468 -22.794  1.00  0.00     0.016 C 
HETATM    9  C13 UNL     1      -1.722  50.682 -23.743  1.00  0.00     0.003 C 
HETATM   10  C14 UNL     1      -0.591  51.197 -22.846  1.00  0.00     0.038 C 
HETATM   11  C15 UNL     1      -0.725  50.818 -21.366  1.00  0.00     0.124 C 
HETATM   12  C16 UNL     1      -1.766  49.709 -21.073  1.00  0.00     0.032 C 
HETATM   13  C17 UNL     1      -1.759  49.191 -19.532  1.00  0.00    -0.033 C 
HETATM   14  C18 UNL     1      -2.138  47.678 -19.531  1.00  0.00     0.016 C 
HETATM   15  C19 UNL     1      -0.326  49.266 -18.914  1.00  0.00     0.012 C 
HETATM   16  C20 UNL     1      -0.254  48.957 -17.416  1.00  0.00     0.033 C 
HETATM   17  C21 UNL     1      -1.202  49.832 -16.599  1.00  0.00     0.128 C 
HETATM   18  C22 UNL     1      -2.684  49.797 -17.084  1.00  0.00     0.007 C 
HETATM   19  C23 UNL     1      -3.319  48.449 -16.680  1.00  0.00     0.020 C 
HETATM   20  C25 UNL     1      -2.727  50.065 -18.648  1.00  0.00     0.007 C 
HETATM   21  C26 UNL     1      -4.139  50.104 -19.258  1.00  0.00     0.007 C 
HETATM   22  C27 UNL     1      -4.106  50.750 -20.641  1.00  0.00     0.011 C 
HETATM   23  C28 UNL     1      -3.211  50.043 -21.690  1.00  0.00    -0.030 C 
HETATM   24  C29 UNL     1      -3.897  48.683 -22.022  1.00  0.00     0.016 C 
HETATM   25  C30 UNL     1      -1.631  51.271 -25.175  1.00  0.00     0.017 C 
ENDROOT
BRANCH   4  26
HETATM   26  C8  UNL     1      -2.762  49.236 -26.342  1.00  0.00     0.149 C 
HETATM   27  O1  UNL     1      -2.438  48.354 -25.566  1.00  0.00    -0.649 OA
BRANCH  26  28
HETATM   28  O2  UNL     1      -3.168  48.907 -27.586  1.00  0.00    -0.776 OA
HETATM   29  H11 UNL     1      -3.119  47.928 -27.600  1.00  0.00     0.167 HD
ENDBRANCH  26  28
ENDBRANCH   4  26
BRANCH   1  30
HETATM   30  C2  UNL     1       0.876  51.913 -25.743  1.00  0.00    -0.088 C 
HETATM   31  C1  UNL     1       0.850  53.113 -25.136  1.00  0.00     0.014 C 
HETATM   32  C3  UNL     1       2.179  51.336 -26.234  1.00  0.00     0.043 C 
ENDBRANCH   1  30
BRANCH  11  33
HETATM   33  O3  UNL     1      -0.976  51.971 -20.569  1.00  0.00    -0.395 OA
HETATM   34  H23 UNL     1      -0.304  52.637 -20.794  1.00  0.00     0.210 HD
ENDBRANCH  11  33
BRANCH  18  35
HETATM   35  C24 UNL     1      -3.434  50.932 -16.309  1.00  0.00     0.176 C 
BRANCH  35  36
HETATM   36  O5  UNL     1      -3.327  50.823 -14.893  1.00  0.00    -0.400 OA
HETATM   37  H39 UNL     1      -2.448  51.151 -14.639  1.00  0.00     0.209 HD
ENDBRANCH  35  36
ENDBRANCH  18  35
BRANCH  17  38
HETATM   38  O4  UNL     1      -0.688  51.169 -16.592  1.00  0.00    -0.395 OA
HETATM   39  H33 UNL     1      -0.716  51.520 -17.501  1.00  0.00     0.210 HD
ENDBRANCH  17  38
TORSDOF 7
ENDMDL
MODEL 3
REMARK minimizedAffinity -8.65626812
REMARK  7 active torsions:
REMARK  status: ('A' for Active; 'I' for Inactive)
REMARK    1  A    between atoms: C2_2  and  C4_4 
REMARK    2  A    between atoms: C7_7  and  C8_8 
REMARK    3  A    between atoms: C8_8  and  O2_10 
REMARK    4  A    between atoms: C15_17  and  O3_18 
REMARK    5  A    between atoms: C21_24  and  O4_25 
REMARK    6  A    between atoms: C22_26  and  C24_28 
REMARK    7  A    between atoms: C24_28  and  O5_29 
ROOT
HETATM    1  C4  UNL     1      -0.957  52.025 -22.501  1.00  0.00     0.019 C 
HETATM    2  C5  UNL     1       0.336  52.402 -21.726  1.00  0.00     0.011 C 
HETATM    3  C6  UNL     1       0.595  51.268 -20.720  1.00  0.00     0.021 C 
HETATM    4  C7  UNL     1      -0.781  50.622 -20.529  1.00  0.00     0.050 C 
HETATM    5  C9  UNL     1      -0.767  49.185 -20.001  1.00  0.00     0.022 C 
HETATM    6  C10 UNL     1      -2.189  48.596 -20.054  1.00  0.00     0.011 C 
HETATM    7  C11 UNL     1      -2.879  48.618 -21.472  1.00  0.00    -0.032 C 
HETATM    8  C12 UNL     1      -2.076  47.571 -22.312  1.00  0.00     0.016 C 
HETATM    9  C13 UNL     1      -2.728  50.047 -22.109  1.00  0.00     0.003 C 
HETATM   10  C14 UNL     1      -3.214  50.044 -23.564  1.00  0.00     0.038 C 
HETATM   11  C15 UNL     1      -4.552  49.330 -23.790  1.00  0.00     0.124 C 
HETATM   12  C16 UNL     1      -5.355  49.037 -22.499  1.00  0.00     0.032 C 
HETATM   13  C17 UNL     1      -6.848  48.452 -22.773  1.00  0.00    -0.033 C 
HETATM   14  C18 UNL     1      -7.781  48.963 -21.631  1.00  0.00     0.016 C 
HETATM   15  C19 UNL     1      -7.449  49.027 -24.096  1.00  0.00     0.012 C 
HETATM   16  C20 UNL     1      -8.783  48.404 -24.519  1.00  0.00     0.033 C 
HETATM   17  C21 UNL     1      -8.704  46.882 -24.621  1.00  0.00     0.128 C 
HETATM   18  C22 UNL     1      -8.171  46.183 -23.332  1.00  0.00     0.007 C 
HETATM   19  C23 UNL     1      -9.265  46.217 -22.244  1.00  0.00     0.020 C 
HETATM   20  C25 UNL     1      -6.819  46.881 -22.882  1.00  0.00     0.007 C 
HETATM   21  C26 UNL     1      -6.152  46.259 -21.642  1.00  0.00     0.007 C 
HETATM   22  C27 UNL     1      -4.700  46.718 -21.528  1.00  0.00     0.011 C 
HETATM   23  C28 UNL     1      -4.488  48.248 -21.401  1.00  0.00    -0.030 C 
HETATM   24  C29 UNL     1      -5.033  48.660 -19.999  1.00  0.00     0.016 C 
HETATM   25  C30 UNL     1      -1.284  50.599 -21.989  1.00  0.00     0.017 C 
ENDROOT
BRANCH   4  26
HETATM   26  C8  UNL     1      -1.582  51.517 -19.570  1.00  0.00     0.149 C 
HETATM   27  O1  UNL     1      -2.789  51.676 -19.529  1.00  0.00    -0.649 OA
BRANCH  26  28
HETATM   28  O2  UNL     1      -0.796  52.195 -18.706  1.00  0.00    -0.776 OA
HETATM   29  H11 UNL     1      -1.429  52.716 -18.170  1.00  0.00     0.167 HD
ENDBRANCH  26  28
ENDBRANCH   4  26
BRANCH   1  30
HETATM   30  C2  UNL     1      -0.767  52.255 -23.992  1.00  0.00    -0.088 C 
HETATM   31  C1  UNL     1      -1.516  51.690 -24.955  1.00  0.00     0.014 C 
HETATM   32  C3  UNL     1       0.376  53.168 -24.353  1.00  0.00     0.043 C 
ENDBRANCH   1  30
BRANCH  11  33
HETATM   33  O3  UNL     1      -4.369  48.142 -24.554  1.00  0.00    -0.395 OA
HETATM   34  H23 UNL     1      -3.855  48.378 -25.346  1.00  0.00     0.210 HD
ENDBRANCH  11  33
BRANCH  18  35
HETATM   35  C24 UNL     1      -7.918  44.685 -23.710  1.00  0.00     0.176 C 
BRANCH  35  36
HETATM   36  O5  UNL     1      -9.105  43.898 -23.750  1.00  0.00    -0.400 OA
HETATM   37  H39 UNL     1      -9.559  44.093 -24.587  1.00  0.00     0.209 HD
ENDBRANCH  35  36
ENDBRANCH  18  35
BRANCH  17  38
HETATM   38  O4  UNL     1      -7.909  46.546 -25.763  1.00  0.00    -0.395 OA
HETATM   39  H33 UNL     1      -6.996  46.851 -25.610  1.00  0.00     0.210 HD
ENDBRANCH  17  38
TORSDOF 7
ENDMDL
MODEL 4
REMARK minimizedAffinity -8.38318634
REMARK  7 active torsions:
REMARK  status: ('A' for Active; 'I' for Inactive)
REMARK    1  A    between atoms: C2_2  and  C4_4 
REMARK    2  A    between atoms: C7_7  and  C8_8 
REMARK    3  A    between atoms: C8_8  and  O2_10 
REMARK    4  A    between atoms: C15_17  and  O3_18 
REMARK    5  A    between atoms: C21_24  and  O4_25 
REMARK    6  A    between atoms: C22_26  and  C24_28 
REMARK    7  A    between atoms: C24_28  and  O5_29 
ROOT
HETATM    1  C4  UNL     1      -6.525  47.516 -23.197  1.00  0.00     0.019 C 
HETATM    2  C5  UNL     1      -7.219  46.822 -21.992  1.00  0.00     0.011 C 
HETATM    3  C6  UNL     1      -6.650  47.473 -20.719  1.00  0.00     0.021 C 
HETATM    4  C7  UNL     1      -5.304  48.048 -21.169  1.00  0.00     0.050 C 
HETATM    5  C9  UNL     1      -4.741  49.171 -20.294  1.00  0.00     0.022 C 
HETATM    6  C10 UNL     1      -3.503  49.789 -20.970  1.00  0.00     0.011 C 
HETATM    7  C11 UNL     1      -3.731  50.338 -22.430  1.00  0.00    -0.032 C 
HETATM    8  C12 UNL     1      -4.641  51.596 -22.234  1.00  0.00     0.016 C 
HETATM    9  C13 UNL     1      -4.486  49.259 -23.287  1.00  0.00     0.003 C 
HETATM   10  C14 UNL     1      -4.896  49.837 -24.647  1.00  0.00     0.038 C 
HETATM   11  C15 UNL     1      -3.797  50.634 -25.360  1.00  0.00     0.124 C 
HETATM   12  C16 UNL     1      -2.375  50.440 -24.777  1.00  0.00     0.032 C 
HETATM   13  C17 UNL     1      -1.202  51.141 -25.660  1.00  0.00    -0.033 C 
HETATM   14  C18 UNL     1       0.084  50.268 -25.530  1.00  0.00     0.016 C 
HETATM   15  C19 UNL     1      -1.559  51.141 -27.181  1.00  0.00     0.012 C 
HETATM   16  C20 UNL     1      -0.591  51.929 -28.068  1.00  0.00     0.033 C 
HETATM   17  C21 UNL     1      -0.411  53.368 -27.593  1.00  0.00     0.128 C 
HETATM   18  C22 UNL     1       0.006  53.500 -26.095  1.00  0.00     0.007 C 
HETATM   19  C23 UNL     1       1.487  53.092 -25.942  1.00  0.00     0.020 C 
HETATM   20  C25 UNL     1      -0.978  52.632 -25.202  1.00  0.00     0.007 C 
HETATM   21  C26 UNL     1      -0.711  52.704 -23.689  1.00  0.00     0.007 C 
HETATM   22  C27 UNL     1      -1.914  52.183 -22.907  1.00  0.00     0.011 C 
HETATM   23  C28 UNL     1      -2.316  50.714 -23.196  1.00  0.00    -0.030 C 
HETATM   24  C29 UNL     1      -1.181  49.817 -22.614  1.00  0.00     0.016 C 
HETATM   25  C30 UNL     1      -5.698  48.648 -22.536  1.00  0.00     0.017 C 
ENDROOT
BRANCH   4  26
HETATM   26  C8  UNL     1      -4.300  46.885 -21.224  1.00  0.00     0.149 C 
HETATM   27  O1  UNL     1      -4.527  45.714 -21.475  1.00  0.00    -0.649 OA
BRANCH  26  28
HETATM   28  O2  UNL     1      -3.039  47.266 -20.934  1.00  0.00    -0.776 OA
HETATM   29  H11 UNL     1      -2.519  46.438 -21.002  1.00  0.00     0.167 HD
ENDBRANCH  26  28
ENDBRANCH   4  26
BRANCH   1  30
HETATM   30  C2  UNL     1      -7.548  47.868 -24.265  1.00  0.00    -0.088 C 
HETATM   31  C1  UNL     1      -8.362  48.938 -24.224  1.00  0.00     0.014 C 
HETATM   32  C3  UNL     1      -7.629  46.895 -25.413  1.00  0.00     0.043 C 
ENDBRANCH   1  30
BRANCH  11  33
HETATM   33  O3  UNL     1      -4.134  52.016 -25.425  1.00  0.00    -0.395 OA
HETATM   34  H23 UNL     1      -5.034  52.083 -25.788  1.00  0.00     0.210 HD
ENDBRANCH  11  33
BRANCH  18  35
HETATM   35  C24 UNL     1      -0.114  55.018 -25.730  1.00  0.00     0.176 C 
BRANCH  35  36
HETATM   36  O5  UNL     1       0.239  55.891 -26.799  1.00  0.00    -0.400 OA
HETATM   37  H39 UNL     1      -0.512  55.920 -27.415  1.00  0.00     0.209 HD
ENDBRANCH  35  36
ENDBRANCH  18  35
BRANCH  17  38
HETATM   38  O4  UNL     1      -1.621  54.086 -27.861  1.00  0.00    -0.395 OA
HETATM   39  H33 UNL     1      -2.336  53.712 -27.315  1.00  0.00     0.210 HD
ENDBRANCH  17  38
TORSDOF 7
ENDMDL
MODEL 5
REMARK minimizedAffinity -8.3495636
REMARK  7 active torsions:
REMARK  status: ('A' for Active; 'I' for Inactive)
REMARK    1  A    between atoms: C2_2  and  C4_4 
REMARK    2  A    between atoms: C7_7  and  C8_8 
REMARK    3  A    between atoms: C8_8  and  O2_10 
REMARK    4  A    between atoms: C15_17  and  O3_18 
REMARK    5  A    between atoms: C21_24  and  O4_25 
REMARK    6  A    between atoms: C22_26  and  C24_28 
REMARK    7  A    between atoms: C24_28  and  O5_29 
ROOT
HETATM    1  C4  UNL     1      -0.360  51.977 -18.808  1.00  0.00     0.019 C 
HETATM    2  C5  UNL     1       0.703  51.976 -17.675  1.00  0.00     0.011 C 
HETATM    3  C6  UNL     1       0.627  50.597 -16.998  1.00  0.00     0.021 C 
HETATM    4  C7  UNL     1      -0.784  50.101 -17.329  1.00  0.00     0.050 C 
HETATM    5  C9  UNL     1      -0.988  48.586 -17.240  1.00  0.00     0.022 C 
HETATM    6  C10 UNL     1      -2.377  48.213 -17.793  1.00  0.00     0.011 C 
HETATM    7  C11 UNL     1      -2.668  48.688 -19.268  1.00  0.00    -0.032 C 
HETATM    8  C12 UNL     1      -1.731  47.802 -20.154  1.00  0.00     0.016 C 
HETATM    9  C13 UNL     1      -2.277  50.202 -19.422  1.00  0.00     0.003 C 
HETATM   10  C14 UNL     1      -2.364  50.637 -20.889  1.00  0.00     0.038 C 
HETATM   11  C15 UNL     1      -3.633  50.179 -21.618  1.00  0.00     0.124 C 
HETATM   12  C16 UNL     1      -4.762  49.664 -20.691  1.00  0.00     0.032 C 
HETATM   13  C17 UNL     1      -6.160  49.362 -21.464  1.00  0.00    -0.033 C 
HETATM   14  C18 UNL     1      -7.330  49.671 -20.480  1.00  0.00     0.016 C 
HETATM   15  C19 UNL     1      -6.361  50.330 -22.675  1.00  0.00     0.012 C 
HETATM   16  C20 UNL     1      -7.569  50.009 -23.560  1.00  0.00     0.033 C 
HETATM   17  C21 UNL     1      -7.550  48.569 -24.065  1.00  0.00     0.128 C 
HETATM   18  C22 UNL     1      -7.412  47.498 -22.938  1.00  0.00     0.007 C 
HETATM   19  C23 UNL     1      -8.750  47.386 -22.176  1.00  0.00     0.020 C 
HETATM   20  C25 UNL     1      -6.190  47.881 -22.002  1.00  0.00     0.007 C 
HETATM   21  C26 UNL     1      -5.906  46.882 -20.867  1.00  0.00     0.007 C 
HETATM   22  C27 UNL     1      -4.512  47.110 -20.288  1.00  0.00     0.011 C 
HETATM   23  C28 UNL     1      -4.258  48.516 -19.688  1.00  0.00    -0.030 C 
HETATM   24  C29 UNL     1      -5.127  48.616 -18.397  1.00  0.00     0.016 C 
HETATM   25  C30 UNL     1      -0.887  50.520 -18.811  1.00  0.00     0.017 C 
ENDROOT
BRANCH   4  26
HETATM   26  C8  UNL     1      -1.758  50.810 -16.374  1.00  0.00     0.149 C 
HETATM   27  O1  UNL     1      -1.675  50.913 -15.163  1.00  0.00    -0.649 OA
BRANCH  26  28
HETATM   28  O2  UNL     1      -2.820  51.346 -17.012  1.00  0.00    -0.776 OA
HETATM   29  H11 UNL     1      -3.347  51.753 -16.293  1.00  0.00     0.167 HD
ENDBRANCH  26  28
ENDBRANCH   4  26
BRANCH   1  30
HETATM   30  C2  UNL     1       0.226  52.560 -20.084  1.00  0.00    -0.088 C 
HETATM   31  C1  UNL     1       0.456  53.868 -20.293  1.00  0.00     0.014 C 
HETATM   32  C3  UNL     1       0.523  51.552 -21.164  1.00  0.00     0.043 C 
ENDBRANCH   1  30
BRANCH  11  33
HETATM   33  O3  UNL     1      -3.322  49.216 -22.620  1.00  0.00    -0.395 OA
HETATM   34  H23 UNL     1      -2.606  49.583 -23.168  1.00  0.00     0.210 HD
ENDBRANCH  11  33
BRANCH  18  35
HETATM   35  C24 UNL     1      -7.152  46.130 -23.653  1.00  0.00     0.176 C 
BRANCH  35  36
HETATM   36  O5  UNL     1      -7.981  45.072 -23.181  1.00  0.00    -0.400 OA
HETATM   37  H39 UNL     1      -8.858  45.183 -23.585  1.00  0.00     0.209 HD
ENDBRANCH  35  36
ENDBRANCH  18  35
BRANCH  17  38
HETATM   38  O4  UNL     1      -6.503  48.443 -25.033  1.00  0.00    -0.395 OA
HETATM   39  H33 UNL     1      -5.646  48.582 -24.589  1.00  0.00     0.210 HD
ENDBRANCH  17  38
TORSDOF 7
ENDMDL
MODEL 6
REMARK minimizedAffinity -8.28567028
REMARK  7 active torsions:
REMARK  status: ('A' for Active; 'I' for Inactive)
REMARK    1  A    between atoms: C2_2  and  C4_4 
REMARK    2  A    between atoms: C7_7  and  C8_8 
REMARK    3  A    between atoms: C8_8  and  O2_10 
REMARK    4  A    between atoms: C15_17  and  O3_18 
REMARK    5  A    between atoms: C21_24  and  O4_25 
REMARK    6  A    between atoms: C22_26  and  C24_28 
REMARK    7  A    between atoms: C24_28  and  O5_29 
ROOT
HETATM    1  C4  UNL     1      -0.752  51.318 -23.141  1.00  0.00     0.019 C 
HETATM    2  C5  UNL     1      -0.434  52.278 -24.321  1.00  0.00     0.011 C 
HETATM    3  C6  UNL     1      -1.784  52.701 -24.924  1.00  0.00     0.021 C 
HETATM    4  C7  UNL     1      -2.743  51.583 -24.503  1.00  0.00     0.050 C 
HETATM    5  C9  UNL     1      -4.228  51.953 -24.506  1.00  0.00     0.022 C 
HETATM    6  C10 UNL     1      -5.050  50.815 -23.872  1.00  0.00     0.011 C 
HETATM    7  C11 UNL     1      -4.624  50.405 -22.410  1.00  0.00    -0.032 C 
HETATM    8  C12 UNL     1      -5.044  51.625 -21.526  1.00  0.00     0.016 C 
HETATM    9  C13 UNL     1      -3.066  50.211 -22.351  1.00  0.00     0.003 C 
HETATM   10  C14 UNL     1      -2.601  50.005 -20.904  1.00  0.00     0.038 C 
HETATM   11  C15 UNL     1      -3.446  49.015 -20.095  1.00  0.00     0.124 C 
HETATM   12  C16 UNL     1      -4.399  48.135 -20.942  1.00  0.00     0.032 C 
HETATM   13  C17 UNL     1      -5.145  46.967 -20.090  1.00  0.00    -0.033 C 
HETATM   14  C18 UNL     1      -5.351  45.742 -21.033  1.00  0.00     0.016 C 
HETATM   15  C19 UNL     1      -4.244  46.452 -18.922  1.00  0.00     0.012 C 
HETATM   16  C20 UNL     1      -4.930  45.471 -17.966  1.00  0.00     0.033 C 
HETATM   17  C21 UNL     1      -6.227  46.035 -17.391  1.00  0.00     0.128 C 
HETATM   18  C22 UNL     1      -7.240  46.531 -18.468  1.00  0.00     0.007 C 
HETATM   19  C23 UNL     1      -7.886  45.312 -19.160  1.00  0.00     0.020 C 
HETATM   20  C25 UNL     1      -6.495  47.502 -19.478  1.00  0.00     0.007 C 
HETATM   21  C26 UNL     1      -7.390  48.107 -20.573  1.00  0.00     0.007 C 
HETATM   22  C27 UNL     1      -6.702  49.302 -21.227  1.00  0.00     0.011 C 
HETATM   23  C28 UNL     1      -5.342  49.003 -21.909  1.00  0.00    -0.030 C 
HETATM   24  C29 UNL     1      -5.652  48.127 -23.161  1.00  0.00     0.016 C 
HETATM   25  C30 UNL     1      -2.298  51.369 -23.040  1.00  0.00     0.017 C 
ENDROOT
BRANCH   4  26
HETATM   26  C8  UNL     1      -2.505  50.392 -25.446  1.00  0.00     0.149 C 
HETATM   27  O1  UNL     1      -2.444  49.210 -25.155  1.00  0.00    -0.649 OA
BRANCH  26  28
HETATM   28  O2  UNL     1      -2.333  50.767 -26.731  1.00  0.00    -0.776 OA
HETATM   29  H11 UNL     1      -2.190  49.923 -27.206  1.00  0.00     0.167 HD
ENDBRANCH  26  28
ENDBRANCH   4  26
BRANCH   1  30
HETATM   30  C2  UNL     1       0.085  51.679 -21.925  1.00  0.00    -0.088 C 
HETATM   31  C1  UNL     1       0.332  50.853 -20.892  1.00  0.00     0.014 C 
HETATM   32  C3  UNL     1       0.626  53.085 -21.920  1.00  0.00     0.043 C 
ENDBRANCH   1  30
BRANCH  11  33
HETATM   33  O3  UNL     1      -4.161  49.685 -19.062  1.00  0.00    -0.395 OA
HETATM   34  H23 UNL     1      -3.523  50.228 -18.566  1.00  0.00     0.210 HD
ENDBRANCH  11  33
BRANCH  18  35
HETATM   35  C24 UNL     1      -8.369  47.298 -17.699  1.00  0.00     0.176 C 
BRANCH  35  36
HETATM   36  O5  UNL     1      -7.983  48.600 -17.268  1.00  0.00    -0.400 OA
HETATM   37  H39 UNL     1      -8.028  49.189 -18.040  1.00  0.00     0.209 HD
ENDBRANCH  35  36
ENDBRANCH  18  35
BRANCH  17  38
HETATM   38  O4  UNL     1      -5.896  47.078 -16.468  1.00  0.00    -0.395 OA
HETATM   39  H33 UNL     1      -5.480  47.811 -16.958  1.00  0.00     0.210 HD
ENDBRANCH  17  38
TORSDOF 7
ENDMDL
MODEL 7
REMARK minimizedAffinity -8.26656246
REMARK  7 active torsions:
REMARK  status: ('A' for Active; 'I' for Inactive)
REMARK    1  A    between atoms: C2_2  and  C4_4 
REMARK    2  A    between atoms: C7_7  and  C8_8 
REMARK    3  A    between atoms: C8_8  and  O2_10 
REMARK    4  A    between atoms: C15_17  and  O3_18 
REMARK    5  A    between atoms: C21_24  and  O4_25 
REMARK    6  A    between atoms: C22_26  and  C24_28 
REMARK    7  A    between atoms: C24_28  and  O5_29 
ROOT
HETATM    1  C4  UNL     1      -4.675  48.951 -18.332  1.00  0.00     0.019 C 
HETATM    2  C5  UNL     1      -5.636  47.960 -17.621  1.00  0.00     0.011 C 
HETATM    3  C6  UNL     1      -6.039  46.907 -18.667  1.00  0.00     0.021 C 
HETATM    4  C7  UNL     1      -5.807  47.611 -20.008  1.00  0.00     0.050 C 
HETATM    5  C9  UNL     1      -5.629  46.687 -21.215  1.00  0.00     0.022 C 
HETATM    6  C10 UNL     1      -5.202  47.511 -22.444  1.00  0.00     0.011 C 
HETATM    7  C11 UNL     1      -3.897  48.377 -22.260  1.00  0.00    -0.032 C 
HETATM    8  C12 UNL     1      -2.742  47.326 -22.172  1.00  0.00     0.016 C 
HETATM    9  C13 UNL     1      -3.988  49.187 -20.916  1.00  0.00     0.003 C 
HETATM   10  C14 UNL     1      -2.656  49.883 -20.613  1.00  0.00     0.038 C 
HETATM   11  C15 UNL     1      -2.025  50.607 -21.809  1.00  0.00     0.124 C 
HETATM   12  C16 UNL     1      -2.976  50.815 -23.014  1.00  0.00     0.032 C 
HETATM   13  C17 UNL     1      -2.350  51.746 -24.192  1.00  0.00    -0.033 C 
HETATM   14  C18 UNL     1      -3.521  52.537 -24.852  1.00  0.00     0.016 C 
HETATM   15  C19 UNL     1      -1.386  52.828 -23.608  1.00  0.00     0.012 C 
HETATM   16  C20 UNL     1      -0.622  53.641 -24.658  1.00  0.00     0.033 C 
HETATM   17  C21 UNL     1       0.149  52.751 -25.630  1.00  0.00     0.128 C 
HETATM   18  C22 UNL     1      -0.723  51.660 -26.326  1.00  0.00     0.007 C 
HETATM   19  C23 UNL     1      -1.618  52.328 -27.392  1.00  0.00     0.020 C 
HETATM   20  C25 UNL     1      -1.546  50.869 -25.224  1.00  0.00     0.007 C 
HETATM   21  C26 UNL     1      -2.420  49.725 -25.768  1.00  0.00     0.007 C 
HETATM   22  C27 UNL     1      -2.844  48.791 -24.637  1.00  0.00     0.011 C 
HETATM   23  C28 UNL     1      -3.665  49.447 -23.498  1.00  0.00    -0.030 C 
HETATM   24  C29 UNL     1      -5.054  49.818 -24.103  1.00  0.00     0.016 C 
HETATM   25  C30 UNL     1      -4.460  48.310 -19.727  1.00  0.00     0.017 C 
ENDROOT
BRANCH   4  26
HETATM   26  C8  UNL     1      -7.000  48.550 -20.248  1.00  0.00     0.149 C 
HETATM   27  O1  UNL     1      -8.184  48.261 -20.279  1.00  0.00    -0.649 OA
BRANCH  26  28
HETATM   28  O2  UNL     1      -6.626  49.829 -20.461  1.00  0.00    -0.776 OA
HETATM   29  H11 UNL     1      -7.472  50.303 -20.601  1.00  0.00     0.167 HD
ENDBRANCH  26  28
ENDBRANCH   4  26
BRANCH   1  30
HETATM   30  C2  UNL     1      -3.469  49.242 -17.453  1.00  0.00    -0.088 C 
HETATM   31  C1  UNL     1      -3.124  50.462 -17.004  1.00  0.00     0.014 C 
HETATM   32  C3  UNL     1      -2.622  48.041 -17.119  1.00  0.00     0.043 C 
ENDBRANCH   1  30
BRANCH  11  33
HETATM   33  O3  UNL     1      -0.825  49.959 -22.218  1.00  0.00    -0.395 OA
HETATM   34  H23 UNL     1      -0.268  49.845 -21.428  1.00  0.00     0.210 HD
ENDBRANCH  11  33
BRANCH  18  35
HETATM   35  C24 UNL     1       0.270  50.702 -27.067  1.00  0.00     0.176 C 
BRANCH  35  36
HETATM   36  O5  UNL     1       1.124  51.368 -27.992  1.00  0.00    -0.400 OA
HETATM   37  H39 UNL     1       1.829  51.800 -27.482  1.00  0.00     0.209 HD
ENDBRANCH  35  36
ENDBRANCH  18  35
BRANCH  17  38
HETATM   38  O4  UNL     1       1.252  52.166 -24.929  1.00  0.00    -0.395 OA
HETATM   39  H33 UNL     1       0.906  51.571 -24.239  1.00  0.00     0.210 HD
ENDBRANCH  17  38
TORSDOF 7
ENDMDL
MODEL 8
REMARK minimizedAffinity -8.22564125
REMARK  7 active torsions:
REMARK  status: ('A' for Active; 'I' for Inactive)
REMARK    1  A    between atoms: C2_2  and  C4_4 
REMARK    2  A    between atoms: C7_7  and  C8_8 
REMARK    3  A    between atoms: C8_8  and  O2_10 
REMARK    4  A    between atoms: C15_17  and  O3_18 
REMARK    5  A    between atoms: C21_24  and  O4_25 
REMARK    6  A    between atoms: C22_26  and  C24_28 
REMARK    7  A    between atoms: C24_28  and  O5_29 
ROOT
HETATM    1  C4  UNL     1      -7.496  46.734 -26.996  1.00  0.00     0.019 C 
HETATM    2  C5  UNL     1      -8.862  46.254 -27.559  1.00  0.00     0.011 C 
HETATM    3  C6  UNL     1      -9.903  46.487 -26.451  1.00  0.00     0.021 C 
HETATM    4  C7  UNL     1      -9.073  46.519 -25.165  1.00  0.00     0.050 C 
HETATM    5  C9  UNL     1      -9.727  47.225 -23.975  1.00  0.00     0.022 C 
HETATM    6  C10 UNL     1      -8.711  47.362 -22.826  1.00  0.00     0.011 C 
HETATM    7  C11 UNL     1      -7.370  48.106 -23.194  1.00  0.00    -0.032 C 
HETATM    8  C12 UNL     1      -7.797  49.595 -23.412  1.00  0.00     0.016 C 
HETATM    9  C13 UNL     1      -6.788  47.514 -24.528  1.00  0.00     0.003 C 
HETATM   10  C14 UNL     1      -5.594  48.346 -25.013  1.00  0.00     0.038 C 
HETATM   11  C15 UNL     1      -4.579  48.705 -23.922  1.00  0.00     0.124 C 
HETATM   12  C16 UNL     1      -4.729  47.900 -22.608  1.00  0.00     0.032 C 
HETATM   13  C17 UNL     1      -3.532  48.160 -21.538  1.00  0.00    -0.033 C 
HETATM   14  C18 UNL     1      -3.300  46.837 -20.745  1.00  0.00     0.016 C 
HETATM   15  C19 UNL     1      -2.179  48.461 -22.260  1.00  0.00     0.012 C 
HETATM   16  C20 UNL     1      -1.036  48.883 -21.333  1.00  0.00     0.033 C 
HETATM   17  C21 UNL     1      -1.413  50.073 -20.454  1.00  0.00     0.128 C 
HETATM   18  C22 UNL     1      -2.723  49.870 -19.631  1.00  0.00     0.007 C 
HETATM   19  C23 UNL     1      -2.449  48.890 -18.470  1.00  0.00     0.020 C 
HETATM   20  C25 UNL     1      -3.878  49.380 -20.603  1.00  0.00     0.007 C 
HETATM   21  C26 UNL     1      -5.248  49.183 -19.931  1.00  0.00     0.007 C 
HETATM   22  C27 UNL     1      -6.353  49.108 -20.981  1.00  0.00     0.011 C 
HETATM   23  C28 UNL     1      -6.220  47.961 -22.015  1.00  0.00    -0.030 C 
HETATM   24  C29 UNL     1      -6.465  46.629 -21.241  1.00  0.00     0.016 C 
HETATM   25  C30 UNL     1      -7.868  47.365 -25.631  1.00  0.00     0.017 C 
ENDROOT
BRANCH   4  26
HETATM   26  C8  UNL     1      -8.750  45.064 -24.788  1.00  0.00     0.149 C 
HETATM   27  O1  UNL     1      -7.678  44.603 -24.437  1.00  0.00    -0.649 OA
BRANCH  26  28
HETATM   28  O2  UNL     1      -9.818  44.245 -24.896  1.00  0.00    -0.776 OA
HETATM   29  H11 UNL     1      -9.471  43.368 -24.634  1.00  0.00     0.167 HD
ENDBRANCH  26  28
ENDBRANCH   4  26
BRANCH   1  30
HETATM   30  C2  UNL     1      -6.763  47.574 -28.029  1.00  0.00    -0.088 C 
HETATM   31  C1  UNL     1      -5.433  47.772 -28.052  1.00  0.00     0.014 C 
HETATM   32  C3  UNL     1      -7.648  48.231 -29.058  1.00  0.00     0.043 C 
ENDBRANCH   1  30
BRANCH  11  33
HETATM   33  O3  UNL     1      -4.590  50.105 -23.662  1.00  0.00    -0.395 OA
HETATM   34  H23 UNL     1      -4.501  50.564 -24.515  1.00  0.00     0.210 HD
ENDBRANCH  11  33
BRANCH  18  35
HETATM   35  C24 UNL     1      -3.079  51.262 -19.009  1.00  0.00     0.176 C 
BRANCH  35  36
HETATM   36  O5  UNL     1      -2.730  51.379 -17.634  1.00  0.00    -0.400 OA
HETATM   37  H39 UNL     1      -1.772  51.537 -17.586  1.00  0.00     0.209 HD
ENDBRANCH  35  36
ENDBRANCH  18  35
BRANCH  17  38
HETATM   38  O4  UNL     1      -1.493  51.238 -21.282  1.00  0.00    -0.395 OA
HETATM   39  H33 UNL     1      -2.229  51.127 -21.910  1.00  0.00     0.210 HD
ENDBRANCH  17  38
TORSDOF 7
ENDMDL
MODEL 9
REMARK minimizedAffinity -8.13774109
REMARK  7 active torsions:
REMARK  status: ('A' for Active; 'I' for Inactive)
REMARK    1  A    between atoms: C2_2  and  C4_4 
REMARK    2  A    between atoms: C7_7  and  C8_8 
REMARK    3  A    between atoms: C8_8  and  O2_10 
REMARK    4  A    between atoms: C15_17  and  O3_18 
REMARK    5  A    between atoms: C21_24  and  O4_25 
REMARK    6  A    between atoms: C22_26  and  C24_28 
REMARK    7  A    between atoms: C24_28  and  O5_29 
ROOT
HETATM    1  C4  UNL     1      -6.038  47.476 -22.592  1.00  0.00     0.019 C 
HETATM    2  C5  UNL     1      -6.340  47.713 -24.097  1.00  0.00     0.011 C 
HETATM    3  C6  UNL     1      -5.133  48.471 -24.676  1.00  0.00     0.021 C 
HETATM    4  C7  UNL     1      -4.494  49.137 -23.454  1.00  0.00     0.050 C 
HETATM    5  C9  UNL     1      -3.023  49.529 -23.611  1.00  0.00     0.022 C 
HETATM    6  C10 UNL     1      -2.458  49.993 -22.255  1.00  0.00     0.011 C 
HETATM    7  C11 UNL     1      -2.592  48.955 -21.075  1.00  0.00    -0.032 C 
HETATM    8  C12 UNL     1      -1.598  47.808 -21.452  1.00  0.00     0.016 C 
HETATM    9  C13 UNL     1      -4.061  48.398 -21.028  1.00  0.00     0.003 C 
HETATM   10  C14 UNL     1      -4.170  47.246 -20.022  1.00  0.00     0.038 C 
HETATM   11  C15 UNL     1      -3.493  47.510 -18.671  1.00  0.00     0.124 C 
HETATM   12  C16 UNL     1      -3.118  48.990 -18.414  1.00  0.00     0.032 C 
HETATM   13  C17 UNL     1      -2.575  49.278 -16.908  1.00  0.00    -0.033 C 
HETATM   14  C18 UNL     1      -3.015  50.720 -16.506  1.00  0.00     0.016 C 
HETATM   15  C19 UNL     1      -3.252  48.327 -15.869  1.00  0.00     0.012 C 
HETATM   16  C20 UNL     1      -2.680  48.413 -14.451  1.00  0.00     0.033 C 
HETATM   17  C21 UNL     1      -1.169  48.196 -14.423  1.00  0.00     0.128 C 
HETATM   18  C22 UNL     1      -0.371  49.134 -15.381  1.00  0.00     0.007 C 
HETATM   19  C23 UNL     1      -0.342  50.560 -14.790  1.00  0.00     0.020 C 
HETATM   20  C25 UNL     1      -1.016  49.070 -16.829  1.00  0.00     0.007 C 
HETATM   21  C26 UNL     1      -0.297  49.916 -17.895  1.00  0.00     0.007 C 
HETATM   22  C27 UNL     1      -0.726  49.489 -19.296  1.00  0.00     0.011 C 
HETATM   23  C28 UNL     1      -2.240  49.619 -19.603  1.00  0.00    -0.030 C 
HETATM   24  C29 UNL     1      -2.557  51.144 -19.655  1.00  0.00     0.016 C 
HETATM   25  C30 UNL     1      -4.583  47.986 -22.429  1.00  0.00     0.017 C 
ENDROOT
BRANCH   4  26
HETATM   26  C8  UNL     1      -5.328  50.384 -23.120  1.00  0.00     0.149 C 
HETATM   27  O1  UNL     1      -5.690  50.768 -22.021  1.00  0.00    -0.649 OA
BRANCH  26  28
HETATM   28  O2  UNL     1      -5.686  51.084 -24.216  1.00  0.00    -0.776 OA
HETATM   29  H11 UNL     1      -6.206  51.834 -23.859  1.00  0.00     0.167 HD
ENDBRANCH  26  28
ENDBRANCH   4  26
BRANCH   1  30
HETATM   30  C2  UNL     1      -6.372  46.044 -22.204  1.00  0.00    -0.088 C 
HETATM   31  C1  UNL     1      -5.627  45.277 -21.389  1.00  0.00     0.014 C 
HETATM   32  C3  UNL     1      -7.625  45.492 -22.834  1.00  0.00     0.043 C 
ENDBRANCH   1  30
BRANCH  11  33
HETATM   33  O3  UNL     1      -2.361  46.663 -18.499  1.00  0.00    -0.395 OA
HETATM   34  H23 UNL     1      -2.646  45.750 -18.679  1.00  0.00     0.210 HD
ENDBRANCH  11  33
BRANCH  18  35
HETATM   35  C24 UNL     1       1.100  48.596 -15.408  1.00  0.00     0.176 C 
BRANCH  35  36
HETATM   36  O5  UNL     1       1.962  49.246 -14.480  1.00  0.00    -0.400 OA
HETATM   37  H39 UNL     1       1.781  48.875 -13.600  1.00  0.00     0.209 HD
ENDBRANCH  35  36
ENDBRANCH  18  35
BRANCH  17  38
HETATM   38  O4  UNL     1      -0.905  46.817 -14.705  1.00  0.00    -0.395 OA
HETATM   39  H33 UNL     1      -1.186  46.624 -15.618  1.00  0.00     0.210 HD
ENDBRANCH  17  38
TORSDOF 7
ENDMDL
