MODEL 1
REMARK minimizedAffinity -9.54504299
REMARK  6 active torsions:
REMARK  status: ('A' for Active; 'I' for Inactive)
REMARK    1  A    between atoms: C2_2  and  C3_3 
REMARK    2  A    between atoms: C5_5  and  C6_6 
REMARK    3  A    between atoms: C6_6  and  C7_7 
REMARK    4  A    between atoms: C8_8  and  C9_9 
REMARK       I    between atoms: C9_9  and  N1_11 
REMARK    5  A    between atoms: N1_11  and  C10_12 
REMARK    6  A    between atoms: C10_12  and  C12_14 
ROOT
HETATM    1  C7  UNL     1      -2.215  50.383 -22.611  1.00  0.00     0.036 C 
HETATM    2  C8  UNL     1      -2.697  49.208 -23.453  1.00  0.00     0.011 C 
HETATM    3  C18 UNL     1      -3.233  48.080 -22.956  1.00  0.00    -0.013 C 
HETATM    4  C19 UNL     1      -3.436  47.845 -21.496  1.00  0.00     0.034 C 
HETATM    5  C20 UNL     1      -3.367  49.140 -20.657  1.00  0.00     0.005 C 
HETATM    6  C21 UNL     1      -3.576  48.872 -19.112  1.00  0.00    -0.043 C 
HETATM    7  C22 UNL     1      -3.033  47.513 -18.618  1.00  0.00     0.015 C 
HETATM    8  C23 UNL     1      -5.103  48.854 -18.831  1.00  0.00     0.015 C 
HETATM    9  C24 UNL     1      -2.934  49.982 -18.250  1.00  0.00     0.009 C 
HETATM   10  C25 UNL     1      -2.973  51.331 -18.939  1.00  0.00     0.002 C 
HETATM   11  C26 UNL     1      -2.138  51.348 -20.218  1.00  0.00     0.010 C 
HETATM   12  C27 UNL     1      -2.124  50.024 -21.049  1.00  0.00    -0.031 C 
HETATM   13  C28 UNL     1      -0.805  49.264 -20.757  1.00  0.00     0.016 C 
ENDROOT
BRANCH   2  14
HETATM   14  C9  UNL     1      -2.718  49.363 -24.936  1.00  0.00     0.248 C 
HETATM   15  O1  UNL     1      -3.359  48.598 -25.643  1.00  0.00    -0.268 OA
HETATM   16  N1  UNL     1      -1.996  50.438 -25.386  1.00  0.00    -0.349 N 
HETATM   17  H11 UNL     1      -1.434  50.952 -24.722  1.00  0.00     0.163 HD
BRANCH  16  18
HETATM   18  C10 UNL     1      -1.723  50.643 -26.798  1.00  0.00     0.114 C 
HETATM   19  C11 UNL     1      -2.730  51.633 -27.384  1.00  0.00     0.037 C 
BRANCH  18  20
HETATM   20  C12 UNL     1      -0.266  51.047 -26.966  1.00  0.00    -0.036 A 
HETATM   21  C13 UNL     1       0.727  50.731 -26.028  1.00  0.00     0.009 A 
HETATM   22  C14 UNL     1       2.057  51.100 -26.245  1.00  0.00     0.001 A 
HETATM   23  C15 UNL     1       2.416  51.778 -27.408  1.00  0.00     0.000 A 
HETATM   24  C16 UNL     1       1.447  52.086 -28.357  1.00  0.00     0.001 A 
HETATM   25  C17 UNL     1       0.118  51.719 -28.140  1.00  0.00     0.009 A 
ENDBRANCH  18  20
ENDBRANCH  16  18
ENDBRANCH   2  14
BRANCH   1  26
HETATM   26  C6  UNL     1      -0.907  50.987 -23.227  1.00  0.00     0.038 C 
BRANCH  26  27
HETATM   27  C5  UNL     1      -0.092  51.844 -22.294  1.00  0.00    -0.019 C 
HETATM   28  C3  UNL     1       0.596  52.975 -22.561  1.00  0.00    -0.067 C 
HETATM   29  C4  UNL     1       0.659  53.630 -23.916  1.00  0.00     0.048 C 
BRANCH  28  30
HETATM   30  C2  UNL     1       1.322  53.615 -21.464  1.00  0.00    -0.004 C 
HETATM   31  C1  UNL     1       0.804  54.049 -20.308  1.00  0.00     0.012 C 
ENDBRANCH  28  30
ENDBRANCH  26  27
ENDBRANCH   1  26
TORSDOF 6
ENDMDL
MODEL 2
REMARK minimizedAffinity -9.21161938
REMARK  6 active torsions:
REMARK  status: ('A' for Active; 'I' for Inactive)
REMARK    1  A    between atoms: C2_2  and  C3_3 
REMARK    2  A    between atoms: C5_5  and  C6_6 
REMARK    3  A    between atoms: C6_6  and  C7_7 
REMARK    4  A    between atoms: C8_8  and  C9_9 
REMARK       I    between atoms: C9_9  and  N1_11 
REMARK    5  A    between atoms: N1_11  and  C10_12 
REMARK    6  A    between atoms: C10_12  and  C12_14 
ROOT
HETATM    1  C7  UNL     1      -2.428  50.092 -23.864  1.00  0.00     0.036 C 
HETATM    2  C8  UNL     1      -3.097  51.455 -23.999  1.00  0.00     0.011 C 
HETATM    3  C18 UNL     1      -4.169  51.854 -23.292  1.00  0.00    -0.013 C 
HETATM    4  C19 UNL     1      -4.834  51.001 -22.263  1.00  0.00     0.034 C 
HETATM    5  C20 UNL     1      -3.958  49.818 -21.796  1.00  0.00     0.005 C 
HETATM    6  C21 UNL     1      -4.681  48.921 -20.713  1.00  0.00    -0.043 C 
HETATM    7  C22 UNL     1      -6.214  48.826 -20.878  1.00  0.00     0.015 C 
HETATM    8  C23 UNL     1      -4.436  49.561 -19.320  1.00  0.00     0.015 C 
HETATM    9  C24 UNL     1      -4.116  47.483 -20.695  1.00  0.00     0.009 C 
HETATM   10  C25 UNL     1      -2.642  47.447 -21.051  1.00  0.00     0.002 C 
HETATM   11  C26 UNL     1      -2.386  47.912 -22.483  1.00  0.00     0.010 C 
HETATM   12  C27 UNL     1      -3.310  49.056 -23.013  1.00  0.00    -0.031 C 
HETATM   13  C28 UNL     1      -4.410  48.435 -23.911  1.00  0.00     0.016 C 
ENDROOT
BRANCH   2  14
HETATM   14  C9  UNL     1      -2.444  52.480 -24.863  1.00  0.00     0.248 C 
HETATM   15  O1  UNL     1      -3.004  52.915 -25.861  1.00  0.00    -0.268 OA
HETATM   16  N1  UNL     1      -1.217  52.884 -24.405  1.00  0.00    -0.349 N 
HETATM   17  H11 UNL     1      -0.813  52.395 -23.618  1.00  0.00     0.163 HD
BRANCH  16  18
HETATM   18  C10 UNL     1      -0.335  53.716 -25.204  1.00  0.00     0.114 C 
HETATM   19  C11 UNL     1       0.531  54.583 -24.289  1.00  0.00     0.037 C 
BRANCH  18  20
HETATM   20  C12 UNL     1       0.446  52.831 -26.163  1.00  0.00    -0.036 A 
HETATM   21  C13 UNL     1       0.168  52.763 -27.536  1.00  0.00     0.009 A 
HETATM   22  C14 UNL     1       0.936  51.955 -28.380  1.00  0.00     0.001 A 
HETATM   23  C15 UNL     1       2.001  51.217 -27.867  1.00  0.00     0.000 A 
HETATM   24  C16 UNL     1       2.301  51.287 -26.510  1.00  0.00     0.001 A 
HETATM   25  C17 UNL     1       1.533  52.090 -25.666  1.00  0.00     0.009 A 
ENDBRANCH  18  20
ENDBRANCH  16  18
ENDBRANCH   2  14
BRANCH   1  26
HETATM   26  C6  UNL     1      -1.973  49.574 -25.270  1.00  0.00     0.038 C 
BRANCH  26  27
HETATM   27  C5  UNL     1      -3.020  48.817 -26.046  1.00  0.00    -0.019 C 
HETATM   28  C3  UNL     1      -3.586  49.125 -27.233  1.00  0.00    -0.067 C 
HETATM   29  C4  UNL     1      -3.237  50.341 -28.050  1.00  0.00     0.048 C 
BRANCH  28  30
HETATM   30  C2  UNL     1      -4.598  48.216 -27.770  1.00  0.00    -0.004 C 
HETATM   31  C1  UNL     1      -5.123  48.242 -29.002  1.00  0.00     0.012 C 
ENDBRANCH  28  30
ENDBRANCH  26  27
ENDBRANCH   1  26
TORSDOF 6
ENDMDL
MODEL 3
REMARK minimizedAffinity -9.19937801
REMARK  6 active torsions:
REMARK  status: ('A' for Active; 'I' for Inactive)
REMARK    1  A    between atoms: C2_2  and  C3_3 
REMARK    2  A    between atoms: C5_5  and  C6_6 
REMARK    3  A    between atoms: C6_6  and  C7_7 
REMARK    4  A    between atoms: C8_8  and  C9_9 
REMARK       I    between atoms: C9_9  and  N1_11 
REMARK    5  A    between atoms: N1_11  and  C10_12 
REMARK    6  A    between atoms: C10_12  and  C12_14 
ROOT
HETATM    1  C7  UNL     1      -2.063  51.072 -23.911  1.00  0.00     0.036 C 
HETATM    2  C8  UNL     1      -2.078  51.521 -22.454  1.00  0.00     0.011 C 
HETATM    3  C18 UNL     1      -3.075  51.269 -21.587  1.00  0.00    -0.013 C 
HETATM    4  C19 UNL     1      -4.299  50.497 -21.949  1.00  0.00     0.034 C 
HETATM    5  C20 UNL     1      -4.137  49.675 -23.247  1.00  0.00     0.005 C 
HETATM    6  C21 UNL     1      -5.445  48.869 -23.621  1.00  0.00    -0.043 C 
HETATM    7  C22 UNL     1      -6.765  49.565 -23.218  1.00  0.00     0.015 C 
HETATM    8  C23 UNL     1      -5.415  47.523 -22.848  1.00  0.00     0.015 C 
HETATM    9  C24 UNL     1      -5.513  48.563 -25.134  1.00  0.00     0.009 C 
HETATM   10  C25 UNL     1      -4.136  48.366 -25.736  1.00  0.00     0.002 C 
HETATM   11  C26 UNL     1      -3.292  49.637 -25.669  1.00  0.00     0.010 C 
HETATM   12  C27 UNL     1      -3.492  50.531 -24.402  1.00  0.00    -0.031 C 
HETATM   13  C28 UNL     1      -4.411  51.723 -24.771  1.00  0.00     0.016 C 
ENDROOT
BRANCH   2  14
HETATM   14  C9  UNL     1      -0.849  52.155 -21.897  1.00  0.00     0.248 C 
HETATM   15  O1  UNL     1       0.006  52.630 -22.632  1.00  0.00    -0.268 OA
HETATM   16  N1  UNL     1      -0.814  52.176 -20.526  1.00  0.00    -0.349 N 
HETATM   17  H11 UNL     1      -1.533  51.678 -20.020  1.00  0.00     0.163 HD
BRANCH  16  18
HETATM   18  C10 UNL     1       0.379  52.561 -19.795  1.00  0.00     0.114 C 
HETATM   19  C11 UNL     1       0.408  54.079 -19.610  1.00  0.00     0.037 C 
BRANCH  18  20
HETATM   20  C12 UNL     1       0.446  51.765 -18.501  1.00  0.00    -0.036 A 
HETATM   21  C13 UNL     1       1.082  52.241 -17.344  1.00  0.00     0.009 A 
HETATM   22  C14 UNL     1       1.089  51.481 -16.171  1.00  0.00     0.001 A 
HETATM   23  C15 UNL     1       0.449  50.244 -16.132  1.00  0.00     0.000 A 
HETATM   24  C16 UNL     1      -0.201  49.765 -17.265  1.00  0.00     0.001 A 
HETATM   25  C17 UNL     1      -0.207  50.521 -18.438  1.00  0.00     0.009 A 
ENDBRANCH  18  20
ENDBRANCH  16  18
ENDBRANCH   2  14
BRANCH   1  26
HETATM   26  C6  UNL     1      -1.434  52.189 -24.811  1.00  0.00     0.038 C 
BRANCH  26  27
HETATM   27  C5  UNL     1      -0.287  51.743 -25.681  1.00  0.00    -0.019 C 
HETATM   28  C3  UNL     1       0.304  52.392 -26.707  1.00  0.00    -0.067 C 
HETATM   29  C4  UNL     1      -0.090  53.766 -27.182  1.00  0.00     0.048 C 
BRANCH  28  30
HETATM   30  C2  UNL     1       1.404  51.725 -27.402  1.00  0.00    -0.004 C 
HETATM   31  C1  UNL     1       2.621  51.464 -26.907  1.00  0.00     0.012 C 
ENDBRANCH  28  30
ENDBRANCH  26  27
ENDBRANCH   1  26
TORSDOF 6
ENDMDL
MODEL 4
REMARK minimizedAffinity -9.13850212
REMARK  6 active torsions:
REMARK  status: ('A' for Active; 'I' for Inactive)
REMARK    1  A    between atoms: C2_2  and  C3_3 
REMARK    2  A    between atoms: C5_5  and  C6_6 
REMARK    3  A    between atoms: C6_6  and  C7_7 
REMARK    4  A    between atoms: C8_8  and  C9_9 
REMARK       I    between atoms: C9_9  and  N1_11 
REMARK    5  A    between atoms: N1_11  and  C10_12 
REMARK    6  A    between atoms: C10_12  and  C12_14 
ROOT
HETATM    1  C7  UNL     1      -2.689  49.915 -22.584  1.00  0.00     0.036 C 
HETATM    2  C8  UNL     1      -3.171  49.840 -24.028  1.00  0.00     0.011 C 
HETATM    3  C18 UNL     1      -4.162  49.042 -24.462  1.00  0.00    -0.013 C 
HETATM    4  C19 UNL     1      -4.931  48.130 -23.565  1.00  0.00     0.034 C 
HETATM    5  C20 UNL     1      -4.777  48.479 -22.069  1.00  0.00     0.005 C 
HETATM    6  C21 UNL     1      -5.591  47.497 -21.132  1.00  0.00    -0.043 C 
HETATM    7  C22 UNL     1      -5.696  46.048 -21.658  1.00  0.00     0.015 C 
HETATM    8  C23 UNL     1      -7.048  48.027 -21.035  1.00  0.00     0.015 C 
HETATM    9  C24 UNL     1      -4.995  47.444 -19.708  1.00  0.00     0.009 C 
HETATM   10  C25 UNL     1      -4.378  48.767 -19.300  1.00  0.00     0.002 C 
HETATM   11  C26 UNL     1      -3.180  49.136 -20.173  1.00  0.00     0.010 C 
HETATM   12  C27 UNL     1      -3.272  48.725 -21.678  1.00  0.00    -0.031 C 
HETATM   13  C28 UNL     1      -2.437  47.437 -21.897  1.00  0.00     0.016 C 
ENDROOT
BRANCH   2  14
HETATM   14  C9  UNL     1      -2.617  50.815 -25.010  1.00  0.00     0.248 C 
HETATM   15  O1  UNL     1      -2.634  52.018 -24.785  1.00  0.00    -0.268 OA
HETATM   16  N1  UNL     1      -2.077  50.226 -26.124  1.00  0.00    -0.349 N 
HETATM   17  H11 UNL     1      -2.195  49.230 -26.246  1.00  0.00     0.163 HD
BRANCH  16  18
HETATM   18  C10 UNL     1      -1.673  51.002 -27.283  1.00  0.00     0.114 C 
HETATM   19  C11 UNL     1      -2.491  52.292 -27.355  1.00  0.00     0.037 C 
BRANCH  18  20
HETATM   20  C12 UNL     1      -0.167  51.210 -27.240  1.00  0.00    -0.036 A 
HETATM   21  C13 UNL     1       0.552  51.802 -28.289  1.00  0.00     0.009 A 
HETATM   22  C14 UNL     1       1.932  51.997 -28.186  1.00  0.00     0.001 A 
HETATM   23  C15 UNL     1       2.611  51.616 -27.030  1.00  0.00     0.000 A 
HETATM   24  C16 UNL     1       1.910  51.043 -25.974  1.00  0.00     0.001 A 
HETATM   25  C17 UNL     1       0.533  50.845 -26.076  1.00  0.00     0.009 A 
ENDBRANCH  18  20
ENDBRANCH  16  18
ENDBRANCH   2  14
BRANCH   1  26
HETATM   26  C6  UNL     1      -1.132  50.076 -22.544  1.00  0.00     0.038 C 
BRANCH  26  27
HETATM   27  C5  UNL     1      -0.611  51.049 -21.518  1.00  0.00    -0.019 C 
HETATM   28  C3  UNL     1       0.042  52.216 -21.708  1.00  0.00    -0.067 C 
HETATM   29  C4  UNL     1       0.370  52.794 -23.060  1.00  0.00     0.048 C 
BRANCH  28  30
HETATM   30  C2  UNL     1       0.453  52.976 -20.528  1.00  0.00    -0.004 C 
HETATM   31  C1  UNL     1       1.143  54.124 -20.517  1.00  0.00     0.012 C 
ENDBRANCH  28  30
ENDBRANCH  26  27
ENDBRANCH   1  26
TORSDOF 6
ENDMDL
MODEL 5
REMARK minimizedAffinity -9.09244633
REMARK  6 active torsions:
REMARK  status: ('A' for Active; 'I' for Inactive)
REMARK    1  A    between atoms: C2_2  and  C3_3 
REMARK    2  A    between atoms: C5_5  and  C6_6 
REMARK    3  A    between atoms: C6_6  and  C7_7 
REMARK    4  A    between atoms: C8_8  and  C9_9 
REMARK       I    between atoms: C9_9  and  N1_11 
REMARK    5  A    between atoms: N1_11  and  C10_12 
REMARK    6  A    between atoms: C10_12  and  C12_14 
ROOT
HETATM    1  C7  UNL     1      -3.329  50.945 -26.108  1.00  0.00     0.036 C 
HETATM    2  C8  UNL     1      -3.524  49.526 -26.630  1.00  0.00     0.011 C 
HETATM    3  C18 UNL     1      -3.390  48.414 -25.888  1.00  0.00    -0.013 C 
HETATM    4  C19 UNL     1      -3.044  48.436 -24.436  1.00  0.00     0.034 C 
HETATM    5  C20 UNL     1      -3.258  49.818 -23.782  1.00  0.00     0.005 C 
HETATM    6  C21 UNL     1      -2.879  49.826 -22.246  1.00  0.00    -0.043 C 
HETATM    7  C22 UNL     1      -1.718  48.880 -21.867  1.00  0.00     0.015 C 
HETATM    8  C23 UNL     1      -4.115  49.333 -21.445  1.00  0.00     0.015 C 
HETATM    9  C24 UNL     1      -2.514  51.245 -21.756  1.00  0.00     0.009 C 
HETATM   10  C25 UNL     1      -3.291  52.318 -22.494  1.00  0.00     0.002 C 
HETATM   11  C26 UNL     1      -2.948  52.356 -23.981  1.00  0.00     0.010 C 
HETATM   12  C27 UNL     1      -2.649  50.978 -24.655  1.00  0.00    -0.031 C 
HETATM   13  C28 UNL     1      -1.113  50.808 -24.786  1.00  0.00     0.016 C 
ENDROOT
BRANCH   2  14
HETATM   14  C9  UNL     1      -4.039  49.348 -28.018  1.00  0.00     0.248 C 
HETATM   15  O1  UNL     1      -3.550  49.962 -28.958  1.00  0.00    -0.268 OA
HETATM   16  N1  UNL     1      -5.051  48.429 -28.115  1.00  0.00    -0.349 N 
HETATM   17  H11 UNL     1      -5.435  48.045 -27.263  1.00  0.00     0.163 HD
BRANCH  16  18
HETATM   18  C10 UNL     1      -5.821  48.261 -29.334  1.00  0.00     0.114 C 
HETATM   19  C11 UNL     1      -5.193  47.168 -30.200  1.00  0.00     0.037 C 
BRANCH  18  20
HETATM   20  C12 UNL     1      -7.278  48.019 -28.970  1.00  0.00    -0.036 A 
HETATM   21  C13 UNL     1      -8.341  48.325 -29.834  1.00  0.00     0.009 A 
HETATM   22  C14 UNL     1      -9.661  48.055 -29.462  1.00  0.00     0.001 A 
HETATM   23  C15 UNL     1      -9.938  47.465 -28.231  1.00  0.00     0.000 A 
HETATM   24  C16 UNL     1      -8.894  47.141 -27.369  1.00  0.00     0.001 A 
HETATM   25  C17 UNL     1      -7.576  47.411 -27.738  1.00  0.00     0.009 A 
ENDBRANCH  18  20
ENDBRANCH  16  18
ENDBRANCH   2  14
BRANCH   1  26
HETATM   26  C6  UNL     1      -2.618  51.825 -27.192  1.00  0.00     0.038 C 
BRANCH  26  27
HETATM   27  C5  UNL     1      -1.156  51.527 -27.403  1.00  0.00    -0.019 C 
HETATM   28  C3  UNL     1      -0.163  52.364 -27.777  1.00  0.00    -0.067 C 
HETATM   29  C4  UNL     1      -0.350  53.834 -28.047  1.00  0.00     0.048 C 
BRANCH  28  30
HETATM   30  C2  UNL     1       1.184  51.813 -27.922  1.00  0.00    -0.004 C 
HETATM   31  C1  UNL     1       2.053  51.557 -26.936  1.00  0.00     0.012 C 
ENDBRANCH  28  30
ENDBRANCH  26  27
ENDBRANCH   1  26
TORSDOF 6
ENDMDL
MODEL 6
REMARK minimizedAffinity -9.00197411
REMARK  6 active torsions:
REMARK  status: ('A' for Active; 'I' for Inactive)
REMARK    1  A    between atoms: C2_2  and  C3_3 
REMARK    2  A    between atoms: C5_5  and  C6_6 
REMARK    3  A    between atoms: C6_6  and  C7_7 
REMARK    4  A    between atoms: C8_8  and  C9_9 
REMARK       I    between atoms: C9_9  and  N1_11 
REMARK    5  A    between atoms: N1_11  and  C10_12 
REMARK    6  A    between atoms: C10_12  and  C12_14 
ROOT
HETATM    1  C7  UNL     1      -2.690  50.987 -22.901  1.00  0.00     0.036 C 
HETATM    2  C8  UNL     1      -3.149  51.289 -24.323  1.00  0.00     0.011 C 
HETATM    3  C18 UNL     1      -4.227  50.742 -24.911  1.00  0.00    -0.013 C 
HETATM    4  C19 UNL     1      -5.126  49.768 -24.225  1.00  0.00     0.034 C 
HETATM    5  C20 UNL     1      -4.958  49.762 -22.690  1.00  0.00     0.005 C 
HETATM    6  C21 UNL     1      -5.912  48.719 -21.981  1.00  0.00    -0.043 C 
HETATM    7  C22 UNL     1      -6.195  47.444 -22.806  1.00  0.00     0.015 C 
HETATM    8  C23 UNL     1      -7.288  49.403 -21.758  1.00  0.00     0.015 C 
HETATM    9  C24 UNL     1      -5.356  48.281 -20.607  1.00  0.00     0.009 C 
HETATM   10  C25 UNL     1      -4.579  49.392 -19.928  1.00  0.00     0.002 C 
HETATM   11  C26 UNL     1      -3.326  49.778 -20.711  1.00  0.00     0.010 C 
HETATM   12  C27 UNL     1      -3.441  49.717 -22.269  1.00  0.00    -0.031 C 
HETATM   13  C28 UNL     1      -2.778  48.408 -22.768  1.00  0.00     0.016 C 
ENDROOT
BRANCH   2  14
HETATM   14  C9  UNL     1      -2.451  52.371 -25.076  1.00  0.00     0.248 C 
HETATM   15  O1  UNL     1      -2.962  52.886 -26.062  1.00  0.00    -0.268 OA
HETATM   16  N1  UNL     1      -1.244  52.728 -24.533  1.00  0.00    -0.349 N 
HETATM   17  H11 UNL     1      -0.879  52.177 -23.768  1.00  0.00     0.163 HD
BRANCH  16  18
HETATM   18  C10 UNL     1      -0.322  53.610 -25.225  1.00  0.00     0.114 C 
HETATM   19  C11 UNL     1       0.480  54.425 -24.209  1.00  0.00     0.037 C 
BRANCH  18  20
HETATM   20  C12 UNL     1       0.524  52.788 -26.185  1.00  0.00    -0.036 A 
HETATM   21  C13 UNL     1       0.308  52.773 -27.572  1.00  0.00     0.009 A 
HETATM   22  C14 UNL     1       1.133  52.023 -28.414  1.00  0.00     0.001 A 
HETATM   23  C15 UNL     1       2.193  51.289 -27.886  1.00  0.00     0.000 A 
HETATM   24  C16 UNL     1       2.431  51.305 -26.515  1.00  0.00     0.001 A 
HETATM   25  C17 UNL     1       1.607  52.052 -25.673  1.00  0.00     0.009 A 
ENDBRANCH  18  20
ENDBRANCH  16  18
ENDBRANCH   2  14
BRANCH   1  26
HETATM   26  C6  UNL     1      -1.125  50.927 -22.841  1.00  0.00     0.038 C 
BRANCH  26  27
HETATM   27  C5  UNL     1      -0.484  51.859 -21.845  1.00  0.00    -0.019 C 
HETATM   28  C3  UNL     1      -0.075  51.603 -20.584  1.00  0.00    -0.067 C 
HETATM   29  C4  UNL     1      -0.177  50.257 -19.915  1.00  0.00     0.048 C 
BRANCH  28  30
HETATM   30  C2  UNL     1       0.513  52.699 -19.814  1.00  0.00    -0.004 C 
HETATM   31  C1  UNL     1       0.690  53.961 -20.227  1.00  0.00     0.012 C 
ENDBRANCH  28  30
ENDBRANCH  26  27
ENDBRANCH   1  26
TORSDOF 6
ENDMDL
MODEL 7
REMARK minimizedAffinity -8.99428463
REMARK  6 active torsions:
REMARK  status: ('A' for Active; 'I' for Inactive)
REMARK    1  A    between atoms: C2_2  and  C3_3 
REMARK    2  A    between atoms: C5_5  and  C6_6 
REMARK    3  A    between atoms: C6_6  and  C7_7 
REMARK    4  A    between atoms: C8_8  and  C9_9 
REMARK       I    between atoms: C9_9  and  N1_11 
REMARK    5  A    between atoms: N1_11  and  C10_12 
REMARK    6  A    between atoms: C10_12  and  C12_14 
ROOT
HETATM    1  C7  UNL     1      -3.008  49.391 -22.778  1.00  0.00     0.036 C 
HETATM    2  C8  UNL     1      -2.905  50.873 -23.121  1.00  0.00     0.011 C 
HETATM    3  C18 UNL     1      -2.677  51.851 -22.227  1.00  0.00    -0.013 C 
HETATM    4  C19 UNL     1      -2.478  51.596 -20.770  1.00  0.00     0.034 C 
HETATM    5  C20 UNL     1      -2.150  50.121 -20.450  1.00  0.00     0.005 C 
HETATM    6  C21 UNL     1      -1.951  49.868 -18.901  1.00  0.00    -0.043 C 
HETATM    7  C22 UNL     1      -2.822  50.759 -17.988  1.00  0.00     0.015 C 
HETATM    8  C23 UNL     1      -0.476  50.200 -18.547  1.00  0.00     0.015 C 
HETATM    9  C24 UNL     1      -2.224  48.394 -18.526  1.00  0.00     0.009 C 
HETATM   10  C25 UNL     1      -1.848  47.444 -19.646  1.00  0.00     0.002 C 
HETATM   11  C26 UNL     1      -2.706  47.657 -20.891  1.00  0.00     0.010 C 
HETATM   12  C27 UNL     1      -3.120  49.132 -21.198  1.00  0.00    -0.031 C 
HETATM   13  C28 UNL     1      -4.582  49.348 -20.730  1.00  0.00     0.016 C 
ENDROOT
BRANCH   2  14
HETATM   14  C9  UNL     1      -2.912  51.268 -24.559  1.00  0.00     0.248 C 
HETATM   15  O1  UNL     1      -3.908  51.757 -25.076  1.00  0.00    -0.268 OA
HETATM   16  N1  UNL     1      -1.713  51.062 -25.191  1.00  0.00    -0.349 N 
HETATM   17  H11 UNL     1      -0.984  50.572 -24.691  1.00  0.00     0.163 HD
BRANCH  16  18
HETATM   18  C10 UNL     1      -1.572  51.188 -26.631  1.00  0.00     0.114 C 
HETATM   19  C11 UNL     1      -2.471  52.314 -27.144  1.00  0.00     0.037 C 
BRANCH  18  20
HETATM   20  C12 UNL     1      -0.099  51.350 -26.972  1.00  0.00    -0.036 A 
HETATM   21  C13 UNL     1       0.349  51.824 -28.215  1.00  0.00     0.009 A 
HETATM   22  C14 UNL     1       1.714  51.983 -28.467  1.00  0.00     0.001 A 
HETATM   23  C15 UNL     1       2.650  51.685 -27.479  1.00  0.00     0.000 A 
HETATM   24  C16 UNL     1       2.222  51.230 -26.236  1.00  0.00     0.001 A 
HETATM   25  C17 UNL     1       0.860  51.069 -25.983  1.00  0.00     0.009 A 
ENDBRANCH  18  20
ENDBRANCH  16  18
ENDBRANCH   2  14
BRANCH   1  26
HETATM   26  C6  UNL     1      -4.126  48.715 -23.641  1.00  0.00     0.038 C 
BRANCH  26  27
HETATM   27  C5  UNL     1      -3.831  48.619 -25.116  1.00  0.00    -0.019 C 
HETATM   28  C3  UNL     1      -4.666  48.310 -26.131  1.00  0.00    -0.067 C 
HETATM   29  C4  UNL     1      -6.132  48.007 -25.962  1.00  0.00     0.048 C 
BRANCH  28  30
HETATM   30  C2  UNL     1      -4.119  48.274 -27.487  1.00  0.00    -0.004 C 
HETATM   31  C1  UNL     1      -4.801  48.056 -28.619  1.00  0.00     0.012 C 
ENDBRANCH  28  30
ENDBRANCH  26  27
ENDBRANCH   1  26
TORSDOF 6
ENDMDL
MODEL 8
REMARK minimizedAffinity -8.83892155
REMARK  6 active torsions:
REMARK  status: ('A' for Active; 'I' for Inactive)
REMARK    1  A    between atoms: C2_2  and  C3_3 
REMARK    2  A    between atoms: C5_5  and  C6_6 
REMARK    3  A    between atoms: C6_6  and  C7_7 
REMARK    4  A    between atoms: C8_8  and  C9_9 
REMARK       I    between atoms: C9_9  and  N1_11 
REMARK    5  A    between atoms: N1_11  and  C10_12 
REMARK    6  A    between atoms: C10_12  and  C12_14 
ROOT
HETATM    1  C7  UNL     1      -2.407  51.362 -21.218  1.00  0.00     0.036 C 
HETATM    2  C8  UNL     1      -1.184  51.538 -20.326  1.00  0.00     0.011 C 
HETATM    3  C18 UNL     1       0.053  51.818 -20.772  1.00  0.00    -0.013 C 
HETATM    4  C19 UNL     1       0.379  52.008 -22.216  1.00  0.00     0.034 C 
HETATM    5  C20 UNL     1      -0.868  52.262 -23.091  1.00  0.00     0.005 C 
HETATM    6  C21 UNL     1      -0.506  52.453 -24.619  1.00  0.00    -0.043 C 
HETATM    7  C22 UNL     1       0.712  51.631 -25.097  1.00  0.00     0.015 C 
HETATM    8  C23 UNL     1      -0.133  53.944 -24.840  1.00  0.00     0.015 C 
HETATM    9  C24 UNL     1      -1.701  52.108 -25.535  1.00  0.00     0.009 C 
HETATM   10  C25 UNL     1      -3.030  52.431 -24.881  1.00  0.00     0.002 C 
HETATM   11  C26 UNL     1      -3.280  51.582 -23.637  1.00  0.00     0.010 C 
HETATM   12  C27 UNL     1      -2.024  51.241 -22.772  1.00  0.00    -0.031 C 
HETATM   13  C28 UNL     1      -1.572  49.794 -23.094  1.00  0.00     0.016 C 
ENDROOT
BRANCH   2  14
HETATM   14  C9  UNL     1      -1.382  51.547 -18.848  1.00  0.00     0.248 C 
HETATM   15  O1  UNL     1      -2.417  51.971 -18.351  1.00  0.00    -0.268 OA
HETATM   16  N1  UNL     1      -0.330  51.013 -18.149  1.00  0.00    -0.349 N 
HETATM   17  H11 UNL     1       0.511  50.773 -18.656  1.00  0.00     0.163 HD
BRANCH  16  18
HETATM   18  C10 UNL     1      -0.238  51.114 -16.704  1.00  0.00     0.114 C 
HETATM   19  C11 UNL     1      -0.711  49.811 -16.060  1.00  0.00     0.037 C 
BRANCH  18  20
HETATM   20  C12 UNL     1       1.176  51.530 -16.326  1.00  0.00    -0.036 A 
HETATM   21  C13 UNL     1       1.920  52.463 -17.064  1.00  0.00     0.009 A 
HETATM   22  C14 UNL     1       3.205  52.832 -16.657  1.00  0.00     0.001 A 
HETATM   23  C15 UNL     1       3.759  52.287 -15.500  1.00  0.00     0.000 A 
HETATM   24  C16 UNL     1       3.028  51.373 -14.748  1.00  0.00     0.001 A 
HETATM   25  C17 UNL     1       1.746  51.001 -15.154  1.00  0.00     0.009 A 
ENDBRANCH  18  20
ENDBRANCH  16  18
ENDBRANCH   2  14
BRANCH   1  26
HETATM   26  C6  UNL     1      -3.313  50.208 -20.668  1.00  0.00     0.038 C 
BRANCH  26  27
HETATM   27  C5  UNL     1      -4.774  50.313 -21.022  1.00  0.00    -0.019 C 
HETATM   28  C3  UNL     1      -5.563  49.413 -21.648  1.00  0.00    -0.067 C 
HETATM   29  C4  UNL     1      -5.101  48.057 -22.115  1.00  0.00     0.048 C 
BRANCH  28  30
HETATM   30  C2  UNL     1      -6.962  49.770 -21.883  1.00  0.00    -0.004 C 
HETATM   31  C1  UNL     1      -7.608  49.739 -23.056  1.00  0.00     0.012 C 
ENDBRANCH  28  30
ENDBRANCH  26  27
ENDBRANCH   1  26
TORSDOF 6
ENDMDL
MODEL 9
REMARK minimizedAffinity -8.68880749
REMARK  6 active torsions:
REMARK  status: ('A' for Active; 'I' for Inactive)
REMARK    1  A    between atoms: C2_2  and  C3_3 
REMARK    2  A    between atoms: C5_5  and  C6_6 
REMARK    3  A    between atoms: C6_6  and  C7_7 
REMARK    4  A    between atoms: C8_8  and  C9_9 
REMARK       I    between atoms: C9_9  and  N1_11 
REMARK    5  A    between atoms: N1_11  and  C10_12 
REMARK    6  A    between atoms: C10_12  and  C12_14 
ROOT
HETATM    1  C7  UNL     1      -1.649  51.386 -22.985  1.00  0.00     0.036 C 
HETATM    2  C8  UNL     1      -2.900  50.917 -22.252  1.00  0.00     0.011 C 
HETATM    3  C18 UNL     1      -3.072  50.973 -20.919  1.00  0.00    -0.013 C 
HETATM    4  C19 UNL     1      -2.047  51.523 -19.985  1.00  0.00     0.034 C 
HETATM    5  C20 UNL     1      -0.977  52.382 -20.694  1.00  0.00     0.005 C 
HETATM    6  C21 UNL     1       0.106  52.950 -19.691  1.00  0.00    -0.043 C 
HETATM    7  C22 UNL     1       0.419  52.026 -18.494  1.00  0.00     0.015 C 
HETATM    8  C23 UNL     1      -0.449  54.268 -19.084  1.00  0.00     0.015 C 
HETATM    9  C24 UNL     1       1.437  53.266 -20.408  1.00  0.00     0.009 C 
HETATM   10  C25 UNL     1       1.219  53.714 -21.840  1.00  0.00     0.002 C 
HETATM   11  C26 UNL     1       0.605  52.611 -22.700  1.00  0.00     0.010 C 
HETATM   12  C27 UNL     1      -0.424  51.674 -21.988  1.00  0.00    -0.031 C 
HETATM   13  C28 UNL     1       0.282  50.345 -21.618  1.00  0.00     0.016 C 
ENDROOT
BRANCH   2  14
HETATM   14  C9  UNL     1      -4.080  50.500 -23.063  1.00  0.00     0.248 C 
HETATM   15  O1  UNL     1      -4.784  51.327 -23.627  1.00  0.00    -0.268 OA
HETATM   16  N1  UNL     1      -4.249  49.141 -23.127  1.00  0.00    -0.349 N 
HETATM   17  H11 UNL     1      -3.661  48.555 -22.552  1.00  0.00     0.163 HD
BRANCH  16  18
HETATM   18  C10 UNL     1      -5.446  48.543 -23.692  1.00  0.00     0.114 C 
HETATM   19  C11 UNL     1      -6.669  49.387 -23.331  1.00  0.00     0.037 C 
BRANCH  18  20
HETATM   20  C12 UNL     1      -5.239  48.335 -25.184  1.00  0.00    -0.036 A 
HETATM   21  C13 UNL     1      -6.269  47.938 -26.050  1.00  0.00     0.009 A 
HETATM   22  C14 UNL     1      -6.032  47.790 -27.419  1.00  0.00     0.001 A 
HETATM   23  C15 UNL     1      -4.769  48.050 -27.946  1.00  0.00     0.000 A 
HETATM   24  C16 UNL     1      -3.740  48.461 -27.104  1.00  0.00     0.001 A 
HETATM   25  C17 UNL     1      -3.974  48.606 -25.736  1.00  0.00     0.009 A 
ENDBRANCH  18  20
ENDBRANCH  16  18
ENDBRANCH   2  14
BRANCH   1  26
HETATM   26  C6  UNL     1      -1.322  50.414 -24.169  1.00  0.00     0.038 C 
BRANCH  26  27
HETATM   27  C5  UNL     1      -1.319  51.045 -25.537  1.00  0.00    -0.019 C 
HETATM   28  C3  UNL     1      -0.271  51.317 -26.345  1.00  0.00    -0.067 C 
HETATM   29  C4  UNL     1       1.163  51.001 -26.010  1.00  0.00     0.048 C 
BRANCH  28  30
HETATM   30  C2  UNL     1      -0.542  51.952 -27.634  1.00  0.00    -0.004 C 
HETATM   31  C1  UNL     1       0.266  52.789 -28.299  1.00  0.00     0.012 C 
ENDBRANCH  28  30
ENDBRANCH  26  27
ENDBRANCH   1  26
TORSDOF 6
ENDMDL
