MODEL 1
REMARK minimizedAffinity -7.47241116
REMARK CNNscore 0.726129591
REMARK CNNaffinity 6.61418676
REMARK  7 active torsions:
REMARK  status: ('A' for Active; 'I' for Inactive)
REMARK    1  A    between atoms: C2_2  and  C30_32 
REMARK    2  A    between atoms: C3_3  and  C4_4 
REMARK    3  A    between atoms: C4_4  and  C5_5 
REMARK    4  A    between atoms: C5_5  and  C6_6 
REMARK    5  A    between atoms: C6_6  and  C8_8 
REMARK    6  A    between atoms: C10_10  and  O1_11 
REMARK    7  A    between atoms: C30_32  and  O4_34 
ROOT
HETATM    1  C8  UNL     1       5.966  55.587  -8.188  1.00  0.00     0.001 C 
HETATM    2  C9  UNL     1       6.796  54.512  -8.935  1.00  0.00     0.038 C 
HETATM    3  C10 UNL     1       5.796  53.638  -9.724  1.00  0.00     0.128 C 
HETATM    4  C11 UNL     1       4.471  54.443  -9.727  1.00  0.00    -0.006 C 
HETATM    5  C12 UNL     1       4.595  55.477 -10.896  1.00  0.00     0.019 C 
HETATM    6  C13 UNL     1       3.162  53.623  -9.903  1.00  0.00     0.006 C 
HETATM    7  C14 UNL     1       2.978  53.048 -11.315  1.00  0.00     0.007 C 
HETATM    8  C15 UNL     1       1.710  52.202 -11.385  1.00  0.00     0.007 C 
HETATM    9  C16 UNL     1       0.466  53.094 -11.253  1.00  0.00     0.010 C 
HETATM   10  C17 UNL     1      -0.913  52.348 -11.309  1.00  0.00     0.018 C 
HETATM   11  C18 UNL     1      -1.508  52.478 -12.725  1.00  0.00     0.023 C 
HETATM   12  C19 UNL     1      -0.801  50.847 -10.972  1.00  0.00     0.023 C 
HETATM   13  C20 UNL     1      -1.940  52.970 -10.342  1.00  0.00     0.135 C 
HETATM   14  O2  UNL     1      -2.836  52.297  -9.824  1.00  0.00    -0.297 OA
HETATM   15  C21 UNL     1      -1.931  54.467 -10.104  1.00  0.00     0.080 C 
HETATM   16  C22 UNL     1      -0.557  55.104 -10.192  1.00  0.00     0.018 C 
HETATM   17  C23 UNL     1       0.535  54.062 -10.073  1.00  0.00    -0.026 A 
HETATM   18  C24 UNL     1       0.862  53.564  -8.693  1.00  0.00     0.021 A 
HETATM   19  C25 UNL     1       1.903  54.405  -9.429  1.00  0.00    -0.027 A 
HETATM   20  C26 UNL     1       2.105  55.840  -8.924  1.00  0.00     0.011 C 
HETATM   21  C27 UNL     1       3.441  56.205  -8.258  1.00  0.00     0.011 C 
HETATM   22  C28 UNL     1       4.490  55.087  -8.289  1.00  0.00    -0.030 C 
HETATM   23  C29 UNL     1       4.158  54.109  -7.134  1.00  0.00     0.016 C 
ENDROOT
BRANCH   1  24
HETATM   24  C6  UNL     1       6.552  56.161  -6.864  1.00  0.00    -0.013 C 
HETATM   25  C7  UNL     1       7.212  55.019  -6.064  1.00  0.00     0.010 C 
BRANCH  24  26
HETATM   26  C5  UNL     1       5.704  57.027  -5.901  1.00  0.00     0.008 C 
BRANCH  26  27
HETATM   27  C4  UNL     1       6.344  58.290  -5.325  1.00  0.00     0.028 C 
BRANCH  27  28
HETATM   28  C3  UNL     1       7.820  58.096  -5.102  1.00  0.00    -0.013 C 
HETATM   29  C2  UNL     1       8.759  59.041  -4.891  1.00  0.00     0.008 C 
HETATM   30  C1  UNL     1       8.527  60.524  -4.858  1.00  0.00     0.055 C 
BRANCH  29  31
HETATM   31  C30 UNL     1      10.181  58.662  -4.672  1.00  0.00     0.171 C 
HETATM   32  O3  UNL     1      11.148  59.283  -5.078  1.00  0.00    -0.646 OA
BRANCH  31  33
HETATM   33  O4  UNL     1      10.346  57.538  -3.954  1.00  0.00    -0.773 OA
HETATM   34  H46 UNL     1      11.320  57.433  -3.910  1.00  0.00     0.167 HD
ENDBRANCH  31  33
ENDBRANCH  29  31
ENDBRANCH  27  28
ENDBRANCH  26  27
ENDBRANCH  24  26
ENDBRANCH   1  24
BRANCH   3  35
HETATM   35  O1  UNL     1       5.654  52.375  -9.085  1.00  0.00    -0.395 OA
HETATM   36  H17 UNL     1       6.528  51.951  -9.067  1.00  0.00     0.210 HD
ENDBRANCH   3  35
TORSDOF 7
ENDMDL
MODEL 2
REMARK minimizedAffinity -7.38852215
REMARK CNNscore 0.668525755
REMARK CNNaffinity 6.88335228
REMARK  7 active torsions:
REMARK  status: ('A' for Active; 'I' for Inactive)
REMARK    1  A    between atoms: C2_2  and  C30_32 
REMARK    2  A    between atoms: C3_3  and  C4_4 
REMARK    3  A    between atoms: C4_4  and  C5_5 
REMARK    4  A    between atoms: C5_5  and  C6_6 
REMARK    5  A    between atoms: C6_6  and  C8_8 
REMARK    6  A    between atoms: C10_10  and  O1_11 
REMARK    7  A    between atoms: C30_32  and  O4_34 
ROOT
HETATM    1  C8  UNL     1      -2.146  52.421 -11.250  1.00  0.00     0.001 C 
HETATM    2  C9  UNL     1      -3.004  52.699  -9.990  1.00  0.00     0.038 C 
HETATM    3  C10 UNL     1      -2.087  53.409  -8.968  1.00  0.00     0.128 C 
HETATM    4  C11 UNL     1      -0.851  53.865  -9.784  1.00  0.00    -0.006 C 
HETATM    5  C12 UNL     1      -1.256  55.217 -10.464  1.00  0.00     0.019 C 
HETATM    6  C13 UNL     1       0.469  54.065  -8.989  1.00  0.00     0.006 C 
HETATM    7  C14 UNL     1       0.454  55.290  -8.063  1.00  0.00     0.007 C 
HETATM    8  C15 UNL     1       1.754  55.375  -7.269  1.00  0.00     0.007 C 
HETATM    9  C16 UNL     1       2.928  55.712  -8.202  1.00  0.00     0.010 C 
HETATM   10  C17 UNL     1       4.331  55.830  -7.512  1.00  0.00     0.018 C 
HETATM   11  C18 UNL     1       4.662  57.317  -7.278  1.00  0.00     0.023 C 
HETATM   12  C19 UNL     1       4.398  55.104  -6.153  1.00  0.00     0.023 C 
HETATM   13  C20 UNL     1       5.456  55.264  -8.402  1.00  0.00     0.135 C 
HETATM   14  O2  UNL     1       6.478  54.767  -7.920  1.00  0.00    -0.297 OA
HETATM   15  C21 UNL     1       5.369  55.422  -9.907  1.00  0.00     0.080 C 
HETATM   16  C22 UNL     1       3.954  55.413 -10.453  1.00  0.00     0.018 C 
HETATM   17  C23 UNL     1       2.985  54.829  -9.448  1.00  0.00    -0.026 A 
HETATM   18  C24 UNL     1       2.940  53.331  -9.327  1.00  0.00     0.021 A 
HETATM   19  C25 UNL     1       1.725  54.051  -9.907  1.00  0.00    -0.027 A 
HETATM   20  C26 UNL     1       1.499  53.904 -11.418  1.00  0.00     0.011 C 
HETATM   21  C27 UNL     1       0.272  53.117 -11.906  1.00  0.00     0.011 C 
HETATM   22  C28 UNL     1      -0.675  52.664 -10.788  1.00  0.00    -0.030 C 
HETATM   23  C29 UNL     1      -0.073  51.379 -10.165  1.00  0.00     0.016 C 
ENDROOT
BRANCH   1  24
HETATM   24  C6  UNL     1      -2.540  51.205 -12.139  1.00  0.00    -0.013 C 
HETATM   25  C7  UNL     1      -2.603  51.652 -13.614  1.00  0.00     0.010 C 
BRANCH  24  26
HETATM   26  C5  UNL     1      -3.777  50.328 -11.824  1.00  0.00     0.008 C 
BRANCH  26  27
HETATM   27  C4  UNL     1      -4.122  50.079 -10.356  1.00  0.00     0.028 C 
BRANCH  27  28
HETATM   28  C3  UNL     1      -5.593  50.279 -10.103  1.00  0.00    -0.013 C 
HETATM   29  C2  UNL     1      -6.521  49.342  -9.821  1.00  0.00     0.008 C 
HETATM   30  C1  UNL     1      -6.281  47.863  -9.722  1.00  0.00     0.055 C 
BRANCH  29  31
HETATM   31  C30 UNL     1      -7.939  49.727  -9.583  1.00  0.00     0.171 C 
HETATM   32  O3  UNL     1      -8.453  49.887  -8.489  1.00  0.00    -0.646 OA
BRANCH  31  33
HETATM   33  O4  UNL     1      -8.655  49.905 -10.706  1.00  0.00    -0.773 OA
HETATM   34  H46 UNL     1      -9.547  50.144 -10.374  1.00  0.00     0.167 HD
ENDBRANCH  31  33
ENDBRANCH  29  31
ENDBRANCH  27  28
ENDBRANCH  26  27
ENDBRANCH  24  26
ENDBRANCH   1  24
BRANCH   3  35
HETATM   35  O1  UNL     1      -1.738  52.504  -7.927  1.00  0.00    -0.395 OA
HETATM   36  H17 UNL     1      -2.560  52.215  -7.497  1.00  0.00     0.210 HD
ENDBRANCH   3  35
TORSDOF 7
ENDMDL
MODEL 3
REMARK minimizedAffinity -7.5525198
REMARK CNNscore 0.569593549
REMARK CNNaffinity 6.06930399
REMARK  7 active torsions:
REMARK  status: ('A' for Active; 'I' for Inactive)
REMARK    1  A    between atoms: C2_2  and  C30_32 
REMARK    2  A    between atoms: C3_3  and  C4_4 
REMARK    3  A    between atoms: C4_4  and  C5_5 
REMARK    4  A    between atoms: C5_5  and  C6_6 
REMARK    5  A    between atoms: C6_6  and  C8_8 
REMARK    6  A    between atoms: C10_10  and  O1_11 
REMARK    7  A    between atoms: C30_32  and  O4_34 
ROOT
HETATM    1  C8  UNL     1      -6.173  46.552 -31.325  1.00  0.00     0.001 C 
HETATM    2  C9  UNL     1      -6.782  47.595 -32.296  1.00  0.00     0.038 C 
HETATM    3  C10 UNL     1      -8.254  47.799 -31.872  1.00  0.00     0.128 C 
HETATM    4  C11 UNL     1      -8.357  47.176 -30.457  1.00  0.00    -0.006 C 
HETATM    5  C12 UNL     1      -7.846  48.271 -29.462  1.00  0.00     0.019 C 
HETATM    6  C13 UNL     1      -9.766  46.694 -30.013  1.00  0.00     0.006 C 
HETATM    7  C14 UNL     1     -10.751  47.839 -29.731  1.00  0.00     0.007 C 
HETATM    8  C15 UNL     1     -12.125  47.285 -29.369  1.00  0.00     0.007 C 
HETATM    9  C16 UNL     1     -12.075  46.582 -28.004  1.00  0.00     0.010 C 
HETATM   10  C17 UNL     1     -13.428  45.964 -27.509  1.00  0.00     0.018 C 
HETATM   11  C18 UNL     1     -14.091  46.923 -26.501  1.00  0.00     0.023 C 
HETATM   12  C19 UNL     1     -14.429  45.707 -28.655  1.00  0.00     0.023 C 
HETATM   13  C20 UNL     1     -13.211  44.629 -26.769  1.00  0.00     0.135 C 
HETATM   14  O2  UNL     1     -14.065  43.739 -26.769  1.00  0.00    -0.297 OA
HETATM   15  C21 UNL     1     -11.970  44.439 -25.919  1.00  0.00     0.080 C 
HETATM   16  C22 UNL     1     -10.748  45.182 -26.427  1.00  0.00     0.018 C 
HETATM   17  C23 UNL     1     -10.921  45.589 -27.874  1.00  0.00    -0.026 A 
HETATM   18  C24 UNL     1     -10.702  44.530 -28.918  1.00  0.00     0.021 A 
HETATM   19  C25 UNL     1      -9.705  45.683 -28.831  1.00  0.00    -0.027 A 
HETATM   20  C26 UNL     1      -8.323  45.351 -28.251  1.00  0.00     0.011 C 
HETATM   21  C27 UNL     1      -7.101  45.410 -29.181  1.00  0.00     0.011 C 
HETATM   22  C28 UNL     1      -7.402  45.929 -30.592  1.00  0.00    -0.030 C 
HETATM   23  C29 UNL     1      -7.988  44.747 -31.404  1.00  0.00     0.016 C 
ENDROOT
BRANCH   1  24
HETATM   24  C6  UNL     1      -4.997  45.677 -31.850  1.00  0.00    -0.013 C 
HETATM   25  C7  UNL     1      -4.016  46.566 -32.641  1.00  0.00     0.010 C 
BRANCH  24  26
HETATM   26  C5  UNL     1      -5.240  44.367 -32.640  1.00  0.00     0.008 C 
BRANCH  26  27
HETATM   27  C4  UNL     1      -4.147  43.299 -32.605  1.00  0.00     0.028 C 
BRANCH  27  28
HETATM   28  C3  UNL     1      -4.302  42.329 -33.746  1.00  0.00    -0.013 C 
HETATM   29  C2  UNL     1      -3.517  41.275 -34.053  1.00  0.00     0.008 C 
HETATM   30  C1  UNL     1      -2.278  40.854 -33.316  1.00  0.00     0.055 C 
BRANCH  29  31
HETATM   31  C30 UNL     1      -3.833  40.408 -35.220  1.00  0.00     0.171 C 
HETATM   32  O3  UNL     1      -4.084  39.216 -35.165  1.00  0.00    -0.646 OA
BRANCH  31  33
HETATM   33  O4  UNL     1      -3.836  41.052 -36.399  1.00  0.00    -0.773 OA
HETATM   34  H46 UNL     1      -4.053  40.347 -37.046  1.00  0.00     0.167 HD
ENDBRANCH  31  33
ENDBRANCH  29  31
ENDBRANCH  27  28
ENDBRANCH  26  27
ENDBRANCH  24  26
ENDBRANCH   1  24
BRANCH   3  35
HETATM   35  O1  UNL     1      -9.116  47.157 -32.804  1.00  0.00    -0.395 OA
HETATM   36  H17 UNL     1      -8.959  47.556 -33.677  1.00  0.00     0.210 HD
ENDBRANCH   3  35
TORSDOF 7
ENDMDL
MODEL 4
REMARK minimizedAffinity -8.30620193
REMARK CNNscore 0.472594857
REMARK CNNaffinity 6.561203
REMARK  7 active torsions:
REMARK  status: ('A' for Active; 'I' for Inactive)
REMARK    1  A    between atoms: C2_2  and  C30_32 
REMARK    2  A    between atoms: C3_3  and  C4_4 
REMARK    3  A    between atoms: C4_4  and  C5_5 
REMARK    4  A    between atoms: C5_5  and  C6_6 
REMARK    5  A    between atoms: C6_6  and  C8_8 
REMARK    6  A    between atoms: C10_10  and  O1_11 
REMARK    7  A    between atoms: C30_32  and  O4_34 
ROOT
HETATM    1  C8  UNL     1       2.441  53.478 -11.098  1.00  0.00     0.001 C 
HETATM    2  C9  UNL     1       1.250  54.462 -10.966  1.00  0.00     0.038 C 
HETATM    3  C10 UNL     1       1.627  55.482  -9.869  1.00  0.00     0.128 C 
HETATM    4  C11 UNL     1       3.153  55.307  -9.662  1.00  0.00    -0.006 C 
HETATM    5  C12 UNL     1       3.843  56.154 -10.783  1.00  0.00     0.019 C 
HETATM    6  C13 UNL     1       3.719  55.729  -8.277  1.00  0.00     0.006 C 
HETATM    7  C14 UNL     1       3.722  57.248  -8.048  1.00  0.00     0.007 C 
HETATM    8  C15 UNL     1       4.224  57.574  -6.645  1.00  0.00     0.007 C 
HETATM    9  C16 UNL     1       5.719  57.244  -6.523  1.00  0.00     0.010 C 
HETATM   10  C17 UNL     1       6.367  57.533  -5.124  1.00  0.00     0.018 C 
HETATM   11  C18 UNL     1       7.116  58.879  -5.176  1.00  0.00     0.023 C 
HETATM   12  C19 UNL     1       5.331  57.605  -3.983  1.00  0.00     0.023 C 
HETATM   13  C20 UNL     1       7.410  56.464  -4.744  1.00  0.00     0.135 C 
HETATM   14  O2  UNL     1       7.638  56.168  -3.567  1.00  0.00    -0.297 OA
HETATM   15  C21 UNL     1       8.266  55.836  -5.825  1.00  0.00     0.080 C 
HETATM   16  C22 UNL     1       7.577  55.715  -7.173  1.00  0.00     0.018 C 
HETATM   17  C23 UNL     1       6.076  55.847  -7.030  1.00  0.00    -0.026 A 
HETATM   18  C24 UNL     1       5.322  54.641  -6.544  1.00  0.00     0.021 A 
HETATM   19  C25 UNL     1       5.111  55.099  -7.986  1.00  0.00    -0.027 A 
HETATM   20  C26 UNL     1       5.740  54.225  -9.080  1.00  0.00     0.011 C 
HETATM   21  C27 UNL     1       4.810  53.450 -10.027  1.00  0.00     0.011 C 
HETATM   22  C28 UNL     1       3.318  53.749  -9.836  1.00  0.00    -0.030 C 
HETATM   23  C29 UNL     1       2.829  52.905  -8.633  1.00  0.00     0.016 C 
ENDROOT
BRANCH   1  24
HETATM   24  C6  UNL     1       2.133  52.034 -11.594  1.00  0.00    -0.013 C 
HETATM   25  C7  UNL     1       0.963  51.455 -10.774  1.00  0.00     0.010 C 
BRANCH  24  26
HETATM   26  C5  UNL     1       3.241  50.960 -11.722  1.00  0.00     0.008 C 
BRANCH  26  27
HETATM   27  C4  UNL     1       3.614  50.482 -13.125  1.00  0.00     0.028 C 
BRANCH  27  28
HETATM   28  C3  UNL     1       2.605  50.947 -14.142  1.00  0.00    -0.013 C 
HETATM   29  C2  UNL     1       2.823  51.685 -15.250  1.00  0.00     0.008 C 
HETATM   30  C1  UNL     1       4.146  52.233 -15.699  1.00  0.00     0.055 C 
BRANCH  29  31
HETATM   31  C30 UNL     1       1.698  52.041 -16.157  1.00  0.00     0.171 C 
HETATM   32  O3  UNL     1       1.005  51.245 -16.767  1.00  0.00    -0.646 OA
BRANCH  31  33
HETATM   33  O4  UNL     1       1.474  53.362 -16.261  1.00  0.00    -0.773 OA
HETATM   34  H46 UNL     1       0.720  53.418 -16.887  1.00  0.00     0.167 HD
ENDBRANCH  31  33
ENDBRANCH  29  31
ENDBRANCH  27  28
ENDBRANCH  26  27
ENDBRANCH  24  26
ENDBRANCH   1  24
BRANCH   3  35
HETATM   35  O1  UNL     1       0.891  55.205  -8.683  1.00  0.00    -0.395 OA
HETATM   36  H17 UNL     1      -0.054  55.277  -8.897  1.00  0.00     0.210 HD
ENDBRANCH   3  35
TORSDOF 7
ENDMDL
MODEL 5
REMARK minimizedAffinity -7.60877085
REMARK CNNscore 0.429349273
REMARK CNNaffinity 6.76031303
REMARK  7 active torsions:
REMARK  status: ('A' for Active; 'I' for Inactive)
REMARK    1  A    between atoms: C2_2  and  C30_32 
REMARK    2  A    between atoms: C3_3  and  C4_4 
REMARK    3  A    between atoms: C4_4  and  C5_5 
REMARK    4  A    between atoms: C5_5  and  C6_6 
REMARK    5  A    between atoms: C6_6  and  C8_8 
REMARK    6  A    between atoms: C10_10  and  O1_11 
REMARK    7  A    between atoms: C30_32  and  O4_34 
ROOT
HETATM    1  C8  UNL     1      -2.015  49.064 -18.299  1.00  0.00     0.001 C 
HETATM    2  C9  UNL     1      -3.224  48.190 -18.717  1.00  0.00     0.038 C 
HETATM    3  C10 UNL     1      -3.436  48.407 -20.232  1.00  0.00     0.128 C 
HETATM    4  C11 UNL     1      -2.135  49.087 -20.728  1.00  0.00    -0.006 C 
HETATM    5  C12 UNL     1      -1.105  47.931 -20.967  1.00  0.00     0.019 C 
HETATM    6  C13 UNL     1      -2.250  49.948 -22.017  1.00  0.00     0.006 C 
HETATM    7  C14 UNL     1      -2.470  49.123 -23.294  1.00  0.00     0.007 C 
HETATM    8  C15 UNL     1      -2.642  50.042 -24.499  1.00  0.00     0.007 C 
HETATM    9  C16 UNL     1      -1.319  50.755 -24.820  1.00  0.00     0.010 C 
HETATM   10  C17 UNL     1      -1.356  51.735 -26.044  1.00  0.00     0.018 C 
HETATM   11  C18 UNL     1      -0.769  51.029 -27.282  1.00  0.00     0.023 C 
HETATM   12  C19 UNL     1      -2.781  52.210 -26.394  1.00  0.00     0.023 C 
HETATM   13  C20 UNL     1      -0.490  52.987 -25.801  1.00  0.00     0.135 C 
HETATM   14  O2  UNL     1      -0.761  54.075 -26.317  1.00  0.00    -0.297 OA
HETATM   15  C21 UNL     1       0.793  52.865 -25.004  1.00  0.00     0.080 C 
HETATM   16  C22 UNL     1       0.757  51.801 -23.923  1.00  0.00     0.018 C 
HETATM   17  C23 UNL     1      -0.667  51.403 -23.599  1.00  0.00    -0.026 A 
HETATM   18  C24 UNL     1      -1.454  52.324 -22.710  1.00  0.00     0.021 A 
HETATM   19  C25 UNL     1      -1.068  50.948 -22.172  1.00  0.00    -0.027 A 
HETATM   20  C26 UNL     1       0.037  50.914 -21.107  1.00  0.00     0.011 C 
HETATM   21  C27 UNL     1      -0.334  50.492 -19.676  1.00  0.00     0.011 C 
HETATM   22  C28 UNL     1      -1.784  50.023 -19.509  1.00  0.00    -0.030 C 
HETATM   23  C29 UNL     1      -2.668  51.289 -19.386  1.00  0.00     0.016 C 
ENDROOT
BRANCH   1  24
HETATM   24  C6  UNL     1      -1.962  49.568 -16.827  1.00  0.00    -0.013 C 
HETATM   25  C7  UNL     1      -0.825  50.600 -16.684  1.00  0.00     0.010 C 
BRANCH  24  26
HETATM   26  C5  UNL     1      -1.908  48.589 -15.628  1.00  0.00     0.008 C 
BRANCH  26  27
HETATM   27  C4  UNL     1      -3.216  47.941 -15.176  1.00  0.00     0.028 C 
BRANCH  27  28
HETATM   28  C3  UNL     1      -3.080  47.351 -13.797  1.00  0.00    -0.013 C 
HETATM   29  C2  UNL     1      -4.018  46.703 -13.075  1.00  0.00     0.008 C 
HETATM   30  C1  UNL     1      -5.436  46.448 -13.497  1.00  0.00     0.055 C 
BRANCH  29  31
HETATM   31  C30 UNL     1      -3.699  46.169 -11.723  1.00  0.00     0.171 C 
HETATM   32  O3  UNL     1      -2.579  45.925 -11.307  1.00  0.00    -0.646 OA
BRANCH  31  33
HETATM   33  O4  UNL     1      -4.775  45.970 -10.944  1.00  0.00    -0.773 OA
HETATM   34  H46 UNL     1      -4.394  45.620 -10.110  1.00  0.00     0.167 HD
ENDBRANCH  31  33
ENDBRANCH  29  31
ENDBRANCH  27  28
ENDBRANCH  26  27
ENDBRANCH  24  26
ENDBRANCH   1  24
BRANCH   3  35
HETATM   35  O1  UNL     1      -4.581  49.223 -20.445  1.00  0.00    -0.395 OA
HETATM   36  H17 UNL     1      -5.348  48.765 -20.061  1.00  0.00     0.210 HD
ENDBRANCH   3  35
TORSDOF 7
ENDMDL
MODEL 6
REMARK minimizedAffinity -8.12782288
REMARK CNNscore 0.409114957
REMARK CNNaffinity 5.92808867
REMARK  7 active torsions:
REMARK  status: ('A' for Active; 'I' for Inactive)
REMARK    1  A    between atoms: C2_2  and  C30_32 
REMARK    2  A    between atoms: C3_3  and  C4_4 
REMARK    3  A    between atoms: C4_4  and  C5_5 
REMARK    4  A    between atoms: C5_5  and  C6_6 
REMARK    5  A    between atoms: C6_6  and  C8_8 
REMARK    6  A    between atoms: C10_10  and  O1_11 
REMARK    7  A    between atoms: C30_32  and  O4_34 
ROOT
HETATM    1  C8  UNL     1     -12.552  45.758 -26.605  1.00  0.00     0.001 C 
HETATM    2  C9  UNL     1     -13.201  44.988 -27.783  1.00  0.00     0.038 C 
HETATM    3  C10 UNL     1     -12.184  45.001 -28.946  1.00  0.00     0.128 C 
HETATM    4  C11 UNL     1     -10.841  45.432 -28.303  1.00  0.00    -0.006 C 
HETATM    5  C12 UNL     1     -10.221  44.135 -27.683  1.00  0.00     0.019 C 
HETATM    6  C13 UNL     1      -9.802  46.098 -29.247  1.00  0.00     0.006 C 
HETATM    7  C14 UNL     1      -9.167  45.125 -30.252  1.00  0.00     0.007 C 
HETATM    8  C15 UNL     1      -8.215  45.868 -31.185  1.00  0.00     0.007 C 
HETATM    9  C16 UNL     1      -6.981  46.355 -30.410  1.00  0.00     0.010 C 
HETATM   10  C17 UNL     1      -5.915  47.137 -31.253  1.00  0.00     0.018 C 
HETATM   11  C18 UNL     1      -4.762  46.187 -31.628  1.00  0.00     0.023 C 
HETATM   12  C19 UNL     1      -6.492  47.729 -32.556  1.00  0.00     0.023 C 
HETATM   13  C20 UNL     1      -5.288  48.295 -30.451  1.00  0.00     0.135 C 
HETATM   14  O2  UNL     1      -4.873  49.318 -31.002  1.00  0.00    -0.297 OA
HETATM   15  C21 UNL     1      -5.062  48.135 -28.960  1.00  0.00     0.080 C 
HETATM   16  C22 UNL     1      -6.088  47.258 -28.266  1.00  0.00     0.018 C 
HETATM   17  C23 UNL     1      -7.328  47.092 -29.117  1.00  0.00    -0.026 A 
HETATM   18  C24 UNL     1      -8.314  48.226 -29.124  1.00  0.00     0.021 A 
HETATM   19  C25 UNL     1      -8.725  46.909 -28.470  1.00  0.00    -0.027 A 
HETATM   20  C26 UNL     1      -8.796  46.898 -26.937  1.00  0.00     0.011 C 
HETATM   21  C27 UNL     1     -10.170  46.744 -26.265  1.00  0.00     0.011 C 
HETATM   22  C28 UNL     1     -11.327  46.489 -27.239  1.00  0.00    -0.030 C 
HETATM   23  C29 UNL     1     -11.746  47.859 -27.828  1.00  0.00     0.016 C 
ENDROOT
BRANCH   1  24
HETATM   24  C6  UNL     1     -13.501  46.466 -25.594  1.00  0.00    -0.013 C 
HETATM   25  C7  UNL     1     -13.107  46.061 -24.159  1.00  0.00     0.010 C 
BRANCH  24  26
HETATM   26  C5  UNL     1     -15.042  46.398 -25.732  1.00  0.00     0.008 C 
BRANCH  26  27
HETATM   27  C4  UNL     1     -15.887  47.024 -24.623  1.00  0.00     0.028 C 
BRANCH  27  28
HETATM   28  C3  UNL     1     -17.335  46.632 -24.759  1.00  0.00    -0.013 C 
HETATM   29  C2  UNL     1     -18.196  46.284 -23.780  1.00  0.00     0.008 C 
HETATM   30  C1  UNL     1     -17.876  46.187 -22.316  1.00  0.00     0.055 C 
BRANCH  29  31
HETATM   31  C30 UNL     1     -19.608  45.939 -24.100  1.00  0.00     0.171 C 
HETATM   32  O3  UNL     1     -20.278  45.102 -23.521  1.00  0.00    -0.646 OA
BRANCH  31  33
HETATM   33  O4  UNL     1     -20.131  46.650 -25.113  1.00  0.00    -0.773 OA
HETATM   34  H46 UNL     1     -21.044  46.300 -25.192  1.00  0.00     0.167 HD
ENDBRANCH  31  33
ENDBRANCH  29  31
ENDBRANCH  27  28
ENDBRANCH  26  27
ENDBRANCH  24  26
ENDBRANCH   1  24
BRANCH   3  35
HETATM   35  O1  UNL     1     -12.614  45.912 -29.950  1.00  0.00    -0.395 OA
HETATM   36  H17 UNL     1     -13.483  45.615 -30.268  1.00  0.00     0.210 HD
ENDBRANCH   3  35
TORSDOF 7
ENDMDL
MODEL 7
REMARK minimizedAffinity -7.73933029
REMARK CNNscore 0.401798457
REMARK CNNaffinity 6.62692451
REMARK  7 active torsions:
REMARK  status: ('A' for Active; 'I' for Inactive)
REMARK    1  A    between atoms: C2_2  and  C30_32 
REMARK    2  A    between atoms: C3_3  and  C4_4 
REMARK    3  A    between atoms: C4_4  and  C5_5 
REMARK    4  A    between atoms: C5_5  and  C6_6 
REMARK    5  A    between atoms: C6_6  and  C8_8 
REMARK    6  A    between atoms: C10_10  and  O1_11 
REMARK    7  A    between atoms: C30_32  and  O4_34 
ROOT
HETATM    1  C8  UNL     1      -4.384  49.097 -22.986  1.00  0.00     0.001 C 
HETATM    2  C9  UNL     1      -4.995  48.426 -24.243  1.00  0.00     0.038 C 
HETATM    3  C10 UNL     1      -6.381  47.880 -23.833  1.00  0.00     0.128 C 
HETATM    4  C11 UNL     1      -6.703  48.568 -22.483  1.00  0.00    -0.006 C 
HETATM    5  C12 UNL     1      -7.287  49.976 -22.842  1.00  0.00     0.019 C 
HETATM    6  C13 UNL     1      -7.694  47.825 -21.544  1.00  0.00     0.006 C 
HETATM    7  C14 UNL     1      -9.144  47.827 -22.050  1.00  0.00     0.007 C 
HETATM    8  C15 UNL     1     -10.038  47.021 -21.112  1.00  0.00     0.007 C 
HETATM    9  C16 UNL     1     -10.183  47.742 -19.763  1.00  0.00     0.010 C 
HETATM   10  C17 UNL     1     -11.080  47.018 -18.700  1.00  0.00     0.018 C 
HETATM   11  C18 UNL     1     -12.484  47.655 -18.695  1.00  0.00     0.023 C 
HETATM   12  C19 UNL     1     -11.241  45.508 -18.973  1.00  0.00     0.023 C 
HETATM   13  C20 UNL     1     -10.520  47.178 -17.273  1.00  0.00     0.135 C 
HETATM   14  O2  UNL     1     -10.702  46.322 -16.403  1.00  0.00    -0.297 OA
HETATM   15  C21 UNL     1      -9.828  48.469 -16.882  1.00  0.00     0.080 C 
HETATM   16  C22 UNL     1      -9.088  49.148 -18.021  1.00  0.00     0.018 C 
HETATM   17  C23 UNL     1      -8.849  48.186 -19.164  1.00  0.00    -0.026 A 
HETATM   18  C24 UNL     1      -7.714  47.211 -19.018  1.00  0.00     0.021 A 
HETATM   19  C25 UNL     1      -7.596  48.313 -20.069  1.00  0.00    -0.027 A 
HETATM   20  C26 UNL     1      -6.616  49.452 -19.761  1.00  0.00     0.011 C 
HETATM   21  C27 UNL     1      -5.351  49.589 -20.624  1.00  0.00     0.011 C 
HETATM   22  C28 UNL     1      -5.281  48.613 -21.804  1.00  0.00    -0.030 C 
HETATM   23  C29 UNL     1      -4.782  47.254 -21.252  1.00  0.00     0.016 C 
ENDROOT
BRANCH   1  24
HETATM   24  C6  UNL     1      -2.831  49.144 -22.876  1.00  0.00    -0.013 C 
HETATM   25  C7  UNL     1      -2.324  47.818 -22.273  1.00  0.00     0.010 C 
BRANCH  24  26
HETATM   26  C5  UNL     1      -2.094  50.323 -22.193  1.00  0.00     0.008 C 
BRANCH  26  27
HETATM   27  C4  UNL     1      -0.977  51.015 -22.973  1.00  0.00     0.028 C 
BRANCH  27  28
HETATM   28  C3  UNL     1      -0.141  51.881 -22.069  1.00  0.00    -0.013 C 
HETATM   29  C2  UNL     1       0.564  52.984 -22.395  1.00  0.00     0.008 C 
HETATM   30  C1  UNL     1       0.686  53.580 -23.768  1.00  0.00     0.055 C 
BRANCH  29  31
HETATM   31  C30 UNL     1       1.327  53.730 -21.358  1.00  0.00     0.171 C 
HETATM   32  O3  UNL     1       1.438  53.400 -20.189  1.00  0.00    -0.646 OA
BRANCH  31  33
HETATM   33  O4  UNL     1       1.927  54.843 -21.812  1.00  0.00    -0.773 OA
HETATM   34  H46 UNL     1       2.371  55.207 -21.016  1.00  0.00     0.167 HD
ENDBRANCH  31  33
ENDBRANCH  29  31
ENDBRANCH  27  28
ENDBRANCH  26  27
ENDBRANCH  24  26
ENDBRANCH   1  24
BRANCH   3  35
HETATM   35  O1  UNL     1      -6.322  46.464 -23.711  1.00  0.00    -0.395 OA
HETATM   36  H17 UNL     1      -6.061  46.102 -24.575  1.00  0.00     0.210 HD
ENDBRANCH   3  35
TORSDOF 7
ENDMDL
MODEL 8
REMARK minimizedAffinity -7.45059633
REMARK CNNscore 0.385567695
REMARK CNNaffinity 5.84543657
REMARK  7 active torsions:
REMARK  status: ('A' for Active; 'I' for Inactive)
REMARK    1  A    between atoms: C2_2  and  C30_32 
REMARK    2  A    between atoms: C3_3  and  C4_4 
REMARK    3  A    between atoms: C4_4  and  C5_5 
REMARK    4  A    between atoms: C5_5  and  C6_6 
REMARK    5  A    between atoms: C6_6  and  C8_8 
REMARK    6  A    between atoms: C10_10  and  O1_11 
REMARK    7  A    between atoms: C30_32  and  O4_34 
ROOT
HETATM    1  C8  UNL     1     -13.544  45.547 -26.446  1.00  0.00     0.001 C 
HETATM    2  C9  UNL     1     -12.717  44.723 -25.426  1.00  0.00     0.038 C 
HETATM    3  C10 UNL     1     -11.236  44.830 -25.854  1.00  0.00     0.128 C 
HETATM    4  C11 UNL     1     -11.193  46.004 -26.865  1.00  0.00    -0.006 C 
HETATM    5  C12 UNL     1     -11.111  47.312 -26.007  1.00  0.00     0.019 C 
HETATM    6  C13 UNL     1     -10.028  45.991 -27.893  1.00  0.00     0.006 C 
HETATM    7  C14 UNL     1      -8.653  46.289 -27.275  1.00  0.00     0.007 C 
HETATM    8  C15 UNL     1      -7.559  46.189 -28.333  1.00  0.00     0.007 C 
HETATM    9  C16 UNL     1      -7.692  47.333 -29.349  1.00  0.00     0.010 C 
HETATM   10  C17 UNL     1      -6.624  47.350 -30.497  1.00  0.00     0.018 C 
HETATM   11  C18 UNL     1      -5.519  48.368 -30.154  1.00  0.00     0.023 C 
HETATM   12  C19 UNL     1      -5.958  45.976 -30.721  1.00  0.00     0.023 C 
HETATM   13  C20 UNL     1      -7.234  47.799 -31.840  1.00  0.00     0.135 C 
HETATM   14  O2  UNL     1      -6.791  47.400 -32.921  1.00  0.00    -0.297 OA
HETATM   15  C21 UNL     1      -8.329  48.846 -31.851  1.00  0.00     0.080 C 
HETATM   16  C22 UNL     1      -9.232  48.816 -30.631  1.00  0.00     0.018 C 
HETATM   17  C23 UNL     1      -9.110  47.498 -29.896  1.00  0.00    -0.026 A 
HETATM   18  C24 UNL     1      -9.851  46.321 -30.466  1.00  0.00     0.021 A 
HETATM   19  C25 UNL     1     -10.313  46.895 -29.128  1.00  0.00    -0.027 A 
HETATM   20  C26 UNL     1     -11.627  47.688 -29.139  1.00  0.00     0.011 C 
HETATM   21  C27 UNL     1     -12.846  47.103 -28.408  1.00  0.00     0.011 C 
HETATM   22  C28 UNL     1     -12.559  45.816 -27.627  1.00  0.00    -0.030 C 
HETATM   23  C29 UNL     1     -12.581  44.645 -28.641  1.00  0.00     0.016 C 
ENDROOT
BRANCH   1  24
HETATM   24  C6  UNL     1     -15.023  45.124 -26.686  1.00  0.00    -0.013 C 
HETATM   25  C7  UNL     1     -15.307  45.111 -28.202  1.00  0.00     0.010 C 
BRANCH  24  26
HETATM   26  C5  UNL     1     -16.201  45.816 -25.958  1.00  0.00     0.008 C 
BRANCH  26  27
HETATM   27  C4  UNL     1     -15.876  46.702 -24.755  1.00  0.00     0.028 C 
BRANCH  27  28
HETATM   28  C3  UNL     1     -16.697  46.309 -23.556  1.00  0.00    -0.013 C 
HETATM   29  C2  UNL     1     -18.033  46.408 -23.395  1.00  0.00     0.008 C 
HETATM   30  C1  UNL     1     -19.003  46.968 -24.394  1.00  0.00     0.055 C 
BRANCH  29  31
HETATM   31  C30 UNL     1     -18.681  45.951 -22.135  1.00  0.00     0.171 C 
HETATM   32  O3  UNL     1     -19.547  45.097 -22.057  1.00  0.00    -0.646 OA
BRANCH  31  33
HETATM   33  O4  UNL     1     -18.223  46.562 -21.030  1.00  0.00    -0.773 OA
HETATM   34  H46 UNL     1     -18.749  46.156 -20.308  1.00  0.00     0.167 HD
ENDBRANCH  31  33
ENDBRANCH  29  31
ENDBRANCH  27  28
ENDBRANCH  26  27
ENDBRANCH  24  26
ENDBRANCH   1  24
BRANCH   3  35
HETATM   35  O1  UNL     1     -10.816  43.604 -26.440  1.00  0.00    -0.395 OA
HETATM   36  H17 UNL     1     -10.923  42.904 -25.773  1.00  0.00     0.210 HD
ENDBRANCH   3  35
TORSDOF 7
ENDMDL
MODEL 9
REMARK minimizedAffinity -7.45992184
REMARK CNNscore 0.383760571
REMARK CNNaffinity 5.70967054
REMARK  7 active torsions:
REMARK  status: ('A' for Active; 'I' for Inactive)
REMARK    1  A    between atoms: C2_2  and  C30_32 
REMARK    2  A    between atoms: C3_3  and  C4_4 
REMARK    3  A    between atoms: C4_4  and  C5_5 
REMARK    4  A    between atoms: C5_5  and  C6_6 
REMARK    5  A    between atoms: C6_6  and  C8_8 
REMARK    6  A    between atoms: C10_10  and  O1_11 
REMARK    7  A    between atoms: C30_32  and  O4_34 
ROOT
HETATM    1  C8  UNL     1      -9.855  46.104 -28.360  1.00  0.00     0.001 C 
HETATM    2  C9  UNL     1     -10.336  45.404 -29.657  1.00  0.00     0.038 C 
HETATM    3  C10 UNL     1     -11.829  45.061 -29.457  1.00  0.00     0.128 C 
HETATM    4  C11 UNL     1     -12.274  45.896 -28.230  1.00  0.00    -0.006 C 
HETATM    5  C12 UNL     1     -12.604  47.326 -28.775  1.00  0.00     0.019 C 
HETATM    6  C13 UNL     1     -13.492  45.358 -27.429  1.00  0.00     0.006 C 
HETATM    7  C14 UNL     1     -14.829  45.486 -28.175  1.00  0.00     0.007 C 
HETATM    8  C15 UNL     1     -15.959  44.874 -27.355  1.00  0.00     0.007 C 
HETATM    9  C16 UNL     1     -16.227  45.720 -26.101  1.00  0.00     0.010 C 
HETATM   10  C17 UNL     1     -17.372  45.201 -25.163  1.00  0.00     0.018 C 
HETATM   11  C18 UNL     1     -18.662  45.996 -25.442  1.00  0.00     0.023 C 
HETATM   12  C19 UNL     1     -17.681  43.702 -25.361  1.00  0.00     0.023 C 
HETATM   13  C20 UNL     1     -17.035  45.417 -23.674  1.00  0.00     0.135 C 
HETATM   14  O2  UNL     1     -17.465  44.666 -22.794  1.00  0.00    -0.297 OA
HETATM   15  C21 UNL     1     -16.253  46.646 -23.256  1.00  0.00     0.080 C 
HETATM   16  C22 UNL     1     -15.257  47.133 -24.292  1.00  0.00     0.018 C 
HETATM   17  C23 UNL     1     -14.962  46.055 -25.312  1.00  0.00    -0.026 A 
HETATM   18  C24 UNL     1     -14.002  44.971 -24.910  1.00  0.00     0.021 A 
HETATM   19  C25 UNL     1     -13.573  45.956 -25.995  1.00  0.00    -0.027 A 
HETATM   20  C26 UNL     1     -12.516  46.995 -25.597  1.00  0.00     0.011 C 
HETATM   21  C27 UNL     1     -11.121  46.908 -26.237  1.00  0.00     0.011 C 
HETATM   22  C28 UNL     1     -10.988  45.833 -27.321  1.00  0.00    -0.030 C 
HETATM   23  C29 UNL     1     -10.765  44.477 -26.604  1.00  0.00     0.016 C 
ENDROOT
BRANCH   1  24
HETATM   24  C6  UNL     1      -8.348  45.978 -27.988  1.00  0.00    -0.013 C 
HETATM   25  C7  UNL     1      -7.799  44.646 -28.537  1.00  0.00     0.010 C 
BRANCH  24  26
HETATM   26  C5  UNL     1      -7.845  46.171 -26.536  1.00  0.00     0.008 C 
BRANCH  26  27
HETATM   27  C4  UNL     1      -7.311  47.548 -26.142  1.00  0.00     0.028 C 
BRANCH  27  28
HETATM   28  C3  UNL     1      -5.961  47.803 -26.759  1.00  0.00    -0.013 C 
HETATM   29  C2  UNL     1      -4.838  48.235 -26.150  1.00  0.00     0.008 C 
HETATM   30  C1  UNL     1      -4.702  48.586 -24.697  1.00  0.00     0.055 C 
BRANCH  29  31
HETATM   31  C30 UNL     1      -3.579  48.417 -26.922  1.00  0.00     0.171 C 
HETATM   32  O3  UNL     1      -2.491  48.689 -26.443  1.00  0.00    -0.646 OA
BRANCH  31  33
HETATM   33  O4  UNL     1      -3.717  48.246 -28.247  1.00  0.00    -0.773 OA
HETATM   34  H46 UNL     1      -2.813  48.404 -28.595  1.00  0.00     0.167 HD
ENDBRANCH  31  33
ENDBRANCH  29  31
ENDBRANCH  27  28
ENDBRANCH  26  27
ENDBRANCH  24  26
ENDBRANCH   1  24
BRANCH   3  35
HETATM   35  O1  UNL     1     -11.975  43.663 -29.234  1.00  0.00    -0.395 OA
HETATM   36  H17 UNL     1     -11.626  43.200 -30.015  1.00  0.00     0.210 HD
ENDBRANCH   3  35
TORSDOF 7
ENDMDL
