MODEL 1
REMARK minimizedAffinity -7.7085247
REMARK CNNscore 0.638539493
REMARK CNNaffinity 5.90618944
REMARK  11 active torsions:
REMARK  status: ('A' for Active; 'I' for Inactive)
REMARK    1  A    between atoms: C12_13  and  O2_14 
REMARK    2  A    between atoms: C19_21  and  O3_22 
REMARK    3  A    between atoms: C19_21  and  C20_23 
REMARK    4  A    between atoms: C20_23  and  C21_25 
REMARK    5  A    between atoms: C21_25  and  O5_26 
REMARK    6  A    between atoms: O5_26  and  C22_27 
REMARK    7  A    between atoms: C22_27  and  C23_29 
REMARK    8  A    between atoms: C23_29  and  C24_30 
REMARK    9  A    between atoms: C24_30  and  C25_31 
REMARK       I    between atoms: C25_31  and  N1_33 
REMARK   10  A    between atoms: N1_33  and  C26_34 
REMARK   11  A    between atoms: C26_34  and  C27_35 
ROOT
HETATM    1  C1  UNL     1     -15.955  43.873 -24.624  1.00  0.00     0.025 C 
HETATM    2  C2  UNL     1     -16.396  45.199 -25.285  1.00  0.00     0.004 A 
HETATM    3  C3  UNL     1     -17.001  46.050 -24.174  1.00  0.00    -0.009 A 
HETATM    4  C4  UNL     1     -18.276  46.457 -24.118  1.00  0.00     0.052 A 
HETATM    5  C5  UNL     1     -19.234  46.098 -25.181  1.00  0.00     0.172 A 
HETATM    6  O1  UNL     1     -20.400  46.469 -25.139  1.00  0.00    -0.289 OA
HETATM    7  C6  UNL     1     -18.726  45.281 -26.301  1.00  0.00     0.058 A 
HETATM    8  C7  UNL     1     -17.446  44.873 -26.359  1.00  0.00    -0.064 A 
HETATM    9  C8  UNL     1     -16.947  44.097 -27.550  1.00  0.00     0.036 C 
HETATM   10  C9  UNL     1     -15.810  44.854 -28.229  1.00  0.00     0.010 C 
HETATM   11  C10 UNL     1     -14.678  45.214 -27.249  1.00  0.00    -0.002 C 
HETATM   12  C11 UNL     1     -15.230  45.984 -26.001  1.00  0.00     0.035 C 
HETATM   13  C12 UNL     1     -14.084  46.488 -25.076  1.00  0.00     0.124 C 
HETATM   14  C13 UNL     1     -12.957  47.226 -25.834  1.00  0.00     0.045 C 
HETATM   15  C14 UNL     1     -12.412  46.441 -27.046  1.00  0.00     0.001 C 
HETATM   16  C15 UNL     1     -11.622  45.188 -26.582  1.00  0.00     0.019 C 
HETATM   17  C16 UNL     1     -13.626  46.094 -27.941  1.00  0.00     0.002 C 
HETATM   18  C17 UNL     1     -12.991  45.589 -29.229  1.00  0.00     0.009 C 
HETATM   19  C18 UNL     1     -11.723  46.448 -29.390  1.00  0.00     0.047 C 
HETATM   20  C19 UNL     1     -11.554  47.257 -28.068  1.00  0.00     0.128 C 
ENDROOT
BRANCH  20  21
HETATM   21  O3  UNL     1     -12.156  48.537 -28.293  1.00  0.00    -0.381 OA
HETATM   22  H25 UNL     1     -11.614  48.983 -28.977  1.00  0.00     0.211 HD
ENDBRANCH  20  21
BRANCH  20  23
HETATM   23  C20 UNL     1     -10.060  47.430 -27.683  1.00  0.00     0.185 C 
HETATM   24  O4  UNL     1      -9.165  47.405 -28.534  1.00  0.00    -0.292 OA
BRANCH  23  25
HETATM   25  C21 UNL     1      -9.682  47.563 -26.201  1.00  0.00     0.260 C 
BRANCH  25  26
HETATM   26  O5  UNL     1      -8.643  48.430 -25.769  1.00  0.00    -0.314 OA
BRANCH  26  27
HETATM   27  C22 UNL     1      -8.068  48.094 -24.582  1.00  0.00     0.259 C 
HETATM   28  O6  UNL     1      -8.593  47.388 -23.734  1.00  0.00    -0.265 OA
BRANCH  27  29
HETATM   29  C23 UNL     1      -6.685  48.695 -24.492  1.00  0.00     0.120 C 
BRANCH  29  30
HETATM   30  C24 UNL     1      -5.764  48.113 -25.559  1.00  0.00     0.112 C 
BRANCH  30  31
HETATM   31  C25 UNL     1      -4.315  48.479 -25.300  1.00  0.00     0.218 C 
HETATM   32  O7  UNL     1      -3.791  48.368 -24.196  1.00  0.00    -0.274 OA
HETATM   33  N1  UNL     1      -3.669  48.970 -26.412  1.00  0.00    -0.357 N 
HETATM   34  H32 UNL     1      -4.133  48.893 -27.309  1.00  0.00     0.162 HD
BRANCH  33  35
HETATM   35  C26 UNL     1      -2.229  49.104 -26.444  1.00  0.00     0.161 C 
BRANCH  35  36
HETATM   36  C27 UNL     1      -1.844  50.552 -26.288  1.00  0.00    -0.038 A 
HETATM   37  C28 UNL     1      -1.670  51.378 -27.402  1.00  0.00     0.025 A 
HETATM   38  C29 UNL     1      -1.267  52.690 -27.197  1.00  0.00     0.088 A 
HETATM   39  N2  UNL     1      -1.021  53.222 -25.982  1.00  0.00    -0.375 N 
HETATM   40  C30 UNL     1      -1.195  52.408 -24.917  1.00  0.00     0.088 A 
ATOM     41  H2  UNL     1      -0.718  54.190 -25.873  1.00  0.00     0.164 HD
HETATM   42  C31 UNL     1      -1.603  51.088 -25.018  1.00  0.00     0.025 A 
ENDBRANCH  35  36
ENDBRANCH  33  35
ENDBRANCH  30  31
ENDBRANCH  29  30
ENDBRANCH  27  29
ENDBRANCH  26  27
ENDBRANCH  25  26
ENDBRANCH  23  25
ENDBRANCH  20  23
BRANCH  13  43
HETATM   43  O2  UNL     1     -13.520  45.418 -24.330  1.00  0.00    -0.395 OA
HETATM   44  H14 UNL     1     -12.880  45.795 -23.700  1.00  0.00     0.210 HD
ENDBRANCH  13  43
TORSDOF 11
ENDMDL
MODEL 2
REMARK minimizedAffinity -8.26711178
REMARK CNNscore 0.608253956
REMARK CNNaffinity 7.03219223
REMARK  11 active torsions:
REMARK  status: ('A' for Active; 'I' for Inactive)
REMARK    1  A    between atoms: C12_13  and  O2_14 
REMARK    2  A    between atoms: C19_21  and  O3_22 
REMARK    3  A    between atoms: C19_21  and  C20_23 
REMARK    4  A    between atoms: C20_23  and  C21_25 
REMARK    5  A    between atoms: C21_25  and  O5_26 
REMARK    6  A    between atoms: O5_26  and  C22_27 
REMARK    7  A    between atoms: C22_27  and  C23_29 
REMARK    8  A    between atoms: C23_29  and  C24_30 
REMARK    9  A    between atoms: C24_30  and  C25_31 
REMARK       I    between atoms: C25_31  and  N1_33 
REMARK   10  A    between atoms: N1_33  and  C26_34 
REMARK   11  A    between atoms: C26_34  and  C27_35 
ROOT
HETATM    1  C1  UNL     1      -7.495  46.341 -19.379  1.00  0.00     0.025 C 
HETATM    2  C2  UNL     1      -8.334  47.450 -20.054  1.00  0.00     0.004 A 
HETATM    3  C3  UNL     1      -8.839  48.348 -18.930  1.00  0.00    -0.009 A 
HETATM    4  C4  UNL     1     -10.126  48.532 -18.606  1.00  0.00     0.052 A 
HETATM    5  C5  UNL     1     -11.200  47.851 -19.352  1.00  0.00     0.172 A 
HETATM    6  O1  UNL     1     -12.379  48.017 -19.065  1.00  0.00    -0.289 OA
HETATM    7  C6  UNL     1     -10.797  46.968 -20.465  1.00  0.00     0.058 A 
HETATM    8  C7  UNL     1      -9.505  46.783 -20.792  1.00  0.00    -0.064 A 
HETATM    9  C8  UNL     1      -9.134  45.928 -21.975  1.00  0.00     0.036 C 
HETATM   10  C9  UNL     1      -8.355  46.753 -22.993  1.00  0.00     0.010 C 
HETATM   11  C10 UNL     1      -7.133  47.453 -22.371  1.00  0.00    -0.002 C 
HETATM   12  C11 UNL     1      -7.541  48.302 -21.119  1.00  0.00     0.035 C 
HETATM   13  C12 UNL     1      -6.347  49.136 -20.569  1.00  0.00     0.124 C 
HETATM   14  C13 UNL     1      -5.592  49.929 -21.659  1.00  0.00     0.045 C 
HETATM   15  C14 UNL     1      -5.179  49.069 -22.874  1.00  0.00     0.001 C 
HETATM   16  C15 UNL     1      -4.066  48.060 -22.482  1.00  0.00     0.019 C 
HETATM   17  C16 UNL     1      -6.464  48.381 -23.396  1.00  0.00     0.002 C 
HETATM   18  C17 UNL     1      -6.039  47.797 -24.736  1.00  0.00     0.009 C 
HETATM   19  C18 UNL     1      -5.042  48.826 -25.301  1.00  0.00     0.047 C 
HETATM   20  C19 UNL     1      -4.755  49.850 -24.160  1.00  0.00     0.128 C 
ENDROOT
BRANCH  20  21
HETATM   21  O3  UNL     1      -5.641  50.955 -24.371  1.00  0.00    -0.381 OA
HETATM   22  H25 UNL     1      -5.366  51.375 -25.213  1.00  0.00     0.211 HD
ENDBRANCH  20  21
BRANCH  20  23
HETATM   23  C20 UNL     1      -3.281  50.336 -24.179  1.00  0.00     0.185 C 
HETATM   24  O4  UNL     1      -2.517  50.055 -25.108  1.00  0.00    -0.292 OA
BRANCH  23  25
HETATM   25  C21 UNL     1      -2.740  51.126 -22.977  1.00  0.00     0.260 C 
BRANCH  25  26
HETATM   26  O5  UNL     1      -1.792  50.566 -22.080  1.00  0.00    -0.314 OA
BRANCH  26  27
HETATM   27  C22 UNL     1      -1.979  50.888 -20.770  1.00  0.00     0.259 C 
HETATM   28  O6  UNL     1      -2.867  50.432 -20.065  1.00  0.00    -0.265 OA
BRANCH  27  29
HETATM   29  C23 UNL     1      -0.912  51.859 -20.322  1.00  0.00     0.120 C 
BRANCH  29  30
HETATM   30  C24 UNL     1       0.373  51.668 -21.120  1.00  0.00     0.112 C 
BRANCH  30  31
HETATM   31  C25 UNL     1       0.663  52.870 -21.998  1.00  0.00     0.218 C 
HETATM   32  O7  UNL     1       1.128  53.916 -21.557  1.00  0.00    -0.274 OA
HETATM   33  N1  UNL     1       0.325  52.676 -23.319  1.00  0.00    -0.357 N 
HETATM   34  H32 UNL     1       0.083  51.740 -23.619  1.00  0.00     0.162 HD
BRANCH  33  35
HETATM   35  C26 UNL     1       0.782  53.583 -24.350  1.00  0.00     0.161 C 
BRANCH  35  36
HETATM   36  C27 UNL     1       0.430  53.036 -25.709  1.00  0.00    -0.038 A 
HETATM   37  C28 UNL     1       0.533  51.670 -25.986  1.00  0.00     0.025 A 
HETATM   38  C29 UNL     1       0.242  51.232 -27.271  1.00  0.00     0.088 A 
HETATM   39  N2  UNL     1      -0.128  52.047 -28.279  1.00  0.00    -0.375 N 
HETATM   40  C30 UNL     1      -0.223  53.364 -27.991  1.00  0.00     0.088 A 
ATOM     41  H2  UNL     1      -0.325  51.687 -29.213  1.00  0.00     0.164 HD
HETATM   42  C31 UNL     1       0.038  53.897 -26.739  1.00  0.00     0.025 A 
ENDBRANCH  35  36
ENDBRANCH  33  35
ENDBRANCH  30  31
ENDBRANCH  29  30
ENDBRANCH  27  29
ENDBRANCH  26  27
ENDBRANCH  25  26
ENDBRANCH  23  25
ENDBRANCH  20  23
BRANCH  13  43
HETATM   43  O2  UNL     1      -5.425  48.310 -19.870  1.00  0.00    -0.395 OA
HETATM   44  H14 UNL     1      -4.753  48.886 -19.465  1.00  0.00     0.210 HD
ENDBRANCH  13  43
TORSDOF 11
ENDMDL
MODEL 3
REMARK minimizedAffinity -10.3171558
REMARK CNNscore 0.573963583
REMARK CNNaffinity 7.53218317
REMARK  11 active torsions:
REMARK  status: ('A' for Active; 'I' for Inactive)
REMARK    1  A    between atoms: C12_13  and  O2_14 
REMARK    2  A    between atoms: C19_21  and  O3_22 
REMARK    3  A    between atoms: C19_21  and  C20_23 
REMARK    4  A    between atoms: C20_23  and  C21_25 
REMARK    5  A    between atoms: C21_25  and  O5_26 
REMARK    6  A    between atoms: O5_26  and  C22_27 
REMARK    7  A    between atoms: C22_27  and  C23_29 
REMARK    8  A    between atoms: C23_29  and  C24_30 
REMARK    9  A    between atoms: C24_30  and  C25_31 
REMARK       I    between atoms: C25_31  and  N1_33 
REMARK   10  A    between atoms: N1_33  and  C26_34 
REMARK   11  A    between atoms: C26_34  and  C27_35 
ROOT
HETATM    1  C1  UNL     1      -0.170  49.580 -20.671  1.00  0.00     0.025 C 
HETATM    2  C2  UNL     1      -0.803  50.935 -21.059  1.00  0.00     0.004 A 
HETATM    3  C3  UNL     1       0.075  51.517 -22.162  1.00  0.00    -0.009 A 
HETATM    4  C4  UNL     1       0.775  52.655 -22.073  1.00  0.00     0.052 A 
HETATM    5  C5  UNL     1       0.743  53.472 -20.845  1.00  0.00     0.172 A 
HETATM    6  O1  UNL     1       1.376  54.516 -20.757  1.00  0.00    -0.289 OA
HETATM    7  C6  UNL     1      -0.093  52.983 -19.730  1.00  0.00     0.058 A 
HETATM    8  C7  UNL     1      -0.797  51.841 -19.818  1.00  0.00    -0.064 A 
HETATM    9  C8  UNL     1      -1.690  51.407 -18.685  1.00  0.00     0.036 C 
HETATM   10  C9  UNL     1      -3.132  51.295 -19.169  1.00  0.00     0.010 C 
HETATM   11  C10 UNL     1      -3.269  50.384 -20.403  1.00  0.00    -0.002 C 
HETATM   12  C11 UNL     1      -2.300  50.833 -21.550  1.00  0.00     0.035 C 
HETATM   13  C12 UNL     1      -2.531  50.018 -22.857  1.00  0.00     0.124 C 
HETATM   14  C13 UNL     1      -4.016  49.929 -23.275  1.00  0.00     0.045 C 
HETATM   15  C14 UNL     1      -4.951  49.464 -22.137  1.00  0.00     0.001 C 
HETATM   16  C15 UNL     1      -4.698  47.973 -21.791  1.00  0.00     0.019 C 
HETATM   17  C16 UNL     1      -4.708  50.414 -20.938  1.00  0.00     0.002 C 
HETATM   18  C17 UNL     1      -5.846  50.083 -19.982  1.00  0.00     0.009 C 
HETATM   19  C18 UNL     1      -7.038  49.768 -20.904  1.00  0.00     0.047 C 
HETATM   20  C19 UNL     1      -6.480  49.703 -22.359  1.00  0.00     0.128 C 
ENDROOT
BRANCH  20  21
HETATM   21  O3  UNL     1      -6.691  50.998 -22.934  1.00  0.00    -0.381 OA
HETATM   22  H25 UNL     1      -7.661  51.118 -23.001  1.00  0.00     0.211 HD
ENDBRANCH  20  21
BRANCH  20  23
HETATM   23  C20 UNL     1      -7.200  48.619 -23.205  1.00  0.00     0.185 C 
HETATM   24  O4  UNL     1      -7.883  47.735 -22.680  1.00  0.00    -0.292 OA
BRANCH  23  25
HETATM   25  C21 UNL     1      -6.998  48.606 -24.728  1.00  0.00     0.260 C 
BRANCH  25  26
HETATM   26  O5  UNL     1      -5.850  48.019 -25.325  1.00  0.00    -0.314 OA
BRANCH  26  27
HETATM   27  C22 UNL     1      -5.893  47.921 -26.682  1.00  0.00     0.259 C 
HETATM   28  O6  UNL     1      -6.911  47.729 -27.330  1.00  0.00    -0.265 OA
BRANCH  27  29
HETATM   29  C23 UNL     1      -4.510  48.116 -27.257  1.00  0.00     0.120 C 
BRANCH  29  30
HETATM   30  C24 UNL     1      -3.693  49.079 -26.403  1.00  0.00     0.112 C 
BRANCH  30  31
HETATM   31  C25 UNL     1      -2.934  50.073 -27.262  1.00  0.00     0.218 C 
HETATM   32  O7  UNL     1      -3.126  50.189 -28.468  1.00  0.00    -0.274 OA
HETATM   33  N1  UNL     1      -1.999  50.800 -26.559  1.00  0.00    -0.357 N 
HETATM   34  H32 UNL     1      -2.008  50.742 -25.549  1.00  0.00     0.162 HD
BRANCH  33  35
HETATM   35  C26 UNL     1      -1.384  51.980 -27.129  1.00  0.00     0.161 C 
BRANCH  35  36
HETATM   36  C27 UNL     1       0.115  51.836 -27.111  1.00  0.00    -0.038 A 
HETATM   37  C28 UNL     1       0.797  51.513 -25.934  1.00  0.00     0.025 A 
HETATM   38  C29 UNL     1       2.182  51.444 -25.969  1.00  0.00     0.088 A 
HETATM   39  N2  UNL     1       2.921  51.680 -27.073  1.00  0.00    -0.375 N 
HETATM   40  C30 UNL     1       2.244  51.989 -28.201  1.00  0.00     0.088 A 
ATOM     41  H2  UNL     1       3.940  51.627 -27.057  1.00  0.00     0.164 HD
HETATM   42  C31 UNL     1       0.863  52.075 -28.269  1.00  0.00     0.025 A 
ENDBRANCH  35  36
ENDBRANCH  33  35
ENDBRANCH  30  31
ENDBRANCH  29  30
ENDBRANCH  27  29
ENDBRANCH  26  27
ENDBRANCH  25  26
ENDBRANCH  23  25
ENDBRANCH  20  23
BRANCH  13  43
HETATM   43  O2  UNL     1      -2.000  48.705 -22.743  1.00  0.00    -0.395 OA
HETATM   44  H14 UNL     1      -2.080  48.273 -23.611  1.00  0.00     0.210 HD
ENDBRANCH  13  43
TORSDOF 11
ENDMDL
MODEL 4
REMARK minimizedAffinity -10.0810623
REMARK CNNscore 0.506130755
REMARK CNNaffinity 7.3503747
REMARK  11 active torsions:
REMARK  status: ('A' for Active; 'I' for Inactive)
REMARK    1  A    between atoms: C12_13  and  O2_14 
REMARK    2  A    between atoms: C19_21  and  O3_22 
REMARK    3  A    between atoms: C19_21  and  C20_23 
REMARK    4  A    between atoms: C20_23  and  C21_25 
REMARK    5  A    between atoms: C21_25  and  O5_26 
REMARK    6  A    between atoms: O5_26  and  C22_27 
REMARK    7  A    between atoms: C22_27  and  C23_29 
REMARK    8  A    between atoms: C23_29  and  C24_30 
REMARK    9  A    between atoms: C24_30  and  C25_31 
REMARK       I    between atoms: C25_31  and  N1_33 
REMARK   10  A    between atoms: N1_33  and  C26_34 
REMARK   11  A    between atoms: C26_34  and  C27_35 
ROOT
HETATM    1  C1  UNL     1       0.221  51.673 -14.213  1.00  0.00     0.025 C 
HETATM    2  C2  UNL     1       1.203  50.816 -15.043  1.00  0.00     0.004 A 
HETATM    3  C3  UNL     1       1.466  49.555 -14.226  1.00  0.00    -0.009 A 
HETATM    4  C4  UNL     1       2.654  49.191 -13.727  1.00  0.00     0.052 A 
HETATM    5  C5  UNL     1       3.855  50.020 -13.945  1.00  0.00     0.172 A 
HETATM    6  O1  UNL     1       4.945  49.691 -13.495  1.00  0.00    -0.289 OA
HETATM    7  C6  UNL     1       3.689  51.256 -14.735  1.00  0.00     0.058 A 
HETATM    8  C7  UNL     1       2.497  51.622 -15.238  1.00  0.00    -0.064 A 
HETATM    9  C8  UNL     1       2.379  52.855 -16.096  1.00  0.00     0.036 C 
HETATM   10  C9  UNL     1       1.852  52.483 -17.478  1.00  0.00     0.010 C 
HETATM   11  C10 UNL     1       0.535  51.689 -17.410  1.00  0.00    -0.002 C 
HETATM   12  C11 UNL     1       0.674  50.435 -16.480  1.00  0.00     0.035 C 
HETATM   13  C12 UNL     1      -0.599  49.539 -16.519  1.00  0.00     0.124 C 
HETATM   14  C13 UNL     1      -1.086  49.220 -17.950  1.00  0.00     0.045 C 
HETATM   15  C14 UNL     1      -1.239  50.471 -18.843  1.00  0.00     0.001 C 
HETATM   16  C15 UNL     1      -2.425  51.349 -18.364  1.00  0.00     0.019 C 
HETATM   17  C16 UNL     1       0.118  51.215 -18.811  1.00  0.00     0.002 C 
HETATM   18  C17 UNL     1      -0.014  52.252 -19.918  1.00  0.00     0.009 C 
HETATM   19  C18 UNL     1      -0.848  51.545 -21.003  1.00  0.00     0.047 C 
HETATM   20  C19 UNL     1      -1.361  50.210 -20.380  1.00  0.00     0.128 C 
ENDROOT
BRANCH  20  21
HETATM   21  O3  UNL     1      -0.434  49.193 -20.776  1.00  0.00    -0.381 OA
HETATM   22  H25 UNL     1      -0.513  49.108 -21.749  1.00  0.00     0.211 HD
ENDBRANCH  20  21
BRANCH  20  23
HETATM   23  C20 UNL     1      -2.788  49.853 -20.875  1.00  0.00     0.185 C 
HETATM   24  O4  UNL     1      -3.798  50.285 -20.310  1.00  0.00    -0.292 OA
BRANCH  23  25
HETATM   25  C21 UNL     1      -2.948  48.882 -22.054  1.00  0.00     0.260 C 
BRANCH  25  26
HETATM   26  O5  UNL     1      -3.266  49.338 -23.361  1.00  0.00    -0.314 OA
BRANCH  26  27
HETATM   27  C22 UNL     1      -4.560  49.150 -23.739  1.00  0.00     0.259 C 
HETATM   28  O6  UNL     1      -5.522  49.268 -22.994  1.00  0.00    -0.265 OA
BRANCH  27  29
HETATM   29  C23 UNL     1      -4.624  48.806 -25.208  1.00  0.00     0.120 C 
BRANCH  29  30
HETATM   30  C24 UNL     1      -3.245  48.436 -25.744  1.00  0.00     0.112 C 
BRANCH  30  31
HETATM   31  C25 UNL     1      -2.732  49.477 -26.720  1.00  0.00     0.218 C 
HETATM   32  O7  UNL     1      -3.130  49.554 -27.878  1.00  0.00    -0.274 OA
HETATM   33  N1  UNL     1      -1.764  50.297 -26.184  1.00  0.00    -0.357 N 
HETATM   34  H32 UNL     1      -1.600  50.256 -25.186  1.00  0.00     0.162 HD
BRANCH  33  35
HETATM   35  C26 UNL     1      -1.361  51.516 -26.852  1.00  0.00     0.161 C 
BRANCH  35  36
HETATM   36  C27 UNL     1       0.139  51.556 -26.987  1.00  0.00    -0.038 A 
HETATM   37  C28 UNL     1       0.969  51.401 -25.873  1.00  0.00     0.025 A 
HETATM   38  C29 UNL     1       2.342  51.496 -26.053  1.00  0.00     0.088 A 
HETATM   39  N2  UNL     1       2.932  51.741 -27.241  1.00  0.00    -0.375 N 
HETATM   40  C30 UNL     1       2.112  51.888 -28.306  1.00  0.00     0.088 A 
ATOM     41  H2  UNL     1       3.945  51.813 -27.331  1.00  0.00     0.164 HD
HETATM   42  C31 UNL     1       0.732  51.801 -28.230  1.00  0.00     0.025 A 
ENDBRANCH  35  36
ENDBRANCH  33  35
ENDBRANCH  30  31
ENDBRANCH  29  30
ENDBRANCH  27  29
ENDBRANCH  26  27
ENDBRANCH  25  26
ENDBRANCH  23  25
ENDBRANCH  20  23
BRANCH  13  43
HETATM   43  O2  UNL     1      -1.663  50.128 -15.784  1.00  0.00    -0.395 OA
HETATM   44  H14 UNL     1      -2.398  49.490 -15.756  1.00  0.00     0.210 HD
ENDBRANCH  13  43
TORSDOF 11
ENDMDL
MODEL 5
REMARK minimizedAffinity -9.2118845
REMARK CNNscore 0.436291903
REMARK CNNaffinity 6.57497072
REMARK  11 active torsions:
REMARK  status: ('A' for Active; 'I' for Inactive)
REMARK    1  A    between atoms: C12_13  and  O2_14 
REMARK    2  A    between atoms: C19_21  and  O3_22 
REMARK    3  A    between atoms: C19_21  and  C20_23 
REMARK    4  A    between atoms: C20_23  and  C21_25 
REMARK    5  A    between atoms: C21_25  and  O5_26 
REMARK    6  A    between atoms: O5_26  and  C22_27 
REMARK    7  A    between atoms: C22_27  and  C23_29 
REMARK    8  A    between atoms: C23_29  and  C24_30 
REMARK    9  A    between atoms: C24_30  and  C25_31 
REMARK       I    between atoms: C25_31  and  N1_33 
REMARK   10  A    between atoms: N1_33  and  C26_34 
REMARK   11  A    between atoms: C26_34  and  C27_35 
ROOT
HETATM    1  C1  UNL     1      -0.267  49.594 -20.384  1.00  0.00     0.025 C 
HETATM    2  C2  UNL     1      -0.735  50.962 -20.929  1.00  0.00     0.004 A 
HETATM    3  C3  UNL     1       0.392  51.474 -21.821  1.00  0.00    -0.009 A 
HETATM    4  C4  UNL     1       1.107  52.585 -21.601  1.00  0.00     0.052 A 
HETATM    5  C5  UNL     1       0.842  53.438 -20.427  1.00  0.00     0.172 A 
HETATM    6  O1  UNL     1       1.489  54.457 -20.221  1.00  0.00    -0.289 OA
HETATM    7  C6  UNL     1      -0.241  53.017 -19.515  1.00  0.00     0.058 A 
HETATM    8  C7  UNL     1      -0.961  51.903 -19.736  1.00  0.00    -0.064 A 
HETATM    9  C8  UNL     1      -2.102  51.540 -18.822  1.00  0.00     0.036 C 
HETATM   10  C9  UNL     1      -3.405  51.473 -19.611  1.00  0.00     0.010 C 
HETATM   11  C10 UNL     1      -3.307  50.532 -20.826  1.00  0.00    -0.002 C 
HETATM   12  C11 UNL     1      -2.089  50.907 -21.738  1.00  0.00     0.035 C 
HETATM   13  C12 UNL     1      -2.064  50.064 -23.047  1.00  0.00     0.124 C 
HETATM   14  C13 UNL     1      -3.422  50.024 -23.783  1.00  0.00     0.045 C 
HETATM   15  C14 UNL     1      -4.605  49.632 -22.872  1.00  0.00     0.001 C 
HETATM   16  C15 UNL     1      -4.505  48.142 -22.449  1.00  0.00     0.019 C 
HETATM   17  C16 UNL     1      -4.590  50.605 -21.669  1.00  0.00     0.002 C 
HETATM   18  C17 UNL     1      -5.925  50.350 -20.983  1.00  0.00     0.009 C 
HETATM   19  C18 UNL     1      -6.897  50.057 -22.140  1.00  0.00     0.047 C 
HETATM   20  C19 UNL     1      -6.035  49.926 -23.433  1.00  0.00     0.128 C 
ENDROOT
BRANCH  20  21
HETATM   21  O3  UNL     1      -6.053  51.211 -24.066  1.00  0.00    -0.381 OA
HETATM   22  H25 UNL     1      -6.977  51.369 -24.349  1.00  0.00     0.211 HD
ENDBRANCH  20  21
BRANCH  20  23
HETATM   23  C20 UNL     1      -6.599  48.849 -24.397  1.00  0.00     0.185 C 
HETATM   24  O4  UNL     1      -7.802  48.569 -24.424  1.00  0.00    -0.292 OA
BRANCH  23  25
HETATM   25  C21 UNL     1      -5.626  48.061 -25.287  1.00  0.00     0.260 C 
BRANCH  25  26
HETATM   26  O5  UNL     1      -4.552  48.697 -25.965  1.00  0.00    -0.314 OA
BRANCH  26  27
HETATM   27  C22 UNL     1      -4.559  48.551 -27.319  1.00  0.00     0.259 C 
HETATM   28  O6  UNL     1      -3.660  48.922 -28.059  1.00  0.00    -0.265 OA
BRANCH  27  29
HETATM   29  C23 UNL     1      -5.820  47.842 -27.755  1.00  0.00     0.120 C 
BRANCH  29  30
HETATM   30  C24 UNL     1      -5.651  47.227 -29.140  1.00  0.00     0.112 C 
BRANCH  30  31
HETATM   31  C25 UNL     1      -6.192  48.142 -30.222  1.00  0.00     0.218 C 
HETATM   32  O7  UNL     1      -5.494  48.577 -31.132  1.00  0.00    -0.274 OA
HETATM   33  N1  UNL     1      -7.524  48.452 -30.058  1.00  0.00    -0.357 N 
HETATM   34  H32 UNL     1      -8.054  47.938 -29.365  1.00  0.00     0.162 HD
BRANCH  33  35
HETATM   35  C26 UNL     1      -8.286  49.068 -31.123  1.00  0.00     0.161 C 
BRANCH  35  36
HETATM   36  C27 UNL     1      -8.927  48.005 -31.977  1.00  0.00    -0.038 A 
HETATM   37  C28 UNL     1      -8.399  47.663 -33.225  1.00  0.00     0.025 A 
HETATM   38  C29 UNL     1      -9.062  46.712 -33.987  1.00  0.00     0.088 A 
HETATM   39  N2  UNL     1     -10.198  46.096 -33.601  1.00  0.00    -0.375 N 
HETATM   40  C30 UNL     1     -10.693  46.438 -32.391  1.00  0.00     0.088 A 
ATOM     41  H2  UNL     1     -10.661  45.407 -34.194  1.00  0.00     0.164 HD
HETATM   42  C31 UNL     1     -10.100  47.369 -31.554  1.00  0.00     0.025 A 
ENDBRANCH  35  36
ENDBRANCH  33  35
ENDBRANCH  30  31
ENDBRANCH  29  30
ENDBRANCH  27  29
ENDBRANCH  26  27
ENDBRANCH  25  26
ENDBRANCH  23  25
ENDBRANCH  20  23
BRANCH  13  43
HETATM   43  O2  UNL     1      -1.632  48.734 -22.793  1.00  0.00    -0.395 OA
HETATM   44  H14 UNL     1      -1.539  48.280 -23.649  1.00  0.00     0.210 HD
ENDBRANCH  13  43
TORSDOF 11
ENDMDL
MODEL 6
REMARK minimizedAffinity -7.58158207
REMARK CNNscore 0.430223793
REMARK CNNaffinity 5.75880766
REMARK  11 active torsions:
REMARK  status: ('A' for Active; 'I' for Inactive)
REMARK    1  A    between atoms: C12_13  and  O2_14 
REMARK    2  A    between atoms: C19_21  and  O3_22 
REMARK    3  A    between atoms: C19_21  and  C20_23 
REMARK    4  A    between atoms: C20_23  and  C21_25 
REMARK    5  A    between atoms: C21_25  and  O5_26 
REMARK    6  A    between atoms: O5_26  and  C22_27 
REMARK    7  A    between atoms: C22_27  and  C23_29 
REMARK    8  A    between atoms: C23_29  and  C24_30 
REMARK    9  A    between atoms: C24_30  and  C25_31 
REMARK       I    between atoms: C25_31  and  N1_33 
REMARK   10  A    between atoms: N1_33  and  C26_34 
REMARK   11  A    between atoms: C26_34  and  C27_35 
ROOT
HETATM    1  C1  UNL     1      -3.267  48.769 -24.984  1.00  0.00     0.025 C 
HETATM    2  C2  UNL     1      -3.588  49.517 -23.670  1.00  0.00     0.004 A 
HETATM    3  C3  UNL     1      -3.590  51.003 -24.013  1.00  0.00    -0.009 A 
HETATM    4  C4  UNL     1      -2.743  51.913 -23.514  1.00  0.00     0.052 A 
HETATM    5  C5  UNL     1      -1.700  51.527 -22.546  1.00  0.00     0.172 A 
HETATM    6  O1  UNL     1      -0.925  52.354 -22.082  1.00  0.00    -0.289 OA
HETATM    7  C6  UNL     1      -1.635  50.106 -22.151  1.00  0.00     0.058 A 
HETATM    8  C7  UNL     1      -2.485  49.191 -22.651  1.00  0.00    -0.064 A 
HETATM    9  C8  UNL     1      -2.432  47.763 -22.176  1.00  0.00     0.036 C 
HETATM   10  C9  UNL     1      -3.767  47.368 -21.554  1.00  0.00     0.010 C 
HETATM   11  C10 UNL     1      -4.954  47.625 -22.501  1.00  0.00    -0.002 C 
HETATM   12  C11 UNL     1      -4.962  49.107 -23.011  1.00  0.00     0.035 C 
HETATM   13  C12 UNL     1      -6.237  49.426 -23.847  1.00  0.00     0.124 C 
HETATM   14  C13 UNL     1      -7.550  48.979 -23.165  1.00  0.00     0.045 C 
HETATM   15  C14 UNL     1      -7.529  47.510 -22.690  1.00  0.00     0.001 C 
HETATM   16  C15 UNL     1      -7.532  46.539 -23.900  1.00  0.00     0.019 C 
HETATM   17  C16 UNL     1      -6.284  47.347 -21.785  1.00  0.00     0.002 C 
HETATM   18  C17 UNL     1      -6.488  45.986 -21.135  1.00  0.00     0.009 C 
HETATM   19  C18 UNL     1      -8.012  45.887 -20.928  1.00  0.00     0.047 C 
HETATM   20  C19 UNL     1      -8.648  47.097 -21.678  1.00  0.00     0.128 C 
ENDROOT
BRANCH  20  21
HETATM   21  O3  UNL     1      -8.828  48.131 -20.704  1.00  0.00    -0.381 OA
HETATM   22  H25 UNL     1      -9.496  47.801 -20.068  1.00  0.00     0.211 HD
ENDBRANCH  20  21
BRANCH  20  23
HETATM   23  C20 UNL     1     -10.011  46.725 -22.321  1.00  0.00     0.185 C 
HETATM   24  O4  UNL     1     -10.093  46.337 -23.490  1.00  0.00    -0.292 OA
BRANCH  23  25
HETATM   25  C21 UNL     1     -11.298  46.913 -21.502  1.00  0.00     0.260 C 
BRANCH  25  26
HETATM   26  O5  UNL     1     -12.565  47.061 -22.126  1.00  0.00    -0.314 OA
BRANCH  26  27
HETATM   27  C22 UNL     1     -13.593  47.347 -21.280  1.00  0.00     0.259 C 
HETATM   28  O6  UNL     1     -13.860  48.466 -20.868  1.00  0.00    -0.265 OA
BRANCH  27  29
HETATM   29  C23 UNL     1     -14.363  46.087 -20.960  1.00  0.00     0.120 C 
BRANCH  29  30
HETATM   30  C24 UNL     1     -15.051  46.195 -19.604  1.00  0.00     0.112 C 
BRANCH  30  31
HETATM   31  C25 UNL     1     -16.524  46.523 -19.755  1.00  0.00     0.218 C 
HETATM   32  O7  UNL     1     -17.061  47.453 -19.162  1.00  0.00    -0.274 OA
HETATM   33  N1  UNL     1     -17.192  45.658 -20.595  1.00  0.00    -0.357 N 
HETATM   34  H32 UNL     1     -16.645  45.012 -21.150  1.00  0.00     0.162 HD
BRANCH  33  35
HETATM   35  C26 UNL     1     -18.517  45.967 -21.088  1.00  0.00     0.161 C 
BRANCH  35  36
HETATM   36  C27 UNL     1     -18.497  46.061 -22.591  1.00  0.00    -0.038 A 
HETATM   37  C28 UNL     1     -19.564  45.587 -23.360  1.00  0.00     0.025 A 
HETATM   38  C29 UNL     1     -19.466  45.656 -24.742  1.00  0.00     0.088 A 
HETATM   39  N2  UNL     1     -18.395  46.147 -25.398  1.00  0.00    -0.375 N 
HETATM   40  C30 UNL     1     -17.374  46.601 -24.638  1.00  0.00     0.088 A 
ATOM     41  H2  UNL     1     -18.357  46.173 -26.418  1.00  0.00     0.164 HD
HETATM   42  C31 UNL     1     -17.381  46.583 -23.253  1.00  0.00     0.025 A 
ENDBRANCH  35  36
ENDBRANCH  33  35
ENDBRANCH  30  31
ENDBRANCH  29  30
ENDBRANCH  27  29
ENDBRANCH  26  27
ENDBRANCH  25  26
ENDBRANCH  23  25
ENDBRANCH  20  23
BRANCH  13  43
HETATM   43  O2  UNL     1      -6.161  48.843 -25.140  1.00  0.00    -0.395 OA
HETATM   44  H14 UNL     1      -6.929  49.150 -25.654  1.00  0.00     0.210 HD
ENDBRANCH  13  43
TORSDOF 11
ENDMDL
MODEL 7
REMARK minimizedAffinity -8.46601486
REMARK CNNscore 0.365923434
REMARK CNNaffinity 5.90948534
REMARK  11 active torsions:
REMARK  status: ('A' for Active; 'I' for Inactive)
REMARK    1  A    between atoms: C12_13  and  O2_14 
REMARK    2  A    between atoms: C19_21  and  O3_22 
REMARK    3  A    between atoms: C19_21  and  C20_23 
REMARK    4  A    between atoms: C20_23  and  C21_25 
REMARK    5  A    between atoms: C21_25  and  O5_26 
REMARK    6  A    between atoms: O5_26  and  C22_27 
REMARK    7  A    between atoms: C22_27  and  C23_29 
REMARK    8  A    between atoms: C23_29  and  C24_30 
REMARK    9  A    between atoms: C24_30  and  C25_31 
REMARK       I    between atoms: C25_31  and  N1_33 
REMARK   10  A    between atoms: N1_33  and  C26_34 
REMARK   11  A    between atoms: C26_34  and  C27_35 
ROOT
HETATM    1  C1  UNL     1      -0.096  49.665 -20.955  1.00  0.00     0.025 C 
HETATM    2  C2  UNL     1      -0.777  51.019 -21.256  1.00  0.00     0.004 A 
HETATM    3  C3  UNL     1       0.006  51.646 -22.405  1.00  0.00    -0.009 A 
HETATM    4  C4  UNL     1       0.693  52.793 -22.337  1.00  0.00     0.052 A 
HETATM    5  C5  UNL     1       0.743  53.575 -21.087  1.00  0.00     0.172 A 
HETATM    6  O1  UNL     1       1.365  54.627 -21.018  1.00  0.00    -0.289 OA
HETATM    7  C6  UNL     1       0.002  53.042 -19.926  1.00  0.00     0.058 A 
HETATM    8  C7  UNL     1      -0.690  51.891 -19.994  1.00  0.00    -0.064 A 
HETATM    9  C8  UNL     1      -1.488  51.412 -18.809  1.00  0.00     0.036 C 
HETATM   10  C9  UNL     1      -2.960  51.289 -19.185  1.00  0.00     0.010 C 
HETATM   11  C10 UNL     1      -3.177  50.409 -20.430  1.00  0.00    -0.002 C 
HETATM   12  C11 UNL     1      -2.305  50.905 -21.634  1.00  0.00     0.035 C 
HETATM   13  C12 UNL     1      -2.623  50.122 -22.942  1.00  0.00     0.124 C 
HETATM   14  C13 UNL     1      -4.134  50.019 -23.249  1.00  0.00     0.045 C 
HETATM   15  C14 UNL     1      -4.972  49.507 -22.057  1.00  0.00     0.001 C 
HETATM   16  C15 UNL     1      -4.671  48.011 -21.774  1.00  0.00     0.019 C 
HETATM   17  C16 UNL     1      -4.653  50.428 -20.855  1.00  0.00     0.002 C 
HETATM   18  C17 UNL     1      -5.709  50.052 -19.825  1.00  0.00     0.009 C 
HETATM   19  C18 UNL     1      -6.964  49.742 -20.662  1.00  0.00     0.047 C 
HETATM   20  C19 UNL     1      -6.517  49.726 -22.156  1.00  0.00     0.128 C 
ENDROOT
BRANCH  20  21
HETATM   21  O3  UNL     1      -6.790  51.031 -22.677  1.00  0.00    -0.381 OA
HETATM   22  H25 UNL     1      -7.764  51.137 -22.667  1.00  0.00     0.211 HD
ENDBRANCH  20  21
BRANCH  20  23
HETATM   23  C20 UNL     1      -7.282  48.653 -22.976  1.00  0.00     0.185 C 
HETATM   24  O4  UNL     1      -7.432  48.754 -24.198  1.00  0.00    -0.292 OA
BRANCH  23  25
HETATM   25  C21 UNL     1      -7.930  47.472 -22.238  1.00  0.00     0.260 C 
BRANCH  25  26
HETATM   26  O5  UNL     1      -8.939  47.666 -21.257  1.00  0.00    -0.314 OA
BRANCH  26  27
HETATM   27  C22 UNL     1     -10.112  47.020 -21.500  1.00  0.00     0.259 C 
HETATM   28  O6  UNL     1     -10.309  46.277 -22.450  1.00  0.00    -0.265 OA
BRANCH  27  29
HETATM   29  C23 UNL     1     -11.110  47.334 -20.410  1.00  0.00     0.120 C 
BRANCH  29  30
HETATM   30  C24 UNL     1     -12.522  46.946 -20.832  1.00  0.00     0.112 C 
BRANCH  30  31
HETATM   31  C25 UNL     1     -13.562  47.817 -20.154  1.00  0.00     0.218 C 
HETATM   32  O7  UNL     1     -13.615  49.032 -20.312  1.00  0.00    -0.274 OA
HETATM   33  N1  UNL     1     -14.410  47.111 -19.329  1.00  0.00    -0.357 N 
HETATM   34  H32 UNL     1     -14.386  46.100 -19.368  1.00  0.00     0.162 HD
BRANCH  33  35
HETATM   35  C26 UNL     1     -15.629  47.706 -18.823  1.00  0.00     0.161 C 
BRANCH  35  36
HETATM   36  C27 UNL     1     -16.822  47.094 -19.510  1.00  0.00    -0.038 A 
HETATM   37  C28 UNL     1     -18.124  47.487 -19.186  1.00  0.00     0.025 A 
HETATM   38  C29 UNL     1     -19.184  46.852 -19.817  1.00  0.00     0.088 A 
HETATM   39  N2  UNL     1     -19.039  45.865 -20.725  1.00  0.00    -0.375 N 
HETATM   40  C30 UNL     1     -17.773  45.500 -21.026  1.00  0.00     0.088 A 
ATOM     41  H2  UNL     1     -19.845  45.416 -21.161  1.00  0.00     0.164 HD
HETATM   42  C31 UNL     1     -16.651  46.078 -20.457  1.00  0.00     0.025 A 
ENDBRANCH  35  36
ENDBRANCH  33  35
ENDBRANCH  30  31
ENDBRANCH  29  30
ENDBRANCH  27  29
ENDBRANCH  26  27
ENDBRANCH  25  26
ENDBRANCH  23  25
ENDBRANCH  20  23
BRANCH  13  43
HETATM   43  O2  UNL     1      -2.064  48.816 -22.906  1.00  0.00    -0.395 OA
HETATM   44  H14 UNL     1      -2.204  48.405 -23.778  1.00  0.00     0.210 HD
ENDBRANCH  13  43
TORSDOF 11
ENDMDL
MODEL 8
REMARK minimizedAffinity -8.51391125
REMARK CNNscore 0.362631798
REMARK CNNaffinity 6.16037226
REMARK  11 active torsions:
REMARK  status: ('A' for Active; 'I' for Inactive)
REMARK    1  A    between atoms: C12_13  and  O2_14 
REMARK    2  A    between atoms: C19_21  and  O3_22 
REMARK    3  A    between atoms: C19_21  and  C20_23 
REMARK    4  A    between atoms: C20_23  and  C21_25 
REMARK    5  A    between atoms: C21_25  and  O5_26 
REMARK    6  A    between atoms: O5_26  and  C22_27 
REMARK    7  A    between atoms: C22_27  and  C23_29 
REMARK    8  A    between atoms: C23_29  and  C24_30 
REMARK    9  A    between atoms: C24_30  and  C25_31 
REMARK       I    between atoms: C25_31  and  N1_33 
REMARK   10  A    between atoms: N1_33  and  C26_34 
REMARK   11  A    between atoms: C26_34  and  C27_35 
ROOT
HETATM    1  C1  UNL     1      -0.204  49.558 -20.935  1.00  0.00     0.025 C 
HETATM    2  C2  UNL     1      -0.875  50.926 -21.195  1.00  0.00     0.004 A 
HETATM    3  C3  UNL     1      -0.082  51.584 -22.320  1.00  0.00    -0.009 A 
HETATM    4  C4  UNL     1       0.614  52.723 -22.212  1.00  0.00     0.052 A 
HETATM    5  C5  UNL     1       0.663  53.464 -20.937  1.00  0.00     0.172 A 
HETATM    6  O1  UNL     1       1.293  54.509 -20.832  1.00  0.00    -0.289 OA
HETATM    7  C6  UNL     1      -0.087  52.900 -19.798  1.00  0.00     0.058 A 
HETATM    8  C7  UNL     1      -0.787  51.756 -19.905  1.00  0.00    -0.064 A 
HETATM    9  C8  UNL     1      -1.594  51.245 -18.740  1.00  0.00     0.036 C 
HETATM   10  C9  UNL     1      -3.066  51.145 -19.127  1.00  0.00     0.010 C 
HETATM   11  C10 UNL     1      -3.282  50.307 -20.401  1.00  0.00    -0.002 C 
HETATM   12  C11 UNL     1      -2.401  50.835 -21.584  1.00  0.00     0.035 C 
HETATM   13  C12 UNL     1      -2.719  50.097 -22.918  1.00  0.00     0.124 C 
HETATM   14  C13 UNL     1      -4.229  50.015 -23.235  1.00  0.00     0.045 C 
HETATM   15  C14 UNL     1      -5.076  49.472 -22.064  1.00  0.00     0.001 C 
HETATM   16  C15 UNL     1      -4.787  47.965 -21.827  1.00  0.00     0.019 C 
HETATM   17  C16 UNL     1      -4.756  50.351 -20.830  1.00  0.00     0.002 C 
HETATM   18  C17 UNL     1      -5.820  49.950 -19.818  1.00  0.00     0.009 C 
HETATM   19  C18 UNL     1      -7.073  49.676 -20.671  1.00  0.00     0.047 C 
HETATM   20  C19 UNL     1      -6.619  49.705 -22.163  1.00  0.00     0.128 C 
ENDROOT
BRANCH  20  21
HETATM   21  O3  UNL     1      -6.881  51.028 -22.642  1.00  0.00    -0.381 OA
HETATM   22  H25 UNL     1      -7.854  51.140 -22.633  1.00  0.00     0.211 HD
ENDBRANCH  20  21
BRANCH  20  23
HETATM   23  C20 UNL     1      -7.388  48.664 -23.020  1.00  0.00     0.185 C 
HETATM   24  O4  UNL     1      -7.964  47.699 -22.507  1.00  0.00    -0.292 OA
BRANCH  23  25
HETATM   25  C21 UNL     1      -7.373  48.800 -24.550  1.00  0.00     0.260 C 
BRANCH  25  26
HETATM   26  O5  UNL     1      -8.483  48.412 -25.346  1.00  0.00    -0.314 OA
BRANCH  26  27
HETATM   27  C22 UNL     1      -8.166  47.758 -26.497  1.00  0.00     0.259 C 
HETATM   28  O6  UNL     1      -7.151  47.097 -26.661  1.00  0.00    -0.265 OA
BRANCH  27  29
HETATM   29  C23 UNL     1      -9.264  47.948 -27.517  1.00  0.00     0.120 C 
BRANCH  29  30
HETATM   30  C24 UNL     1      -8.684  48.211 -28.903  1.00  0.00     0.112 C 
BRANCH  30  31
HETATM   31  C25 UNL     1      -9.616  47.721 -29.995  1.00  0.00     0.218 C 
HETATM   32  O7  UNL     1     -10.745  48.174 -30.156  1.00  0.00    -0.274 OA
HETATM   33  N1  UNL     1      -9.080  46.706 -30.756  1.00  0.00    -0.357 N 
HETATM   34  H32 UNL     1      -8.096  46.494 -30.646  1.00  0.00     0.162 HD
BRANCH  33  35
HETATM   35  C26 UNL     1      -9.687  46.307 -32.007  1.00  0.00     0.161 C 
BRANCH  35  36
HETATM   36  C27 UNL     1      -8.806  46.712 -33.159  1.00  0.00    -0.038 A 
HETATM   37  C28 UNL     1      -7.551  47.288 -32.941  1.00  0.00     0.025 A 
HETATM   38  C29 UNL     1      -6.805  47.686 -34.042  1.00  0.00     0.088 A 
HETATM   39  N2  UNL     1      -7.221  47.561 -35.319  1.00  0.00    -0.375 N 
HETATM   40  C30 UNL     1      -8.436  47.001 -35.509  1.00  0.00     0.088 A 
ATOM     41  H2  UNL     1      -6.646  47.874 -36.102  1.00  0.00     0.164 HD
HETATM   42  C31 UNL     1      -9.250  46.565 -34.477  1.00  0.00     0.025 A 
ENDBRANCH  35  36
ENDBRANCH  33  35
ENDBRANCH  30  31
ENDBRANCH  29  30
ENDBRANCH  27  29
ENDBRANCH  26  27
ENDBRANCH  25  26
ENDBRANCH  23  25
ENDBRANCH  20  23
BRANCH  13  43
HETATM   43  O2  UNL     1      -2.169  48.786 -22.922  1.00  0.00    -0.395 OA
HETATM   44  H14 UNL     1      -2.308  48.405 -23.807  1.00  0.00     0.210 HD
ENDBRANCH  13  43
TORSDOF 11
ENDMDL
MODEL 9
REMARK minimizedAffinity -8.82158184
REMARK CNNscore 0.339822561
REMARK CNNaffinity 6.50282288
REMARK  11 active torsions:
REMARK  status: ('A' for Active; 'I' for Inactive)
REMARK    1  A    between atoms: C12_13  and  O2_14 
REMARK    2  A    between atoms: C19_21  and  O3_22 
REMARK    3  A    between atoms: C19_21  and  C20_23 
REMARK    4  A    between atoms: C20_23  and  C21_25 
REMARK    5  A    between atoms: C21_25  and  O5_26 
REMARK    6  A    between atoms: O5_26  and  C22_27 
REMARK    7  A    between atoms: C22_27  and  C23_29 
REMARK    8  A    between atoms: C23_29  and  C24_30 
REMARK    9  A    between atoms: C24_30  and  C25_31 
REMARK       I    between atoms: C25_31  and  N1_33 
REMARK   10  A    between atoms: N1_33  and  C26_34 
REMARK   11  A    between atoms: C26_34  and  C27_35 
ROOT
HETATM    1  C1  UNL     1      -1.680  53.028 -24.788  1.00  0.00     0.025 C 
HETATM    2  C2  UNL     1      -0.756  51.789 -24.778  1.00  0.00     0.004 A 
HETATM    3  C3  UNL     1       0.657  52.311 -24.539  1.00  0.00    -0.009 A 
HETATM    4  C4  UNL     1       1.676  52.204 -25.401  1.00  0.00     0.052 A 
HETATM    5  C5  UNL     1       1.500  51.539 -26.705  1.00  0.00     0.172 A 
HETATM    6  O1  UNL     1       2.429  51.434 -27.497  1.00  0.00    -0.289 OA
HETATM    7  C6  UNL     1       0.162  50.995 -27.013  1.00  0.00     0.058 A 
HETATM    8  C7  UNL     1      -0.862  51.100 -26.147  1.00  0.00    -0.064 A 
HETATM    9  C8  UNL     1      -2.195  50.476 -26.467  1.00  0.00     0.036 C 
HETATM   10  C9  UNL     1      -2.560  49.447 -25.402  1.00  0.00     0.010 C 
HETATM   11  C10 UNL     1      -2.514  50.033 -23.979  1.00  0.00    -0.002 C 
HETATM   12  C11 UNL     1      -1.132  50.711 -23.688  1.00  0.00     0.035 C 
HETATM   13  C12 UNL     1      -1.013  51.174 -22.206  1.00  0.00     0.124 C 
HETATM   14  C13 UNL     1      -1.418  50.088 -21.184  1.00  0.00     0.045 C 
HETATM   15  C14 UNL     1      -2.793  49.448 -21.476  1.00  0.00     0.001 C 
HETATM   16  C15 UNL     1      -3.938  50.466 -21.228  1.00  0.00     0.019 C 
HETATM   17  C16 UNL     1      -2.748  48.931 -22.935  1.00  0.00     0.002 C 
HETATM   18  C17 UNL     1      -4.002  48.075 -23.050  1.00  0.00     0.009 C 
HETATM   19  C18 UNL     1      -4.148  47.423 -21.662  1.00  0.00     0.047 C 
HETATM   20  C19 UNL     1      -3.103  48.110 -20.729  1.00  0.00     0.128 C 
ENDROOT
BRANCH  20  21
HETATM   21  O3  UNL     1      -1.942  47.272 -20.731  1.00  0.00    -0.381 OA
HETATM   22  H25 UNL     1      -2.205  46.431 -20.303  1.00  0.00     0.211 HD
ENDBRANCH  20  21
BRANCH  20  23
HETATM   23  C20 UNL     1      -3.641  48.273 -19.283  1.00  0.00     0.185 C 
HETATM   24  O4  UNL     1      -4.831  48.087 -19.008  1.00  0.00    -0.292 OA
BRANCH  23  25
HETATM   25  C21 UNL     1      -2.684  48.747 -18.179  1.00  0.00     0.260 C 
BRANCH  25  26
HETATM   26  O5  UNL     1      -3.140  49.030 -16.864  1.00  0.00    -0.314 OA
BRANCH  26  27
HETATM   27  C22 UNL     1      -2.750  50.236 -16.367  1.00  0.00     0.259 C 
HETATM   28  O6  UNL     1      -2.739  51.278 -17.006  1.00  0.00    -0.265 OA
BRANCH  27  29
HETATM   29  C23 UNL     1      -2.369  50.094 -14.912  1.00  0.00     0.120 C 
BRANCH  29  30
HETATM   30  C24 UNL     1      -2.193  51.460 -14.256  1.00  0.00     0.112 C 
BRANCH  30  31
HETATM   31  C25 UNL     1      -3.111  51.622 -13.060  1.00  0.00     0.218 C 
HETATM   32  O7  UNL     1      -3.598  50.667 -12.463  1.00  0.00    -0.274 OA
HETATM   33  N1  UNL     1      -3.360  52.938 -12.737  1.00  0.00    -0.357 N 
HETATM   34  H32 UNL     1      -2.807  53.655 -13.189  1.00  0.00     0.162 HD
BRANCH  33  35
HETATM   35  C26 UNL     1      -3.969  53.297 -11.474  1.00  0.00     0.161 C 
BRANCH  35  36
HETATM   36  C27 UNL     1      -2.900  53.545 -10.441  1.00  0.00    -0.038 A 
HETATM   37  C28 UNL     1      -2.072  54.669 -10.514  1.00  0.00     0.025 A 
HETATM   38  C29 UNL     1      -1.073  54.818  -9.562  1.00  0.00     0.088 A 
HETATM   39  N2  UNL     1      -0.843  53.936  -8.567  1.00  0.00    -0.375 N 
HETATM   40  C30 UNL     1      -1.655  52.858  -8.513  1.00  0.00     0.088 A 
ATOM     41  H2  UNL     1      -0.093  54.077  -7.890  1.00  0.00     0.164 HD
HETATM   42  C31 UNL     1      -2.684  52.625  -9.411  1.00  0.00     0.025 A 
ENDBRANCH  35  36
ENDBRANCH  33  35
ENDBRANCH  30  31
ENDBRANCH  29  30
ENDBRANCH  27  29
ENDBRANCH  26  27
ENDBRANCH  25  26
ENDBRANCH  23  25
ENDBRANCH  20  23
BRANCH  13  43
HETATM   43  O2  UNL     1      -1.784  52.345 -21.972  1.00  0.00    -0.395 OA
HETATM   44  H14 UNL     1      -1.601  52.649 -21.066  1.00  0.00     0.210 HD
ENDBRANCH  13  43
TORSDOF 11
ENDMDL
