MODEL 1
REMARK minimizedAffinity -8.16115284
REMARK CNNscore 0.745539188
REMARK CNNaffinity 6.29541922
REMARK  9 active torsions:
REMARK  status: ('A' for Active; 'I' for Inactive)
REMARK    1  A    between atoms: C3_4  and  O2_5 
REMARK    2  A    between atoms: O2_5  and  C4_6 
REMARK    3  A    between atoms: C11_13  and  O3_14 
REMARK    4  A    between atoms: C15_18  and  C16_19 
REMARK    5  A    between atoms: C23_28  and  O6_29 
REMARK    6  A    between atoms: C24_30  and  C25_31 
REMARK    7  A    between atoms: C28_35  and  O8_36 
REMARK    8  A    between atoms: C29_37  and  O9_38 
REMARK    9  A    between atoms: C30_39  and  O10_40 
ROOT
HETATM    1  C4  UNL     1      -3.062  52.089 -11.737  1.00  0.00     0.148 C 
HETATM    2  C5  UNL     1      -1.712  51.462 -11.549  1.00  0.00     0.009 C 
HETATM    3  C6  UNL     1      -0.793  51.860 -10.646  1.00  0.00    -0.065 C 
HETATM    4  C7  UNL     1       0.511  51.109 -10.532  1.00  0.00     0.036 C 
HETATM    5  C8  UNL     1       1.702  52.052 -10.561  1.00  0.00     0.012 C 
HETATM    6  C9  UNL     1       1.589  53.141  -9.474  1.00  0.00     0.029 C 
HETATM    7  C10 UNL     1       0.296  53.977  -9.691  1.00  0.00     0.041 C 
HETATM    8  C11 UNL     1       0.240  55.148  -8.679  1.00  0.00     0.125 C 
HETATM    9  C12 UNL     1       1.518  55.986  -8.683  1.00  0.00     0.045 C 
HETATM   10  C13 UNL     1       2.820  55.185  -8.418  1.00  0.00    -0.003 C 
HETATM   11  C14 UNL     1       2.846  54.779  -6.933  1.00  0.00     0.019 C 
HETATM   12  C15 UNL     1       4.035  56.094  -8.850  1.00  0.00     0.032 C 
HETATM   13  C21 UNL     1       4.371  55.674 -10.301  1.00  0.00     0.013 C 
HETATM   14  C22 UNL     1       3.335  54.624 -10.708  1.00  0.00     0.040 C 
HETATM   15  C23 UNL     1       2.893  53.977  -9.388  1.00  0.00     0.070 C 
HETATM   16  C24 UNL     1      -1.000  53.066  -9.712  1.00  0.00     0.043 C 
HETATM   17  C26 UNL     1      -2.252  53.878 -10.155  1.00  0.00     0.025 C 
HETATM   18  C27 UNL     1      -3.426  52.992 -10.563  1.00  0.00     0.037 C 
ENDROOT
BRANCH   1  19
HETATM   19  O2  UNL     1      -4.006  51.018 -11.809  1.00  0.00    -0.349 OA
BRANCH  19  20
HETATM   20  C3  UNL     1      -3.749  49.984 -10.868  1.00  0.00     0.292 C 
HETATM   21  O1  UNL     1      -3.787  48.679 -11.460  1.00  0.00    -0.351 OA
HETATM   22  C2  UNL     1      -5.074  48.336 -12.002  1.00  0.00     0.152 C 
HETATM   23  C1  UNL     1      -4.938  46.965 -12.656  1.00  0.00     0.042 C 
HETATM   24  C30 UNL     1      -6.156  48.337 -10.915  1.00  0.00     0.178 C 
HETATM   25  C29 UNL     1      -6.162  49.686 -10.189  1.00  0.00     0.183 C 
HETATM   26  C28 UNL     1      -4.759  50.055  -9.705  1.00  0.00     0.204 C 
BRANCH  24  27
HETATM   27  O10 UNL     1      -7.450  48.093 -11.473  1.00  0.00    -0.390 OA
HETATM   28  H40 UNL     1      -8.087  48.339 -10.774  1.00  0.00     0.210 HD
ENDBRANCH  24  27
BRANCH  25  29
HETATM   29  O9  UNL     1      -7.067  49.594  -9.073  1.00  0.00    -0.390 OA
HETATM   30  H38 UNL     1      -6.521  49.296  -8.315  1.00  0.00     0.210 HD
ENDBRANCH  25  29
BRANCH  26  31
HETATM   31  O8  UNL     1      -4.397  49.145  -8.643  1.00  0.00    -0.388 OA
HETATM   32  H36 UNL     1      -3.918  48.397  -9.053  1.00  0.00     0.210 HD
ENDBRANCH  26  31
ENDBRANCH  19  20
ENDBRANCH   1  19
BRANCH  16  33
HETATM   33  C25 UNL     1      -1.270  52.503  -8.304  1.00  0.00     0.245 C 
HETATM   34  O7  UNL     1      -1.879  51.460  -8.074  1.00  0.00    -0.306 OA
ENDBRANCH  16  33
BRANCH   8  35
HETATM   35  O3  UNL     1      -0.809  56.043  -9.031  1.00  0.00    -0.395 OA
HETATM   36  H15 UNL     1      -1.106  56.481  -8.212  1.00  0.00     0.210 HD
ENDBRANCH   8  35
BRANCH  15  37
HETATM   37  O6  UNL     1       3.951  53.091  -8.999  1.00  0.00    -0.389 OA
HETATM   38  H29 UNL     1       3.683  52.619  -8.192  1.00  0.00     0.210 HD
ENDBRANCH  15  37
BRANCH  12  39
HETATM   39  C16 UNL     1       5.247  56.168  -7.933  1.00  0.00    -0.030 A 
HETATM   40  C17 UNL     1       6.294  55.345  -8.091  1.00  0.00     0.153 A 
HETATM   41  O4  UNL     1       7.445  55.365  -7.290  1.00  0.00    -0.287 OA
HETATM   42  C18 UNL     1       7.547  56.268  -6.266  1.00  0.00     0.287 A 
HETATM   43  O5  UNL     1       8.534  56.339  -5.544  1.00  0.00    -0.260 OA
HETATM   44  C19 UNL     1       6.403  57.173  -6.057  1.00  0.00     0.083 A 
HETATM   45  C20 UNL     1       5.324  57.117  -6.846  1.00  0.00     0.015 A 
ENDBRANCH  12  39
TORSDOF 9
ENDMDL
MODEL 2
REMARK minimizedAffinity -8.05975246
REMARK CNNscore 0.573909998
REMARK CNNaffinity 5.81828499
REMARK  9 active torsions:
REMARK  status: ('A' for Active; 'I' for Inactive)
REMARK    1  A    between atoms: C3_4  and  O2_5 
REMARK    2  A    between atoms: O2_5  and  C4_6 
REMARK    3  A    between atoms: C11_13  and  O3_14 
REMARK    4  A    between atoms: C15_18  and  C16_19 
REMARK    5  A    between atoms: C23_28  and  O6_29 
REMARK    6  A    between atoms: C24_30  and  C25_31 
REMARK    7  A    between atoms: C28_35  and  O8_36 
REMARK    8  A    between atoms: C29_37  and  O9_38 
REMARK    9  A    between atoms: C30_39  and  O10_40 
ROOT
HETATM    1  C4  UNL     1       6.775  55.846  -6.035  1.00  0.00     0.148 C 
HETATM    2  C5  UNL     1       6.683  55.510  -7.494  1.00  0.00     0.009 C 
HETATM    3  C6  UNL     1       5.545  55.510  -8.217  1.00  0.00    -0.065 C 
HETATM    4  C7  UNL     1       5.601  55.195  -9.692  1.00  0.00     0.036 C 
HETATM    5  C8  UNL     1       4.575  54.140 -10.076  1.00  0.00     0.012 C 
HETATM    6  C9  UNL     1       3.152  54.552  -9.648  1.00  0.00     0.029 C 
HETATM    7  C10 UNL     1       3.096  54.751  -8.107  1.00  0.00     0.041 C 
HETATM    8  C11 UNL     1       1.643  55.043  -7.657  1.00  0.00     0.125 C 
HETATM    9  C12 UNL     1       0.651  54.003  -8.176  1.00  0.00     0.045 C 
HETATM   10  C13 UNL     1       0.648  53.821  -9.716  1.00  0.00    -0.003 C 
HETATM   11  C14 UNL     1      -0.005  55.062 -10.352  1.00  0.00     0.019 C 
HETATM   12  C15 UNL     1      -0.106  52.472 -10.035  1.00  0.00     0.032 C 
HETATM   13  C21 UNL     1       1.001  51.397 -10.161  1.00  0.00     0.013 C 
HETATM   14  C22 UNL     1       2.328  52.092  -9.846  1.00  0.00     0.040 C 
HETATM   15  C23 UNL     1       2.096  53.565 -10.211  1.00  0.00     0.070 C 
HETATM   16  C24 UNL     1       4.163  55.812  -7.610  1.00  0.00     0.043 C 
HETATM   17  C26 UNL     1       4.253  55.833  -6.056  1.00  0.00     0.025 C 
HETATM   18  C27 UNL     1       5.507  56.535  -5.539  1.00  0.00     0.037 C 
ENDROOT
BRANCH   1  19
HETATM   19  O2  UNL     1       7.877  56.745  -5.890  1.00  0.00    -0.349 OA
BRANCH  19  20
HETATM   20  C3  UNL     1       8.101  57.141  -4.543  1.00  0.00     0.292 C 
HETATM   21  O1  UNL     1       8.822  58.376  -4.445  1.00  0.00    -0.351 OA
HETATM   22  C2  UNL     1      10.144  58.312  -5.006  1.00  0.00     0.152 C 
HETATM   23  C1  UNL     1      10.751  59.706  -4.895  1.00  0.00     0.042 C 
HETATM   24  C30 UNL     1      11.005  57.264  -4.288  1.00  0.00     0.178 C 
HETATM   25  C29 UNL     1      10.290  55.908  -4.301  1.00  0.00     0.183 C 
HETATM   26  C28 UNL     1       8.858  56.037  -3.778  1.00  0.00     0.204 C 
BRANCH  24  27
HETATM   27  O10 UNL     1      12.284  57.131  -4.911  1.00  0.00    -0.390 OA
HETATM   28  H40 UNL     1      12.665  56.305  -4.553  1.00  0.00     0.210 HD
ENDBRANCH  24  27
BRANCH  25  29
HETATM   29  O9  UNL     1      11.041  54.995  -3.479  1.00  0.00    -0.390 OA
HETATM   30  H38 UNL     1      10.662  55.079  -2.579  1.00  0.00     0.210 HD
ENDBRANCH  25  29
BRANCH  26  31
HETATM   31  O8  UNL     1       8.921  56.330  -2.365  1.00  0.00    -0.388 OA
HETATM   32  H36 UNL     1       8.905  57.303  -2.270  1.00  0.00     0.210 HD
ENDBRANCH  26  31
ENDBRANCH  19  20
ENDBRANCH   1  19
BRANCH  16  33
HETATM   33  C25 UNL     1       3.762  57.222  -8.084  1.00  0.00     0.245 C 
HETATM   34  O7  UNL     1       3.172  58.050  -7.392  1.00  0.00    -0.306 OA
ENDBRANCH  16  33
BRANCH   8  35
HETATM   35  O3  UNL     1       1.555  54.987  -6.238  1.00  0.00    -0.395 OA
HETATM   36  H15 UNL     1       0.821  55.568  -5.968  1.00  0.00     0.210 HD
ENDBRANCH   8  35
BRANCH  15  37
HETATM   37  O6  UNL     1       2.152  53.639 -11.642  1.00  0.00    -0.389 OA
HETATM   38  H29 UNL     1       2.064  54.570 -11.910  1.00  0.00     0.210 HD
ENDBRANCH  15  37
BRANCH  12  39
HETATM   39  C16 UNL     1      -1.114  52.456 -11.174  1.00  0.00    -0.030 A 
HETATM   40  C17 UNL     1      -0.749  52.133 -12.424  1.00  0.00     0.153 A 
HETATM   41  O4  UNL     1      -1.627  52.089 -13.518  1.00  0.00    -0.287 OA
HETATM   42  C18 UNL     1      -2.950  52.392 -13.343  1.00  0.00     0.287 A 
HETATM   43  O5  UNL     1      -3.763  52.357 -14.259  1.00  0.00    -0.260 OA
HETATM   44  C19 UNL     1      -3.375  52.768 -11.983  1.00  0.00     0.083 A 
HETATM   45  C20 UNL     1      -2.503  52.798 -10.970  1.00  0.00     0.015 A 
ENDBRANCH  12  39
TORSDOF 9
ENDMDL
MODEL 3
REMARK minimizedAffinity -9.95201302
REMARK CNNscore 0.549698114
REMARK CNNaffinity 6.32329559
REMARK  9 active torsions:
REMARK  status: ('A' for Active; 'I' for Inactive)
REMARK    1  A    between atoms: C3_4  and  O2_5 
REMARK    2  A    between atoms: O2_5  and  C4_6 
REMARK    3  A    between atoms: C11_13  and  O3_14 
REMARK    4  A    between atoms: C15_18  and  C16_19 
REMARK    5  A    between atoms: C23_28  and  O6_29 
REMARK    6  A    between atoms: C24_30  and  C25_31 
REMARK    7  A    between atoms: C28_35  and  O8_36 
REMARK    8  A    between atoms: C29_37  and  O9_38 
REMARK    9  A    between atoms: C30_39  and  O10_40 
ROOT
HETATM    1  C4  UNL     1      -7.908  46.216 -25.622  1.00  0.00     0.148 C 
HETATM    2  C5  UNL     1      -7.754  46.234 -24.130  1.00  0.00     0.009 C 
HETATM    3  C6  UNL     1      -7.044  47.147 -23.436  1.00  0.00    -0.065 C 
HETATM    4  C7  UNL     1      -7.009  47.074 -21.929  1.00  0.00     0.036 C 
HETATM    5  C8  UNL     1      -5.586  47.149 -21.401  1.00  0.00     0.012 C 
HETATM    6  C9  UNL     1      -4.856  48.407 -21.914  1.00  0.00     0.029 C 
HETATM    7  C10 UNL     1      -4.802  48.393 -23.468  1.00  0.00     0.041 C 
HETATM    8  C11 UNL     1      -3.964  49.588 -23.985  1.00  0.00     0.125 C 
HETATM    9  C12 UNL     1      -2.588  49.666 -23.325  1.00  0.00     0.045 C 
HETATM   10  C13 UNL     1      -2.614  49.733 -21.776  1.00  0.00    -0.003 C 
HETATM   11  C14 UNL     1      -3.120  51.126 -21.358  1.00  0.00     0.019 C 
HETATM   12  C15 UNL     1      -1.159  49.404 -21.260  1.00  0.00     0.032 C 
HETATM   13  C21 UNL     1      -1.164  47.889 -20.944  1.00  0.00     0.013 C 
HETATM   14  C22 UNL     1      -2.544  47.359 -21.342  1.00  0.00     0.040 C 
HETATM   15  C23 UNL     1      -3.479  48.571 -21.221  1.00  0.00     0.070 C 
HETATM   16  C24 UNL     1      -6.246  48.279 -24.109  1.00  0.00     0.043 C 
HETATM   17  C26 UNL     1      -6.164  48.037 -25.645  1.00  0.00     0.025 C 
HETATM   18  C27 UNL     1      -7.478  47.541 -26.243  1.00  0.00     0.037 C 
ENDROOT
BRANCH   1  19
HETATM   19  O2  UNL     1      -9.297  46.009 -25.888  1.00  0.00    -0.349 OA
BRANCH  19  20
HETATM   20  C3  UNL     1     -10.110  47.111 -25.505  1.00  0.00     0.292 C 
HETATM   21  O1  UNL     1     -11.338  46.703 -24.891  1.00  0.00    -0.351 OA
HETATM   22  C2  UNL     1     -12.188  45.941 -25.766  1.00  0.00     0.152 C 
HETATM   23  C1  UNL     1     -13.410  45.520 -24.956  1.00  0.00     0.042 C 
HETATM   24  C30 UNL     1     -12.586  46.754 -27.005  1.00  0.00     0.178 C 
HETATM   25  C29 UNL     1     -11.329  47.276 -27.709  1.00  0.00     0.183 C 
HETATM   26  C28 UNL     1     -10.411  48.005 -26.725  1.00  0.00     0.204 C 
BRANCH  24  27
HETATM   27  O10 UNL     1     -13.347  45.963 -27.920  1.00  0.00    -0.390 OA
HETATM   28  H40 UNL     1     -13.354  46.466 -28.758  1.00  0.00     0.210 HD
ENDBRANCH  24  27
BRANCH  25  29
HETATM   29  O9  UNL     1     -11.739  48.168 -28.762  1.00  0.00    -0.390 OA
HETATM   30  H38 UNL     1     -11.767  49.060 -28.355  1.00  0.00     0.210 HD
ENDBRANCH  25  29
BRANCH  26  31
HETATM   31  O8  UNL     1     -11.063  49.230 -26.327  1.00  0.00    -0.388 OA
HETATM   32  H36 UNL     1     -11.568  49.038 -25.511  1.00  0.00     0.210 HD
ENDBRANCH  26  31
ENDBRANCH  19  20
ENDBRANCH   1  19
BRANCH  16  33
HETATM   33  C25 UNL     1      -7.031  49.583 -23.873  1.00  0.00     0.245 C 
HETATM   34  O7  UNL     1      -7.508  49.926 -22.792  1.00  0.00    -0.306 OA
ENDBRANCH  16  33
BRANCH   8  35
HETATM   35  O3  UNL     1      -3.716  49.441 -25.379  1.00  0.00    -0.395 OA
HETATM   36  H15 UNL     1      -3.599  50.334 -25.751  1.00  0.00     0.210 HD
ENDBRANCH   8  35
BRANCH  15  37
HETATM   37  O6  UNL     1      -3.718  48.757 -19.819  1.00  0.00    -0.389 OA
HETATM   38  H29 UNL     1      -4.353  49.485 -19.704  1.00  0.00     0.210 HD
ENDBRANCH  15  37
BRANCH  12  39
HETATM   39  C16 UNL     1      -0.571  50.264 -20.151  1.00  0.00    -0.030 A 
HETATM   40  C17 UNL     1      -0.576  49.854 -18.873  1.00  0.00     0.153 A 
HETATM   41  O4  UNL     1      -0.044  50.590 -17.804  1.00  0.00    -0.287 OA
HETATM   42  C18 UNL     1       0.526  51.813 -18.036  1.00  0.00     0.287 A 
HETATM   43  O5  UNL     1       1.017  52.492 -17.143  1.00  0.00    -0.260 OA
HETATM   44  C19 UNL     1       0.528  52.296 -19.428  1.00  0.00     0.083 A 
HETATM   45  C20 UNL     1       0.008  51.560 -20.416  1.00  0.00     0.015 A 
ENDBRANCH  12  39
TORSDOF 9
ENDMDL
MODEL 4
REMARK minimizedAffinity -9.36898327
REMARK CNNscore 0.546975613
REMARK CNNaffinity 6.61161041
REMARK  9 active torsions:
REMARK  status: ('A' for Active; 'I' for Inactive)
REMARK    1  A    between atoms: C3_4  and  O2_5 
REMARK    2  A    between atoms: O2_5  and  C4_6 
REMARK    3  A    between atoms: C11_13  and  O3_14 
REMARK    4  A    between atoms: C15_18  and  C16_19 
REMARK    5  A    between atoms: C23_28  and  O6_29 
REMARK    6  A    between atoms: C24_30  and  C25_31 
REMARK    7  A    between atoms: C28_35  and  O8_36 
REMARK    8  A    between atoms: C29_37  and  O9_38 
REMARK    9  A    between atoms: C30_39  and  O10_40 
ROOT
HETATM    1  C4  UNL     1      -2.812  50.304 -24.355  1.00  0.00     0.148 C 
HETATM    2  C5  UNL     1      -2.877  50.603 -22.887  1.00  0.00     0.009 C 
HETATM    3  C6  UNL     1      -3.375  49.772 -21.949  1.00  0.00    -0.065 C 
HETATM    4  C7  UNL     1      -3.338  50.182 -20.497  1.00  0.00     0.036 C 
HETATM    5  C8  UNL     1      -4.694  50.005 -19.834  1.00  0.00     0.012 C 
HETATM    6  C9  UNL     1      -5.219  48.564 -19.992  1.00  0.00     0.029 C 
HETATM    7  C10 UNL     1      -5.363  48.213 -21.501  1.00  0.00     0.041 C 
HETATM    8  C11 UNL     1      -6.006  46.814 -21.666  1.00  0.00     0.125 C 
HETATM    9  C12 UNL     1      -7.308  46.673 -20.878  1.00  0.00     0.045 C 
HETATM   10  C13 UNL     1      -7.184  46.967 -19.361  1.00  0.00    -0.003 C 
HETATM   11  C14 UNL     1      -6.419  45.804 -18.702  1.00  0.00     0.019 C 
HETATM   12  C15 UNL     1      -8.642  47.171 -18.794  1.00  0.00     0.032 C 
HETATM   13  C21 UNL     1      -8.885  48.699 -18.815  1.00  0.00     0.013 C 
HETATM   14  C22 UNL     1      -7.644  49.335 -19.445  1.00  0.00     0.040 C 
HETATM   15  C23 UNL     1      -6.506  48.346 -19.153  1.00  0.00     0.070 C 
HETATM   16  C24 UNL     1      -3.999  48.405 -22.283  1.00  0.00     0.043 C 
HETATM   17  C26 UNL     1      -4.209  48.273 -23.820  1.00  0.00     0.025 C 
HETATM   18  C27 UNL     1      -3.037  48.821 -24.633  1.00  0.00     0.037 C 
ENDROOT
BRANCH   1  19
HETATM   19  O2  UNL     1      -1.498  50.661 -24.789  1.00  0.00    -0.349 OA
BRANCH  19  20
HETATM   20  C3  UNL     1      -1.265  50.373 -26.162  1.00  0.00     0.292 C 
HETATM   21  O1  UNL     1       0.125  50.421 -26.507  1.00  0.00    -0.351 OA
HETATM   22  C2  UNL     1       0.712  51.722 -26.327  1.00  0.00     0.152 C 
HETATM   23  C1  UNL     1       2.195  51.598 -26.661  1.00  0.00     0.042 C 
HETATM   24  C30 UNL     1       0.023  52.772 -27.208  1.00  0.00     0.178 C 
HETATM   25  C29 UNL     1      -1.486  52.763 -26.941  1.00  0.00     0.183 C 
HETATM   26  C28 UNL     1      -2.056  51.348 -27.056  1.00  0.00     0.204 C 
BRANCH  24  27
HETATM   27  O10 UNL     1       0.541  54.080 -26.954  1.00  0.00    -0.390 OA
HETATM   28  H40 UNL     1      -0.095  54.698 -27.366  1.00  0.00     0.210 HD
ENDBRANCH  24  27
BRANCH  25  29
HETATM   29  O9  UNL     1      -2.118  53.635 -27.897  1.00  0.00    -0.390 OA
HETATM   30  H38 UNL     1      -2.346  53.066 -28.661  1.00  0.00     0.210 HD
ENDBRANCH  25  29
BRANCH  26  31
HETATM   31  O8  UNL     1      -1.994  50.952 -28.444  1.00  0.00    -0.388 OA
HETATM   32  H36 UNL     1      -1.147  50.481 -28.573  1.00  0.00     0.210 HD
ENDBRANCH  26  31
ENDBRANCH  19  20
ENDBRANCH   1  19
BRANCH  16  33
HETATM   33  C25 UNL     1      -2.986  47.330 -21.846  1.00  0.00     0.245 C 
HETATM   34  O7  UNL     1      -1.766  47.484 -21.834  1.00  0.00    -0.306 OA
ENDBRANCH  16  33
BRANCH   8  35
HETATM   35  O3  UNL     1      -6.353  46.598 -23.029  1.00  0.00    -0.395 OA
HETATM   36  H15 UNL     1      -6.332  45.637 -23.187  1.00  0.00     0.210 HD
ENDBRANCH   8  35
BRANCH  15  37
HETATM   37  O6  UNL     1      -6.159  48.527 -17.774  1.00  0.00    -0.389 OA
HETATM   38  H29 UNL     1      -5.401  47.954 -17.564  1.00  0.00     0.210 HD
ENDBRANCH  15  37
BRANCH  12  39
HETATM   39  C16 UNL     1      -9.007  46.506 -17.475  1.00  0.00    -0.030 A 
HETATM   40  C17 UNL     1      -9.801  45.425 -17.435  1.00  0.00     0.153 A 
HETATM   41  O4  UNL     1     -10.169  44.757 -16.257  1.00  0.00    -0.287 OA
HETATM   42  C18 UNL     1      -9.713  45.207 -15.048  1.00  0.00     0.287 A 
HETATM   43  O5  UNL     1      -9.993  44.655 -13.990  1.00  0.00    -0.260 OA
HETATM   44  C19 UNL     1      -8.854  46.405 -15.061  1.00  0.00     0.083 A 
HETATM   45  C20 UNL     1      -8.530  47.010 -16.208  1.00  0.00     0.015 A 
ENDBRANCH  12  39
TORSDOF 9
ENDMDL
MODEL 5
REMARK minimizedAffinity -8.41489792
REMARK CNNscore 0.496138722
REMARK CNNaffinity 5.62429762
REMARK  9 active torsions:
REMARK  status: ('A' for Active; 'I' for Inactive)
REMARK    1  A    between atoms: C3_4  and  O2_5 
REMARK    2  A    between atoms: O2_5  and  C4_6 
REMARK    3  A    between atoms: C11_13  and  O3_14 
REMARK    4  A    between atoms: C15_18  and  C16_19 
REMARK    5  A    between atoms: C23_28  and  O6_29 
REMARK    6  A    between atoms: C24_30  and  C25_31 
REMARK    7  A    between atoms: C28_35  and  O8_36 
REMARK    8  A    between atoms: C29_37  and  O9_38 
REMARK    9  A    between atoms: C30_39  and  O10_40 
ROOT
HETATM    1  C4  UNL     1       1.060  52.364 -12.104  1.00  0.00     0.148 C 
HETATM    2  C5  UNL     1       0.074  53.362 -11.575  1.00  0.00     0.009 C 
HETATM    3  C6  UNL     1       0.364  54.352 -10.706  1.00  0.00    -0.065 C 
HETATM    4  C7  UNL     1      -0.718  55.318 -10.289  1.00  0.00     0.036 C 
HETATM    5  C8  UNL     1      -0.779  55.468  -8.778  1.00  0.00     0.012 C 
HETATM    6  C9  UNL     1       0.589  55.878  -8.194  1.00  0.00     0.029 C 
HETATM    7  C10 UNL     1       1.658  54.803  -8.537  1.00  0.00     0.041 C 
HETATM    8  C11 UNL     1       3.002  55.146  -7.849  1.00  0.00     0.125 C 
HETATM    9  C12 UNL     1       2.845  55.397  -6.350  1.00  0.00     0.045 C 
HETATM   10  C13 UNL     1       1.822  56.502  -5.981  1.00  0.00    -0.003 C 
HETATM   11  C14 UNL     1       2.426  57.868  -6.354  1.00  0.00     0.019 C 
HETATM   12  C15 UNL     1       1.491  56.352  -4.445  1.00  0.00     0.032 C 
HETATM   13  C21 UNL     1       0.206  55.491  -4.380  1.00  0.00     0.013 C 
HETATM   14  C22 UNL     1      -0.136  55.099  -5.820  1.00  0.00     0.040 C 
HETATM   15  C23 UNL     1       0.470  56.214  -6.684  1.00  0.00     0.070 C 
HETATM   16  C24 UNL     1       1.764  54.552 -10.097  1.00  0.00     0.043 C 
HETATM   17  C26 UNL     1       2.665  53.321 -10.410  1.00  0.00     0.025 C 
HETATM   18  C27 UNL     1       2.497  52.803 -11.836  1.00  0.00     0.037 C 
ENDROOT
BRANCH   1  19
HETATM   19  O2  UNL     1       0.854  52.292 -13.516  1.00  0.00    -0.349 OA
BRANCH  19  20
HETATM   20  C3  UNL     1       1.399  51.116 -14.101  1.00  0.00     0.292 C 
HETATM   21  O1  UNL     1       2.714  51.323 -14.630  1.00  0.00    -0.351 OA
HETATM   22  C2  UNL     1       2.755  52.285 -15.698  1.00  0.00     0.152 C 
HETATM   23  C1  UNL     1       4.217  52.451 -16.102  1.00  0.00     0.042 C 
HETATM   24  C30 UNL     1       1.890  51.840 -16.884  1.00  0.00     0.178 C 
HETATM   25  C29 UNL     1       0.464  51.549 -16.405  1.00  0.00     0.183 C 
HETATM   26  C28 UNL     1       0.470  50.590 -15.213  1.00  0.00     0.204 C 
BRANCH  24  27
HETATM   27  O10 UNL     1       1.852  52.843 -17.901  1.00  0.00    -0.390 OA
HETATM   28  H40 UNL     1       1.114  52.591 -18.491  1.00  0.00     0.210 HD
ENDBRANCH  24  27
BRANCH  25  29
HETATM   29  O9  UNL     1      -0.272  50.977 -17.502  1.00  0.00    -0.390 OA
HETATM   30  H38 UNL     1      -0.149  50.007 -17.424  1.00  0.00     0.210 HD
ENDBRANCH  25  29
BRANCH  26  31
HETATM   31  O8  UNL     1       0.899  49.293 -15.683  1.00  0.00    -0.388 OA
HETATM   32  H36 UNL     1       1.868  49.247 -15.559  1.00  0.00     0.210 HD
ENDBRANCH  26  31
ENDBRANCH  19  20
ENDBRANCH   1  19
BRANCH  16  33
HETATM   33  C25 UNL     1       2.382  55.783 -10.787  1.00  0.00     0.245 C 
HETATM   34  O7  UNL     1       3.581  55.923 -11.023  1.00  0.00    -0.306 OA
ENDBRANCH  16  33
BRANCH   8  35
HETATM   35  O3  UNL     1       3.901  54.049  -7.966  1.00  0.00    -0.395 OA
HETATM   36  H15 UNL     1       4.806  54.409  -7.941  1.00  0.00     0.210 HD
ENDBRANCH   8  35
BRANCH  15  37
HETATM   37  O6  UNL     1      -0.406  57.342  -6.558  1.00  0.00    -0.389 OA
HETATM   38  H29 UNL     1      -0.085  58.054  -7.138  1.00  0.00     0.210 HD
ENDBRANCH  15  37
BRANCH  12  39
HETATM   39  C16 UNL     1       1.437  57.608  -3.588  1.00  0.00    -0.030 A 
HETATM   40  C17 UNL     1       2.550  58.150  -3.073  1.00  0.00     0.153 A 
HETATM   41  O4  UNL     1       2.574  59.310  -2.284  1.00  0.00    -0.287 OA
HETATM   42  C18 UNL     1       1.405  59.961  -1.995  1.00  0.00     0.287 A 
HETATM   43  O5  UNL     1       1.368  60.984  -1.322  1.00  0.00    -0.260 OA
HETATM   44  C19 UNL     1       0.163  59.376  -2.533  1.00  0.00     0.083 A 
HETATM   45  C20 UNL     1       0.189  58.267  -3.280  1.00  0.00     0.015 A 
ENDBRANCH  12  39
TORSDOF 9
ENDMDL
MODEL 6
REMARK minimizedAffinity -8.91077518
REMARK CNNscore 0.483841389
REMARK CNNaffinity 6.52967882
REMARK  9 active torsions:
REMARK  status: ('A' for Active; 'I' for Inactive)
REMARK    1  A    between atoms: C3_4  and  O2_5 
REMARK    2  A    between atoms: O2_5  and  C4_6 
REMARK    3  A    between atoms: C11_13  and  O3_14 
REMARK    4  A    between atoms: C15_18  and  C16_19 
REMARK    5  A    between atoms: C23_28  and  O6_29 
REMARK    6  A    between atoms: C24_30  and  C25_31 
REMARK    7  A    between atoms: C28_35  and  O8_36 
REMARK    8  A    between atoms: C29_37  and  O9_38 
REMARK    9  A    between atoms: C30_39  and  O10_40 
ROOT
HETATM    1  C4  UNL     1      -1.550  51.783 -23.101  1.00  0.00     0.148 C 
HETATM    2  C5  UNL     1      -1.375  50.322 -22.811  1.00  0.00     0.009 C 
HETATM    3  C6  UNL     1      -2.369  49.475 -22.472  1.00  0.00    -0.065 C 
HETATM    4  C7  UNL     1      -2.059  48.015 -22.250  1.00  0.00     0.036 C 
HETATM    5  C8  UNL     1      -2.640  47.515 -20.938  1.00  0.00     0.012 C 
HETATM    6  C9  UNL     1      -4.157  47.782 -20.852  1.00  0.00     0.029 C 
HETATM    7  C10 UNL     1      -4.436  49.308 -20.961  1.00  0.00     0.041 C 
HETATM    8  C11 UNL     1      -5.943  49.593 -20.751  1.00  0.00     0.125 C 
HETATM    9  C12 UNL     1      -6.484  48.963 -19.468  1.00  0.00     0.045 C 
HETATM   10  C13 UNL     1      -6.265  47.432 -19.355  1.00  0.00    -0.003 C 
HETATM   11  C14 UNL     1      -7.216  46.731 -20.344  1.00  0.00     0.019 C 
HETATM   12  C15 UNL     1      -6.503  47.026 -17.849  1.00  0.00     0.032 C 
HETATM   13  C21 UNL     1      -5.100  47.021 -17.194  1.00  0.00     0.013 C 
HETATM   14  C22 UNL     1      -4.112  47.485 -18.267  1.00  0.00     0.040 C 
HETATM   15  C23 UNL     1      -4.770  47.102 -19.600  1.00  0.00     0.070 C 
HETATM   16  C24 UNL     1      -3.830  49.925 -22.289  1.00  0.00     0.043 C 
HETATM   17  C26 UNL     1      -3.915  51.480 -22.277  1.00  0.00     0.025 C 
HETATM   18  C27 UNL     1      -3.018  52.136 -23.324  1.00  0.00     0.037 C 
ENDROOT
BRANCH   1  19
HETATM   19  O2  UNL     1      -0.822  52.053 -24.301  1.00  0.00    -0.349 OA
BRANCH  19  20
HETATM   20  C3  UNL     1      -0.762  50.938 -25.181  1.00  0.00     0.292 C 
HETATM   21  O1  UNL     1       0.486  50.855 -25.880  1.00  0.00    -0.351 OA
HETATM   22  C2  UNL     1       0.736  51.981 -26.738  1.00  0.00     0.152 C 
HETATM   23  C1  UNL     1       2.120  51.786 -27.349  1.00  0.00     0.042 C 
HETATM   24  C30 UNL     1      -0.345  52.110 -27.820  1.00  0.00     0.178 C 
HETATM   25  C29 UNL     1      -1.730  52.161 -27.166  1.00  0.00     0.183 C 
HETATM   26  C28 UNL     1      -1.922  50.994 -26.196  1.00  0.00     0.204 C 
BRANCH  24  27
HETATM   27  O10 UNL     1      -0.149  53.286 -28.608  1.00  0.00    -0.390 OA
HETATM   28  H40 UNL     1      -0.985  53.414 -29.099  1.00  0.00     0.210 HD
ENDBRANCH  24  27
BRANCH  25  29
HETATM   29  O9  UNL     1      -2.722  52.112 -28.209  1.00  0.00    -0.390 OA
HETATM   30  H38 UNL     1      -2.922  51.160 -28.336  1.00  0.00     0.210 HD
ENDBRANCH  25  29
BRANCH  26  31
HETATM   31  O8  UNL     1      -1.999  49.776 -26.968  1.00  0.00    -0.388 OA
HETATM   32  H36 UNL     1      -1.094  49.410 -27.024  1.00  0.00     0.210 HD
ENDBRANCH  26  31
ENDBRANCH  19  20
ENDBRANCH   1  19
BRANCH  16  33
HETATM   33  C25 UNL     1      -4.614  49.414 -23.512  1.00  0.00     0.245 C 
HETATM   34  O7  UNL     1      -4.737  48.229 -23.818  1.00  0.00    -0.306 OA
ENDBRANCH  16  33
BRANCH   8  35
HETATM   35  O3  UNL     1      -6.157  50.993 -20.614  1.00  0.00    -0.395 OA
HETATM   36  H15 UNL     1      -7.064  51.181 -20.916  1.00  0.00     0.210 HD
ENDBRANCH   8  35
BRANCH  15  37
HETATM   37  O6  UNL     1      -4.591  45.686 -19.745  1.00  0.00    -0.389 OA
HETATM   38  H29 UNL     1      -4.948  45.413 -20.607  1.00  0.00     0.210 HD
ENDBRANCH  15  37
BRANCH  12  39
HETATM   39  C16 UNL     1      -7.326  45.781 -17.554  1.00  0.00    -0.030 A 
HETATM   40  C17 UNL     1      -8.640  45.858 -17.296  1.00  0.00     0.153 A 
HETATM   41  O4  UNL     1      -9.459  44.751 -17.026  1.00  0.00    -0.287 OA
HETATM   42  C18 UNL     1      -8.922  43.493 -17.013  1.00  0.00     0.287 A 
HETATM   43  O5  UNL     1      -9.593  42.490 -16.796  1.00  0.00    -0.260 OA
HETATM   44  C19 UNL     1      -7.476  43.380 -17.275  1.00  0.00     0.083 A 
HETATM   45  C20 UNL     1      -6.733  44.463 -17.526  1.00  0.00     0.015 A 
ENDBRANCH  12  39
TORSDOF 9
ENDMDL
MODEL 7
REMARK minimizedAffinity -7.7096982
REMARK CNNscore 0.483373433
REMARK CNNaffinity 5.50255966
REMARK  9 active torsions:
REMARK  status: ('A' for Active; 'I' for Inactive)
REMARK    1  A    between atoms: C3_4  and  O2_5 
REMARK    2  A    between atoms: O2_5  and  C4_6 
REMARK    3  A    between atoms: C11_13  and  O3_14 
REMARK    4  A    between atoms: C15_18  and  C16_19 
REMARK    5  A    between atoms: C23_28  and  O6_29 
REMARK    6  A    between atoms: C24_30  and  C25_31 
REMARK    7  A    between atoms: C28_35  and  O8_36 
REMARK    8  A    between atoms: C29_37  and  O9_38 
REMARK    9  A    between atoms: C30_39  and  O10_40 
ROOT
HETATM    1  C4  UNL     1       8.859  57.432  -5.221  1.00  0.00     0.148 C 
HETATM    2  C5  UNL     1       7.446  57.933  -5.262  1.00  0.00     0.009 C 
HETATM    3  C6  UNL     1       6.377  57.207  -5.647  1.00  0.00    -0.065 C 
HETATM    4  C7  UNL     1       5.001  57.824  -5.598  1.00  0.00     0.036 C 
HETATM    5  C8  UNL     1       4.255  57.627  -6.907  1.00  0.00     0.012 C 
HETATM    6  C9  UNL     1       4.183  56.138  -7.300  1.00  0.00     0.029 C 
HETATM    7  C10 UNL     1       5.618  55.561  -7.463  1.00  0.00     0.041 C 
HETATM    8  C11 UNL     1       5.554  54.102  -7.978  1.00  0.00     0.125 C 
HETATM    9  C12 UNL     1       4.692  53.963  -9.233  1.00  0.00     0.045 C 
HETATM   10  C13 UNL     1       3.239  54.483  -9.083  1.00  0.00    -0.003 C 
HETATM   11  C14 UNL     1       2.460  53.499  -8.190  1.00  0.00     0.019 C 
HETATM   12  C15 UNL     1       2.637  54.638 -10.534  1.00  0.00     0.032 C 
HETATM   13  C21 UNL     1       2.861  56.120 -10.919  1.00  0.00     0.013 C 
HETATM   14  C22 UNL     1       3.634  56.764  -9.766  1.00  0.00     0.040 C 
HETATM   15  C23 UNL     1       3.261  55.932  -8.531  1.00  0.00     0.070 C 
HETATM   16  C24 UNL     1       6.485  55.756  -6.152  1.00  0.00     0.043 C 
HETATM   17  C26 UNL     1       7.976  55.385  -6.402  1.00  0.00     0.025 C 
HETATM   18  C27 UNL     1       8.914  55.910  -5.317  1.00  0.00     0.037 C 
ENDROOT
BRANCH   1  19
HETATM   19  O2  UNL     1       9.402  57.836  -3.962  1.00  0.00    -0.349 OA
BRANCH  19  20
HETATM   20  C3  UNL     1      10.543  57.081  -3.577  1.00  0.00     0.292 C 
HETATM   21  O1  UNL     1      10.789  57.133  -2.166  1.00  0.00    -0.351 OA
HETATM   22  C2  UNL     1      11.078  58.457  -1.686  1.00  0.00     0.152 C 
HETATM   23  C1  UNL     1      11.241  58.364  -0.173  1.00  0.00     0.042 C 
HETATM   24  C30 UNL     1      12.335  59.031  -2.354  1.00  0.00     0.178 C 
HETATM   25  C29 UNL     1      12.185  58.974  -3.878  1.00  0.00     0.183 C 
HETATM   26  C28 UNL     1      11.791  57.570  -4.339  1.00  0.00     0.204 C 
BRANCH  24  27
HETATM   27  O10 UNL     1      12.563  60.383  -1.951  1.00  0.00    -0.390 OA
HETATM   28  H40 UNL     1      13.220  60.737  -2.582  1.00  0.00     0.210 HD
ENDBRANCH  24  27
BRANCH  25  29
HETATM   29  O9  UNL     1      13.439  59.361  -4.469  1.00  0.00    -0.390 OA
HETATM   30  H38 UNL     1      13.944  58.527  -4.583  1.00  0.00     0.210 HD
ENDBRANCH  25  29
BRANCH  26  31
HETATM   31  O8  UNL     1      12.917  56.693  -4.116  1.00  0.00    -0.388 OA
HETATM   32  H36 UNL     1      12.801  56.293  -3.231  1.00  0.00     0.210 HD
ENDBRANCH  26  31
ENDBRANCH  19  20
ENDBRANCH   1  19
BRANCH  16  33
HETATM   33  C25 UNL     1       5.950  54.849  -5.028  1.00  0.00     0.245 C 
HETATM   34  O7  UNL     1       5.606  55.244  -3.916  1.00  0.00    -0.306 OA
ENDBRANCH  16  33
BRANCH   8  35
HETATM   35  O3  UNL     1       6.854  53.661  -8.351  1.00  0.00    -0.395 OA
HETATM   36  H15 UNL     1       6.876  52.693  -8.246  1.00  0.00     0.210 HD
ENDBRANCH   8  35
BRANCH  15  37
HETATM   37  O6  UNL     1       1.939  56.339  -8.154  1.00  0.00    -0.389 OA
HETATM   38  H29 UNL     1       1.688  55.872  -7.339  1.00  0.00     0.210 HD
ENDBRANCH  15  37
BRANCH  12  39
HETATM   39  C16 UNL     1       1.222  54.141 -10.788  1.00  0.00    -0.030 A 
HETATM   40  C17 UNL     1       0.990  53.027 -11.499  1.00  0.00     0.153 A 
HETATM   41  O4  UNL     1      -0.286  52.508 -11.763  1.00  0.00    -0.287 OA
HETATM   42  C18 UNL     1      -1.396  53.152 -11.286  1.00  0.00     0.287 A 
HETATM   43  O5  UNL     1      -2.533  52.736 -11.475  1.00  0.00    -0.260 OA
HETATM   44  C19 UNL     1      -1.172  54.389 -10.518  1.00  0.00     0.083 A 
HETATM   45  C20 UNL     1       0.064  54.848 -10.291  1.00  0.00     0.015 A 
ENDBRANCH  12  39
TORSDOF 9
ENDMDL
MODEL 8
REMARK minimizedAffinity -7.63726091
REMARK CNNscore 0.449508905
REMARK CNNaffinity 5.72199774
REMARK  9 active torsions:
REMARK  status: ('A' for Active; 'I' for Inactive)
REMARK    1  A    between atoms: C3_4  and  O2_5 
REMARK    2  A    between atoms: O2_5  and  C4_6 
REMARK    3  A    between atoms: C11_13  and  O3_14 
REMARK    4  A    between atoms: C15_18  and  C16_19 
REMARK    5  A    between atoms: C23_28  and  O6_29 
REMARK    6  A    between atoms: C24_30  and  C25_31 
REMARK    7  A    between atoms: C28_35  and  O8_36 
REMARK    8  A    between atoms: C29_37  and  O9_38 
REMARK    9  A    between atoms: C30_39  and  O10_40 
ROOT
HETATM    1  C4  UNL     1      -0.174  52.253 -13.053  1.00  0.00     0.148 C 
HETATM    2  C5  UNL     1       1.190  52.185 -12.433  1.00  0.00     0.009 C 
HETATM    3  C6  UNL     1       1.497  52.607 -11.190  1.00  0.00    -0.065 C 
HETATM    4  C7  UNL     1       2.905  52.438 -10.673  1.00  0.00     0.036 C 
HETATM    5  C8  UNL     1       3.441  53.731 -10.082  1.00  0.00     0.012 C 
HETATM    6  C9  UNL     1       2.508  54.283  -8.986  1.00  0.00     0.029 C 
HETATM    7  C10 UNL     1       1.097  54.563  -9.578  1.00  0.00     0.041 C 
HETATM    8  C11 UNL     1       0.193  55.232  -8.514  1.00  0.00     0.125 C 
HETATM    9  C12 UNL     1       0.846  56.461  -7.881  1.00  0.00     0.045 C 
HETATM   10  C13 UNL     1       2.232  56.199  -7.237  1.00  0.00    -0.003 C 
HETATM   11  C14 UNL     1       2.021  55.391  -5.943  1.00  0.00     0.019 C 
HETATM   12  C15 UNL     1       2.922  57.600  -7.006  1.00  0.00     0.032 C 
HETATM   13  C21 UNL     1       3.821  57.829  -8.245  1.00  0.00     0.013 C 
HETATM   14  C22 UNL     1       3.589  56.641  -9.183  1.00  0.00     0.040 C 
HETATM   15  C23 UNL     1       3.156  55.492  -8.262  1.00  0.00     0.070 C 
HETATM   16  C24 UNL     1       0.473  53.272 -10.251  1.00  0.00     0.043 C 
HETATM   17  C26 UNL     1      -0.827  53.618 -11.035  1.00  0.00     0.025 C 
HETATM   18  C27 UNL     1      -1.251  52.518 -12.005  1.00  0.00     0.037 C 
ENDROOT
BRANCH   1  19
HETATM   19  O2  UNL     1      -0.416  50.979 -13.654  1.00  0.00    -0.349 OA
BRANCH  19  20
HETATM   20  C3  UNL     1       0.756  50.389 -14.202  1.00  0.00     0.292 C 
HETATM   21  O1  UNL     1       0.974  50.762 -15.568  1.00  0.00    -0.351 OA
HETATM   22  C2  UNL     1      -0.073  50.328 -16.453  1.00  0.00     0.152 C 
HETATM   23  C1  UNL     1       0.261  50.859 -17.843  1.00  0.00     0.042 C 
HETATM   24  C30 UNL     1      -0.207  48.799 -16.451  1.00  0.00     0.178 C 
HETATM   25  C29 UNL     1      -0.399  48.297 -15.016  1.00  0.00     0.183 C 
HETATM   26  C28 UNL     1       0.684  48.853 -14.089  1.00  0.00     0.204 C 
BRANCH  24  27
HETATM   27  O10 UNL     1      -1.311  48.376 -17.253  1.00  0.00    -0.390 OA
HETATM   28  H40 UNL     1      -1.466  47.441 -17.013  1.00  0.00     0.210 HD
ENDBRANCH  24  27
BRANCH  25  29
HETATM   29  O9  UNL     1      -0.353  46.858 -15.031  1.00  0.00    -0.390 OA
HETATM   30  H38 UNL     1       0.588  46.624 -14.886  1.00  0.00     0.210 HD
ENDBRANCH  25  29
BRANCH  26  31
HETATM   31  O8  UNL     1       1.941  48.243 -14.454  1.00  0.00    -0.388 OA
HETATM   32  H36 UNL     1       2.374  48.836 -15.101  1.00  0.00     0.210 HD
ENDBRANCH  26  31
ENDBRANCH  19  20
ENDBRANCH   1  19
BRANCH  16  33
HETATM   33  C25 UNL     1       0.116  52.235  -9.169  1.00  0.00     0.245 C 
HETATM   34  O7  UNL     1       0.468  52.303  -7.993  1.00  0.00    -0.306 OA
ENDBRANCH  16  33
BRANCH   8  35
HETATM   35  O3  UNL     1      -1.005  55.701  -9.121  1.00  0.00    -0.395 OA
HETATM   36  H15 UNL     1      -1.698  55.704  -8.436  1.00  0.00     0.210 HD
ENDBRANCH   8  35
BRANCH  15  37
HETATM   37  O6  UNL     1       4.347  55.023  -7.615  1.00  0.00    -0.389 OA
HETATM   38  H29 UNL     1       4.121  54.255  -7.063  1.00  0.00     0.210 HD
ENDBRANCH  15  37
BRANCH  12  39
HETATM   39  C16 UNL     1       3.622  57.854  -5.679  1.00  0.00    -0.030 A 
HETATM   40  C17 UNL     1       4.909  57.522  -5.495  1.00  0.00     0.153 A 
HETATM   41  O4  UNL     1       5.619  57.736  -4.304  1.00  0.00    -0.287 OA
HETATM   42  C18 UNL     1       4.994  58.316  -3.233  1.00  0.00     0.287 A 
HETATM   43  O5  UNL     1       5.568  58.538  -2.174  1.00  0.00    -0.260 OA
HETATM   44  C19 UNL     1       3.574  58.673  -3.402  1.00  0.00     0.083 A 
HETATM   45  C20 UNL     1       2.937  58.450  -4.556  1.00  0.00     0.015 A 
ENDBRANCH  12  39
TORSDOF 9
ENDMDL
MODEL 9
REMARK minimizedAffinity -10.4960079
REMARK CNNscore 0.442869157
REMARK CNNaffinity 6.5212841
REMARK  9 active torsions:
REMARK  status: ('A' for Active; 'I' for Inactive)
REMARK    1  A    between atoms: C3_4  and  O2_5 
REMARK    2  A    between atoms: O2_5  and  C4_6 
REMARK    3  A    between atoms: C11_13  and  O3_14 
REMARK    4  A    between atoms: C15_18  and  C16_19 
REMARK    5  A    between atoms: C23_28  and  O6_29 
REMARK    6  A    between atoms: C24_30  and  C25_31 
REMARK    7  A    between atoms: C28_35  and  O8_36 
REMARK    8  A    between atoms: C29_37  and  O9_38 
REMARK    9  A    between atoms: C30_39  and  O10_40 
ROOT
HETATM    1  C4  UNL     1      -3.794  48.645 -27.948  1.00  0.00     0.148 C 
HETATM    2  C5  UNL     1      -4.497  48.252 -26.682  1.00  0.00     0.009 C 
HETATM    3  C6  UNL     1      -4.318  48.842 -25.482  1.00  0.00    -0.065 C 
HETATM    4  C7  UNL     1      -5.126  48.376 -24.296  1.00  0.00     0.036 C 
HETATM    5  C8  UNL     1      -4.240  48.106 -23.091  1.00  0.00     0.012 C 
HETATM    6  C9  UNL     1      -3.382  49.335 -22.731  1.00  0.00     0.029 C 
HETATM    7  C10 UNL     1      -2.471  49.719 -23.932  1.00  0.00     0.041 C 
HETATM    8  C11 UNL     1      -1.519  50.873 -23.535  1.00  0.00     0.125 C 
HETATM    9  C12 UNL     1      -0.746  50.578 -22.250  1.00  0.00     0.045 C 
HETATM   10  C13 UNL     1      -1.632  50.243 -21.022  1.00  0.00    -0.003 C 
HETATM   11  C14 UNL     1      -2.321  51.538 -20.553  1.00  0.00     0.019 C 
HETATM   12  C15 UNL     1      -0.703  49.586 -19.929  1.00  0.00     0.032 C 
HETATM   13  C21 UNL     1      -0.842  48.058 -20.131  1.00  0.00     0.013 C 
HETATM   14  C22 UNL     1      -1.753  47.854 -21.344  1.00  0.00     0.040 C 
HETATM   15  C23 UNL     1      -2.628  49.115 -21.393  1.00  0.00     0.070 C 
HETATM   16  C24 UNL     1      -3.311  49.983 -25.249  1.00  0.00     0.043 C 
HETATM   17  C26 UNL     1      -2.381  50.139 -26.488  1.00  0.00     0.025 C 
HETATM   18  C27 UNL     1      -3.126  50.010 -27.815  1.00  0.00     0.037 C 
ENDROOT
BRANCH   1  19
HETATM   19  O2  UNL     1      -4.794  48.717 -28.967  1.00  0.00    -0.349 OA
BRANCH  19  20
HETATM   20  C3  UNL     1      -5.316  47.444 -29.328  1.00  0.00     0.292 C 
HETATM   21  O1  UNL     1      -5.274  47.212 -30.741  1.00  0.00    -0.351 OA
HETATM   22  C2  UNL     1      -6.076  48.136 -31.495  1.00  0.00     0.152 C 
HETATM   23  C1  UNL     1      -5.872  47.812 -32.971  1.00  0.00     0.042 C 
HETATM   24  C30 UNL     1      -7.555  48.045 -31.098  1.00  0.00     0.178 C 
HETATM   25  C29 UNL     1      -7.698  48.237 -29.584  1.00  0.00     0.183 C 
HETATM   26  C28 UNL     1      -6.764  47.296 -28.820  1.00  0.00     0.204 C 
BRANCH  24  27
HETATM   27  O10 UNL     1      -8.335  49.032 -31.776  1.00  0.00    -0.390 OA
HETATM   28  H40 UNL     1      -9.190  49.061 -31.303  1.00  0.00     0.210 HD
ENDBRANCH  24  27
BRANCH  25  29
HETATM   29  O9  UNL     1      -9.069  47.979 -29.225  1.00  0.00    -0.390 OA
HETATM   30  H38 UNL     1      -9.109  47.023 -29.012  1.00  0.00     0.210 HD
ENDBRANCH  25  29
BRANCH  26  31
HETATM   31  O8  UNL     1      -7.245  45.946 -28.999  1.00  0.00    -0.388 OA
HETATM   32  H36 UNL     1      -6.777  45.571 -29.772  1.00  0.00     0.210 HD
ENDBRANCH  26  31
ENDBRANCH  19  20
ENDBRANCH   1  19
BRANCH  16  33
HETATM   33  C25 UNL     1      -4.128  51.280 -25.099  1.00  0.00     0.245 C 
HETATM   34  O7  UNL     1      -3.777  52.380 -25.522  1.00  0.00    -0.306 OA
ENDBRANCH  16  33
BRANCH   8  35
HETATM   35  O3  UNL     1      -0.534  51.059 -24.545  1.00  0.00    -0.395 OA
HETATM   36  H15 UNL     1      -0.254  51.991 -24.511  1.00  0.00     0.210 HD
ENDBRANCH   8  35
BRANCH  15  37
HETATM   37  O6  UNL     1      -3.612  48.962 -20.362  1.00  0.00    -0.389 OA
HETATM   38  H29 UNL     1      -4.223  49.718 -20.397  1.00  0.00     0.210 HD
ENDBRANCH  15  37
BRANCH  12  39
HETATM   39  C16 UNL     1      -0.854  50.034 -18.483  1.00  0.00    -0.030 A 
HETATM   40  C17 UNL     1      -1.933  49.701 -17.758  1.00  0.00     0.153 A 
HETATM   41  O4  UNL     1      -2.132  50.070 -16.420  1.00  0.00    -0.287 OA
HETATM   42  C18 UNL     1      -1.191  50.825 -15.774  1.00  0.00     0.287 A 
HETATM   43  O5  UNL     1      -1.307  51.165 -14.603  1.00  0.00    -0.260 OA
HETATM   44  C19 UNL     1      -0.004  51.222 -16.552  1.00  0.00     0.083 A 
HETATM   45  C20 UNL     1       0.144  50.847 -17.827  1.00  0.00     0.015 A 
ENDBRANCH  12  39
TORSDOF 9
ENDMDL
