MODEL 1
REMARK minimizedAffinity -6.0606451
REMARK CNNscore 0.490268737
REMARK CNNaffinity 6.54726553
REMARK  12 active torsions:
REMARK  status: ('A' for Active; 'I' for Inactive)
REMARK    1  A    between atoms: C2_2  and  C3_3 
REMARK    2  A    between atoms: C3_3  and  O2_5 
REMARK    3  A    between atoms: C14_16  and  C15_17 
REMARK    4  A    between atoms: C15_17  and  C17_19 
REMARK    5  A    between atoms: C17_19  and  C18_20 
REMARK    6  A    between atoms: C18_20  and  C19_21 
REMARK    7  A    between atoms: C20_22  and  C22_24 
REMARK    8  A    between atoms: C22_24  and  O4_26 
REMARK    9  A    between atoms: C27_31  and  C28_32 
REMARK   10  A    between atoms: C28_32  and  C29_33 
REMARK   11  A    between atoms: C29_33  and  C30_34 
REMARK   12  A    between atoms: C30_34  and  O5_35 
ROOT
HETATM    1  C1  UNL     1      -1.403  49.353  -8.737  1.00  0.00     0.056 C 
HETATM    2  C2  UNL     1      -0.959  50.381  -9.737  1.00  0.00     0.014 C 
HETATM    3  C4  UNL     1      -1.077  51.725  -9.583  1.00  0.00    -0.062 C 
HETATM    4  C5  UNL     1      -1.717  52.334  -8.364  1.00  0.00     0.036 C 
HETATM    5  C6  UNL     1      -0.747  53.227  -7.596  1.00  0.00     0.010 C 
HETATM    6  C7  UNL     1       0.218  54.079  -8.461  1.00  0.00     0.003 C 
HETATM    7  C8  UNL     1      -0.219  54.181  -9.983  1.00  0.00    -0.032 C 
HETATM    8  C9  UNL     1      -1.430  55.159 -10.044  1.00  0.00     0.016 C 
HETATM    9  C10 UNL     1       0.892  54.851 -10.879  1.00  0.00     0.011 C 
HETATM   10  C11 UNL     1       2.361  54.554 -10.530  1.00  0.00     0.011 C 
HETATM   11  C12 UNL     1       2.638  54.759  -9.033  1.00  0.00    -0.032 C 
HETATM   12  C13 UNL     1       2.369  56.257  -8.678  1.00  0.00     0.016 C 
HETATM   13  C14 UNL     1       4.056  54.381  -8.497  1.00  0.00    -0.002 C 
HETATM   14  C23 UNL     1       3.774  54.122  -6.981  1.00  0.00     0.006 C 
HETATM   15  C24 UNL     1       2.253  53.932  -6.814  1.00  0.00     0.011 C 
HETATM   16  C25 UNL     1       1.730  53.732  -8.248  1.00  0.00    -0.032 C 
HETATM   17  C26 UNL     1       2.018  52.232  -8.584  1.00  0.00     0.016 C 
HETATM   18  C27 UNL     1      -0.580  52.757 -10.603  1.00  0.00     0.024 C 
ENDROOT
BRANCH  13  19
HETATM   19  C15 UNL     1       5.266  55.348  -8.700  1.00  0.00    -0.014 C 
HETATM   20  C16 UNL     1       6.434  54.671  -9.425  1.00  0.00     0.010 C 
BRANCH  19  21
HETATM   21  C17 UNL     1       5.741  55.893  -7.322  1.00  0.00     0.008 C 
BRANCH  21  22
HETATM   22  C18 UNL     1       5.443  57.374  -7.039  1.00  0.00     0.028 C 
BRANCH  22  23
HETATM   23  C19 UNL     1       5.239  57.663  -5.578  1.00  0.00    -0.013 C 
HETATM   24  C20 UNL     1       6.067  58.315  -4.736  1.00  0.00     0.008 C 
HETATM   25  C21 UNL     1       7.398  58.910  -5.081  1.00  0.00     0.055 C 
BRANCH  24  26
HETATM   26  C22 UNL     1       5.598  58.457  -3.332  1.00  0.00     0.171 C 
HETATM   27  O3  UNL     1       4.484  58.783  -2.963  1.00  0.00    -0.646 OA
BRANCH  26  28
HETATM   28  O4  UNL     1       6.564  58.182  -2.439  1.00  0.00    -0.773 OA
HETATM   29  H33 UNL     1       6.118  58.315  -1.577  1.00  0.00     0.167 HD
ENDBRANCH  26  28
ENDBRANCH  24  26
ENDBRANCH  22  23
ENDBRANCH  21  22
ENDBRANCH  19  21
ENDBRANCH  13  19
BRANCH  18  30
HETATM   30  C28 UNL     1      -1.453  52.793 -11.895  1.00  0.00     0.012 C 
BRANCH  30  31
HETATM   31  C29 UNL     1      -2.900  52.289 -11.768  1.00  0.00     0.027 C 
BRANCH  31  32
HETATM   32  C30 UNL     1      -3.905  53.437 -11.803  1.00  0.00     0.164 C 
BRANCH  32  33
HETATM   33  O5  UNL     1      -4.233  53.759 -13.147  1.00  0.00    -0.401 OA
HETATM   34  H48 UNL     1      -4.870  54.492 -13.117  1.00  0.00     0.209 HD
ENDBRANCH  32  33
ENDBRANCH  31  32
ENDBRANCH  30  31
ENDBRANCH  18  30
BRANCH   2  35
HETATM   35  C3  UNL     1      -0.344  49.802 -10.954  1.00  0.00     0.171 C 
HETATM   36  O1  UNL     1      -0.912  49.414 -11.957  1.00  0.00    -0.646 OA
BRANCH  35  37
HETATM   37  O2  UNL     1       0.994  49.753 -10.826  1.00  0.00    -0.773 OA
HETATM   38  H4  UNL     1       1.288  49.309 -11.649  1.00  0.00     0.167 HD
ENDBRANCH  35  37
ENDBRANCH   2  35
TORSDOF 12
ENDMDL
MODEL 2
REMARK minimizedAffinity -6.76327181
REMARK CNNscore 0.42106545
REMARK CNNaffinity 6.01373529
REMARK  12 active torsions:
REMARK  status: ('A' for Active; 'I' for Inactive)
REMARK    1  A    between atoms: C2_2  and  C3_3 
REMARK    2  A    between atoms: C3_3  and  O2_5 
REMARK    3  A    between atoms: C14_16  and  C15_17 
REMARK    4  A    between atoms: C15_17  and  C17_19 
REMARK    5  A    between atoms: C17_19  and  C18_20 
REMARK    6  A    between atoms: C18_20  and  C19_21 
REMARK    7  A    between atoms: C20_22  and  C22_24 
REMARK    8  A    between atoms: C22_24  and  O4_26 
REMARK    9  A    between atoms: C27_31  and  C28_32 
REMARK   10  A    between atoms: C28_32  and  C29_33 
REMARK   11  A    between atoms: C29_33  and  C30_34 
REMARK   12  A    between atoms: C30_34  and  O5_35 
ROOT
HETATM    1  C1  UNL     1      -8.485  43.802 -32.892  1.00  0.00     0.056 C 
HETATM    2  C2  UNL     1      -8.072  44.711 -31.771  1.00  0.00     0.014 C 
HETATM    3  C4  UNL     1      -8.605  45.933 -31.519  1.00  0.00    -0.062 C 
HETATM    4  C5  UNL     1      -9.678  46.531 -32.389  1.00  0.00     0.036 C 
HETATM    5  C6  UNL     1     -10.963  46.794 -31.611  1.00  0.00     0.010 C 
HETATM    6  C7  UNL     1     -10.783  47.307 -30.159  1.00  0.00     0.003 C 
HETATM    7  C8  UNL     1      -9.321  47.843 -29.853  1.00  0.00    -0.032 C 
HETATM    8  C9  UNL     1      -9.190  49.229 -30.554  1.00  0.00     0.016 C 
HETATM    9  C10 UNL     1      -9.102  48.138 -28.321  1.00  0.00     0.011 C 
HETATM   10  C11 UNL     1      -9.793  47.204 -27.311  1.00  0.00     0.011 C 
HETATM   11  C12 UNL     1     -11.280  47.012 -27.647  1.00  0.00    -0.032 C 
HETATM   12  C13 UNL     1     -11.992  48.401 -27.559  1.00  0.00     0.016 C 
HETATM   13  C14 UNL     1     -12.094  45.995 -26.785  1.00  0.00    -0.002 C 
HETATM   14  C23 UNL     1     -13.267  45.617 -27.748  1.00  0.00     0.006 C 
HETATM   15  C24 UNL     1     -12.860  46.047 -29.172  1.00  0.00     0.011 C 
HETATM   16  C25 UNL     1     -11.351  46.334 -29.072  1.00  0.00    -0.032 C 
HETATM   17  C26 UNL     1     -10.662  44.933 -29.151  1.00  0.00     0.016 C 
HETATM   18  C27 UNL     1      -8.193  46.828 -30.342  1.00  0.00     0.024 C 
ENDROOT
BRANCH  13  19
HETATM   19  C15 UNL     1     -12.619  46.394 -25.369  1.00  0.00    -0.014 C 
HETATM   20  C16 UNL     1     -12.459  45.260 -24.351  1.00  0.00     0.010 C 
BRANCH  19  21
HETATM   21  C17 UNL     1     -14.114  46.818 -25.462  1.00  0.00     0.008 C 
BRANCH  21  22
HETATM   22  C18 UNL     1     -14.955  46.623 -24.191  1.00  0.00     0.028 C 
BRANCH  22  23
HETATM   23  C19 UNL     1     -16.434  46.683 -24.452  1.00  0.00    -0.013 C 
HETATM   24  C20 UNL     1     -17.441  46.487 -23.576  1.00  0.00     0.008 C 
HETATM   25  C21 UNL     1     -17.304  46.161 -22.120  1.00  0.00     0.055 C 
BRANCH  24  26
HETATM   26  C22 UNL     1     -18.819  46.617 -24.120  1.00  0.00     0.171 C 
HETATM   27  O3  UNL     1     -19.236  47.495 -24.855  1.00  0.00    -0.646 OA
BRANCH  26  28
HETATM   28  O4  UNL     1     -19.627  45.624 -23.710  1.00  0.00    -0.773 OA
HETATM   29  H33 UNL     1     -20.482  45.838 -24.138  1.00  0.00     0.167 HD
ENDBRANCH  26  28
ENDBRANCH  24  26
ENDBRANCH  22  23
ENDBRANCH  21  22
ENDBRANCH  19  21
ENDBRANCH  13  19
BRANCH  18  30
HETATM   30  C28 UNL     1      -6.772  47.446 -30.526  1.00  0.00     0.012 C 
BRANCH  30  31
HETATM   31  C29 UNL     1      -6.407  47.934 -31.936  1.00  0.00     0.027 C 
BRANCH  31  32
HETATM   32  C30 UNL     1      -5.052  47.397 -32.389  1.00  0.00     0.164 C 
BRANCH  32  33
HETATM   33  O5  UNL     1      -4.331  46.888 -31.277  1.00  0.00    -0.401 OA
HETATM   34  H48 UNL     1      -3.480  46.562 -31.615  1.00  0.00     0.209 HD
ENDBRANCH  32  33
ENDBRANCH  31  32
ENDBRANCH  30  31
ENDBRANCH  18  30
BRANCH   2  35
HETATM   35  C3  UNL     1      -7.002  44.150 -30.912  1.00  0.00     0.171 C 
HETATM   36  O1  UNL     1      -7.118  43.690 -29.793  1.00  0.00    -0.646 OA
BRANCH  35  37
HETATM   37  O2  UNL     1      -5.818  44.200 -31.545  1.00  0.00    -0.773 OA
HETATM   38  H4  UNL     1      -5.184  43.863 -30.877  1.00  0.00     0.167 HD
ENDBRANCH  35  37
ENDBRANCH   2  35
TORSDOF 12
ENDMDL
MODEL 3
REMARK minimizedAffinity -6.50891781
REMARK CNNscore 0.2886298
REMARK CNNaffinity 5.4236474
REMARK  12 active torsions:
REMARK  status: ('A' for Active; 'I' for Inactive)
REMARK    1  A    between atoms: C2_2  and  C3_3 
REMARK    2  A    between atoms: C3_3  and  O2_5 
REMARK    3  A    between atoms: C14_16  and  C15_17 
REMARK    4  A    between atoms: C15_17  and  C17_19 
REMARK    5  A    between atoms: C17_19  and  C18_20 
REMARK    6  A    between atoms: C18_20  and  C19_21 
REMARK    7  A    between atoms: C20_22  and  C22_24 
REMARK    8  A    between atoms: C22_24  and  O4_26 
REMARK    9  A    between atoms: C27_31  and  C28_32 
REMARK   10  A    between atoms: C28_32  and  C29_33 
REMARK   11  A    between atoms: C29_33  and  C30_34 
REMARK   12  A    between atoms: C30_34  and  O5_35 
ROOT
HETATM    1  C1  UNL     1      -8.612  43.085 -30.470  1.00  0.00     0.056 C 
HETATM    2  C2  UNL     1      -8.852  44.498 -30.021  1.00  0.00     0.014 C 
HETATM    3  C4  UNL     1     -10.053  45.129 -30.035  1.00  0.00    -0.062 C 
HETATM    4  C5  UNL     1     -11.299  44.460 -30.550  1.00  0.00     0.036 C 
HETATM    5  C6  UNL     1     -12.373  44.347 -29.472  1.00  0.00     0.010 C 
HETATM    6  C7  UNL     1     -12.496  45.556 -28.509  1.00  0.00     0.003 C 
HETATM    7  C8  UNL     1     -11.765  46.863 -29.035  1.00  0.00    -0.032 C 
HETATM    8  C9  UNL     1     -12.648  47.449 -30.177  1.00  0.00     0.016 C 
HETATM    9  C10 UNL     1     -11.706  47.996 -27.942  1.00  0.00     0.011 C 
HETATM   10  C11 UNL     1     -11.520  47.561 -26.477  1.00  0.00     0.011 C 
HETATM   11  C12 UNL     1     -12.504  46.447 -26.089  1.00  0.00    -0.032 C 
HETATM   12  C13 UNL     1     -13.960  46.999 -26.230  1.00  0.00     0.016 C 
HETATM   13  C14 UNL     1     -12.361  45.811 -24.669  1.00  0.00    -0.002 C 
HETATM   14  C23 UNL     1     -13.029  44.412 -24.869  1.00  0.00     0.006 C 
HETATM   15  C24 UNL     1     -13.110  44.144 -26.386  1.00  0.00     0.011 C 
HETATM   16  C25 UNL     1     -12.188  45.206 -27.014  1.00  0.00    -0.032 C 
HETATM   17  C26 UNL     1     -10.740  44.637 -26.853  1.00  0.00     0.016 C 
HETATM   18  C27 UNL     1     -10.281  46.562 -29.535  1.00  0.00     0.024 C 
ENDROOT
BRANCH  13  19
HETATM   19  C15 UNL     1     -12.928  46.543 -23.410  1.00  0.00    -0.014 C 
HETATM   20  C16 UNL     1     -11.941  46.528 -22.239  1.00  0.00     0.010 C 
BRANCH  19  21
HETATM   21  C17 UNL     1     -14.273  45.888 -22.982  1.00  0.00     0.008 C 
BRANCH  21  22
HETATM   22  C18 UNL     1     -15.441  46.850 -22.715  1.00  0.00     0.028 C 
BRANCH  22  23
HETATM   23  C19 UNL     1     -16.518  46.768 -23.761  1.00  0.00    -0.013 C 
HETATM   24  C20 UNL     1     -17.837  46.550 -23.580  1.00  0.00     0.008 C 
HETATM   25  C21 UNL     1     -18.533  46.338 -22.270  1.00  0.00     0.055 C 
BRANCH  24  26
HETATM   26  C22 UNL     1     -18.673  46.525 -24.810  1.00  0.00     0.171 C 
HETATM   27  O3  UNL     1     -19.829  46.893 -24.916  1.00  0.00    -0.646 OA
BRANCH  26  28
HETATM   28  O4  UNL     1     -18.011  46.028 -25.869  1.00  0.00    -0.773 OA
HETATM   29  H33 UNL     1     -18.673  46.072 -26.590  1.00  0.00     0.167 HD
ENDBRANCH  26  28
ENDBRANCH  24  26
ENDBRANCH  22  23
ENDBRANCH  21  22
ENDBRANCH  19  21
ENDBRANCH  13  19
BRANCH  18  30
HETATM   30  C28 UNL     1      -9.665  47.635 -30.486  1.00  0.00     0.012 C 
BRANCH  30  31
HETATM   31  C29 UNL     1      -9.051  48.877 -29.822  1.00  0.00     0.027 C 
BRANCH  31  32
HETATM   32  C30 UNL     1      -8.343  49.771 -30.836  1.00  0.00     0.164 C 
BRANCH  32  33
HETATM   33  O5  UNL     1      -8.791  51.112 -30.704  1.00  0.00    -0.401 OA
HETATM   34  H48 UNL     1      -8.316  51.638 -31.369  1.00  0.00     0.209 HD
ENDBRANCH  32  33
ENDBRANCH  31  32
ENDBRANCH  30  31
ENDBRANCH  18  30
BRANCH   2  35
HETATM   35  C3  UNL     1      -7.633  45.182 -29.528  1.00  0.00     0.171 C 
HETATM   36  O1  UNL     1      -7.258  46.307 -29.794  1.00  0.00    -0.646 OA
BRANCH  35  37
HETATM   37  O2  UNL     1      -6.946  44.378 -28.698  1.00  0.00    -0.773 OA
HETATM   38  H4  UNL     1      -6.146  44.899 -28.481  1.00  0.00     0.167 HD
ENDBRANCH  35  37
ENDBRANCH   2  35
TORSDOF 12
ENDMDL
MODEL 4
REMARK minimizedAffinity -7.97995329
REMARK CNNscore 0.234457761
REMARK CNNaffinity 6.52164507
REMARK  12 active torsions:
REMARK  status: ('A' for Active; 'I' for Inactive)
REMARK    1  A    between atoms: C2_2  and  C3_3 
REMARK    2  A    between atoms: C3_3  and  O2_5 
REMARK    3  A    between atoms: C14_16  and  C15_17 
REMARK    4  A    between atoms: C15_17  and  C17_19 
REMARK    5  A    between atoms: C17_19  and  C18_20 
REMARK    6  A    between atoms: C18_20  and  C19_21 
REMARK    7  A    between atoms: C20_22  and  C22_24 
REMARK    8  A    between atoms: C22_24  and  O4_26 
REMARK    9  A    between atoms: C27_31  and  C28_32 
REMARK   10  A    between atoms: C28_32  and  C29_33 
REMARK   11  A    between atoms: C29_33  and  C30_34 
REMARK   12  A    between atoms: C30_34  and  O5_35 
ROOT
HETATM    1  C1  UNL     1      -5.586  48.307 -24.515  1.00  0.00     0.056 C 
HETATM    2  C2  UNL     1      -5.714  48.833 -23.115  1.00  0.00     0.014 C 
HETATM    3  C4  UNL     1      -5.022  48.375 -22.041  1.00  0.00    -0.062 C 
HETATM    4  C5  UNL     1      -4.048  47.232 -22.148  1.00  0.00     0.036 C 
HETATM    5  C6  UNL     1      -2.633  47.650 -21.761  1.00  0.00     0.010 C 
HETATM    6  C7  UNL     1      -2.521  48.642 -20.575  1.00  0.00     0.003 C 
HETATM    7  C8  UNL     1      -3.849  48.754 -19.714  1.00  0.00    -0.032 C 
HETATM    8  C9  UNL     1      -3.947  47.456 -18.858  1.00  0.00     0.016 C 
HETATM    9  C10 UNL     1      -3.785  49.930 -18.667  1.00  0.00     0.011 C 
HETATM   10  C11 UNL     1      -3.040  51.212 -19.083  1.00  0.00     0.011 C 
HETATM   11  C12 UNL     1      -1.656  50.895 -19.669  1.00  0.00    -0.032 C 
HETATM   12  C13 UNL     1      -0.798  50.196 -18.566  1.00  0.00     0.016 C 
HETATM   13  C14 UNL     1      -0.823  52.083 -20.250  1.00  0.00    -0.002 C 
HETATM   14  C23 UNL     1       0.131  51.353 -21.250  1.00  0.00     0.006 C 
HETATM   15  C24 UNL     1      -0.454  49.952 -21.518  1.00  0.00     0.011 C 
HETATM   16  C25 UNL     1      -1.889  50.021 -20.964  1.00  0.00    -0.032 C 
HETATM   17  C26 UNL     1      -2.724  50.732 -22.077  1.00  0.00     0.016 C 
HETATM   18  C27 UNL     1      -5.142  48.956 -20.626  1.00  0.00     0.024 C 
ENDROOT
BRANCH  13  19
HETATM   19  C15 UNL     1      -0.036  53.042 -19.300  1.00  0.00    -0.014 C 
HETATM   20  C16 UNL     1       0.938  53.943 -20.064  1.00  0.00     0.010 C 
BRANCH  19  21
HETATM   21  C17 UNL     1       0.733  52.211 -18.233  1.00  0.00     0.008 C 
BRANCH  21  22
HETATM   22  C18 UNL     1       1.755  52.979 -17.381  1.00  0.00     0.028 C 
BRANCH  22  23
HETATM   23  C19 UNL     1       1.966  52.368 -16.024  1.00  0.00    -0.013 C 
HETATM   24  C20 UNL     1       3.134  52.081 -15.414  1.00  0.00     0.008 C 
HETATM   25  C21 UNL     1       4.507  52.313 -15.967  1.00  0.00     0.055 C 
BRANCH  24  26
HETATM   26  C22 UNL     1       3.036  51.479 -14.058  1.00  0.00     0.171 C 
HETATM   27  O3  UNL     1       3.315  50.336 -13.742  1.00  0.00    -0.646 OA
BRANCH  26  28
HETATM   28  O4  UNL     1       2.582  52.352 -13.142  1.00  0.00    -0.773 OA
HETATM   29  H33 UNL     1       2.570  51.827 -12.315  1.00  0.00     0.167 HD
ENDBRANCH  26  28
ENDBRANCH  24  26
ENDBRANCH  22  23
ENDBRANCH  21  22
ENDBRANCH  19  21
ENDBRANCH  13  19
BRANCH  18  30
HETATM   30  C28 UNL     1      -6.501  48.605 -19.945  1.00  0.00     0.012 C 
BRANCH  30  31
HETATM   31  C29 UNL     1      -6.565  47.279 -19.171  1.00  0.00     0.027 C 
BRANCH  31  32
HETATM   32  C30 UNL     1      -7.780  47.219 -18.249  1.00  0.00     0.164 C 
BRANCH  32  33
HETATM   33  O5  UNL     1      -7.492  47.863 -17.017  1.00  0.00    -0.401 OA
HETATM   34  H48 UNL     1      -8.290  47.796 -16.467  1.00  0.00     0.209 HD
ENDBRANCH  32  33
ENDBRANCH  31  32
ENDBRANCH  30  31
ENDBRANCH  18  30
BRANCH   2  35
HETATM   35  C3  UNL     1      -6.683  49.947 -22.983  1.00  0.00     0.171 C 
HETATM   36  O1  UNL     1      -7.871  49.868 -22.741  1.00  0.00    -0.646 OA
BRANCH  35  37
HETATM   37  O2  UNL     1      -6.067  51.128 -23.165  1.00  0.00    -0.773 OA
HETATM   38  H4  UNL     1      -6.797  51.780 -23.113  1.00  0.00     0.167 HD
ENDBRANCH  35  37
ENDBRANCH   2  35
TORSDOF 12
ENDMDL
MODEL 5
REMARK minimizedAffinity -7.85070944
REMARK CNNscore 0.229733244
REMARK CNNaffinity 6.14226723
REMARK  12 active torsions:
REMARK  status: ('A' for Active; 'I' for Inactive)
REMARK    1  A    between atoms: C2_2  and  C3_3 
REMARK    2  A    between atoms: C3_3  and  O2_5 
REMARK    3  A    between atoms: C14_16  and  C15_17 
REMARK    4  A    between atoms: C15_17  and  C17_19 
REMARK    5  A    between atoms: C17_19  and  C18_20 
REMARK    6  A    between atoms: C18_20  and  C19_21 
REMARK    7  A    between atoms: C20_22  and  C22_24 
REMARK    8  A    between atoms: C22_24  and  O4_26 
REMARK    9  A    between atoms: C27_31  and  C28_32 
REMARK   10  A    between atoms: C28_32  and  C29_33 
REMARK   11  A    between atoms: C29_33  and  C30_34 
REMARK   12  A    between atoms: C30_34  and  O5_35 
ROOT
HETATM    1  C1  UNL     1      -0.150  49.100 -17.459  1.00  0.00     0.056 C 
HETATM    2  C2  UNL     1      -0.962  49.968 -18.376  1.00  0.00     0.014 C 
HETATM    3  C4  UNL     1      -1.065  49.804 -19.720  1.00  0.00    -0.062 C 
HETATM    4  C5  UNL     1      -0.322  48.718 -20.450  1.00  0.00     0.036 C 
HETATM    5  C6  UNL     1      -1.270  47.753 -21.156  1.00  0.00     0.010 C 
HETATM    6  C7  UNL     1      -2.525  48.391 -21.805  1.00  0.00     0.003 C 
HETATM    7  C8  UNL     1      -2.422  49.966 -21.970  1.00  0.00    -0.032 C 
HETATM    8  C9  UNL     1      -1.447  50.237 -23.155  1.00  0.00     0.016 C 
HETATM    9  C10 UNL     1      -3.791  50.611 -22.413  1.00  0.00     0.011 C 
HETATM   10  C11 UNL     1      -5.083  49.990 -21.853  1.00  0.00     0.011 C 
HETATM   11  C12 UNL     1      -5.094  48.463 -22.019  1.00  0.00    -0.032 C 
HETATM   12  C13 UNL     1      -5.041  48.129 -23.544  1.00  0.00     0.016 C 
HETATM   13  C14 UNL     1      -6.285  47.672 -21.390  1.00  0.00    -0.002 C 
HETATM   14  C23 UNL     1      -5.669  46.247 -21.205  1.00  0.00     0.006 C 
HETATM   15  C24 UNL     1      -4.136  46.384 -21.301  1.00  0.00     0.011 C 
HETATM   16  C25 UNL     1      -3.876  47.897 -21.186  1.00  0.00    -0.032 C 
HETATM   17  C26 UNL     1      -3.944  48.209 -19.656  1.00  0.00     0.016 C 
HETATM   18  C27 UNL     1      -1.934  50.681 -20.632  1.00  0.00     0.024 C 
ENDROOT
BRANCH  13  19
HETATM   19  C15 UNL     1      -7.668  47.610 -22.114  1.00  0.00    -0.014 C 
HETATM   20  C16 UNL     1      -8.835  47.875 -21.158  1.00  0.00     0.010 C 
BRANCH  19  21
HETATM   21  C17 UNL     1      -7.844  46.222 -22.796  1.00  0.00     0.008 C 
BRANCH  21  22
HETATM   22  C18 UNL     1      -8.035  46.234 -24.320  1.00  0.00     0.028 C 
BRANCH  22  23
HETATM   23  C19 UNL     1      -8.997  47.293 -24.783  1.00  0.00    -0.013 C 
HETATM   24  C20 UNL     1      -9.107  47.835 -26.013  1.00  0.00     0.008 C 
HETATM   25  C21 UNL     1      -8.279  47.493 -27.214  1.00  0.00     0.055 C 
BRANCH  24  26
HETATM   26  C22 UNL     1     -10.163  48.869 -26.182  1.00  0.00     0.171 C 
HETATM   27  O3  UNL     1     -11.340  48.678 -26.430  1.00  0.00    -0.646 OA
BRANCH  26  28
HETATM   28  O4  UNL     1      -9.686  50.117 -26.034  1.00  0.00    -0.773 OA
HETATM   29  H33 UNL     1     -10.477  50.678 -26.169  1.00  0.00     0.167 HD
ENDBRANCH  26  28
ENDBRANCH  24  26
ENDBRANCH  22  23
ENDBRANCH  21  22
ENDBRANCH  19  21
ENDBRANCH  13  19
BRANCH  18  30
HETATM   30  C28 UNL     1      -1.353  52.117 -20.815  1.00  0.00     0.012 C 
BRANCH  30  31
HETATM   31  C29 UNL     1       0.170  52.271 -20.680  1.00  0.00     0.027 C 
BRANCH  31  32
HETATM   32  C30 UNL     1       0.547  53.209 -19.537  1.00  0.00     0.164 C 
BRANCH  32  33
HETATM   33  O5  UNL     1       1.425  54.223 -20.004  1.00  0.00    -0.401 OA
HETATM   34  H48 UNL     1       1.636  54.789 -19.244  1.00  0.00     0.209 HD
ENDBRANCH  32  33
ENDBRANCH  31  32
ENDBRANCH  30  31
ENDBRANCH  18  30
BRANCH   2  35
HETATM   35  C3  UNL     1      -1.688  51.057 -17.680  1.00  0.00     0.171 C 
HETATM   36  O1  UNL     1      -2.773  51.522 -17.966  1.00  0.00    -0.646 OA
BRANCH  35  37
HETATM   37  O2  UNL     1      -0.976  51.497 -16.628  1.00  0.00    -0.773 OA
HETATM   38  H4  UNL     1      -1.512  52.240 -16.281  1.00  0.00     0.167 HD
ENDBRANCH  35  37
ENDBRANCH   2  35
TORSDOF 12
ENDMDL
MODEL 6
REMARK minimizedAffinity -6.18577671
REMARK CNNscore 0.229014724
REMARK CNNaffinity 6.23303843
REMARK  12 active torsions:
REMARK  status: ('A' for Active; 'I' for Inactive)
REMARK    1  A    between atoms: C2_2  and  C3_3 
REMARK    2  A    between atoms: C3_3  and  O2_5 
REMARK    3  A    between atoms: C14_16  and  C15_17 
REMARK    4  A    between atoms: C15_17  and  C17_19 
REMARK    5  A    between atoms: C17_19  and  C18_20 
REMARK    6  A    between atoms: C18_20  and  C19_21 
REMARK    7  A    between atoms: C20_22  and  C22_24 
REMARK    8  A    between atoms: C22_24  and  O4_26 
REMARK    9  A    between atoms: C27_31  and  C28_32 
REMARK   10  A    between atoms: C28_32  and  C29_33 
REMARK   11  A    between atoms: C29_33  and  C30_34 
REMARK   12  A    between atoms: C30_34  and  O5_35 
ROOT
HETATM    1  C1  UNL     1      -3.323  47.308 -10.040  1.00  0.00     0.056 C 
HETATM    2  C2  UNL     1      -2.546  48.155 -11.005  1.00  0.00     0.014 C 
HETATM    3  C4  UNL     1      -2.889  49.409 -11.397  1.00  0.00    -0.062 C 
HETATM    4  C5  UNL     1      -4.144  50.081 -10.909  1.00  0.00     0.036 C 
HETATM    5  C6  UNL     1      -3.843  51.364 -10.140  1.00  0.00     0.010 C 
HETATM    6  C7  UNL     1      -2.679  52.226 -10.693  1.00  0.00     0.003 C 
HETATM    7  C8  UNL     1      -2.253  51.843 -12.173  1.00  0.00    -0.032 C 
HETATM    8  C9  UNL     1      -3.357  52.398 -13.122  1.00  0.00     0.016 C 
HETATM    9  C10 UNL     1      -0.928  52.570 -12.620  1.00  0.00     0.011 C 
HETATM   10  C11 UNL     1       0.158  52.787 -11.551  1.00  0.00     0.011 C 
HETATM   11  C12 UNL     1      -0.425  53.406 -10.271  1.00  0.00    -0.032 C 
HETATM   12  C13 UNL     1      -1.020  54.808 -10.623  1.00  0.00     0.016 C 
HETATM   13  C14 UNL     1       0.529  53.578  -9.046  1.00  0.00    -0.002 C 
HETATM   14  C23 UNL     1      -0.478  53.612  -7.851  1.00  0.00     0.006 C 
HETATM   15  C24 UNL     1      -1.822  53.046  -8.354  1.00  0.00     0.011 C 
HETATM   16  C25 UNL     1      -1.479  52.378  -9.698  1.00  0.00    -0.032 C 
HETATM   17  C26 UNL     1      -0.878  50.985  -9.321  1.00  0.00     0.016 C 
HETATM   18  C27 UNL     1      -2.057  50.272 -12.355  1.00  0.00     0.024 C 
ENDROOT
BRANCH  13  19
HETATM   19  C15 UNL     1       1.536  54.770  -8.984  1.00  0.00    -0.014 C 
HETATM   20  C16 UNL     1       0.958  55.978  -8.240  1.00  0.00     0.010 C 
BRANCH  19  21
HETATM   21  C17 UNL     1       1.952  55.183 -10.426  1.00  0.00     0.008 C 
BRANCH  21  22
HETATM   22  C18 UNL     1       3.229  56.029 -10.547  1.00  0.00     0.028 C 
BRANCH  22  23
HETATM   23  C19 UNL     1       4.449  55.331 -10.013  1.00  0.00    -0.013 C 
HETATM   24  C20 UNL     1       5.090  55.552  -8.848  1.00  0.00     0.008 C 
HETATM   25  C21 UNL     1       4.718  56.563  -7.806  1.00  0.00     0.055 C 
BRANCH  24  26
HETATM   26  C22 UNL     1       6.277  54.699  -8.578  1.00  0.00     0.171 C 
HETATM   27  O3  UNL     1       6.422  53.917  -7.655  1.00  0.00    -0.646 OA
BRANCH  26  28
HETATM   28  O4  UNL     1       7.247  54.868  -9.493  1.00  0.00    -0.773 OA
HETATM   29  H33 UNL     1       7.950  54.255  -9.193  1.00  0.00     0.167 HD
ENDBRANCH  26  28
ENDBRANCH  24  26
ENDBRANCH  22  23
ENDBRANCH  21  22
ENDBRANCH  19  21
ENDBRANCH  13  19
BRANCH  18  30
HETATM   30  C28 UNL     1      -2.112  49.757 -13.827  1.00  0.00     0.012 C 
BRANCH  30  31
HETATM   31  C29 UNL     1      -0.776  49.676 -14.582  1.00  0.00     0.027 C 
BRANCH  31  32
HETATM   32  C30 UNL     1      -0.605  48.335 -15.290  1.00  0.00     0.164 C 
BRANCH  32  33
HETATM   33  O5  UNL     1       0.413  48.428 -16.275  1.00  0.00    -0.401 OA
HETATM   34  H48 UNL     1       0.482  47.555 -16.697  1.00  0.00     0.209 HD
ENDBRANCH  32  33
ENDBRANCH  31  32
ENDBRANCH  30  31
ENDBRANCH  18  30
BRANCH   2  35
HETATM   35  C3  UNL     1      -1.315  47.505 -11.513  1.00  0.00     0.171 C 
HETATM   36  O1  UNL     1      -1.217  46.742 -12.454  1.00  0.00    -0.646 OA
BRANCH  35  37
HETATM   37  O2  UNL     1      -0.251  47.877 -10.781  1.00  0.00    -0.773 OA
HETATM   38  H4  UNL     1       0.485  47.353 -11.161  1.00  0.00     0.167 HD
ENDBRANCH  35  37
ENDBRANCH   2  35
TORSDOF 12
ENDMDL
MODEL 7
REMARK minimizedAffinity -6.15882587
REMARK CNNscore 0.192300677
REMARK CNNaffinity 5.10480452
REMARK  12 active torsions:
REMARK  status: ('A' for Active; 'I' for Inactive)
REMARK    1  A    between atoms: C2_2  and  C3_3 
REMARK    2  A    between atoms: C3_3  and  O2_5 
REMARK    3  A    between atoms: C14_16  and  C15_17 
REMARK    4  A    between atoms: C15_17  and  C17_19 
REMARK    5  A    between atoms: C17_19  and  C18_20 
REMARK    6  A    between atoms: C18_20  and  C19_21 
REMARK    7  A    between atoms: C20_22  and  C22_24 
REMARK    8  A    between atoms: C22_24  and  O4_26 
REMARK    9  A    between atoms: C27_31  and  C28_32 
REMARK   10  A    between atoms: C28_32  and  C29_33 
REMARK   11  A    between atoms: C29_33  and  C30_34 
REMARK   12  A    between atoms: C30_34  and  O5_35 
ROOT
HETATM    1  C1  UNL     1      -8.201  43.980 -25.200  1.00  0.00     0.056 C 
HETATM    2  C2  UNL     1      -9.059  45.175 -25.500  1.00  0.00     0.014 C 
HETATM    3  C4  UNL     1      -9.818  45.334 -26.614  1.00  0.00    -0.062 C 
HETATM    4  C5  UNL     1      -9.847  44.304 -27.712  1.00  0.00     0.036 C 
HETATM    5  C6  UNL     1     -11.246  43.734 -27.922  1.00  0.00     0.010 C 
HETATM    6  C7  UNL     1     -12.416  44.742 -27.787  1.00  0.00     0.003 C 
HETATM    7  C8  UNL     1     -11.954  46.260 -27.843  1.00  0.00    -0.032 C 
HETATM    8  C9  UNL     1     -11.611  46.576 -29.330  1.00  0.00     0.016 C 
HETATM    9  C10 UNL     1     -13.121  47.253 -27.474  1.00  0.00     0.011 C 
HETATM   10  C11 UNL     1     -14.121  46.804 -26.393  1.00  0.00     0.011 C 
HETATM   11  C12 UNL     1     -14.645  45.386 -26.663  1.00  0.00    -0.032 C 
HETATM   12  C13 UNL     1     -15.406  45.390 -28.028  1.00  0.00     0.016 C 
HETATM   13  C14 UNL     1     -15.578  44.739 -25.590  1.00  0.00    -0.002 C 
HETATM   14  C23 UNL     1     -15.385  43.212 -25.867  1.00  0.00     0.006 C 
HETATM   15  C24 UNL     1     -14.106  43.048 -26.715  1.00  0.00     0.011 C 
HETATM   16  C25 UNL     1     -13.401  44.414 -26.615  1.00  0.00    -0.032 C 
HETATM   17  C26 UNL     1     -12.656  44.390 -25.241  1.00  0.00     0.016 C 
HETATM   18  C27 UNL     1     -10.717  46.548 -26.880  1.00  0.00     0.024 C 
ENDROOT
BRANCH  13  19
HETATM   19  C15 UNL     1     -17.090  45.122 -25.516  1.00  0.00    -0.014 C 
HETATM   20  C16 UNL     1     -17.802  44.936 -26.859  1.00  0.00     0.010 C 
BRANCH  19  21
HETATM   21  C17 UNL     1     -17.237  46.596 -25.036  1.00  0.00     0.008 C 
BRANCH  21  22
HETATM   22  C18 UNL     1     -18.610  46.993 -24.473  1.00  0.00     0.028 C 
BRANCH  22  23
HETATM   23  C19 UNL     1     -19.227  45.920 -23.620  1.00  0.00    -0.013 C 
HETATM   24  C20 UNL     1     -18.978  45.642 -22.324  1.00  0.00     0.008 C 
HETATM   25  C21 UNL     1     -18.013  46.360 -21.430  1.00  0.00     0.055 C 
BRANCH  24  26
HETATM   26  C22 UNL     1     -19.749  44.516 -21.734  1.00  0.00     0.171 C 
HETATM   27  O3  UNL     1     -20.030  44.358 -20.559  1.00  0.00    -0.646 OA
BRANCH  26  28
HETATM   28  O4  UNL     1     -20.137  43.621 -22.659  1.00  0.00    -0.773 OA
HETATM   29  H33 UNL     1     -20.623  42.951 -22.135  1.00  0.00     0.167 HD
ENDBRANCH  26  28
ENDBRANCH  24  26
ENDBRANCH  22  23
ENDBRANCH  21  22
ENDBRANCH  19  21
ENDBRANCH  13  19
BRANCH  18  30
HETATM   30  C28 UNL     1      -9.903  47.839 -27.206  1.00  0.00     0.012 C 
BRANCH  30  31
HETATM   31  C29 UNL     1      -8.496  47.641 -27.790  1.00  0.00     0.027 C 
BRANCH  31  32
HETATM   32  C30 UNL     1      -8.328  48.365 -29.123  1.00  0.00     0.164 C 
BRANCH  32  33
HETATM   33  O5  UNL     1      -6.981  48.785 -29.286  1.00  0.00    -0.401 OA
HETATM   34  H48 UNL     1      -6.927  49.239 -30.143  1.00  0.00     0.209 HD
ENDBRANCH  32  33
ENDBRANCH  31  32
ENDBRANCH  30  31
ENDBRANCH  18  30
BRANCH   2  35
HETATM   35  C3  UNL     1      -9.030  46.210 -24.440  1.00  0.00     0.171 C 
HETATM   36  O1  UNL     1      -8.198  47.083 -24.282  1.00  0.00    -0.646 OA
BRANCH  35  37
HETATM   37  O2  UNL     1     -10.091  46.078 -23.625  1.00  0.00    -0.773 OA
HETATM   38  H4  UNL     1      -9.944  46.764 -22.941  1.00  0.00     0.167 HD
ENDBRANCH  35  37
ENDBRANCH   2  35
TORSDOF 12
ENDMDL
MODEL 8
REMARK minimizedAffinity -6.1961441
REMARK CNNscore 0.188033342
REMARK CNNaffinity 6.18439627
REMARK  12 active torsions:
REMARK  status: ('A' for Active; 'I' for Inactive)
REMARK    1  A    between atoms: C2_2  and  C3_3 
REMARK    2  A    between atoms: C3_3  and  O2_5 
REMARK    3  A    between atoms: C14_16  and  C15_17 
REMARK    4  A    between atoms: C15_17  and  C17_19 
REMARK    5  A    between atoms: C17_19  and  C18_20 
REMARK    6  A    between atoms: C18_20  and  C19_21 
REMARK    7  A    between atoms: C20_22  and  C22_24 
REMARK    8  A    between atoms: C22_24  and  O4_26 
REMARK    9  A    between atoms: C27_31  and  C28_32 
REMARK   10  A    between atoms: C28_32  and  C29_33 
REMARK   11  A    between atoms: C29_33  and  C30_34 
REMARK   12  A    between atoms: C30_34  and  O5_35 
ROOT
HETATM    1  C1  UNL     1      -6.749  42.888 -21.189  1.00  0.00     0.056 C 
HETATM    2  C2  UNL     1      -7.192  44.243 -20.719  1.00  0.00     0.014 C 
HETATM    3  C4  UNL     1      -6.490  45.050 -19.883  1.00  0.00    -0.062 C 
HETATM    4  C5  UNL     1      -5.165  44.634 -19.301  1.00  0.00     0.036 C 
HETATM    5  C6  UNL     1      -4.039  45.575 -19.716  1.00  0.00     0.010 C 
HETATM    6  C7  UNL     1      -4.405  47.080 -19.786  1.00  0.00     0.003 C 
HETATM    7  C8  UNL     1      -5.762  47.437 -19.045  1.00  0.00    -0.032 C 
HETATM    8  C9  UNL     1      -5.471  47.392 -17.516  1.00  0.00     0.016 C 
HETATM    9  C10 UNL     1      -6.225  48.917 -19.329  1.00  0.00     0.011 C 
HETATM   10  C11 UNL     1      -5.953  49.490 -20.732  1.00  0.00     0.011 C 
HETATM   11  C12 UNL     1      -4.497  49.257 -21.164  1.00  0.00    -0.032 C 
HETATM   12  C13 UNL     1      -3.557  50.005 -20.165  1.00  0.00     0.016 C 
HETATM   13  C14 UNL     1      -4.094  49.674 -22.615  1.00  0.00    -0.002 C 
HETATM   14  C23 UNL     1      -2.849  48.767 -22.880  1.00  0.00     0.006 C 
HETATM   15  C24 UNL     1      -2.864  47.633 -21.835  1.00  0.00     0.011 C 
HETATM   16  C25 UNL     1      -4.275  47.694 -21.221  1.00  0.00    -0.032 C 
HETATM   17  C26 UNL     1      -5.198  46.950 -22.240  1.00  0.00     0.016 C 
HETATM   18  C27 UNL     1      -6.946  46.448 -19.448  1.00  0.00     0.024 C 
ENDROOT
BRANCH  13  19
HETATM   19  C15 UNL     1      -3.799  51.169 -22.959  1.00  0.00    -0.014 C 
HETATM   20  C16 UNL     1      -5.046  51.906 -23.458  1.00  0.00     0.010 C 
BRANCH  19  21
HETATM   21  C17 UNL     1      -2.671  51.251 -24.027  1.00  0.00     0.008 C 
BRANCH  21  22
HETATM   22  C18 UNL     1      -3.113  51.125 -25.493  1.00  0.00     0.028 C 
BRANCH  22  23
HETATM   23  C19 UNL     1      -2.532  52.195 -26.375  1.00  0.00    -0.013 C 
HETATM   24  C20 UNL     1      -1.242  52.371 -26.728  1.00  0.00     0.008 C 
HETATM   25  C21 UNL     1      -0.081  51.521 -26.310  1.00  0.00     0.055 C 
BRANCH  24  26
HETATM   26  C22 UNL     1      -0.958  53.523 -27.624  1.00  0.00     0.171 C 
HETATM   27  O3  UNL     1       0.120  54.060 -27.806  1.00  0.00    -0.646 OA
BRANCH  26  28
HETATM   28  O4  UNL     1      -2.059  53.961 -28.260  1.00  0.00    -0.773 OA
HETATM   29  H33 UNL     1      -1.725  54.705 -28.802  1.00  0.00     0.167 HD
ENDBRANCH  26  28
ENDBRANCH  24  26
ENDBRANCH  22  23
ENDBRANCH  21  22
ENDBRANCH  19  21
ENDBRANCH  13  19
BRANCH  18  30
HETATM   30  C28 UNL     1      -8.148  46.406 -18.454  1.00  0.00     0.012 C 
BRANCH  30  31
HETATM   31  C29 UNL     1      -8.655  47.756 -17.923  1.00  0.00     0.027 C 
BRANCH  31  32
HETATM   32  C30 UNL     1     -10.158  47.732 -17.657  1.00  0.00     0.164 C 
BRANCH  32  33
HETATM   33  O5  UNL     1     -10.414  47.940 -16.276  1.00  0.00    -0.401 OA
HETATM   34  H48 UNL     1     -11.378  47.914 -16.158  1.00  0.00     0.209 HD
ENDBRANCH  32  33
ENDBRANCH  31  32
ENDBRANCH  30  31
ENDBRANCH  18  30
BRANCH   2  35
HETATM   35  C3  UNL     1      -8.504  44.664 -21.266  1.00  0.00     0.171 C 
HETATM   36  O1  UNL     1      -8.776  44.912 -22.424  1.00  0.00    -0.646 OA
BRANCH  35  37
HETATM   37  O2  UNL     1      -9.419  44.741 -20.285  1.00  0.00    -0.773 OA
HETATM   38  H4  UNL     1     -10.219  45.076 -20.740  1.00  0.00     0.167 HD
ENDBRANCH  35  37
ENDBRANCH   2  35
TORSDOF 12
ENDMDL
MODEL 9
REMARK minimizedAffinity -6.49852133
REMARK CNNscore 0.174547255
REMARK CNNaffinity 6.1593833
REMARK  12 active torsions:
REMARK  status: ('A' for Active; 'I' for Inactive)
REMARK    1  A    between atoms: C2_2  and  C3_3 
REMARK    2  A    between atoms: C3_3  and  O2_5 
REMARK    3  A    between atoms: C14_16  and  C15_17 
REMARK    4  A    between atoms: C15_17  and  C17_19 
REMARK    5  A    between atoms: C17_19  and  C18_20 
REMARK    6  A    between atoms: C18_20  and  C19_21 
REMARK    7  A    between atoms: C20_22  and  C22_24 
REMARK    8  A    between atoms: C22_24  and  O4_26 
REMARK    9  A    between atoms: C27_31  and  C28_32 
REMARK   10  A    between atoms: C28_32  and  C29_33 
REMARK   11  A    between atoms: C29_33  and  C30_34 
REMARK   12  A    between atoms: C30_34  and  O5_35 
ROOT
HETATM    1  C1  UNL     1       1.254  47.738 -13.125  1.00  0.00     0.056 C 
HETATM    2  C2  UNL     1       0.449  49.005 -13.101  1.00  0.00     0.014 C 
HETATM    3  C4  UNL     1      -0.052  49.592 -11.984  1.00  0.00    -0.062 C 
HETATM    4  C5  UNL     1       0.132  48.991 -10.616  1.00  0.00     0.036 C 
HETATM    5  C6  UNL     1       0.901  49.920  -9.683  1.00  0.00     0.010 C 
HETATM    6  C7  UNL     1       0.581  51.431  -9.817  1.00  0.00     0.003 C 
HETATM    7  C8  UNL     1      -0.759  51.727 -10.614  1.00  0.00    -0.032 C 
HETATM    8  C9  UNL     1      -1.942  51.374  -9.663  1.00  0.00     0.016 C 
HETATM    9  C10 UNL     1      -0.938  53.260 -10.935  1.00  0.00     0.011 C 
HETATM   10  C11 UNL     1       0.331  54.070 -11.258  1.00  0.00     0.011 C 
HETATM   11  C12 UNL     1       1.433  53.832 -10.214  1.00  0.00    -0.032 C 
HETATM   12  C13 UNL     1       0.913  54.316  -8.822  1.00  0.00     0.016 C 
HETATM   13  C14 UNL     1       2.827  54.491 -10.466  1.00  0.00    -0.002 C 
HETATM   14  C23 UNL     1       3.777  53.573  -9.629  1.00  0.00     0.006 C 
HETATM   15  C24 UNL     1       3.018  52.265  -9.327  1.00  0.00     0.011 C 
HETATM   16  C25 UNL     1       1.803  52.297 -10.273  1.00  0.00    -0.032 C 
HETATM   17  C26 UNL     1       2.349  51.820 -11.658  1.00  0.00     0.016 C 
HETATM   18  C27 UNL     1      -0.840  50.909 -11.980  1.00  0.00     0.024 C 
ENDROOT
BRANCH  13  19
HETATM   19  C15 UNL     1       3.061  56.002 -10.149  1.00  0.00    -0.014 C 
HETATM   20  C16 UNL     1       3.582  56.776 -11.364  1.00  0.00     0.010 C 
BRANCH  19  21
HETATM   21  C17 UNL     1       4.059  56.142  -8.962  1.00  0.00     0.008 C 
BRANCH  21  22
HETATM   22  C18 UNL     1       3.653  57.117  -7.846  1.00  0.00     0.028 C 
BRANCH  22  23
HETATM   23  C19 UNL     1       2.219  56.961  -7.423  1.00  0.00    -0.013 C 
HETATM   24  C20 UNL     1       1.668  57.258  -6.228  1.00  0.00     0.008 C 
HETATM   25  C21 UNL     1       2.379  57.824  -5.037  1.00  0.00     0.055 C 
BRANCH  24  26
HETATM   26  C22 UNL     1       0.209  57.001  -6.096  1.00  0.00     0.171 C 
HETATM   27  O3  UNL     1      -0.377  56.611  -5.102  1.00  0.00    -0.646 OA
BRANCH  26  28
HETATM   28  O4  UNL     1      -0.459  57.246  -7.236  1.00  0.00    -0.773 OA
HETATM   29  H33 UNL     1      -1.387  57.038  -7.002  1.00  0.00     0.167 HD
ENDBRANCH  26  28
ENDBRANCH  24  26
ENDBRANCH  22  23
ENDBRANCH  21  22
ENDBRANCH  19  21
ENDBRANCH  13  19
BRANCH  18  30
HETATM   30  C28 UNL     1      -2.270  50.755 -12.584  1.00  0.00     0.012 C 
BRANCH  30  31
HETATM   31  C29 UNL     1      -2.762  51.888 -13.498  1.00  0.00     0.027 C 
BRANCH  31  32
HETATM   32  C30 UNL     1      -3.800  52.766 -12.805  1.00  0.00     0.164 C 
BRANCH  32  33
HETATM   33  O5  UNL     1      -4.315  53.727 -13.716  1.00  0.00    -0.401 OA
HETATM   34  H48 UNL     1      -4.966  54.259 -13.230  1.00  0.00     0.209 HD
ENDBRANCH  32  33
ENDBRANCH  31  32
ENDBRANCH  30  31
ENDBRANCH  18  30
BRANCH   2  35
HETATM   35  C3  UNL     1       0.239  49.604 -14.440  1.00  0.00     0.171 C 
HETATM   36  O1  UNL     1      -0.319  49.102 -15.395  1.00  0.00    -0.646 OA
BRANCH  35  37
HETATM   37  O2  UNL     1       0.759  50.843 -14.487  1.00  0.00    -0.773 OA
HETATM   38  H4  UNL     1       0.618  51.118 -15.416  1.00  0.00     0.167 HD
ENDBRANCH  35  37
ENDBRANCH   2  35
TORSDOF 12
ENDMDL
