MODEL 1
REMARK minimizedAffinity -7.26519537
REMARK CNNscore 0.802931964
REMARK CNNaffinity 6.91457605
REMARK  15 active torsions:
REMARK  status: ('A' for Active; 'I' for Inactive)
REMARK    1  A    between atoms: C2_2  and  C3_3 
REMARK    2  A    between atoms: C2_2  and  C35_44 
REMARK    3  A    between atoms: C3_3  and  C4_4 
REMARK    4  A    between atoms: C4_4  and  C5_5 
REMARK    5  A    between atoms: C5_5  and  C7_7 
REMARK    6  A    between atoms: C9_9  and  O1_10 
REMARK    7  A    between atoms: C10_11  and  C11_12 
REMARK    8  A    between atoms: C11_12  and  O3_14 
REMARK    9  A    between atoms: C22_25  and  O4_26 
REMARK   10  A    between atoms: O4_26  and  C23_27 
REMARK   11  A    between atoms: C24_29  and  C25_30 
REMARK   12  A    between atoms: C25_30  and  O6_31 
REMARK   13  A    between atoms: C26_32  and  O7_33 
REMARK   14  A    between atoms: C28_35  and  O8_36 
REMARK   15  A    between atoms: C29_37  and  O9_38 
ROOT
HETATM    1  C7  UNL     1     -10.931  12.045  23.622  1.00  0.00     0.001 C 
HETATM    2  C8  UNL     1     -11.840  12.640  22.496  1.00  0.00     0.039 C 
HETATM    3  C9  UNL     1     -13.070  11.715  22.345  1.00  0.00     0.142 C 
HETATM    4  C10 UNL     1     -12.972  10.751  23.554  1.00  0.00     0.102 C 
HETATM    5  C12 UNL     1     -13.710   9.405  23.539  1.00  0.00    -0.054 C 
HETATM    6  C13 UNL     1     -13.236   8.346  24.251  1.00  0.00    -0.067 C 
HETATM    7  C14 UNL     1     -11.870   8.405  24.945  1.00  0.00     0.036 C 
HETATM    8  C15 UNL     1     -11.149   9.769  24.969  1.00  0.00     0.015 C 
HETATM    9  C16 UNL     1     -11.409  10.561  23.681  1.00  0.00    -0.016 C 
HETATM   10  C17 UNL     1     -10.766   9.765  22.502  1.00  0.00     0.017 C 
HETATM   11  C18 UNL     1     -14.036   7.022  24.398  1.00  0.00    -0.013 C 
HETATM   12  C19 UNL     1     -13.301   5.969  23.523  1.00  0.00     0.021 C 
HETATM   13  C20 UNL     1     -14.061   6.521  25.883  1.00  0.00     0.017 C 
HETATM   14  C21 UNL     1     -15.413   5.991  26.384  1.00  0.00     0.037 C 
HETATM   15  C22 UNL     1     -16.212   5.186  25.352  1.00  0.00     0.153 C 
HETATM   16  C30 UNL     1     -16.285   5.882  24.002  1.00  0.00    -0.055 C 
HETATM   17  C31 UNL     1     -16.976   5.338  22.982  1.00  0.00     0.017 C 
HETATM   18  C32 UNL     1     -15.525   7.204  23.935  1.00  0.00     0.029 C 
HETATM   19  C33 UNL     1     -15.603   7.968  22.612  1.00  0.00     0.014 C 
HETATM   20  C34 UNL     1     -15.026   9.368  22.798  1.00  0.00     0.036 C 
ENDROOT
BRANCH  15  21
HETATM   21  O4  UNL     1     -15.602   3.906  25.147  1.00  0.00    -0.349 OA
BRANCH  21  22
HETATM   22  C23 UNL     1     -14.737   3.529  26.224  1.00  0.00     0.292 C 
HETATM   23  O5  UNL     1     -13.414   3.292  25.756  1.00  0.00    -0.348 OA
HETATM   24  C24 UNL     1     -13.074   1.904  25.667  1.00  0.00     0.179 C 
HETATM   25  C26 UNL     1     -13.088   1.254  27.073  1.00  0.00     0.183 C 
HETATM   26  C28 UNL     1     -14.357   1.673  27.843  1.00  0.00     0.183 C 
HETATM   27  C29 UNL     1     -15.384   2.315  26.920  1.00  0.00     0.204 C 
BRANCH  24  28
HETATM   28  C25 UNL     1     -11.724   1.775  24.955  1.00  0.00     0.198 C 
BRANCH  28  29
HETATM   29  O6  UNL     1     -11.494   0.437  24.512  1.00  0.00    -0.398 OA
HETATM   30  H36 UNL     1     -12.110   0.265  23.779  1.00  0.00     0.209 HD
ENDBRANCH  28  29
ENDBRANCH  24  28
BRANCH  25  31
HETATM   31  O7  UNL     1     -11.927   1.692  27.809  1.00  0.00    -0.385 OA
HETATM   32  C27 UNL     1     -12.265   2.451  28.971  1.00  0.00     0.202 C 
ENDBRANCH  25  31
BRANCH  26  33
HETATM   33  O8  UNL     1     -14.942   0.528  28.480  1.00  0.00    -0.390 OA
HETATM   34  H42 UNL     1     -15.808   0.837  28.816  1.00  0.00     0.210 HD
ENDBRANCH  26  33
BRANCH  27  35
HETATM   35  O9  UNL     1     -16.541   2.699  27.681  1.00  0.00    -0.388 OA
HETATM   36  H44 UNL     1     -17.129   3.158  27.051  1.00  0.00     0.210 HD
ENDBRANCH  27  35
ENDBRANCH  21  22
ENDBRANCH  15  21
BRANCH   4  37
HETATM   37  C11 UNL     1     -13.599  11.463  24.801  1.00  0.00     0.156 C 
HETATM   38  O2  UNL     1     -14.341  12.437  24.807  1.00  0.00    -0.649 OA
BRANCH  37  39
HETATM   39  O3  UNL     1     -13.294  10.915  26.003  1.00  0.00    -0.775 OA
HETATM   40  H16 UNL     1     -13.789  11.490  26.629  1.00  0.00     0.167 HD
ENDBRANCH  37  39
ENDBRANCH   4  37
BRANCH   3  41
HETATM   41  O1  UNL     1     -12.987  11.042  21.087  1.00  0.00    -0.394 OA
HETATM   42  H15 UNL     1     -12.995  11.716  20.387  1.00  0.00     0.210 HD
ENDBRANCH   3  41
BRANCH   1  43
HETATM   43  C5  UNL     1      -9.426  12.375  23.382  1.00  0.00    -0.013 C 
HETATM   44  C6  UNL     1      -8.882  13.355  24.423  1.00  0.00     0.010 C 
BRANCH  43  45
HETATM   45  C4  UNL     1      -9.221  12.940  21.947  1.00  0.00     0.009 C 
BRANCH  45  46
HETATM   46  C3  UNL     1      -8.170  14.060  21.858  1.00  0.00     0.034 C 
BRANCH  46  47
HETATM   47  C2  UNL     1      -6.818  13.543  21.391  1.00  0.00    -0.086 C 
HETATM   48  C1  UNL     1      -5.907  13.154  22.306  1.00  0.00     0.014 C 
BRANCH  47  49
HETATM   49  C35 UNL     1      -6.584  13.498  19.883  1.00  0.00     0.005 C 
HETATM   50  C36 UNL     1      -5.111  13.409  19.453  1.00  0.00     0.014 C 
HETATM   51  C37 UNL     1      -7.249  14.699  19.204  1.00  0.00     0.014 C 
ENDBRANCH  47  49
ENDBRANCH  46  47
ENDBRANCH  45  46
ENDBRANCH  43  45
ENDBRANCH   1  43
TORSDOF 15
ENDMDL
MODEL 2
REMARK minimizedAffinity -7.8297801
REMARK CNNscore 0.277719855
REMARK CNNaffinity 6.77534723
REMARK  15 active torsions:
REMARK  status: ('A' for Active; 'I' for Inactive)
REMARK    1  A    between atoms: C2_2  and  C3_3 
REMARK    2  A    between atoms: C2_2  and  C35_44 
REMARK    3  A    between atoms: C3_3  and  C4_4 
REMARK    4  A    between atoms: C4_4  and  C5_5 
REMARK    5  A    between atoms: C5_5  and  C7_7 
REMARK    6  A    between atoms: C9_9  and  O1_10 
REMARK    7  A    between atoms: C10_11  and  C11_12 
REMARK    8  A    between atoms: C11_12  and  O3_14 
REMARK    9  A    between atoms: C22_25  and  O4_26 
REMARK   10  A    between atoms: O4_26  and  C23_27 
REMARK   11  A    between atoms: C24_29  and  C25_30 
REMARK   12  A    between atoms: C25_30  and  O6_31 
REMARK   13  A    between atoms: C26_32  and  O7_33 
REMARK   14  A    between atoms: C28_35  and  O8_36 
REMARK   15  A    between atoms: C29_37  and  O9_38 
ROOT
HETATM    1  C7  UNL     1       3.421   7.570  12.552  1.00  0.00     0.001 C 
HETATM    2  C8  UNL     1       3.933   7.764  11.086  1.00  0.00     0.039 C 
HETATM    3  C9  UNL     1       5.310   8.465  11.155  1.00  0.00     0.142 C 
HETATM    4  C10 UNL     1       5.678   8.433  12.660  1.00  0.00     0.102 C 
HETATM    5  C12 UNL     1       6.719   9.406  13.229  1.00  0.00    -0.054 C 
HETATM    6  C13 UNL     1       6.664   9.797  14.532  1.00  0.00    -0.067 C 
HETATM    7  C14 UNL     1       5.475   9.420  15.424  1.00  0.00     0.036 C 
HETATM    8  C15 UNL     1       4.447   8.424  14.846  1.00  0.00     0.015 C 
HETATM    9  C16 UNL     1       4.263   8.625  13.336  1.00  0.00    -0.016 C 
HETATM   10  C17 UNL     1       3.643  10.042  13.123  1.00  0.00     0.017 C 
HETATM   11  C18 UNL     1       7.787  10.646  15.190  1.00  0.00    -0.013 C 
HETATM   12  C19 UNL     1       7.199  12.072  15.384  1.00  0.00     0.021 C 
HETATM   13  C20 UNL     1       8.204  10.073  16.588  1.00  0.00     0.017 C 
HETATM   14  C21 UNL     1       9.713  10.044  16.872  1.00  0.00     0.037 C 
HETATM   15  C22 UNL     1      10.492  11.254  16.342  1.00  0.00     0.153 C 
HETATM   16  C30 UNL     1      10.143  11.583  14.899  1.00  0.00    -0.055 C 
HETATM   17  C31 UNL     1      10.756  12.595  14.254  1.00  0.00     0.017 C 
HETATM   18  C32 UNL     1       9.074  10.681  14.290  1.00  0.00     0.029 C 
HETATM   19  C33 UNL     1       8.716  10.941  12.826  1.00  0.00     0.014 C 
HETATM   20  C34 UNL     1       7.846   9.802  12.304  1.00  0.00     0.036 C 
ENDROOT
BRANCH  15  21
HETATM   21  O4  UNL     1      10.201  12.412  17.133  1.00  0.00    -0.349 OA
BRANCH  21  22
HETATM   22  C23 UNL     1      11.376  13.001  17.700  1.00  0.00     0.292 C 
HETATM   23  O5  UNL     1      12.475  12.915  16.800  1.00  0.00    -0.348 OA
HETATM   24  C24 UNL     1      13.428  11.904  17.147  1.00  0.00     0.179 C 
HETATM   25  C26 UNL     1      14.093  12.235  18.506  1.00  0.00     0.183 C 
HETATM   26  C28 UNL     1      13.024  12.653  19.537  1.00  0.00     0.183 C 
HETATM   27  C29 UNL     1      11.621  12.310  19.057  1.00  0.00     0.204 C 
BRANCH  24  28
HETATM   28  C25 UNL     1      14.433  11.763  16.001  1.00  0.00     0.198 C 
BRANCH  28  29
HETATM   29  O6  UNL     1      14.753  13.032  15.429  1.00  0.00    -0.398 OA
HETATM   30  H36 UNL     1      15.282  13.521  16.084  1.00  0.00     0.209 HD
ENDBRANCH  28  29
ENDBRANCH  24  28
BRANCH  25  31
HETATM   31  O7  UNL     1      15.021  13.325  18.326  1.00  0.00    -0.385 OA
HETATM   32  C27 UNL     1      14.573  14.537  18.935  1.00  0.00     0.202 C 
ENDBRANCH  25  31
BRANCH  26  33
HETATM   33  O8  UNL     1      13.270  11.997  20.789  1.00  0.00    -0.390 OA
HETATM   34  H42 UNL     1      12.481  12.187  21.337  1.00  0.00     0.210 HD
ENDBRANCH  26  33
BRANCH  27  35
HETATM   35  O9  UNL     1      10.659  12.728  20.040  1.00  0.00    -0.388 OA
HETATM   36  H44 UNL     1       9.785  12.542  19.648  1.00  0.00     0.210 HD
ENDBRANCH  27  35
ENDBRANCH  21  22
ENDBRANCH  15  21
BRANCH   4  37
HETATM   37  C11 UNL     1       6.317   7.037  12.979  1.00  0.00     0.156 C 
HETATM   38  O2  UNL     1       6.717   6.202  12.178  1.00  0.00    -0.649 OA
BRANCH  37  39
HETATM   39  O3  UNL     1       6.454   6.743  14.295  1.00  0.00    -0.775 OA
HETATM   40  H16 UNL     1       6.877   5.856  14.270  1.00  0.00     0.167 HD
ENDBRANCH  37  39
ENDBRANCH   4  37
BRANCH   3  41
HETATM   41  O1  UNL     1       5.177   9.792  10.642  1.00  0.00    -0.394 OA
HETATM   42  H15 UNL     1       4.887   9.726   9.717  1.00  0.00     0.210 HD
ENDBRANCH   3  41
BRANCH   1  43
HETATM   43  C5  UNL     1       1.864   7.597  12.627  1.00  0.00    -0.013 C 
HETATM   44  C6  UNL     1       1.278   6.204  12.861  1.00  0.00     0.010 C 
BRANCH  43  45
HETATM   45  C4  UNL     1       1.273   8.223  11.331  1.00  0.00     0.009 C 
BRANCH  45  46
HETATM   46  C3  UNL     1       0.843   7.190  10.276  1.00  0.00     0.034 C 
BRANCH  46  47
HETATM   47  C2  UNL     1       0.724   7.801   8.888  1.00  0.00    -0.086 C 
HETATM   48  C1  UNL     1      -0.328   8.594   8.602  1.00  0.00     0.014 C 
BRANCH  47  49
HETATM   49  C35 UNL     1       1.835   7.467   7.895  1.00  0.00     0.005 C 
HETATM   50  C36 UNL     1       2.549   6.129   8.140  1.00  0.00     0.014 C 
HETATM   51  C37 UNL     1       2.864   8.600   7.844  1.00  0.00     0.014 C 
ENDBRANCH  47  49
ENDBRANCH  46  47
ENDBRANCH  45  46
ENDBRANCH  43  45
ENDBRANCH   1  43
TORSDOF 15
ENDMDL
MODEL 3
REMARK minimizedAffinity -7.07251406
REMARK CNNscore 0.27497673
REMARK CNNaffinity 5.92353773
REMARK  15 active torsions:
REMARK  status: ('A' for Active; 'I' for Inactive)
REMARK    1  A    between atoms: C2_2  and  C3_3 
REMARK    2  A    between atoms: C2_2  and  C35_44 
REMARK    3  A    between atoms: C3_3  and  C4_4 
REMARK    4  A    between atoms: C4_4  and  C5_5 
REMARK    5  A    between atoms: C5_5  and  C7_7 
REMARK    6  A    between atoms: C9_9  and  O1_10 
REMARK    7  A    between atoms: C10_11  and  C11_12 
REMARK    8  A    between atoms: C11_12  and  O3_14 
REMARK    9  A    between atoms: C22_25  and  O4_26 
REMARK   10  A    between atoms: O4_26  and  C23_27 
REMARK   11  A    between atoms: C24_29  and  C25_30 
REMARK   12  A    between atoms: C25_30  and  O6_31 
REMARK   13  A    between atoms: C26_32  and  O7_33 
REMARK   14  A    between atoms: C28_35  and  O8_36 
REMARK   15  A    between atoms: C29_37  and  O9_38 
ROOT
HETATM    1  C7  UNL     1     -17.361   2.694  14.489  1.00  0.00     0.001 C 
HETATM    2  C8  UNL     1     -17.671   2.538  16.015  1.00  0.00     0.039 C 
HETATM    3  C9  UNL     1     -17.161   1.147  16.460  1.00  0.00     0.142 C 
HETATM    4  C10 UNL     1     -16.343   0.636  15.248  1.00  0.00     0.102 C 
HETATM    5  C12 UNL     1     -16.053  -0.861  15.079  1.00  0.00    -0.054 C 
HETATM    6  C13 UNL     1     -15.865  -1.396  13.841  1.00  0.00    -0.067 C 
HETATM    7  C14 UNL     1     -16.106  -0.568  12.574  1.00  0.00     0.036 C 
HETATM    8  C15 UNL     1     -16.377   0.940  12.758  1.00  0.00     0.015 C 
HETATM    9  C16 UNL     1     -17.179   1.211  14.037  1.00  0.00    -0.016 C 
HETATM   10  C17 UNL     1     -18.582   0.550  13.861  1.00  0.00     0.017 C 
HETATM   11  C18 UNL     1     -15.407  -2.867  13.636  1.00  0.00    -0.013 C 
HETATM   12  C19 UNL     1     -16.646  -3.639  13.102  1.00  0.00     0.021 C 
HETATM   13  C20 UNL     1     -14.250  -2.972  12.584  1.00  0.00     0.017 C 
HETATM   14  C21 UNL     1     -13.104  -3.930  12.948  1.00  0.00     0.037 C 
HETATM   15  C22 UNL     1     -13.541  -5.220  13.651  1.00  0.00     0.153 C 
HETATM   16  C30 UNL     1     -14.514  -4.960  14.791  1.00  0.00    -0.055 C 
HETATM   17  C31 UNL     1     -14.979  -5.975  15.546  1.00  0.00     0.017 C 
HETATM   18  C32 UNL     1     -14.884  -3.492  14.979  1.00  0.00     0.029 C 
HETATM   19  C33 UNL     1     -15.825  -3.170  16.141  1.00  0.00     0.014 C 
HETATM   20  C34 UNL     1     -15.878  -1.659  16.350  1.00  0.00     0.036 C 
ENDROOT
BRANCH  15  21
HETATM   21  O4  UNL     1     -14.191  -6.093  12.718  1.00  0.00    -0.349 OA
BRANCH  21  22
HETATM   22  C23 UNL     1     -13.459  -6.235  11.496  1.00  0.00     0.292 C 
HETATM   23  O5  UNL     1     -14.278  -5.925  10.373  1.00  0.00    -0.348 OA
HETATM   24  C24 UNL     1     -14.725  -7.077   9.649  1.00  0.00     0.179 C 
HETATM   25  C26 UNL     1     -13.519  -7.825   9.029  1.00  0.00     0.183 C 
HETATM   26  C28 UNL     1     -12.391  -7.977  10.070  1.00  0.00     0.183 C 
HETATM   27  C29 UNL     1     -12.883  -7.665  11.477  1.00  0.00     0.204 C 
BRANCH  24  28
HETATM   28  C25 UNL     1     -15.759  -6.633   8.612  1.00  0.00     0.198 C 
BRANCH  28  29
HETATM   29  O6  UNL     1     -16.578  -5.575   9.112  1.00  0.00    -0.398 OA
HETATM   30  H36 UNL     1     -16.020  -4.780   9.173  1.00  0.00     0.209 HD
ENDBRANCH  28  29
ENDBRANCH  24  28
BRANCH  25  31
HETATM   31  O7  UNL     1     -13.020  -7.070   7.905  1.00  0.00    -0.385 OA
HETATM   32  C27 UNL     1     -12.257  -7.870   7.000  1.00  0.00     0.202 C 
ENDBRANCH  25  31
BRANCH  26  33
HETATM   33  O8  UNL     1     -11.872  -9.315  10.036  1.00  0.00    -0.390 OA
HETATM   34  H42 UNL     1     -11.277  -9.379  10.811  1.00  0.00     0.210 HD
ENDBRANCH  26  33
BRANCH  27  35
HETATM   35  O9  UNL     1     -11.798  -7.807  12.409  1.00  0.00    -0.388 OA
HETATM   36  H44 UNL     1     -12.158  -7.533  13.274  1.00  0.00     0.210 HD
ENDBRANCH  27  35
ENDBRANCH  21  22
ENDBRANCH  15  21
BRANCH   4  37
HETATM   37  C11 UNL     1     -14.903   1.248  15.334  1.00  0.00     0.156 C 
HETATM   38  O2  UNL     1     -14.500   2.277  14.807  1.00  0.00    -0.649 OA
BRANCH  37  39
HETATM   39  O3  UNL     1     -14.019   0.561  16.097  1.00  0.00    -0.775 OA
HETATM   40  H16 UNL     1     -13.207   1.111  16.028  1.00  0.00     0.167 HD
ENDBRANCH  37  39
ENDBRANCH   4  37
BRANCH   3  41
HETATM   41  O1  UNL     1     -18.285   0.320  16.764  1.00  0.00    -0.394 OA
HETATM   42  H15 UNL     1     -18.776   0.738  17.491  1.00  0.00     0.210 HD
ENDBRANCH   3  41
BRANCH   1  43
HETATM   43  C5  UNL     1     -18.407   3.607  13.779  1.00  0.00    -0.013 C 
HETATM   44  C6  UNL     1     -18.492   3.321  12.279  1.00  0.00     0.010 C 
BRANCH  43  45
HETATM   45  C4  UNL     1     -18.069   5.106  14.027  1.00  0.00     0.009 C 
BRANCH  45  46
HETATM   46  C3  UNL     1     -17.257   5.760  12.896  1.00  0.00     0.034 C 
BRANCH  46  47
HETATM   47  C2  UNL     1     -15.865   6.170  13.351  1.00  0.00    -0.086 C 
HETATM   48  C1  UNL     1     -15.400   5.729  14.538  1.00  0.00     0.014 C 
BRANCH  47  49
HETATM   49  C35 UNL     1     -15.072   7.071  12.406  1.00  0.00     0.005 C 
HETATM   50  C36 UNL     1     -13.751   7.612  12.976  1.00  0.00     0.014 C 
HETATM   51  C37 UNL     1     -15.942   8.234  11.923  1.00  0.00     0.014 C 
ENDBRANCH  47  49
ENDBRANCH  46  47
ENDBRANCH  45  46
ENDBRANCH  43  45
ENDBRANCH   1  43
TORSDOF 15
ENDMDL
MODEL 4
REMARK minimizedAffinity -7.18734074
REMARK CNNscore 0.264710009
REMARK CNNaffinity 6.10985613
REMARK  15 active torsions:
REMARK  status: ('A' for Active; 'I' for Inactive)
REMARK    1  A    between atoms: C2_2  and  C3_3 
REMARK    2  A    between atoms: C2_2  and  C35_44 
REMARK    3  A    between atoms: C3_3  and  C4_4 
REMARK    4  A    between atoms: C4_4  and  C5_5 
REMARK    5  A    between atoms: C5_5  and  C7_7 
REMARK    6  A    between atoms: C9_9  and  O1_10 
REMARK    7  A    between atoms: C10_11  and  C11_12 
REMARK    8  A    between atoms: C11_12  and  O3_14 
REMARK    9  A    between atoms: C22_25  and  O4_26 
REMARK   10  A    between atoms: O4_26  and  C23_27 
REMARK   11  A    between atoms: C24_29  and  C25_30 
REMARK   12  A    between atoms: C25_30  and  O6_31 
REMARK   13  A    between atoms: C26_32  and  O7_33 
REMARK   14  A    between atoms: C28_35  and  O8_36 
REMARK   15  A    between atoms: C29_37  and  O9_38 
ROOT
HETATM    1  C7  UNL     1     -17.183   2.767  14.190  1.00  0.00     0.001 C 
HETATM    2  C8  UNL     1     -17.745   2.799  15.649  1.00  0.00     0.039 C 
HETATM    3  C9  UNL     1     -17.424   1.436  16.308  1.00  0.00     0.142 C 
HETATM    4  C10 UNL     1     -16.466   0.746  15.306  1.00  0.00     0.102 C 
HETATM    5  C12 UNL     1     -16.271  -0.776  15.336  1.00  0.00    -0.054 C 
HETATM    6  C13 UNL     1     -15.930  -1.454  14.206  1.00  0.00    -0.067 C 
HETATM    7  C14 UNL     1     -15.898  -0.756  12.841  1.00  0.00     0.036 C 
HETATM    8  C15 UNL     1     -16.075   0.776  12.828  1.00  0.00     0.015 C 
HETATM    9  C16 UNL     1     -17.048   1.236  13.922  1.00  0.00    -0.016 C 
HETATM   10  C17 UNL     1     -18.452   0.646  13.578  1.00  0.00     0.017 C 
HETATM   11  C18 UNL     1     -15.562  -2.964  14.225  1.00  0.00    -0.013 C 
HETATM   12  C19 UNL     1     -16.756  -3.712  13.569  1.00  0.00     0.021 C 
HETATM   13  C20 UNL     1     -14.263  -3.255  13.398  1.00  0.00     0.017 C 
HETATM   14  C21 UNL     1     -13.270  -4.236  14.041  1.00  0.00     0.037 C 
HETATM   15  C22 UNL     1     -13.915  -5.412  14.783  1.00  0.00     0.153 C 
HETATM   16  C30 UNL     1     -15.034  -4.969  15.713  1.00  0.00    -0.055 C 
HETATM   17  C31 UNL     1     -15.694  -5.864  16.475  1.00  0.00     0.017 C 
HETATM   18  C32 UNL     1     -15.313  -3.469  15.691  1.00  0.00     0.029 C 
HETATM   19  C33 UNL     1     -16.400  -2.964  16.642  1.00  0.00     0.014 C 
HETATM   20  C34 UNL     1     -16.366  -1.439  16.690  1.00  0.00     0.036 C 
ENDROOT
BRANCH  15  21
HETATM   21  O4  UNL     1     -14.473  -6.340  13.845  1.00  0.00    -0.349 OA
BRANCH  21  22
HETATM   22  C23 UNL     1     -13.726  -7.558  13.764  1.00  0.00     0.292 C 
HETATM   23  O5  UNL     1     -13.674  -8.209  15.029  1.00  0.00    -0.348 OA
HETATM   24  C24 UNL     1     -12.415  -8.073  15.697  1.00  0.00     0.179 C 
HETATM   25  C26 UNL     1     -11.295  -8.765  14.882  1.00  0.00     0.183 C 
HETATM   26  C28 UNL     1     -11.405  -8.385  13.391  1.00  0.00     0.183 C 
HETATM   27  C29 UNL     1     -12.342  -7.203  13.184  1.00  0.00     0.204 C 
BRANCH  24  28
HETATM   28  C25 UNL     1     -12.554  -8.621  17.120  1.00  0.00     0.198 C 
BRANCH  28  29
HETATM   29  O6  UNL     1     -13.649  -8.015  17.807  1.00  0.00    -0.398 OA
HETATM   30  H36 UNL     1     -14.468  -8.347  17.397  1.00  0.00     0.209 HD
ENDBRANCH  28  29
ENDBRANCH  24  28
BRANCH  25  31
HETATM   31  O7  UNL     1     -11.430 -10.196  15.011  1.00  0.00    -0.385 OA
HETATM   32  C27 UNL     1     -11.787 -10.829  13.781  1.00  0.00     0.202 C 
ENDBRANCH  25  31
BRANCH  26  33
HETATM   33  O8  UNL     1     -10.107  -8.057  12.874  1.00  0.00    -0.390 OA
HETATM   34  H42 UNL     1     -10.273  -7.686  11.983  1.00  0.00     0.210 HD
ENDBRANCH  26  33
BRANCH  27  35
HETATM   35  O9  UNL     1     -12.424  -6.892  11.783  1.00  0.00    -0.388 OA
HETATM   36  H44 UNL     1     -13.083  -6.176  11.711  1.00  0.00     0.210 HD
ENDBRANCH  27  35
ENDBRANCH  21  22
ENDBRANCH  15  21
BRANCH   4  37
HETATM   37  C11 UNL     1     -15.014   1.274  15.572  1.00  0.00     0.156 C 
HETATM   38  O2  UNL     1     -14.193   0.825  16.362  1.00  0.00    -0.649 OA
BRANCH  37  39
HETATM   39  O3  UNL     1     -14.629   2.334  14.821  1.00  0.00    -0.775 OA
HETATM   40  H16 UNL     1     -13.708   2.488  15.129  1.00  0.00     0.167 HD
ENDBRANCH  37  39
ENDBRANCH   4  37
BRANCH   3  41
HETATM   41  O1  UNL     1     -18.645   0.718  16.498  1.00  0.00    -0.394 OA
HETATM   42  H15 UNL     1     -19.211   1.243  17.088  1.00  0.00     0.210 HD
ENDBRANCH   3  41
BRANCH   1  43
HETATM   43  C5  UNL     1     -18.026   3.660  13.228  1.00  0.00    -0.013 C 
HETATM   44  C6  UNL     1     -18.668   2.844  12.105  1.00  0.00     0.010 C 
BRANCH  43  45
HETATM   45  C4  UNL     1     -17.143   4.796  12.636  1.00  0.00     0.009 C 
BRANCH  45  46
HETATM   46  C3  UNL     1     -17.127   6.082  13.479  1.00  0.00     0.034 C 
BRANCH  46  47
HETATM   47  C2  UNL     1     -15.869   6.199  14.326  1.00  0.00    -0.086 C 
HETATM   48  C1  UNL     1     -15.950   6.018  15.660  1.00  0.00     0.014 C 
BRANCH  47  49
HETATM   49  C35 UNL     1     -14.572   6.519  13.586  1.00  0.00     0.005 C 
HETATM   50  C36 UNL     1     -13.292   6.005  14.263  1.00  0.00     0.014 C 
HETATM   51  C37 UNL     1     -14.457   8.025  13.337  1.00  0.00     0.014 C 
ENDBRANCH  47  49
ENDBRANCH  46  47
ENDBRANCH  45  46
ENDBRANCH  43  45
ENDBRANCH   1  43
TORSDOF 15
ENDMDL
MODEL 5
REMARK minimizedAffinity -8.25399208
REMARK CNNscore 0.262519777
REMARK CNNaffinity 6.7147336
REMARK  15 active torsions:
REMARK  status: ('A' for Active; 'I' for Inactive)
REMARK    1  A    between atoms: C2_2  and  C3_3 
REMARK    2  A    between atoms: C2_2  and  C35_44 
REMARK    3  A    between atoms: C3_3  and  C4_4 
REMARK    4  A    between atoms: C4_4  and  C5_5 
REMARK    5  A    between atoms: C5_5  and  C7_7 
REMARK    6  A    between atoms: C9_9  and  O1_10 
REMARK    7  A    between atoms: C10_11  and  C11_12 
REMARK    8  A    between atoms: C11_12  and  O3_14 
REMARK    9  A    between atoms: C22_25  and  O4_26 
REMARK   10  A    between atoms: O4_26  and  C23_27 
REMARK   11  A    between atoms: C24_29  and  C25_30 
REMARK   12  A    between atoms: C25_30  and  O6_31 
REMARK   13  A    between atoms: C26_32  and  O7_33 
REMARK   14  A    between atoms: C28_35  and  O8_36 
REMARK   15  A    between atoms: C29_37  and  O9_38 
ROOT
HETATM    1  C7  UNL     1       4.117   9.620  15.096  1.00  0.00     0.001 C 
HETATM    2  C8  UNL     1       3.729  11.117  15.328  1.00  0.00     0.039 C 
HETATM    3  C9  UNL     1       2.185  11.206  15.349  1.00  0.00     0.142 C 
HETATM    4  C10 UNL     1       1.719   9.729  15.383  1.00  0.00     0.102 C 
HETATM    5  C12 UNL     1       0.296   9.351  14.952  1.00  0.00    -0.054 C 
HETATM    6  C13 UNL     1       0.031   8.117  14.440  1.00  0.00    -0.067 C 
HETATM    7  C14 UNL     1       1.161   7.133  14.115  1.00  0.00     0.036 C 
HETATM    8  C15 UNL     1       2.584   7.518  14.572  1.00  0.00     0.015 C 
HETATM    9  C16 UNL     1       2.811   9.032  14.478  1.00  0.00    -0.016 C 
HETATM   10  C17 UNL     1       2.732   9.426  12.969  1.00  0.00     0.017 C 
HETATM   11  C18 UNL     1      -1.418   7.636  14.147  1.00  0.00    -0.013 C 
HETATM   12  C19 UNL     1      -1.570   7.629  12.600  1.00  0.00     0.021 C 
HETATM   13  C20 UNL     1      -1.668   6.186  14.689  1.00  0.00     0.017 C 
HETATM   14  C21 UNL     1      -3.017   5.962  15.388  1.00  0.00     0.037 C 
HETATM   15  C22 UNL     1      -4.204   6.693  14.750  1.00  0.00     0.153 C 
HETATM   16  C30 UNL     1      -3.897   8.154  14.458  1.00  0.00    -0.055 C 
HETATM   17  C31 UNL     1      -4.835   8.963  13.928  1.00  0.00     0.017 C 
HETATM   18  C32 UNL     1      -2.477   8.582  14.817  1.00  0.00     0.029 C 
HETATM   19  C33 UNL     1      -2.129  10.053  14.584  1.00  0.00     0.014 C 
HETATM   20  C34 UNL     1      -0.785  10.368  15.234  1.00  0.00     0.036 C 
ENDROOT
BRANCH  15  21
HETATM   21  O4  UNL     1      -4.558   6.069  13.510  1.00  0.00    -0.349 OA
BRANCH  21  22
HETATM   22  C23 UNL     1      -5.945   6.226  13.191  1.00  0.00     0.292 C 
HETATM   23  O5  UNL     1      -6.583   7.106  14.111  1.00  0.00    -0.348 OA
HETATM   24  C24 UNL     1      -7.401   6.437  15.077  1.00  0.00     0.179 C 
HETATM   25  C26 UNL     1      -8.581   5.718  14.378  1.00  0.00     0.183 C 
HETATM   26  C28 UNL     1      -8.079   4.940  13.145  1.00  0.00     0.183 C 
HETATM   27  C29 UNL     1      -6.562   4.814  13.144  1.00  0.00     0.204 C 
BRANCH  24  28
HETATM   28  C25 UNL     1      -7.850   7.456  16.127  1.00  0.00     0.198 C 
BRANCH  28  29
HETATM   29  O6  UNL     1      -7.407   7.089  17.434  1.00  0.00    -0.398 OA
HETATM   30  H36 UNL     1      -6.441   7.209  17.457  1.00  0.00     0.209 HD
ENDBRANCH  28  29
ENDBRANCH  24  28
BRANCH  25  31
HETATM   31  O7  UNL     1      -9.548   6.700  13.951  1.00  0.00    -0.385 OA
HETATM   32  C27 UNL     1     -10.851   6.461  14.487  1.00  0.00     0.202 C 
ENDBRANCH  25  31
BRANCH  26  33
HETATM   33  O8  UNL     1      -8.664   3.630  13.123  1.00  0.00    -0.390 OA
HETATM   34  H42 UNL     1      -8.191   3.151  12.411  1.00  0.00     0.210 HD
ENDBRANCH  26  33
BRANCH  27  35
HETATM   35  O9  UNL     1      -6.139   4.095  11.973  1.00  0.00    -0.388 OA
HETATM   36  H44 UNL     1      -5.164   4.104  11.997  1.00  0.00     0.210 HD
ENDBRANCH  27  35
ENDBRANCH  21  22
ENDBRANCH  15  21
BRANCH   4  37
HETATM   37  C11 UNL     1       1.760   9.235  16.870  1.00  0.00     0.156 C 
HETATM   38  O2  UNL     1       1.423   9.856  17.869  1.00  0.00    -0.649 OA
BRANCH  37  39
HETATM   39  O3  UNL     1       2.203   7.967  17.053  1.00  0.00    -0.775 OA
HETATM   40  H16 UNL     1       2.135   7.859  18.029  1.00  0.00     0.167 HD
ENDBRANCH  37  39
ENDBRANCH   4  37
BRANCH   3  41
HETATM   41  O1  UNL     1       1.748  11.902  14.180  1.00  0.00    -0.394 OA
HETATM   42  H15 UNL     1       2.130  12.796  14.205  1.00  0.00     0.210 HD
ENDBRANCH   3  41
BRANCH   1  43
HETATM   43  C5  UNL     1       5.473   9.487  14.336  1.00  0.00    -0.013 C 
HETATM   44  C6  UNL     1       6.029  10.849  13.917  1.00  0.00     0.010 C 
BRANCH  43  45
HETATM   45  C4  UNL     1       5.306   8.564  13.095  1.00  0.00     0.009 C 
BRANCH  45  46
HETATM   46  C3  UNL     1       6.614   7.907  12.622  1.00  0.00     0.034 C 
BRANCH  46  47
HETATM   47  C2  UNL     1       6.424   7.108  11.341  1.00  0.00    -0.086 C 
HETATM   48  C1  UNL     1       7.103   5.956  11.173  1.00  0.00     0.014 C 
BRANCH  47  49
HETATM   49  C35 UNL     1       5.452   7.682  10.312  1.00  0.00     0.005 C 
HETATM   50  C36 UNL     1       5.337   9.215  10.307  1.00  0.00     0.014 C 
HETATM   51  C37 UNL     1       4.064   7.060  10.485  1.00  0.00     0.014 C 
ENDBRANCH  47  49
ENDBRANCH  46  47
ENDBRANCH  45  46
ENDBRANCH  43  45
ENDBRANCH   1  43
TORSDOF 15
ENDMDL
MODEL 6
REMARK minimizedAffinity -8.13797092
REMARK CNNscore 0.224326074
REMARK CNNaffinity 6.35741043
REMARK  15 active torsions:
REMARK  status: ('A' for Active; 'I' for Inactive)
REMARK    1  A    between atoms: C2_2  and  C3_3 
REMARK    2  A    between atoms: C2_2  and  C35_44 
REMARK    3  A    between atoms: C3_3  and  C4_4 
REMARK    4  A    between atoms: C4_4  and  C5_5 
REMARK    5  A    between atoms: C5_5  and  C7_7 
REMARK    6  A    between atoms: C9_9  and  O1_10 
REMARK    7  A    between atoms: C10_11  and  C11_12 
REMARK    8  A    between atoms: C11_12  and  O3_14 
REMARK    9  A    between atoms: C22_25  and  O4_26 
REMARK   10  A    between atoms: O4_26  and  C23_27 
REMARK   11  A    between atoms: C24_29  and  C25_30 
REMARK   12  A    between atoms: C25_30  and  O6_31 
REMARK   13  A    between atoms: C26_32  and  O7_33 
REMARK   14  A    between atoms: C28_35  and  O8_36 
REMARK   15  A    between atoms: C29_37  and  O9_38 
ROOT
HETATM    1  C7  UNL     1      -0.519   6.067  13.607  1.00  0.00     0.001 C 
HETATM    2  C8  UNL     1       0.598   6.859  12.849  1.00  0.00     0.039 C 
HETATM    3  C9  UNL     1       0.569   8.319  13.359  1.00  0.00     0.142 C 
HETATM    4  C10 UNL     1      -0.389   8.279  14.576  1.00  0.00     0.102 C 
HETATM    5  C12 UNL     1      -1.055   9.563  15.086  1.00  0.00    -0.054 C 
HETATM    6  C13 UNL     1      -2.258   9.515  15.722  1.00  0.00    -0.067 C 
HETATM    7  C14 UNL     1      -3.065   8.213  15.797  1.00  0.00     0.036 C 
HETATM    8  C15 UNL     1      -2.375   6.927  15.298  1.00  0.00     0.015 C 
HETATM    9  C16 UNL     1      -1.455   7.212  14.104  1.00  0.00    -0.016 C 
HETATM   10  C17 UNL     1      -2.355   7.692  12.922  1.00  0.00     0.017 C 
HETATM   11  C18 UNL     1      -2.887  10.765  16.399  1.00  0.00    -0.013 C 
HETATM   12  C19 UNL     1      -4.079  11.194  15.499  1.00  0.00     0.021 C 
HETATM   13  C20 UNL     1      -3.426  10.437  17.834  1.00  0.00     0.017 C 
HETATM   14  C21 UNL     1      -3.127  11.491  18.913  1.00  0.00     0.037 C 
HETATM   15  C22 UNL     1      -3.220  12.945  18.437  1.00  0.00     0.153 C 
HETATM   16  C30 UNL     1      -2.480  13.176  17.128  1.00  0.00    -0.055 C 
HETATM   17  C31 UNL     1      -2.424  14.404  16.575  1.00  0.00     0.017 C 
HETATM   18  C32 UNL     1      -1.837  11.924  16.540  1.00  0.00     0.029 C 
HETATM   19  C33 UNL     1      -1.042  12.109  15.246  1.00  0.00     0.014 C 
HETATM   20  C34 UNL     1      -0.255  10.837  14.945  1.00  0.00     0.036 C 
ENDROOT
BRANCH  15  21
HETATM   21  O4  UNL     1      -4.590  13.309  18.230  1.00  0.00    -0.349 OA
BRANCH  21  22
HETATM   22  C23 UNL     1      -5.011  14.377  19.086  1.00  0.00     0.292 C 
HETATM   23  O5  UNL     1      -4.945  13.989  20.454  1.00  0.00    -0.348 OA
HETATM   24  C24 UNL     1      -6.221  13.697  21.034  1.00  0.00     0.179 C 
HETATM   25  C26 UNL     1      -7.107  14.967  21.054  1.00  0.00     0.183 C 
HETATM   26  C28 UNL     1      -7.043  15.687  19.691  1.00  0.00     0.183 C 
HETATM   27  C29 UNL     1      -6.419  14.801  18.621  1.00  0.00     0.204 C 
BRANCH  24  28
HETATM   28  C25 UNL     1      -6.001  13.091  22.422  1.00  0.00     0.198 C 
BRANCH  28  29
HETATM   29  O6  UNL     1      -7.228  12.981  23.144  1.00  0.00    -0.398 OA
HETATM   30  H36 UNL     1      -7.755  12.283  22.715  1.00  0.00     0.209 HD
ENDBRANCH  28  29
ENDBRANCH  24  28
BRANCH  25  31
HETATM   31  O7  UNL     1      -6.628  15.862  22.080  1.00  0.00    -0.385 OA
HETATM   32  C27 UNL     1      -7.688  16.472  22.818  1.00  0.00     0.202 C 
ENDBRANCH  25  31
BRANCH  26  33
HETATM   33  O8  UNL     1      -8.362  16.070  19.279  1.00  0.00    -0.390 OA
HETATM   34  H42 UNL     1      -8.262  16.378  18.355  1.00  0.00     0.210 HD
ENDBRANCH  26  33
BRANCH  27  35
HETATM   35  O9  UNL     1      -6.368  15.515  17.375  1.00  0.00    -0.388 OA
HETATM   36  H44 UNL     1      -5.903  14.924  16.753  1.00  0.00     0.210 HD
ENDBRANCH  27  35
ENDBRANCH  21  22
ENDBRANCH  15  21
BRANCH   4  37
HETATM   37  C11 UNL     1       0.428   7.805  15.827  1.00  0.00     0.156 C 
HETATM   38  O2  UNL     1       1.297   8.426  16.426  1.00  0.00    -0.649 OA
BRANCH  37  39
HETATM   39  O3  UNL     1       0.111   6.577  16.302  1.00  0.00    -0.775 OA
HETATM   40  H16 UNL     1       0.713   6.487  17.075  1.00  0.00     0.167 HD
ENDBRANCH  37  39
ENDBRANCH   4  37
BRANCH   3  41
HETATM   41  O1  UNL     1       0.099   9.164  12.307  1.00  0.00    -0.394 OA
HETATM   42  H15 UNL     1       0.720   9.088  11.563  1.00  0.00     0.210 HD
ENDBRANCH   3  41
BRANCH   1  43
HETATM   43  C5  UNL     1      -1.093   4.907  12.737  1.00  0.00    -0.013 C 
HETATM   44  C6  UNL     1      -1.108   5.261  11.249  1.00  0.00     0.010 C 
BRANCH  43  45
HETATM   45  C4  UNL     1      -2.524   4.531  13.219  1.00  0.00     0.009 C 
BRANCH  45  46
HETATM   46  C3  UNL     1      -3.529   4.299  12.078  1.00  0.00     0.034 C 
BRANCH  46  47
HETATM   47  C2  UNL     1      -4.970   4.440  12.545  1.00  0.00    -0.086 C 
HETATM   48  C1  UNL     1      -5.282   5.385  13.454  1.00  0.00     0.014 C 
BRANCH  47  49
HETATM   49  C35 UNL     1      -5.986   3.478  11.933  1.00  0.00     0.005 C 
HETATM   50  C36 UNL     1      -7.153   3.088  12.854  1.00  0.00     0.014 C 
HETATM   51  C37 UNL     1      -5.286   2.215  11.423  1.00  0.00     0.014 C 
ENDBRANCH  47  49
ENDBRANCH  46  47
ENDBRANCH  45  46
ENDBRANCH  43  45
ENDBRANCH   1  43
TORSDOF 15
ENDMDL
MODEL 7
REMARK minimizedAffinity -8.66755104
REMARK CNNscore 0.215757012
REMARK CNNaffinity 6.33120155
REMARK  15 active torsions:
REMARK  status: ('A' for Active; 'I' for Inactive)
REMARK    1  A    between atoms: C2_2  and  C3_3 
REMARK    2  A    between atoms: C2_2  and  C35_44 
REMARK    3  A    between atoms: C3_3  and  C4_4 
REMARK    4  A    between atoms: C4_4  and  C5_5 
REMARK    5  A    between atoms: C5_5  and  C7_7 
REMARK    6  A    between atoms: C9_9  and  O1_10 
REMARK    7  A    between atoms: C10_11  and  C11_12 
REMARK    8  A    between atoms: C11_12  and  O3_14 
REMARK    9  A    between atoms: C22_25  and  O4_26 
REMARK   10  A    between atoms: O4_26  and  C23_27 
REMARK   11  A    between atoms: C24_29  and  C25_30 
REMARK   12  A    between atoms: C25_30  and  O6_31 
REMARK   13  A    between atoms: C26_32  and  O7_33 
REMARK   14  A    between atoms: C28_35  and  O8_36 
REMARK   15  A    between atoms: C29_37  and  O9_38 
ROOT
HETATM    1  C7  UNL     1      -2.952   6.880  13.376  1.00  0.00     0.001 C 
HETATM    2  C8  UNL     1      -4.263   7.641  12.990  1.00  0.00     0.039 C 
HETATM    3  C9  UNL     1      -4.234   9.019  13.691  1.00  0.00     0.142 C 
HETATM    4  C10 UNL     1      -2.797   9.126  14.260  1.00  0.00     0.102 C 
HETATM    5  C12 UNL     1      -2.480  10.102  15.400  1.00  0.00    -0.054 C 
HETATM    6  C13 UNL     1      -1.464   9.848  16.269  1.00  0.00    -0.067 C 
HETATM    7  C14 UNL     1      -0.718   8.508  16.248  1.00  0.00     0.036 C 
HETATM    8  C15 UNL     1      -1.032   7.545  15.084  1.00  0.00     0.015 C 
HETATM    9  C16 UNL     1      -2.507   7.629  14.672  1.00  0.00    -0.016 C 
HETATM   10  C17 UNL     1      -3.361   7.124  15.877  1.00  0.00     0.017 C 
HETATM   11  C18 UNL     1      -1.004  10.884  17.332  1.00  0.00    -0.013 C 
HETATM   12  C19 UNL     1      -1.487  10.343  18.707  1.00  0.00     0.021 C 
HETATM   13  C20 UNL     1       0.556  11.030  17.363  1.00  0.00     0.017 C 
HETATM   14  C21 UNL     1       1.088  12.467  17.480  1.00  0.00     0.037 C 
HETATM   15  C22 UNL     1       0.273  13.383  18.401  1.00  0.00     0.153 C 
HETATM   16  C30 UNL     1      -1.221  13.299  18.130  1.00  0.00    -0.055 C 
HETATM   17  C31 UNL     1      -2.091  14.061  18.821  1.00  0.00     0.017 C 
HETATM   18  C32 UNL     1      -1.607  12.304  17.039  1.00  0.00     0.029 C 
HETATM   19  C33 UNL     1      -3.095  12.213  16.696  1.00  0.00     0.014 C 
HETATM   20  C34 UNL     1      -3.274  11.388  15.425  1.00  0.00     0.036 C 
ENDROOT
BRANCH  15  21
HETATM   21  O4  UNL     1       0.486  13.019  19.770  1.00  0.00    -0.349 OA
BRANCH  21  22
HETATM   22  C23 UNL     1       1.867  13.068  20.145  1.00  0.00     0.292 C 
HETATM   23  O5  UNL     1       2.383  11.759  20.360  1.00  0.00    -0.348 OA
HETATM   24  C24 UNL     1       2.543  11.422  21.742  1.00  0.00     0.179 C 
HETATM   25  C26 UNL     1       3.596  12.345  22.404  1.00  0.00     0.183 C 
HETATM   26  C28 UNL     1       3.344  13.814  22.009  1.00  0.00     0.183 C 
HETATM   27  C29 UNL     1       1.971  13.993  21.373  1.00  0.00     0.204 C 
BRANCH  24  28
HETATM   28  C25 UNL     1       2.892   9.935  21.846  1.00  0.00     0.198 C 
BRANCH  28  29
HETATM   29  O6  UNL     1       2.739   9.274  20.589  1.00  0.00    -0.398 OA
HETATM   30  H36 UNL     1       3.449   9.593  20.005  1.00  0.00     0.209 HD
ENDBRANCH  28  29
ENDBRANCH  24  28
BRANCH  25  31
HETATM   31  O7  UNL     1       4.912  11.959  21.956  1.00  0.00    -0.385 OA
HETATM   32  C27 UNL     1       5.935  12.297  22.895  1.00  0.00     0.202 C 
ENDBRANCH  25  31
BRANCH  26  33
HETATM   33  O8  UNL     1       3.443  14.655  23.167  1.00  0.00    -0.390 OA
HETATM   34  H42 UNL     1       3.127  15.534  22.873  1.00  0.00     0.210 HD
ENDBRANCH  26  33
BRANCH  27  35
HETATM   35  O9  UNL     1       1.785  15.372  21.011  1.00  0.00    -0.388 OA
HETATM   36  H44 UNL     1       0.923  15.409  20.555  1.00  0.00     0.210 HD
ENDBRANCH  27  35
ENDBRANCH  21  22
ENDBRANCH  15  21
BRANCH   4  37
HETATM   37  C11 UNL     1      -1.852   9.632  13.115  1.00  0.00     0.156 C 
HETATM   38  O2  UNL     1      -1.780   9.208  11.969  1.00  0.00    -0.649 OA
BRANCH  37  39
HETATM   39  O3  UNL     1      -1.045  10.671  13.439  1.00  0.00    -0.775 OA
HETATM   40  H16 UNL     1      -0.563  10.834  12.598  1.00  0.00     0.167 HD
ENDBRANCH  37  39
ENDBRANCH   4  37
BRANCH   3  41
HETATM   41  O1  UNL     1      -5.238   9.040  14.707  1.00  0.00    -0.394 OA
HETATM   42  H15 UNL     1      -6.100   8.908  14.277  1.00  0.00     0.210 HD
ENDBRANCH   3  41
BRANCH   1  43
HETATM   43  C5  UNL     1      -3.166   5.336  13.398  1.00  0.00    -0.013 C 
HETATM   44  C6  UNL     1      -2.777   4.686  12.069  1.00  0.00     0.010 C 
BRANCH  43  45
HETATM   45  C4  UNL     1      -4.644   5.002  13.752  1.00  0.00     0.009 C 
BRANCH  45  46
HETATM   46  C3  UNL     1      -5.371   4.166  12.685  1.00  0.00     0.034 C 
BRANCH  46  47
HETATM   47  C2  UNL     1      -6.881   4.188  12.869  1.00  0.00    -0.086 C 
HETATM   48  C1  UNL     1      -7.549   3.024  12.997  1.00  0.00     0.014 C 
BRANCH  47  49
HETATM   49  C35 UNL     1      -7.549   5.561  12.900  1.00  0.00     0.005 C 
HETATM   50  C36 UNL     1      -8.069   6.003  14.277  1.00  0.00     0.014 C 
HETATM   51  C37 UNL     1      -8.682   5.626  11.873  1.00  0.00     0.014 C 
ENDBRANCH  47  49
ENDBRANCH  46  47
ENDBRANCH  45  46
ENDBRANCH  43  45
ENDBRANCH   1  43
TORSDOF 15
ENDMDL
MODEL 8
REMARK minimizedAffinity -7.92034435
REMARK CNNscore 0.199583992
REMARK CNNaffinity 5.08798981
REMARK  15 active torsions:
REMARK  status: ('A' for Active; 'I' for Inactive)
REMARK    1  A    between atoms: C2_2  and  C3_3 
REMARK    2  A    between atoms: C2_2  and  C35_44 
REMARK    3  A    between atoms: C3_3  and  C4_4 
REMARK    4  A    between atoms: C4_4  and  C5_5 
REMARK    5  A    between atoms: C5_5  and  C7_7 
REMARK    6  A    between atoms: C9_9  and  O1_10 
REMARK    7  A    between atoms: C10_11  and  C11_12 
REMARK    8  A    between atoms: C11_12  and  O3_14 
REMARK    9  A    between atoms: C22_25  and  O4_26 
REMARK   10  A    between atoms: O4_26  and  C23_27 
REMARK   11  A    between atoms: C24_29  and  C25_30 
REMARK   12  A    between atoms: C25_30  and  O6_31 
REMARK   13  A    between atoms: C26_32  and  O7_33 
REMARK   14  A    between atoms: C28_35  and  O8_36 
REMARK   15  A    between atoms: C29_37  and  O9_38 
ROOT
HETATM    1  C7  UNL     1       5.023  12.459  22.108  1.00  0.00     0.001 C 
HETATM    2  C8  UNL     1       3.818  12.959  22.971  1.00  0.00     0.039 C 
HETATM    3  C9  UNL     1       2.515  12.573  22.231  1.00  0.00     0.142 C 
HETATM    4  C10 UNL     1       2.989  11.640  21.089  1.00  0.00     0.102 C 
HETATM    5  C12 UNL     1       2.104  11.403  19.858  1.00  0.00    -0.054 C 
HETATM    6  C13 UNL     1       2.659  11.092  18.654  1.00  0.00    -0.067 C 
HETATM    7  C14 UNL     1       4.177  11.137  18.445  1.00  0.00     0.036 C 
HETATM    8  C15 UNL     1       5.055  11.357  19.694  1.00  0.00     0.015 C 
HETATM    9  C16 UNL     1       4.373  12.294  20.699  1.00  0.00    -0.016 C 
HETATM   10  C17 UNL     1       4.246  13.696  20.022  1.00  0.00     0.017 C 
HETATM   11  C18 UNL     1       1.798  10.683  17.427  1.00  0.00    -0.013 C 
HETATM   12  C19 UNL     1       1.846  11.883  16.441  1.00  0.00     0.021 C 
HETATM   13  C20 UNL     1       2.375   9.413  16.711  1.00  0.00     0.017 C 
HETATM   14  C21 UNL     1       1.337   8.367  16.274  1.00  0.00     0.037 C 
HETATM   15  C22 UNL     1       0.025   8.947  15.736  1.00  0.00     0.153 C 
HETATM   16  C30 UNL     1      -0.540  10.037  16.634  1.00  0.00    -0.055 C 
HETATM   17  C31 UNL     1      -1.709  10.638  16.338  1.00  0.00     0.017 C 
HETATM   18  C32 UNL     1       0.322  10.357  17.852  1.00  0.00     0.029 C 
HETATM   19  C33 UNL     1      -0.223  11.416  18.812  1.00  0.00     0.014 C 
HETATM   20  C34 UNL     1       0.611  11.421  20.090  1.00  0.00     0.036 C 
ENDROOT
BRANCH  15  21
HETATM   21  O4  UNL     1       0.234   9.520  14.439  1.00  0.00    -0.349 OA
BRANCH  21  22
HETATM   22  C23 UNL     1       0.250   8.536  13.399  1.00  0.00     0.292 C 
HETATM   23  O5  UNL     1       1.554   7.991  13.234  1.00  0.00    -0.348 OA
HETATM   24  C24 UNL     1       2.245   8.486  12.082  1.00  0.00     0.179 C 
HETATM   25  C26 UNL     1       1.505   8.067  10.788  1.00  0.00     0.183 C 
HETATM   26  C28 UNL     1      -0.009   8.324  10.930  1.00  0.00     0.183 C 
HETATM   27  C29 UNL     1      -0.315   9.207  12.132  1.00  0.00     0.204 C 
BRANCH  24  28
HETATM   28  C25 UNL     1       3.696   7.999  12.134  1.00  0.00     0.198 C 
BRANCH  28  29
HETATM   29  O6  UNL     1       4.045   7.539  13.440  1.00  0.00    -0.398 OA
HETATM   30  H36 UNL     1       3.562   6.708  13.594  1.00  0.00     0.209 HD
ENDBRANCH  28  29
ENDBRANCH  24  28
BRANCH  25  31
HETATM   31  O7  UNL     1       1.722   6.659  10.554  1.00  0.00    -0.385 OA
HETATM   32  C27 UNL     1       2.132   6.380   9.214  1.00  0.00     0.202 C 
ENDBRANCH  25  31
BRANCH  26  33
HETATM   33  O8  UNL     1      -0.511   8.950   9.741  1.00  0.00    -0.390 OA
HETATM   34  H42 UNL     1      -1.428   9.217   9.960  1.00  0.00     0.210 HD
ENDBRANCH  26  33
BRANCH  27  35
HETATM   35  O9  UNL     1      -1.734   9.410  12.232  1.00  0.00    -0.388 OA
HETATM   36  H44 UNL     1      -1.869   9.924  13.050  1.00  0.00     0.210 HD
ENDBRANCH  27  35
ENDBRANCH  21  22
ENDBRANCH  15  21
BRANCH   4  37
HETATM   37  C11 UNL     1       3.147  10.193  21.671  1.00  0.00     0.156 C 
HETATM   38  O2  UNL     1       3.580   9.877  22.772  1.00  0.00    -0.649 OA
BRANCH  37  39
HETATM   39  O3  UNL     1       2.734   9.188  20.861  1.00  0.00    -0.775 OA
HETATM   40  H16 UNL     1       2.902   8.390  21.411  1.00  0.00     0.167 HD
ENDBRANCH  37  39
ENDBRANCH   4  37
BRANCH   3  41
HETATM   41  O1  UNL     1       1.887  13.764  21.754  1.00  0.00    -0.394 OA
HETATM   42  H15 UNL     1       1.676  14.319  22.523  1.00  0.00     0.210 HD
ENDBRANCH   3  41
BRANCH   1  43
HETATM   43  C5  UNL     1       6.278  13.367  22.291  1.00  0.00    -0.013 C 
HETATM   44  C6  UNL     1       7.431  12.620  22.964  1.00  0.00     0.010 C 
BRANCH  43  45
HETATM   45  C4  UNL     1       5.908  14.639  23.107  1.00  0.00     0.009 C 
BRANCH  45  46
HETATM   46  C3  UNL     1       6.973  15.748  23.056  1.00  0.00     0.034 C 
BRANCH  46  47
HETATM   47  C2  UNL     1       7.145  16.441  24.400  1.00  0.00    -0.086 C 
HETATM   48  C1  UNL     1       6.087  17.053  24.969  1.00  0.00     0.014 C 
BRANCH  47  49
HETATM   49  C35 UNL     1       8.538  16.390  25.024  1.00  0.00     0.005 C 
HETATM   50  C36 UNL     1       8.585  16.661  26.536  1.00  0.00     0.014 C 
HETATM   51  C37 UNL     1       9.484  17.348  24.296  1.00  0.00     0.014 C 
ENDBRANCH  47  49
ENDBRANCH  46  47
ENDBRANCH  45  46
ENDBRANCH  43  45
ENDBRANCH   1  43
TORSDOF 15
ENDMDL
MODEL 9
REMARK minimizedAffinity -7.52928972
REMARK CNNscore 0.194640234
REMARK CNNaffinity 6.42289877
REMARK  15 active torsions:
REMARK  status: ('A' for Active; 'I' for Inactive)
REMARK    1  A    between atoms: C2_2  and  C3_3 
REMARK    2  A    between atoms: C2_2  and  C35_44 
REMARK    3  A    between atoms: C3_3  and  C4_4 
REMARK    4  A    between atoms: C4_4  and  C5_5 
REMARK    5  A    between atoms: C5_5  and  C7_7 
REMARK    6  A    between atoms: C9_9  and  O1_10 
REMARK    7  A    between atoms: C10_11  and  C11_12 
REMARK    8  A    between atoms: C11_12  and  O3_14 
REMARK    9  A    between atoms: C22_25  and  O4_26 
REMARK   10  A    between atoms: O4_26  and  C23_27 
REMARK   11  A    between atoms: C24_29  and  C25_30 
REMARK   12  A    between atoms: C25_30  and  O6_31 
REMARK   13  A    between atoms: C26_32  and  O7_33 
REMARK   14  A    between atoms: C28_35  and  O8_36 
REMARK   15  A    between atoms: C29_37  and  O9_38 
ROOT
HETATM    1  C7  UNL     1      -0.244   6.084  13.652  1.00  0.00     0.001 C 
HETATM    2  C8  UNL     1       0.970   6.605  12.813  1.00  0.00     0.039 C 
HETATM    3  C9  UNL     1       1.284   8.045  13.281  1.00  0.00     0.142 C 
HETATM    4  C10 UNL     1       0.413   8.231  14.549  1.00  0.00     0.102 C 
HETATM    5  C12 UNL     1       0.068   9.637  15.058  1.00  0.00    -0.054 C 
HETATM    6  C13 UNL     1      -1.078   9.858  15.759  1.00  0.00    -0.067 C 
HETATM    7  C14 UNL     1      -2.139   8.762  15.915  1.00  0.00     0.036 C 
HETATM    8  C15 UNL     1      -1.770   7.349  15.416  1.00  0.00     0.015 C 
HETATM    9  C16 UNL     1      -0.883   7.411  14.166  1.00  0.00    -0.016 C 
HETATM   10  C17 UNL     1      -1.728   8.054  13.022  1.00  0.00     0.017 C 
HETATM   11  C18 UNL     1      -1.385  11.225  16.434  1.00  0.00    -0.013 C 
HETATM   12  C19 UNL     1      -2.509  11.886  15.587  1.00  0.00     0.021 C 
HETATM   13  C20 UNL     1      -1.895  11.044  17.905  1.00  0.00     0.017 C 
HETATM   14  C21 UNL     1      -1.316  12.026  18.935  1.00  0.00     0.037 C 
HETATM   15  C22 UNL     1      -1.123  13.458  18.424  1.00  0.00     0.153 C 
HETATM   16  C30 UNL     1      -0.430  13.504  17.071  1.00  0.00    -0.055 C 
HETATM   17  C31 UNL     1      -0.145  14.681  16.481  1.00  0.00     0.017 C 
HETATM   18  C32 UNL     1      -0.105  12.133  16.485  1.00  0.00     0.029 C 
HETATM   19  C33 UNL     1       0.633  12.123  15.145  1.00  0.00     0.014 C 
HETATM   20  C34 UNL     1       1.111  10.707  14.838  1.00  0.00     0.036 C 
ENDROOT
BRANCH  15  21
HETATM   21  O4  UNL     1      -2.394  14.105  18.281  1.00  0.00    -0.349 OA
BRANCH  21  22
HETATM   22  C23 UNL     1      -3.264  13.860  19.391  1.00  0.00     0.292 C 
HETATM   23  O5  UNL     1      -4.550  13.442  18.948  1.00  0.00    -0.348 OA
HETATM   24  C24 UNL     1      -5.551  14.461  19.038  1.00  0.00     0.179 C 
HETATM   25  C26 UNL     1      -5.784  14.860  20.516  1.00  0.00     0.183 C 
HETATM   26  C28 UNL     1      -4.434  15.060  21.235  1.00  0.00     0.183 C 
HETATM   27  C29 UNL     1      -3.281  15.144  20.245  1.00  0.00     0.204 C 
BRANCH  24  28
HETATM   28  C25 UNL     1      -6.820  13.965  18.339  1.00  0.00     0.198 C 
BRANCH  28  29
HETATM   29  O6  UNL     1      -7.337  14.946  17.439  1.00  0.00    -0.398 OA
HETATM   30  H36 UNL     1      -6.719  15.004  16.688  1.00  0.00     0.209 HD
ENDBRANCH  28  29
ENDBRANCH  24  28
BRANCH  25  31
HETATM   31  O7  UNL     1      -6.516  13.808  21.180  1.00  0.00    -0.385 OA
HETATM   32  C27 UNL     1      -5.761  13.181  22.218  1.00  0.00     0.202 C 
ENDBRANCH  25  31
BRANCH  26  33
HETATM   33  O8  UNL     1      -4.473  16.261  22.020  1.00  0.00    -0.390 OA
HETATM   34  H42 UNL     1      -3.551  16.401  22.320  1.00  0.00     0.210 HD
ENDBRANCH  26  33
BRANCH  27  35
HETATM   35  O9  UNL     1      -2.045  15.318  20.958  1.00  0.00    -0.388 OA
HETATM   36  H44 UNL     1      -1.345  15.300  20.278  1.00  0.00     0.210 HD
ENDBRANCH  27  35
ENDBRANCH  21  22
ENDBRANCH  15  21
BRANCH   4  37
HETATM   37  C11 UNL     1       1.181   7.613  15.768  1.00  0.00     0.156 C 
HETATM   38  O2  UNL     1       2.329   7.852  16.120  1.00  0.00    -0.649 OA
BRANCH  37  39
HETATM   39  O3  UNL     1       0.477   6.733  16.519  1.00  0.00    -0.775 OA
HETATM   40  H16 UNL     1       1.124   6.487  17.218  1.00  0.00     0.167 HD
ENDBRANCH  37  39
ENDBRANCH   4  37
BRANCH   3  41
HETATM   41  O1  UNL     1       0.943   8.954  12.233  1.00  0.00    -0.394 OA
HETATM   42  H15 UNL     1       1.488   8.734  11.459  1.00  0.00     0.210 HD
ENDBRANCH   3  41
BRANCH   1  43
HETATM   43  C5  UNL     1      -1.103   5.060  12.848  1.00  0.00    -0.013 C 
HETATM   44  C6  UNL     1      -1.120   5.378  11.352  1.00  0.00     0.010 C 
BRANCH  43  45
HETATM   45  C4  UNL     1      -2.553   5.016  13.409  1.00  0.00     0.009 C 
BRANCH  45  46
HETATM   46  C3  UNL     1      -3.645   5.210  12.343  1.00  0.00     0.034 C 
BRANCH  46  47
HETATM   47  C2  UNL     1      -4.658   4.075  12.346  1.00  0.00    -0.086 C 
HETATM   48  C1  UNL     1      -5.679   4.101  13.225  1.00  0.00     0.014 C 
BRANCH  47  49
HETATM   49  C35 UNL     1      -4.441   2.960  11.324  1.00  0.00     0.005 C 
HETATM   50  C36 UNL     1      -5.703   2.172  10.942  1.00  0.00     0.014 C 
HETATM   51  C37 UNL     1      -3.355   1.996  11.808  1.00  0.00     0.014 C 
ENDBRANCH  47  49
ENDBRANCH  46  47
ENDBRANCH  45  46
ENDBRANCH  43  45
ENDBRANCH   1  43
TORSDOF 15
ENDMDL
