MODEL 1
REMARK minimizedAffinity -6.61986685
REMARK CNNscore 0.590218425
REMARK CNNaffinity 6.36486006
REMARK  14 active torsions:
REMARK  status: ('A' for Active; 'I' for Inactive)
REMARK    1  A    between atoms: C2_2  and  C3_3 
REMARK    2  A    between atoms: C2_2  and  C27_31 
REMARK    3  A    between atoms: C4_4  and  C5_5 
REMARK    4  A    between atoms: C6_6  and  C7_7 
REMARK    5  A    between atoms: C6_6  and  C9_9 
REMARK    6  A    between atoms: C13_13  and  O1_14 
REMARK    7  A    between atoms: C15_16  and  C16_17 
REMARK    8  A    between atoms: C16_17  and  C17_18 
REMARK    9  A    between atoms: C17_18  and  C18_19 
REMARK   10  A    between atoms: C18_19  and  O2_20 
REMARK   11  A    between atoms: C20_22  and  C22_24 
REMARK   12  A    between atoms: C25_28  and  O4_30 
REMARK   13  A    between atoms: C27_31  and  C28_32 
REMARK   14  A    between atoms: C28_32  and  C29_33 
ROOT
HETATM    1  C9  UNL     1      -8.103  48.167 -28.917  1.00  0.00     0.044 C 
HETATM    2  C10 UNL     1      -7.900  47.500 -27.548  1.00  0.00     0.013 C 
HETATM    3  C11 UNL     1      -8.822  46.300 -27.552  1.00  0.00     0.017 C 
HETATM    4  C12 UNL     1     -10.101  46.713 -28.331  1.00  0.00     0.025 C 
HETATM    5  C13 UNL     1      -9.475  47.624 -29.474  1.00  0.00     0.141 C 
HETATM    6  C15 UNL     1     -10.877  45.354 -28.713  1.00  0.00     0.029 C 
HETATM    7  C19 UNL     1     -12.405  45.554 -28.824  1.00  0.00    -0.066 C 
HETATM    8  C20 UNL     1     -13.332  44.672 -28.365  1.00  0.00    -0.021 C 
HETATM    9  C21 UNL     1     -13.054  43.364 -27.665  1.00  0.00     0.052 C 
HETATM   10  C23 UNL     1     -12.718  46.925 -29.363  1.00  0.00     0.038 C 
HETATM   11  C24 UNL     1     -12.370  47.961 -28.293  1.00  0.00     0.042 C 
HETATM   12  C25 UNL     1     -11.087  47.625 -27.474  1.00  0.00     0.065 C 
HETATM   13  C26 UNL     1     -11.456  47.016 -26.105  1.00  0.00     0.047 C 
ENDROOT
BRANCH   5  14
HETATM   14  O1  UNL     1      -9.319  46.955 -30.721  1.00  0.00    -0.389 OA
HETATM   15  C14 UNL     1      -8.384  45.880 -30.671  1.00  0.00     0.202 C 
ENDBRANCH   5  14
BRANCH   6  16
HETATM   16  C16 UNL     1     -10.321  44.596 -29.946  1.00  0.00     0.012 C 
BRANCH  16  17
HETATM   17  C17 UNL     1     -11.374  43.942 -30.851  1.00  0.00     0.027 C 
BRANCH  17  18
HETATM   18  C18 UNL     1     -10.741  43.107 -31.964  1.00  0.00     0.164 C 
BRANCH  18  19
HETATM   19  O2  UNL     1     -10.981  41.720 -31.764  1.00  0.00    -0.401 OA
HETATM   20  H27 UNL     1     -11.927  41.563 -31.924  1.00  0.00     0.209 HD
ENDBRANCH  18  19
ENDBRANCH  17  18
ENDBRANCH  16  17
ENDBRANCH   6  16
BRANCH  12  21
HETATM   21  O4  UNL     1     -10.479  48.891 -27.167  1.00  0.00    -0.389 OA
HETATM   22  H39 UNL     1     -11.108  49.412 -26.641  1.00  0.00     0.210 HD
ENDBRANCH  12  21
BRANCH   1  23
HETATM   23  C6  UNL     1      -6.862  48.054 -29.823  1.00  0.00    -0.074 C 
HETATM   24  C5  UNL     1      -5.600  47.931 -29.354  1.00  0.00     0.003 C 
BRANCH  24  25
HETATM   25  C4  UNL     1      -5.156  47.943 -27.972  1.00  0.00     0.001 C 
HETATM   26  C3  UNL     1      -4.015  48.543 -27.589  1.00  0.00     0.006 C 
BRANCH  26  27
HETATM   27  C2  UNL     1      -3.484  48.624 -26.227  1.00  0.00    -0.067 C 
HETATM   28  C1  UNL     1      -2.199  48.990 -26.067  1.00  0.00     0.019 C 
BRANCH  27  29
HETATM   29  C27 UNL     1      -4.418  48.292 -25.071  1.00  0.00     0.041 C 
BRANCH  29  30
HETATM   30  C28 UNL     1      -3.887  48.527 -23.649  1.00  0.00     0.032 C 
BRANCH  30  31
HETATM   31  C29 UNL     1      -3.784  49.997 -23.338  1.00  0.00    -0.024 C 
HETATM   32  C30 UNL     1      -4.786  50.850 -23.048  1.00  0.00    -0.091 C 
HETATM   33  C31 UNL     1      -4.505  52.311 -22.809  1.00  0.00     0.042 C 
HETATM   34  C32 UNL     1      -6.236  50.469 -22.927  1.00  0.00     0.042 C 
ENDBRANCH  30  31
ENDBRANCH  29  30
ENDBRANCH  27  29
ENDBRANCH  26  27
ENDBRANCH  24  25
BRANCH  23  35
HETATM   35  C7  UNL     1      -7.147  48.059 -31.327  1.00  0.00     0.030 C 
HETATM   36  C8  UNL     1      -5.950  47.985 -32.272  1.00  0.00     0.010 C 
ENDBRANCH  23  35
ENDBRANCH   1  23
BRANCH   8  37
HETATM   37  C22 UNL     1     -14.806  44.932 -28.473  1.00  0.00     0.265 C 
HETATM   38  O3  UNL     1     -15.639  44.030 -28.491  1.00  0.00    -0.302 OA
ENDBRANCH   8  37
TORSDOF 14
ENDMDL
MODEL 2
REMARK minimizedAffinity -7.12090588
REMARK CNNscore 0.555452228
REMARK CNNaffinity 6.97362328
REMARK  14 active torsions:
REMARK  status: ('A' for Active; 'I' for Inactive)
REMARK    1  A    between atoms: C2_2  and  C3_3 
REMARK    2  A    between atoms: C2_2  and  C27_31 
REMARK    3  A    between atoms: C4_4  and  C5_5 
REMARK    4  A    between atoms: C6_6  and  C7_7 
REMARK    5  A    between atoms: C6_6  and  C9_9 
REMARK    6  A    between atoms: C13_13  and  O1_14 
REMARK    7  A    between atoms: C15_16  and  C16_17 
REMARK    8  A    between atoms: C16_17  and  C17_18 
REMARK    9  A    between atoms: C17_18  and  C18_19 
REMARK   10  A    between atoms: C18_19  and  O2_20 
REMARK   11  A    between atoms: C20_22  and  C22_24 
REMARK   12  A    between atoms: C25_28  and  O4_30 
REMARK   13  A    between atoms: C27_31  and  C28_32 
REMARK   14  A    between atoms: C28_32  and  C29_33 
ROOT
HETATM    1  C9  UNL     1      -1.466  50.031 -17.848  1.00  0.00     0.044 C 
HETATM    2  C10 UNL     1      -0.620  48.963 -18.556  1.00  0.00     0.013 C 
HETATM    3  C11 UNL     1      -0.340  49.529 -19.932  1.00  0.00     0.017 C 
HETATM    4  C12 UNL     1      -1.610  50.312 -20.368  1.00  0.00     0.025 C 
HETATM    5  C13 UNL     1      -2.056  50.954 -18.983  1.00  0.00     0.141 C 
HETATM    6  C15 UNL     1      -1.179  51.258 -21.597  1.00  0.00     0.029 C 
HETATM    7  C19 UNL     1      -2.346  51.536 -22.570  1.00  0.00    -0.066 C 
HETATM    8  C20 UNL     1      -2.230  51.564 -23.925  1.00  0.00    -0.021 C 
HETATM    9  C21 UNL     1      -0.971  51.324 -24.720  1.00  0.00     0.052 C 
HETATM   10  C23 UNL     1      -3.650  51.611 -21.820  1.00  0.00     0.038 C 
HETATM   11  C24 UNL     1      -4.012  50.209 -21.329  1.00  0.00     0.042 C 
HETATM   12  C25 UNL     1      -2.791  49.361 -20.861  1.00  0.00     0.065 C 
HETATM   13  C26 UNL     1      -2.363  48.365 -21.958  1.00  0.00     0.047 C 
ENDROOT
BRANCH   5  14
HETATM   14  O1  UNL     1      -1.662  52.312 -18.827  1.00  0.00    -0.389 OA
HETATM   15  C14 UNL     1      -0.249  52.495 -18.841  1.00  0.00     0.202 C 
ENDBRANCH   5  14
BRANCH   6  16
HETATM   16  C16 UNL     1      -0.454  52.571 -21.203  1.00  0.00     0.012 C 
BRANCH  16  17
HETATM   17  C17 UNL     1       0.740  52.959 -22.085  1.00  0.00     0.027 C 
BRANCH  17  18
HETATM   18  C18 UNL     1       1.345  54.303 -21.681  1.00  0.00     0.164 C 
BRANCH  18  19
HETATM   19  O2  UNL     1       1.926  54.960 -22.799  1.00  0.00    -0.401 OA
HETATM   20  H27 UNL     1       1.199  55.248 -23.377  1.00  0.00     0.209 HD
ENDBRANCH  18  19
ENDBRANCH  17  18
ENDBRANCH  16  17
ENDBRANCH   6  16
BRANCH  12  21
HETATM   21  O4  UNL     1      -3.275  48.543 -19.783  1.00  0.00    -0.389 OA
HETATM   22  H39 UNL     1      -3.988  47.977 -20.125  1.00  0.00     0.210 HD
ENDBRANCH  12  21
BRANCH   1  23
HETATM   23  C6  UNL     1      -0.715  50.710 -16.686  1.00  0.00    -0.074 C 
HETATM   24  C5  UNL     1      -1.114  50.644 -15.395  1.00  0.00     0.003 C 
BRANCH  24  25
HETATM   25  C4  UNL     1      -2.306  50.011 -14.861  1.00  0.00     0.001 C 
HETATM   26  C3  UNL     1      -2.304  49.348 -13.690  1.00  0.00     0.006 C 
BRANCH  26  27
HETATM   27  C2  UNL     1      -3.447  48.687 -13.058  1.00  0.00    -0.067 C 
HETATM   28  C1  UNL     1      -3.730  47.423 -13.423  1.00  0.00     0.019 C 
BRANCH  27  29
HETATM   29  C27 UNL     1      -4.247  49.467 -12.024  1.00  0.00     0.041 C 
BRANCH  29  30
HETATM   30  C28 UNL     1      -3.485  49.993 -10.797  1.00  0.00     0.032 C 
BRANCH  30  31
HETATM   31  C29 UNL     1      -3.856  51.420 -10.490  1.00  0.00    -0.024 C 
HETATM   32  C30 UNL     1      -3.257  52.541 -10.937  1.00  0.00    -0.091 C 
HETATM   33  C31 UNL     1      -3.734  53.898 -10.488  1.00  0.00     0.042 C 
HETATM   34  C32 UNL     1      -2.099  52.577 -11.897  1.00  0.00     0.042 C 
ENDBRANCH  30  31
ENDBRANCH  29  30
ENDBRANCH  27  29
ENDBRANCH  26  27
ENDBRANCH  24  25
BRANCH  23  35
HETATM   35  C7  UNL     1       0.560  51.459 -17.079  1.00  0.00     0.030 C 
HETATM   36  C8  UNL     1       1.573  51.754 -15.976  1.00  0.00     0.010 C 
ENDBRANCH  23  35
ENDBRANCH   1  23
BRANCH   8  37
HETATM   37  C22 UNL     1      -3.406  51.811 -24.824  1.00  0.00     0.265 C 
HETATM   38  O3  UNL     1      -3.493  52.799 -25.546  1.00  0.00    -0.302 OA
ENDBRANCH   8  37
TORSDOF 14
ENDMDL
MODEL 3
REMARK minimizedAffinity -7.30477667
REMARK CNNscore 0.441669881
REMARK CNNaffinity 6.11798716
REMARK  14 active torsions:
REMARK  status: ('A' for Active; 'I' for Inactive)
REMARK    1  A    between atoms: C2_2  and  C3_3 
REMARK    2  A    between atoms: C2_2  and  C27_31 
REMARK    3  A    between atoms: C4_4  and  C5_5 
REMARK    4  A    between atoms: C6_6  and  C7_7 
REMARK    5  A    between atoms: C6_6  and  C9_9 
REMARK    6  A    between atoms: C13_13  and  O1_14 
REMARK    7  A    between atoms: C15_16  and  C16_17 
REMARK    8  A    between atoms: C16_17  and  C17_18 
REMARK    9  A    between atoms: C17_18  and  C18_19 
REMARK   10  A    between atoms: C18_19  and  O2_20 
REMARK   11  A    between atoms: C20_22  and  C22_24 
REMARK   12  A    between atoms: C25_28  and  O4_30 
REMARK   13  A    between atoms: C27_31  and  C28_32 
REMARK   14  A    between atoms: C28_32  and  C29_33 
ROOT
HETATM    1  C9  UNL     1      -8.225  48.198 -28.382  1.00  0.00     0.044 C 
HETATM    2  C10 UNL     1      -8.175  47.588 -26.974  1.00  0.00     0.013 C 
HETATM    3  C11 UNL     1      -9.099  46.390 -27.028  1.00  0.00     0.017 C 
HETATM    4  C12 UNL     1     -10.284  46.773 -27.957  1.00  0.00     0.025 C 
HETATM    5  C13 UNL     1      -9.532  47.635 -29.062  1.00  0.00     0.141 C 
HETATM    6  C15 UNL     1     -11.022  45.401 -28.364  1.00  0.00     0.029 C 
HETATM    7  C19 UNL     1     -12.528  45.599 -28.648  1.00  0.00    -0.066 C 
HETATM    8  C20 UNL     1     -13.505  44.738 -28.256  1.00  0.00    -0.021 C 
HETATM    9  C21 UNL     1     -13.313  43.461 -27.477  1.00  0.00     0.052 C 
HETATM   10  C23 UNL     1     -12.773  46.947 -29.274  1.00  0.00     0.038 C 
HETATM   11  C24 UNL     1     -12.535  48.026 -28.216  1.00  0.00     0.042 C 
HETATM   12  C25 UNL     1     -11.351  47.722 -27.249  1.00  0.00     0.065 C 
HETATM   13  C26 UNL     1     -11.870  47.171 -25.905  1.00  0.00     0.047 C 
ENDROOT
BRANCH   5  14
HETATM   14  O1  UNL     1      -9.246  46.914 -30.256  1.00  0.00    -0.389 OA
HETATM   15  C14 UNL     1      -8.282  45.881 -30.074  1.00  0.00     0.202 C 
ENDBRANCH   5  14
BRANCH   6  16
HETATM   16  C16 UNL     1     -10.341  44.591 -29.498  1.00  0.00     0.012 C 
BRANCH  16  17
HETATM   17  C17 UNL     1     -11.294  43.928 -30.501  1.00  0.00     0.027 C 
BRANCH  17  18
HETATM   18  C18 UNL     1     -11.000  44.347 -31.942  1.00  0.00     0.164 C 
BRANCH  18  19
HETATM   19  O2  UNL     1     -11.510  45.645 -32.212  1.00  0.00    -0.401 OA
HETATM   20  H27 UNL     1     -10.966  46.281 -31.716  1.00  0.00     0.209 HD
ENDBRANCH  18  19
ENDBRANCH  17  18
ENDBRANCH  16  17
ENDBRANCH   6  16
BRANCH  12  21
HETATM   21  O4  UNL     1     -10.771  48.998 -26.931  1.00  0.00    -0.389 OA
HETATM   22  H39 UNL     1     -11.450  49.542 -26.498  1.00  0.00     0.210 HD
ENDBRANCH  12  21
BRANCH   1  23
HETATM   23  C6  UNL     1      -6.894  48.044 -29.143  1.00  0.00    -0.074 C 
HETATM   24  C5  UNL     1      -5.702  47.841 -28.537  1.00  0.00     0.003 C 
BRANCH  24  25
HETATM   25  C4  UNL     1      -5.423  47.790 -27.114  1.00  0.00     0.001 C 
HETATM   26  C3  UNL     1      -4.434  48.506 -26.550  1.00  0.00     0.006 C 
BRANCH  26  27
HETATM   27  C2  UNL     1      -4.076  48.537 -25.130  1.00  0.00    -0.067 C 
HETATM   28  C1  UNL     1      -5.048  48.313 -24.227  1.00  0.00     0.019 C 
BRANCH  27  29
HETATM   29  C27 UNL     1      -2.626  48.817 -24.760  1.00  0.00     0.041 C 
BRANCH  29  30
HETATM   30  C28 UNL     1      -2.139  50.270 -24.876  1.00  0.00     0.032 C 
BRANCH  30  31
HETATM   31  C29 UNL     1      -1.336  50.481 -26.133  1.00  0.00    -0.024 C 
HETATM   32  C30 UNL     1      -0.215  51.213 -26.280  1.00  0.00    -0.091 C 
HETATM   33  C31 UNL     1       0.438  51.356 -27.630  1.00  0.00     0.042 C 
HETATM   34  C32 UNL     1       0.493  51.940 -25.169  1.00  0.00     0.042 C 
ENDBRANCH  30  31
ENDBRANCH  29  30
ENDBRANCH  27  29
ENDBRANCH  26  27
ENDBRANCH  24  25
BRANCH  23  35
HETATM   35  C7  UNL     1      -7.001  48.108 -30.669  1.00  0.00     0.030 C 
HETATM   36  C8  UNL     1      -5.703  48.237 -31.462  1.00  0.00     0.010 C 
ENDBRANCH  23  35
ENDBRANCH   1  23
BRANCH   8  37
HETATM   37  C22 UNL     1     -14.957  44.996 -28.534  1.00  0.00     0.265 C 
HETATM   38  O3  UNL     1     -15.737  45.393 -27.673  1.00  0.00    -0.302 OA
ENDBRANCH   8  37
TORSDOF 14
ENDMDL
MODEL 4
REMARK minimizedAffinity -6.44623423
REMARK CNNscore 0.423643768
REMARK CNNaffinity 6.33051443
REMARK  14 active torsions:
REMARK  status: ('A' for Active; 'I' for Inactive)
REMARK    1  A    between atoms: C2_2  and  C3_3 
REMARK    2  A    between atoms: C2_2  and  C27_31 
REMARK    3  A    between atoms: C4_4  and  C5_5 
REMARK    4  A    between atoms: C6_6  and  C7_7 
REMARK    5  A    between atoms: C6_6  and  C9_9 
REMARK    6  A    between atoms: C13_13  and  O1_14 
REMARK    7  A    between atoms: C15_16  and  C16_17 
REMARK    8  A    between atoms: C16_17  and  C17_18 
REMARK    9  A    between atoms: C17_18  and  C18_19 
REMARK   10  A    between atoms: C18_19  and  O2_20 
REMARK   11  A    between atoms: C20_22  and  C22_24 
REMARK   12  A    between atoms: C25_28  and  O4_30 
REMARK   13  A    between atoms: C27_31  and  C28_32 
REMARK   14  A    between atoms: C28_32  and  C29_33 
ROOT
HETATM    1  C9  UNL     1      -8.427  47.709 -29.868  1.00  0.00     0.044 C 
HETATM    2  C10 UNL     1      -8.455  48.339 -28.468  1.00  0.00     0.013 C 
HETATM    3  C11 UNL     1      -9.078  47.289 -27.573  1.00  0.00     0.017 C 
HETATM    4  C12 UNL     1     -10.167  46.566 -28.414  1.00  0.00     0.025 C 
HETATM    5  C13 UNL     1      -9.464  46.522 -29.840  1.00  0.00     0.141 C 
HETATM    6  C15 UNL     1     -10.521  45.197 -27.644  1.00  0.00     0.029 C 
HETATM    7  C19 UNL     1     -11.975  44.736 -27.890  1.00  0.00    -0.066 C 
HETATM    8  C20 UNL     1     -12.789  44.211 -26.936  1.00  0.00    -0.021 C 
HETATM    9  C21 UNL     1     -12.441  43.993 -25.484  1.00  0.00     0.052 C 
HETATM   10  C23 UNL     1     -12.411  45.096 -29.286  1.00  0.00     0.038 C 
HETATM   11  C24 UNL     1     -12.573  46.614 -29.370  1.00  0.00     0.042 C 
HETATM   12  C25 UNL     1     -11.508  47.415 -28.562  1.00  0.00     0.065 C 
HETATM   13  C26 UNL     1     -12.087  47.892 -27.215  1.00  0.00     0.047 C 
ENDROOT
BRANCH   5  14
HETATM   14  O1  UNL     1      -8.856  45.272 -30.142  1.00  0.00    -0.389 OA
HETATM   15  C14 UNL     1      -7.733  44.976 -29.315  1.00  0.00     0.202 C 
ENDBRANCH   5  14
BRANCH   6  16
HETATM   16  C16 UNL     1      -9.520  44.033 -27.863  1.00  0.00     0.012 C 
BRANCH  16  17
HETATM   17  C17 UNL     1      -9.247  43.155 -26.634  1.00  0.00     0.027 C 
BRANCH  17  18
HETATM   18  C18 UNL     1      -7.993  43.593 -25.878  1.00  0.00     0.164 C 
BRANCH  18  19
HETATM   19  O2  UNL     1      -7.474  42.532 -25.088  1.00  0.00    -0.401 OA
HETATM   20  H27 UNL     1      -7.105  41.869 -25.697  1.00  0.00     0.209 HD
ENDBRANCH  18  19
ENDBRANCH  17  18
ENDBRANCH  16  17
ENDBRANCH   6  16
BRANCH  12  21
HETATM   21  O4  UNL     1     -11.272  48.618 -29.313  1.00  0.00    -0.389 OA
HETATM   22  H39 UNL     1     -12.110  49.107 -29.376  1.00  0.00     0.210 HD
ENDBRANCH  12  21
BRANCH   1  23
HETATM   23  C6  UNL     1      -6.997  47.404 -30.354  1.00  0.00    -0.074 C 
HETATM   24  C5  UNL     1      -5.919  47.369 -29.537  1.00  0.00     0.003 C 
BRANCH  24  25
HETATM   25  C4  UNL     1      -5.866  47.660 -28.117  1.00  0.00     0.001 C 
HETATM   26  C3  UNL     1      -4.735  48.055 -27.505  1.00  0.00     0.006 C 
BRANCH  26  27
HETATM   27  C2  UNL     1      -4.576  48.383 -26.087  1.00  0.00    -0.067 C 
HETATM   28  C1  UNL     1      -5.659  48.301 -25.292  1.00  0.00     0.019 C 
BRANCH  27  29
HETATM   29  C27 UNL     1      -3.195  48.794 -25.595  1.00  0.00     0.041 C 
BRANCH  29  30
HETATM   30  C28 UNL     1      -3.110  49.444 -24.205  1.00  0.00     0.032 C 
BRANCH  30  31
HETATM   31  C29 UNL     1      -2.590  48.474 -23.177  1.00  0.00    -0.024 C 
HETATM   32  C30 UNL     1      -3.252  47.962 -22.120  1.00  0.00    -0.091 C 
HETATM   33  C31 UNL     1      -2.558  47.034 -21.157  1.00  0.00     0.042 C 
HETATM   34  C32 UNL     1      -4.694  48.234 -21.791  1.00  0.00     0.042 C 
ENDBRANCH  30  31
ENDBRANCH  29  30
ENDBRANCH  27  29
ENDBRANCH  26  27
ENDBRANCH  24  25
BRANCH  23  35
HETATM   35  C7  UNL     1      -6.862  47.105 -31.849  1.00  0.00     0.030 C 
HETATM   36  C8  UNL     1      -5.841  46.051 -32.268  1.00  0.00     0.010 C 
ENDBRANCH  23  35
ENDBRANCH   1  23
BRANCH   8  37
HETATM   37  C22 UNL     1     -14.205  43.806 -27.226  1.00  0.00     0.265 C 
HETATM   38  O3  UNL     1     -15.012  44.559 -27.763  1.00  0.00    -0.302 OA
ENDBRANCH   8  37
TORSDOF 14
ENDMDL
MODEL 5
REMARK minimizedAffinity -6.37516212
REMARK CNNscore 0.404480994
REMARK CNNaffinity 6.32375002
REMARK  14 active torsions:
REMARK  status: ('A' for Active; 'I' for Inactive)
REMARK    1  A    between atoms: C2_2  and  C3_3 
REMARK    2  A    between atoms: C2_2  and  C27_31 
REMARK    3  A    between atoms: C4_4  and  C5_5 
REMARK    4  A    between atoms: C6_6  and  C7_7 
REMARK    5  A    between atoms: C6_6  and  C9_9 
REMARK    6  A    between atoms: C13_13  and  O1_14 
REMARK    7  A    between atoms: C15_16  and  C16_17 
REMARK    8  A    between atoms: C16_17  and  C17_18 
REMARK    9  A    between atoms: C17_18  and  C18_19 
REMARK   10  A    between atoms: C18_19  and  O2_20 
REMARK   11  A    between atoms: C20_22  and  C22_24 
REMARK   12  A    between atoms: C25_28  and  O4_30 
REMARK   13  A    between atoms: C27_31  and  C28_32 
REMARK   14  A    between atoms: C28_32  and  C29_33 
ROOT
HETATM    1  C9  UNL     1      -7.886  47.593 -28.581  1.00  0.00     0.044 C 
HETATM    2  C10 UNL     1      -8.677  48.710 -29.278  1.00  0.00     0.013 C 
HETATM    3  C11 UNL     1      -9.564  48.001 -30.279  1.00  0.00     0.017 C 
HETATM    4  C12 UNL     1      -8.752  46.797 -30.832  1.00  0.00     0.025 C 
HETATM    5  C13 UNL     1      -7.978  46.332 -29.523  1.00  0.00     0.141 C 
HETATM    6  C15 UNL     1      -9.805  45.809 -31.544  1.00  0.00     0.029 C 
HETATM    7  C19 UNL     1      -9.174  45.001 -32.700  1.00  0.00    -0.066 C 
HETATM    8  C20 UNL     1      -9.788  44.747 -33.886  1.00  0.00    -0.021 C 
HETATM    9  C21 UNL     1     -11.166  45.203 -34.297  1.00  0.00     0.052 C 
HETATM   10  C23 UNL     1      -7.737  44.677 -32.391  1.00  0.00     0.038 C 
HETATM   11  C24 UNL     1      -6.919  45.967 -32.462  1.00  0.00     0.042 C 
HETATM   12  C25 UNL     1      -7.660  47.223 -31.912  1.00  0.00     0.065 C 
HETATM   13  C26 UNL     1      -8.234  48.069 -33.068  1.00  0.00     0.047 C 
ENDROOT
BRANCH   5  14
HETATM   14  O1  UNL     1      -8.575  45.218 -28.869  1.00  0.00    -0.389 OA
HETATM   15  C14 UNL     1      -7.653  44.171 -28.582  1.00  0.00     0.202 C 
ENDBRANCH   5  14
BRANCH   6  16
HETATM   16  C16 UNL     1     -10.602  44.885 -30.586  1.00  0.00     0.012 C 
BRANCH  16  17
HETATM   17  C17 UNL     1     -10.699  43.415 -31.013  1.00  0.00     0.027 C 
BRANCH  17  18
HETATM   18  C18 UNL     1     -10.970  42.486 -29.830  1.00  0.00     0.164 C 
BRANCH  18  19
HETATM   19  O2  UNL     1     -12.154  42.865 -29.141  1.00  0.00    -0.401 OA
HETATM   20  H27 UNL     1     -12.907  42.657 -29.720  1.00  0.00     0.209 HD
ENDBRANCH  18  19
ENDBRANCH  17  18
ENDBRANCH  16  17
ENDBRANCH   6  16
BRANCH  12  21
HETATM   21  O4  UNL     1      -6.644  48.046 -31.317  1.00  0.00    -0.389 OA
HETATM   22  H39 UNL     1      -6.003  48.287 -32.008  1.00  0.00     0.210 HD
ENDBRANCH  12  21
BRANCH   1  23
HETATM   23  C6  UNL     1      -8.282  47.419 -27.103  1.00  0.00    -0.074 C 
HETATM   24  C5  UNL     1      -7.417  47.562 -26.073  1.00  0.00     0.003 C 
BRANCH  24  25
HETATM   25  C4  UNL     1      -5.992  47.831 -26.135  1.00  0.00     0.001 C 
HETATM   26  C3  UNL     1      -5.343  48.491 -25.159  1.00  0.00     0.006 C 
BRANCH  26  27
HETATM   27  C2  UNL     1      -3.913  48.804 -25.117  1.00  0.00    -0.067 C 
HETATM   28  C1  UNL     1      -3.223  48.473 -24.010  1.00  0.00     0.019 C 
BRANCH  27  29
HETATM   29  C27 UNL     1      -3.290  49.481 -26.330  1.00  0.00     0.041 C 
BRANCH  29  30
HETATM   30  C28 UNL     1      -1.775  49.738 -26.292  1.00  0.00     0.032 C 
BRANCH  30  31
HETATM   31  C29 UNL     1      -1.399  50.929 -27.132  1.00  0.00    -0.024 C 
HETATM   32  C30 UNL     1      -0.205  51.552 -27.190  1.00  0.00    -0.091 C 
HETATM   33  C31 UNL     1      -0.015  52.769 -28.057  1.00  0.00     0.042 C 
HETATM   34  C32 UNL     1       1.027  51.126 -26.439  1.00  0.00     0.042 C 
ENDBRANCH  30  31
ENDBRANCH  29  30
ENDBRANCH  27  29
ENDBRANCH  26  27
ENDBRANCH  24  25
BRANCH  23  35
HETATM   35  C7  UNL     1      -9.756  47.093 -26.854  1.00  0.00     0.030 C 
HETATM   36  C8  UNL     1     -10.645  48.213 -26.316  1.00  0.00     0.010 C 
ENDBRANCH  23  35
ENDBRANCH   1  23
BRANCH   8  37
HETATM   37  C22 UNL     1      -9.115  43.981 -34.987  1.00  0.00     0.265 C 
HETATM   38  O3  UNL     1      -9.084  42.754 -35.018  1.00  0.00    -0.302 OA
ENDBRANCH   8  37
TORSDOF 14
ENDMDL
MODEL 6
REMARK minimizedAffinity -7.62691355
REMARK CNNscore 0.337716401
REMARK CNNaffinity 7.02318192
REMARK  14 active torsions:
REMARK  status: ('A' for Active; 'I' for Inactive)
REMARK    1  A    between atoms: C2_2  and  C3_3 
REMARK    2  A    between atoms: C2_2  and  C27_31 
REMARK    3  A    between atoms: C4_4  and  C5_5 
REMARK    4  A    between atoms: C6_6  and  C7_7 
REMARK    5  A    between atoms: C6_6  and  C9_9 
REMARK    6  A    between atoms: C13_13  and  O1_14 
REMARK    7  A    between atoms: C15_16  and  C16_17 
REMARK    8  A    between atoms: C16_17  and  C17_18 
REMARK    9  A    between atoms: C17_18  and  C18_19 
REMARK   10  A    between atoms: C18_19  and  O2_20 
REMARK   11  A    between atoms: C20_22  and  C22_24 
REMARK   12  A    between atoms: C25_28  and  O4_30 
REMARK   13  A    between atoms: C27_31  and  C28_32 
REMARK   14  A    between atoms: C28_32  and  C29_33 
ROOT
HETATM    1  C9  UNL     1      -1.471  49.817 -20.637  1.00  0.00     0.044 C 
HETATM    2  C10 UNL     1      -1.539  48.664 -21.650  1.00  0.00     0.013 C 
HETATM    3  C11 UNL     1      -3.014  48.362 -21.807  1.00  0.00     0.017 C 
HETATM    4  C12 UNL     1      -3.670  48.565 -20.412  1.00  0.00     0.025 C 
HETATM    5  C13 UNL     1      -2.854  49.821 -19.879  1.00  0.00     0.141 C 
HETATM    6  C15 UNL     1      -5.258  48.674 -20.653  1.00  0.00     0.029 C 
HETATM    7  C19 UNL     1      -6.078  48.175 -19.442  1.00  0.00    -0.066 C 
HETATM    8  C20 UNL     1      -7.212  47.431 -19.534  1.00  0.00    -0.021 C 
HETATM    9  C21 UNL     1      -7.867  46.951 -20.805  1.00  0.00     0.052 C 
HETATM   10  C23 UNL     1      -5.361  48.491 -18.156  1.00  0.00     0.038 C 
HETATM   11  C24 UNL     1      -4.124  47.597 -18.055  1.00  0.00     0.042 C 
HETATM   12  C25 UNL     1      -3.400  47.354 -19.413  1.00  0.00     0.065 C 
HETATM   13  C26 UNL     1      -3.778  45.977 -19.996  1.00  0.00     0.047 C 
ENDROOT
BRANCH   5  14
HETATM   14  O1  UNL     1      -3.542  51.058 -20.028  1.00  0.00    -0.389 OA
HETATM   15  C14 UNL     1      -3.700  51.456 -21.387  1.00  0.00     0.202 C 
ENDBRANCH   5  14
BRANCH   6  16
HETATM   16  C16 UNL     1      -5.763  50.058 -21.139  1.00  0.00     0.012 C 
BRANCH  16  17
HETATM   17  C17 UNL     1      -6.791  50.025 -22.277  1.00  0.00     0.027 C 
BRANCH  17  18
HETATM   18  C18 UNL     1      -6.145  49.732 -23.631  1.00  0.00     0.164 C 
BRANCH  18  19
HETATM   19  O2  UNL     1      -5.817  50.934 -24.313  1.00  0.00    -0.401 OA
HETATM   20  H27 UNL     1      -5.076  51.346 -23.836  1.00  0.00     0.209 HD
ENDBRANCH  18  19
ENDBRANCH  17  18
ENDBRANCH  16  17
ENDBRANCH   6  16
BRANCH  12  21
HETATM   21  O4  UNL     1      -2.001  47.253 -19.095  1.00  0.00    -0.389 OA
HETATM   22  H39 UNL     1      -1.879  46.502 -18.490  1.00  0.00     0.210 HD
ENDBRANCH  12  21
BRANCH   1  23
HETATM   23  C6  UNL     1      -0.993  51.137 -21.271  1.00  0.00    -0.074 C 
HETATM   24  C5  UNL     1      -0.953  51.357 -22.605  1.00  0.00     0.003 C 
BRANCH  24  25
HETATM   25  C4  UNL     1      -1.272  50.428 -23.673  1.00  0.00     0.001 C 
HETATM   26  C3  UNL     1      -2.101  50.750 -24.682  1.00  0.00     0.006 C 
BRANCH  26  27
HETATM   27  C2  UNL     1      -2.478  49.895 -25.809  1.00  0.00    -0.067 C 
HETATM   28  C1  UNL     1      -3.047  48.705 -25.541  1.00  0.00     0.019 C 
BRANCH  27  29
HETATM   29  C27 UNL     1      -2.209  50.404 -27.219  1.00  0.00     0.041 C 
BRANCH  29  30
HETATM   30  C28 UNL     1      -1.368  51.684 -27.355  1.00  0.00     0.032 C 
BRANCH  30  31
HETATM   31  C29 UNL     1       0.104  51.370 -27.403  1.00  0.00    -0.024 C 
HETATM   32  C30 UNL     1       1.075  51.854 -26.604  1.00  0.00    -0.091 C 
HETATM   33  C31 UNL     1       2.515  51.468 -26.826  1.00  0.00     0.042 C 
HETATM   34  C32 UNL     1       0.855  52.787 -25.445  1.00  0.00     0.042 C 
ENDBRANCH  30  31
ENDBRANCH  29  30
ENDBRANCH  27  29
ENDBRANCH  26  27
ENDBRANCH  24  25
BRANCH  23  35
HETATM   35  C7  UNL     1      -0.581  52.228 -20.280  1.00  0.00     0.030 C 
HETATM   36  C8  UNL     1       0.433  53.266 -20.754  1.00  0.00     0.010 C 
ENDBRANCH  23  35
ENDBRANCH   1  23
BRANCH   8  37
HETATM   37  C22 UNL     1      -7.952  46.948 -18.321  1.00  0.00     0.265 C 
HETATM   38  O3  UNL     1      -9.149  47.160 -18.147  1.00  0.00    -0.302 OA
ENDBRANCH   8  37
TORSDOF 14
ENDMDL
MODEL 7
REMARK minimizedAffinity -7.0829854
REMARK CNNscore 0.333080083
REMARK CNNaffinity 6.79961157
REMARK  14 active torsions:
REMARK  status: ('A' for Active; 'I' for Inactive)
REMARK    1  A    between atoms: C2_2  and  C3_3 
REMARK    2  A    between atoms: C2_2  and  C27_31 
REMARK    3  A    between atoms: C4_4  and  C5_5 
REMARK    4  A    between atoms: C6_6  and  C7_7 
REMARK    5  A    between atoms: C6_6  and  C9_9 
REMARK    6  A    between atoms: C13_13  and  O1_14 
REMARK    7  A    between atoms: C15_16  and  C16_17 
REMARK    8  A    between atoms: C16_17  and  C17_18 
REMARK    9  A    between atoms: C17_18  and  C18_19 
REMARK   10  A    between atoms: C18_19  and  O2_20 
REMARK   11  A    between atoms: C20_22  and  C22_24 
REMARK   12  A    between atoms: C25_28  and  O4_30 
REMARK   13  A    between atoms: C27_31  and  C28_32 
REMARK   14  A    between atoms: C28_32  and  C29_33 
ROOT
HETATM    1  C9  UNL     1      -4.213  48.895 -21.284  1.00  0.00     0.044 C 
HETATM    2  C10 UNL     1      -3.284  47.863 -21.941  1.00  0.00     0.013 C 
HETATM    3  C11 UNL     1      -2.071  48.651 -22.388  1.00  0.00     0.017 C 
HETATM    4  C12 UNL     1      -2.581  50.043 -22.855  1.00  0.00     0.025 C 
HETATM    5  C13 UNL     1      -3.739  50.308 -21.797  1.00  0.00     0.141 C 
HETATM    6  C15 UNL     1      -1.300  51.016 -22.914  1.00  0.00     0.029 C 
HETATM    7  C19 UNL     1      -1.450  52.132 -23.972  1.00  0.00    -0.066 C 
HETATM    8  C20 UNL     1      -0.450  52.557 -24.790  1.00  0.00    -0.021 C 
HETATM    9  C21 UNL     1       0.961  52.025 -24.830  1.00  0.00     0.052 C 
HETATM   10  C23 UNL     1      -2.888  52.567 -24.076  1.00  0.00     0.038 C 
HETATM   11  C24 UNL     1      -3.691  51.442 -24.730  1.00  0.00     0.042 C 
HETATM   12  C25 UNL     1      -3.249  50.010 -24.302  1.00  0.00     0.065 C 
HETATM   13  C26 UNL     1      -2.351  49.370 -25.380  1.00  0.00     0.047 C 
ENDROOT
BRANCH   5  14
HETATM   14  O1  UNL     1      -3.353  51.164 -20.727  1.00  0.00    -0.389 OA
HETATM   15  C14 UNL     1      -2.408  50.570 -19.842  1.00  0.00     0.202 C 
ENDBRANCH   5  14
BRANCH   6  16
HETATM   16  C16 UNL     1      -0.842  51.595 -21.550  1.00  0.00     0.012 C 
BRANCH  16  17
HETATM   17  C17 UNL     1       0.174  52.743 -21.626  1.00  0.00     0.027 C 
BRANCH  17  18
HETATM   18  C18 UNL     1       0.314  53.480 -20.295  1.00  0.00     0.164 C 
BRANCH  18  19
HETATM   19  O2  UNL     1       1.496  54.269 -20.267  1.00  0.00    -0.401 OA
HETATM   20  H27 UNL     1       1.364  55.012 -20.881  1.00  0.00     0.209 HD
ENDBRANCH  18  19
ENDBRANCH  17  18
ENDBRANCH  16  17
ENDBRANCH   6  16
BRANCH  12  21
HETATM   21  O4  UNL     1      -4.448  49.217 -24.296  1.00  0.00    -0.389 OA
HETATM   22  H39 UNL     1      -4.819  49.219 -25.194  1.00  0.00     0.210 HD
ENDBRANCH  12  21
BRANCH   1  23
HETATM   23  C6  UNL     1      -4.348  48.689 -19.763  1.00  0.00    -0.074 C 
HETATM   24  C5  UNL     1      -5.533  48.664 -19.111  1.00  0.00     0.003 C 
BRANCH  24  25
HETATM   25  C4  UNL     1      -6.858  48.879 -19.662  1.00  0.00     0.001 C 
HETATM   26  C3  UNL     1      -7.769  47.893 -19.747  1.00  0.00     0.006 C 
BRANCH  26  27
HETATM   27  C2  UNL     1      -9.132  48.005 -20.272  1.00  0.00    -0.067 C 
HETATM   28  C1  UNL     1      -9.315  47.858 -21.597  1.00  0.00     0.019 C 
BRANCH  27  29
HETATM   29  C27 UNL     1     -10.261  48.278 -19.288  1.00  0.00     0.041 C 
BRANCH  29  30
HETATM   30  C28 UNL     1     -11.453  47.309 -19.300  1.00  0.00     0.032 C 
BRANCH  30  31
HETATM   31  C29 UNL     1     -12.763  48.050 -19.230  1.00  0.00    -0.024 C 
HETATM   32  C30 UNL     1     -13.736  47.915 -18.309  1.00  0.00    -0.091 C 
HETATM   33  C31 UNL     1     -15.013  48.708 -18.418  1.00  0.00     0.042 C 
HETATM   34  C32 UNL     1     -13.672  47.006 -17.112  1.00  0.00     0.042 C 
ENDBRANCH  30  31
ENDBRANCH  29  30
ENDBRANCH  27  29
ENDBRANCH  26  27
ENDBRANCH  24  25
BRANCH  23  35
HETATM   35  C7  UNL     1      -3.031  48.479 -19.011  1.00  0.00     0.030 C 
HETATM   36  C8  UNL     1      -2.834  47.147 -18.292  1.00  0.00     0.010 C 
ENDBRANCH  23  35
ENDBRANCH   1  23
BRANCH   8  37
HETATM   37  C22 UNL     1      -0.661  53.627 -25.821  1.00  0.00     0.265 C 
HETATM   38  O3  UNL     1      -1.117  53.392 -26.936  1.00  0.00    -0.302 OA
ENDBRANCH   8  37
TORSDOF 14
ENDMDL
MODEL 8
REMARK minimizedAffinity -7.60504484
REMARK CNNscore 0.308850735
REMARK CNNaffinity 6.6553216
REMARK  14 active torsions:
REMARK  status: ('A' for Active; 'I' for Inactive)
REMARK    1  A    between atoms: C2_2  and  C3_3 
REMARK    2  A    between atoms: C2_2  and  C27_31 
REMARK    3  A    between atoms: C4_4  and  C5_5 
REMARK    4  A    between atoms: C6_6  and  C7_7 
REMARK    5  A    between atoms: C6_6  and  C9_9 
REMARK    6  A    between atoms: C13_13  and  O1_14 
REMARK    7  A    between atoms: C15_16  and  C16_17 
REMARK    8  A    between atoms: C16_17  and  C17_18 
REMARK    9  A    between atoms: C17_18  and  C18_19 
REMARK   10  A    between atoms: C18_19  and  O2_20 
REMARK   11  A    between atoms: C20_22  and  C22_24 
REMARK   12  A    between atoms: C25_28  and  O4_30 
REMARK   13  A    between atoms: C27_31  and  C28_32 
REMARK   14  A    between atoms: C28_32  and  C29_33 
ROOT
HETATM    1  C9  UNL     1      -2.381  49.920 -21.499  1.00  0.00     0.044 C 
HETATM    2  C10 UNL     1      -2.085  48.439 -21.778  1.00  0.00     0.013 C 
HETATM    3  C11 UNL     1      -2.945  48.081 -22.971  1.00  0.00     0.017 C 
HETATM    4  C12 UNL     1      -4.277  48.869 -22.822  1.00  0.00     0.025 C 
HETATM    5  C13 UNL     1      -3.747  50.241 -22.218  1.00  0.00     0.141 C 
HETATM    6  C15 UNL     1      -4.999  48.843 -24.261  1.00  0.00     0.029 C 
HETATM    7  C19 UNL     1      -6.539  48.917 -24.153  1.00  0.00    -0.066 C 
HETATM    8  C20 UNL     1      -7.400  48.195 -24.918  1.00  0.00    -0.021 C 
HETATM    9  C21 UNL     1      -7.027  47.197 -25.987  1.00  0.00     0.052 C 
HETATM   10  C23 UNL     1      -6.944  49.774 -22.983  1.00  0.00     0.038 C 
HETATM   11  C24 UNL     1      -6.600  49.029 -21.692  1.00  0.00     0.042 C 
HETATM   12  C25 UNL     1      -5.268  48.223 -21.755  1.00  0.00     0.065 C 
HETATM   13  C26 UNL     1      -5.546  46.725 -21.999  1.00  0.00     0.047 C 
ENDROOT
BRANCH   5  14
HETATM   14  O1  UNL     1      -3.612  51.279 -23.183  1.00  0.00    -0.389 OA
HETATM   15  C14 UNL     1      -4.362  52.447 -22.863  1.00  0.00     0.202 C 
ENDBRANCH   5  14
BRANCH   6  16
HETATM   16  C16 UNL     1      -4.461  49.867 -25.293  1.00  0.00     0.012 C 
BRANCH  16  17
HETATM   17  C17 UNL     1      -3.376  49.341 -26.242  1.00  0.00     0.027 C 
BRANCH  17  18
HETATM   18  C18 UNL     1      -3.964  48.766 -27.531  1.00  0.00     0.164 C 
BRANCH  18  19
HETATM   19  O2  UNL     1      -3.852  49.693 -28.603  1.00  0.00    -0.401 OA
HETATM   20  H27 UNL     1      -2.910  49.755 -28.837  1.00  0.00     0.209 HD
ENDBRANCH  18  19
ENDBRANCH  17  18
ENDBRANCH  16  17
ENDBRANCH   6  16
BRANCH  12  21
HETATM   21  O4  UNL     1      -4.711  48.288 -20.431  1.00  0.00    -0.389 OA
HETATM   22  H39 UNL     1      -5.342  47.880 -19.814  1.00  0.00     0.210 HD
ENDBRANCH  12  21
BRANCH   1  23
HETATM   23  C6  UNL     1      -1.177  50.833 -21.798  1.00  0.00    -0.074 C 
HETATM   24  C5  UNL     1      -0.455  51.460 -20.842  1.00  0.00     0.003 C 
BRANCH  24  25
HETATM   25  C4  UNL     1      -0.683  51.463 -19.409  1.00  0.00     0.001 C 
HETATM   26  C3  UNL     1       0.319  51.339 -18.521  1.00  0.00     0.006 C 
BRANCH  26  27
HETATM   27  C2  UNL     1       0.200  51.341 -17.062  1.00  0.00    -0.067 C 
HETATM   28  C1  UNL     1      -0.762  50.583 -16.503  1.00  0.00     0.019 C 
BRANCH  27  29
HETATM   29  C27 UNL     1       1.172  52.197 -16.262  1.00  0.00     0.041 C 
BRANCH  29  30
HETATM   30  C28 UNL     1       1.106  52.091 -14.730  1.00  0.00     0.032 C 
BRANCH  30  31
HETATM   31  C29 UNL     1       2.141  51.133 -14.202  1.00  0.00    -0.024 C 
HETATM   32  C30 UNL     1       3.450  51.080 -14.515  1.00  0.00    -0.091 C 
HETATM   33  C31 UNL     1       4.339  50.017 -13.923  1.00  0.00     0.042 C 
HETATM   34  C32 UNL     1       4.155  52.032 -15.443  1.00  0.00     0.042 C 
ENDBRANCH  30  31
ENDBRANCH  29  30
ENDBRANCH  27  29
ENDBRANCH  26  27
ENDBRANCH  24  25
BRANCH  23  35
HETATM   35  C7  UNL     1      -0.813  50.973 -23.279  1.00  0.00     0.030 C 
HETATM   36  C8  UNL     1       0.063  52.156 -23.681  1.00  0.00     0.010 C 
ENDBRANCH  23  35
ENDBRANCH   1  23
BRANCH   8  37
HETATM   37  C22 UNL     1      -8.889  48.285 -24.750  1.00  0.00     0.265 C 
HETATM   38  O3  UNL     1      -9.576  49.104 -25.353  1.00  0.00    -0.302 OA
ENDBRANCH   8  37
TORSDOF 14
ENDMDL
MODEL 9
REMARK minimizedAffinity -7.97652817
REMARK CNNscore 0.307722569
REMARK CNNaffinity 6.62290716
REMARK  14 active torsions:
REMARK  status: ('A' for Active; 'I' for Inactive)
REMARK    1  A    between atoms: C2_2  and  C3_3 
REMARK    2  A    between atoms: C2_2  and  C27_31 
REMARK    3  A    between atoms: C4_4  and  C5_5 
REMARK    4  A    between atoms: C6_6  and  C7_7 
REMARK    5  A    between atoms: C6_6  and  C9_9 
REMARK    6  A    between atoms: C13_13  and  O1_14 
REMARK    7  A    between atoms: C15_16  and  C16_17 
REMARK    8  A    between atoms: C16_17  and  C17_18 
REMARK    9  A    between atoms: C17_18  and  C18_19 
REMARK   10  A    between atoms: C18_19  and  O2_20 
REMARK   11  A    between atoms: C20_22  and  C22_24 
REMARK   12  A    between atoms: C25_28  and  O4_30 
REMARK   13  A    between atoms: C27_31  and  C28_32 
REMARK   14  A    between atoms: C28_32  and  C29_33 
ROOT
HETATM    1  C9  UNL     1      -3.093  51.777 -24.104  1.00  0.00     0.044 C 
HETATM    2  C10 UNL     1      -3.364  52.263 -22.673  1.00  0.00     0.013 C 
HETATM    3  C11 UNL     1      -3.574  51.003 -21.859  1.00  0.00     0.017 C 
HETATM    4  C12 UNL     1      -4.316  49.991 -22.775  1.00  0.00     0.025 C 
HETATM    5  C13 UNL     1      -3.630  50.296 -24.177  1.00  0.00     0.141 C 
HETATM    6  C15 UNL     1      -4.158  48.540 -22.094  1.00  0.00     0.029 C 
HETATM    7  C19 UNL     1      -5.342  47.601 -22.415  1.00  0.00    -0.066 C 
HETATM    8  C20 UNL     1      -5.920  46.757 -21.520  1.00  0.00    -0.021 C 
HETATM    9  C21 UNL     1      -5.534  46.588 -20.072  1.00  0.00     0.052 C 
HETATM   10  C23 UNL     1      -5.863  47.868 -23.803  1.00  0.00     0.038 C 
HETATM   11  C24 UNL     1      -6.564  49.227 -23.808  1.00  0.00     0.042 C 
HETATM   12  C25 UNL     1      -5.872  50.305 -22.921  1.00  0.00     0.065 C 
HETATM   13  C26 UNL     1      -6.600  50.453 -21.570  1.00  0.00     0.047 C 
ENDROOT
BRANCH   5  14
HETATM   14  O1  UNL     1      -2.605  49.372 -24.527  1.00  0.00    -0.389 OA
HETATM   15  C14 UNL     1      -2.870  48.666 -25.735  1.00  0.00     0.202 C 
ENDBRANCH   5  14
BRANCH   6  16
HETATM   16  C16 UNL     1      -2.800  47.834 -22.344  1.00  0.00     0.012 C 
BRANCH  16  17
HETATM   17  C17 UNL     1      -2.334  46.885 -21.232  1.00  0.00     0.027 C 
BRANCH  17  18
HETATM   18  C18 UNL     1      -1.575  47.618 -20.126  1.00  0.00     0.164 C 
BRANCH  18  19
HETATM   19  O2  UNL     1      -2.127  47.332 -18.849  1.00  0.00    -0.401 OA
HETATM   20  H27 UNL     1      -1.914  46.406 -18.641  1.00  0.00     0.209 HD
ENDBRANCH  18  19
ENDBRANCH  17  18
ENDBRANCH  16  17
ENDBRANCH   6  16
BRANCH  12  21
HETATM   21  O4  UNL     1      -6.081  51.557 -23.596  1.00  0.00    -0.389 OA
HETATM   22  H39 UNL     1      -7.038  51.713 -23.660  1.00  0.00     0.210 HD
ENDBRANCH  12  21
BRANCH   1  23
HETATM   23  C6  UNL     1      -1.645  52.041 -24.557  1.00  0.00    -0.074 C 
HETATM   24  C5  UNL     1      -0.564  51.841 -23.769  1.00  0.00     0.003 C 
BRANCH  24  25
HETATM   25  C4  UNL     1      -0.538  51.420 -22.380  1.00  0.00     0.001 C 
HETATM   26  C3  UNL     1      -0.072  52.211 -21.398  1.00  0.00     0.006 C 
BRANCH  26  27
HETATM   27  C2  UNL     1      -0.012  51.890 -19.970  1.00  0.00    -0.067 C 
HETATM   28  C1  UNL     1      -0.386  50.657 -19.582  1.00  0.00     0.019 C 
BRANCH  27  29
HETATM   29  C27 UNL     1       0.472  52.968 -19.011  1.00  0.00     0.041 C 
BRANCH  29  30
HETATM   30  C28 UNL     1       0.801  52.534 -17.574  1.00  0.00     0.032 C 
BRANCH  30  31
HETATM   31  C29 UNL     1       2.283  52.591 -17.310  1.00  0.00    -0.024 C 
HETATM   32  C30 UNL     1       2.935  52.213 -16.193  1.00  0.00    -0.091 C 
HETATM   33  C31 UNL     1       4.427  52.385 -16.079  1.00  0.00     0.042 C 
HETATM   34  C32 UNL     1       2.287  51.596 -14.982  1.00  0.00     0.042 C 
ENDBRANCH  30  31
ENDBRANCH  29  30
ENDBRANCH  27  29
ENDBRANCH  26  27
ENDBRANCH  24  25
BRANCH  23  35
HETATM   35  C7  UNL     1      -1.488  52.529 -25.999  1.00  0.00     0.030 C 
HETATM   36  C8  UNL     1      -2.575  52.138 -26.998  1.00  0.00     0.010 C 
ENDBRANCH  23  35
ENDBRANCH   1  23
BRANCH   8  37
HETATM   37  C22 UNL     1      -7.090  45.888 -21.880  1.00  0.00     0.265 C 
HETATM   38  O3  UNL     1      -7.091  45.153 -22.863  1.00  0.00    -0.302 OA
ENDBRANCH   8  37
TORSDOF 14
ENDMDL
