MODEL 1
REMARK minimizedAffinity -7.96561766
REMARK CNNscore 0.665653467
REMARK CNNaffinity 7.06627321
REMARK  15 active torsions:
REMARK  status: ('A' for Active; 'I' for Inactive)
REMARK    1  A    between atoms: C2_2  and  C3_3 
REMARK    2  A    between atoms: C2_2  and  C35_44 
REMARK    3  A    between atoms: C3_3  and  C4_4 
REMARK    4  A    between atoms: C4_4  and  C5_5 
REMARK    5  A    between atoms: C5_5  and  C7_7 
REMARK    6  A    between atoms: C9_9  and  O1_10 
REMARK    7  A    between atoms: C10_11  and  C11_12 
REMARK    8  A    between atoms: C11_12  and  O3_14 
REMARK    9  A    between atoms: C22_25  and  O4_26 
REMARK   10  A    between atoms: O4_26  and  C23_27 
REMARK   11  A    between atoms: C24_29  and  C25_30 
REMARK   12  A    between atoms: C25_30  and  O6_31 
REMARK   13  A    between atoms: C26_32  and  O7_33 
REMARK   14  A    between atoms: C28_35  and  O8_36 
REMARK   15  A    between atoms: C29_37  and  O9_38 
ROOT
HETATM    1  C7  UNL     1      -3.344  50.432 -24.916  1.00  0.00     0.001 C 
HETATM    2  C8  UNL     1      -4.498  51.487 -24.850  1.00  0.00     0.039 C 
HETATM    3  C9  UNL     1      -5.242  51.289 -23.509  1.00  0.00     0.142 C 
HETATM    4  C10 UNL     1      -4.348  50.298 -22.721  1.00  0.00     0.102 C 
HETATM    5  C12 UNL     1      -4.926  49.485 -21.555  1.00  0.00    -0.054 C 
HETATM    6  C13 UNL     1      -4.401  48.273 -21.228  1.00  0.00    -0.067 C 
HETATM    7  C14 UNL     1      -3.340  47.603 -22.109  1.00  0.00     0.036 C 
HETATM    8  C15 UNL     1      -2.754  48.440 -23.265  1.00  0.00     0.015 C 
HETATM    9  C16 UNL     1      -3.813  49.366 -23.878  1.00  0.00    -0.016 C 
HETATM   10  C17 UNL     1      -4.908  48.462 -24.526  1.00  0.00     0.017 C 
HETATM   11  C18 UNL     1      -4.844  47.494 -19.958  1.00  0.00    -0.013 C 
HETATM   12  C19 UNL     1      -5.699  46.296 -20.457  1.00  0.00     0.021 C 
HETATM   13  C20 UNL     1      -3.615  46.943 -19.157  1.00  0.00     0.017 C 
HETATM   14  C21 UNL     1      -3.695  47.093 -17.630  1.00  0.00     0.037 C 
HETATM   15  C22 UNL     1      -5.088  46.866 -17.032  1.00  0.00     0.153 C 
HETATM   16  C30 UNL     1      -6.172  47.623 -17.782  1.00  0.00    -0.055 C 
HETATM   17  C31 UNL     1      -7.456  47.571 -17.377  1.00  0.00     0.017 C 
HETATM   18  C32 UNL     1      -5.669  48.413 -18.987  1.00  0.00     0.029 C 
HETATM   19  C33 UNL     1      -6.713  49.228 -19.752  1.00  0.00     0.014 C 
HETATM   20  C34 UNL     1      -6.011  50.153 -20.742  1.00  0.00     0.036 C 
ENDROOT
BRANCH  15  21
HETATM   21  O4  UNL     1      -5.422  45.474 -17.075  1.00  0.00    -0.349 OA
BRANCH  21  22
HETATM   22  C23 UNL     1      -5.497  44.885 -15.772  1.00  0.00     0.292 C 
HETATM   23  O5  UNL     1      -5.232  45.850 -14.760  1.00  0.00    -0.348 OA
HETATM   24  C24 UNL     1      -3.927  45.737 -14.182  1.00  0.00     0.179 C 
HETATM   25  C26 UNL     1      -3.780  44.383 -13.445  1.00  0.00     0.183 C 
HETATM   26  C28 UNL     1      -4.321  43.235 -14.322  1.00  0.00     0.183 C 
HETATM   27  C29 UNL     1      -4.532  43.683 -15.761  1.00  0.00     0.204 C 
BRANCH  24  28
HETATM   28  C25 UNL     1      -3.686  46.947 -13.277  1.00  0.00     0.198 C 
BRANCH  28  29
HETATM   29  O6  UNL     1      -3.668  48.163 -14.025  1.00  0.00    -0.398 OA
HETATM   30  H36 UNL     1      -4.579  48.332 -14.325  1.00  0.00     0.209 HD
ENDBRANCH  28  29
ENDBRANCH  24  28
BRANCH  25  31
HETATM   31  O7  UNL     1      -4.535  44.429 -12.216  1.00  0.00    -0.385 OA
HETATM   32  C27 UNL     1      -3.874  43.760 -11.139  1.00  0.00     0.202 C 
ENDBRANCH  25  31
BRANCH  26  33
HETATM   33  O8  UNL     1      -3.406  42.130 -14.299  1.00  0.00    -0.390 OA
HETATM   34  H42 UNL     1      -3.734  41.512 -14.984  1.00  0.00     0.210 HD
ENDBRANCH  26  33
BRANCH  27  35
HETATM   35  O9  UNL     1      -5.047  42.588 -16.537  1.00  0.00    -0.388 OA
HETATM   36  H44 UNL     1      -5.220  42.954 -17.425  1.00  0.00     0.210 HD
ENDBRANCH  27  35
ENDBRANCH  21  22
ENDBRANCH  15  21
BRANCH   4  37
HETATM   37  C11 UNL     1      -3.206  51.115 -22.024  1.00  0.00     0.156 C 
HETATM   38  O2  UNL     1      -2.490  51.971 -22.529  1.00  0.00    -0.649 OA
BRANCH  37  39
HETATM   39  O3  UNL     1      -3.014  50.849 -20.710  1.00  0.00    -0.775 OA
HETATM   40  H16 UNL     1      -2.284  51.465 -20.474  1.00  0.00     0.167 HD
ENDBRANCH  37  39
ENDBRANCH   4  37
BRANCH   3  41
HETATM   41  O1  UNL     1      -6.546  50.770 -23.778  1.00  0.00    -0.394 OA
HETATM   42  H15 UNL     1      -7.019  51.421 -24.324  1.00  0.00     0.210 HD
ENDBRANCH   3  41
BRANCH   1  43
HETATM   43  C5  UNL     1      -3.030  50.012 -26.385  1.00  0.00    -0.013 C 
HETATM   44  C6  UNL     1      -2.970  48.492 -26.545  1.00  0.00     0.010 C 
BRANCH  43  45
HETATM   45  C4  UNL     1      -1.697  50.660 -26.857  1.00  0.00     0.009 C 
BRANCH  45  46
HETATM   46  C3  UNL     1      -1.277  51.895 -26.042  1.00  0.00     0.034 C 
BRANCH  46  47
HETATM   47  C2  UNL     1       0.215  51.905 -25.743  1.00  0.00    -0.086 C 
HETATM   48  C1  UNL     1       0.649  52.373 -24.556  1.00  0.00     0.014 C 
BRANCH  47  49
HETATM   49  C35 UNL     1       1.137  51.370 -26.837  1.00  0.00     0.005 C 
HETATM   50  C36 UNL     1       2.620  51.269 -26.448  1.00  0.00     0.014 C 
HETATM   51  C37 UNL     1       0.991  52.202 -28.113  1.00  0.00     0.014 C 
ENDBRANCH  47  49
ENDBRANCH  46  47
ENDBRANCH  45  46
ENDBRANCH  43  45
ENDBRANCH   1  43
TORSDOF 15
ENDMDL
MODEL 2
REMARK minimizedAffinity -7.97742033
REMARK CNNscore 0.457993329
REMARK CNNaffinity 6.69641829
REMARK  15 active torsions:
REMARK  status: ('A' for Active; 'I' for Inactive)
REMARK    1  A    between atoms: C2_2  and  C3_3 
REMARK    2  A    between atoms: C2_2  and  C35_44 
REMARK    3  A    between atoms: C3_3  and  C4_4 
REMARK    4  A    between atoms: C4_4  and  C5_5 
REMARK    5  A    between atoms: C5_5  and  C7_7 
REMARK    6  A    between atoms: C9_9  and  O1_10 
REMARK    7  A    between atoms: C10_11  and  C11_12 
REMARK    8  A    between atoms: C11_12  and  O3_14 
REMARK    9  A    between atoms: C22_25  and  O4_26 
REMARK   10  A    between atoms: O4_26  and  C23_27 
REMARK   11  A    between atoms: C24_29  and  C25_30 
REMARK   12  A    between atoms: C25_30  and  O6_31 
REMARK   13  A    between atoms: C26_32  and  O7_33 
REMARK   14  A    between atoms: C28_35  and  O8_36 
REMARK   15  A    between atoms: C29_37  and  O9_38 
ROOT
HETATM    1  C7  UNL     1      -2.911  50.448 -24.958  1.00  0.00     0.001 C 
HETATM    2  C8  UNL     1      -3.912  51.649 -25.001  1.00  0.00     0.039 C 
HETATM    3  C9  UNL     1      -4.784  51.582 -23.725  1.00  0.00     0.142 C 
HETATM    4  C10 UNL     1      -4.102  50.497 -22.854  1.00  0.00     0.102 C 
HETATM    5  C12 UNL     1      -4.880  49.795 -21.733  1.00  0.00    -0.054 C 
HETATM    6  C13 UNL     1      -4.553  48.530 -21.351  1.00  0.00    -0.067 C 
HETATM    7  C14 UNL     1      -3.524  47.705 -22.132  1.00  0.00     0.036 C 
HETATM    8  C15 UNL     1      -2.736  48.430 -23.243  1.00  0.00     0.015 C 
HETATM    9  C16 UNL     1      -3.604  49.476 -23.952  1.00  0.00    -0.016 C 
HETATM   10  C17 UNL     1      -4.756  48.715 -24.682  1.00  0.00     0.017 C 
HETATM   11  C18 UNL     1      -5.202  47.845 -20.115  1.00  0.00    -0.013 C 
HETATM   12  C19 UNL     1      -6.168  46.763 -20.673  1.00  0.00     0.021 C 
HETATM   13  C20 UNL     1      -4.129  47.151 -19.207  1.00  0.00     0.017 C 
HETATM   14  C21 UNL     1      -4.314  47.343 -17.694  1.00  0.00     0.037 C 
HETATM   15  C22 UNL     1      -5.769  47.319 -17.214  1.00  0.00     0.153 C 
HETATM   16  C30 UNL     1      -6.675  48.199 -18.061  1.00  0.00    -0.055 C 
HETATM   17  C31 UNL     1      -7.983  48.329 -17.766  1.00  0.00     0.017 C 
HETATM   18  C32 UNL     1      -5.971  48.887 -19.227  1.00  0.00     0.029 C 
HETATM   19  C33 UNL     1      -6.827  49.820 -20.086  1.00  0.00     0.014 C 
HETATM   20  C34 UNL     1      -5.927  50.620 -21.022  1.00  0.00     0.036 C 
ENDROOT
BRANCH  15  21
HETATM   21  O4  UNL     1      -6.285  45.984 -17.271  1.00  0.00    -0.349 OA
BRANCH  21  22
HETATM   22  C23 UNL     1      -6.103  45.270 -16.044  1.00  0.00     0.292 C 
HETATM   23  O5  UNL     1      -5.711  43.924 -16.291  1.00  0.00    -0.348 OA
HETATM   24  C24 UNL     1      -6.764  42.972 -16.100  1.00  0.00     0.179 C 
HETATM   25  C26 UNL     1      -7.214  42.957 -14.619  1.00  0.00     0.183 C 
HETATM   26  C28 UNL     1      -7.395  44.398 -14.100  1.00  0.00     0.183 C 
HETATM   27  C29 UNL     1      -7.412  45.405 -15.242  1.00  0.00     0.204 C 
BRANCH  24  28
HETATM   28  C25 UNL     1      -6.286  41.606 -16.600  1.00  0.00     0.198 C 
BRANCH  28  29
HETATM   29  O6  UNL     1      -7.137  40.556 -16.141  1.00  0.00    -0.398 OA
HETATM   30  H36 UNL     1      -7.985  40.643 -16.612  1.00  0.00     0.209 HD
ENDBRANCH  28  29
ENDBRANCH  24  28
BRANCH  25  31
HETATM   31  O7  UNL     1      -6.208  42.296 -13.824  1.00  0.00    -0.385 OA
HETATM   32  C27 UNL     1      -6.766  41.527 -12.757  1.00  0.00     0.202 C 
ENDBRANCH  25  31
BRANCH  26  33
HETATM   33  O8  UNL     1      -8.619  44.501 -13.359  1.00  0.00    -0.390 OA
HETATM   34  H42 UNL     1      -8.740  45.459 -13.195  1.00  0.00     0.210 HD
ENDBRANCH  26  33
BRANCH  27  35
HETATM   35  O9  UNL     1      -7.569  46.732 -14.712  1.00  0.00    -0.388 OA
HETATM   36  H44 UNL     1      -7.508  47.330 -15.481  1.00  0.00     0.210 HD
ENDBRANCH  27  35
ENDBRANCH  21  22
ENDBRANCH  15  21
BRANCH   4  37
HETATM   37  C11 UNL     1      -2.921  51.168 -22.072  1.00  0.00     0.156 C 
HETATM   38  O2  UNL     1      -2.154  52.030 -22.480  1.00  0.00    -0.649 OA
BRANCH  37  39
HETATM   39  O3  UNL     1      -2.755  50.751 -20.793  1.00  0.00    -0.775 OA
HETATM   40  H16 UNL     1      -1.992  51.295 -20.491  1.00  0.00     0.167 HD
ENDBRANCH  37  39
ENDBRANCH   4  37
BRANCH   3  41
HETATM   41  O1  UNL     1      -6.120  51.238 -24.099  1.00  0.00    -0.394 OA
HETATM   42  H15 UNL     1      -6.453  51.935 -24.689  1.00  0.00     0.210 HD
ENDBRANCH   3  41
BRANCH   1  43
HETATM   43  C5  UNL     1      -2.537  49.957 -26.390  1.00  0.00    -0.013 C 
HETATM   44  C6  UNL     1      -2.743  48.450 -26.551  1.00  0.00     0.010 C 
BRANCH  43  45
HETATM   45  C4  UNL     1      -1.067  50.342 -26.724  1.00  0.00     0.009 C 
BRANCH  45  46
HETATM   46  C3  UNL     1      -0.307  50.989 -25.554  1.00  0.00     0.034 C 
BRANCH  46  47
HETATM   47  C2  UNL     1       0.356  52.299 -25.953  1.00  0.00    -0.086 C 
HETATM   48  C1  UNL     1      -0.171  53.464 -25.524  1.00  0.00     0.014 C 
BRANCH  47  49
HETATM   49  C35 UNL     1       1.602  52.198 -26.829  1.00  0.00     0.005 C 
HETATM   50  C36 UNL     1       1.332  51.976 -28.325  1.00  0.00     0.014 C 
HETATM   51  C37 UNL     1       2.537  51.106 -26.303  1.00  0.00     0.014 C 
ENDBRANCH  47  49
ENDBRANCH  46  47
ENDBRANCH  45  46
ENDBRANCH  43  45
ENDBRANCH   1  43
TORSDOF 15
ENDMDL
MODEL 3
REMARK minimizedAffinity -8.49556446
REMARK CNNscore 0.415012896
REMARK CNNaffinity 6.72312737
REMARK  15 active torsions:
REMARK  status: ('A' for Active; 'I' for Inactive)
REMARK    1  A    between atoms: C2_2  and  C3_3 
REMARK    2  A    between atoms: C2_2  and  C35_44 
REMARK    3  A    between atoms: C3_3  and  C4_4 
REMARK    4  A    between atoms: C4_4  and  C5_5 
REMARK    5  A    between atoms: C5_5  and  C7_7 
REMARK    6  A    between atoms: C9_9  and  O1_10 
REMARK    7  A    between atoms: C10_11  and  C11_12 
REMARK    8  A    between atoms: C11_12  and  O3_14 
REMARK    9  A    between atoms: C22_25  and  O4_26 
REMARK   10  A    between atoms: O4_26  and  C23_27 
REMARK   11  A    between atoms: C24_29  and  C25_30 
REMARK   12  A    between atoms: C25_30  and  O6_31 
REMARK   13  A    between atoms: C26_32  and  O7_33 
REMARK   14  A    between atoms: C28_35  and  O8_36 
REMARK   15  A    between atoms: C29_37  and  O9_38 
ROOT
HETATM    1  C7  UNL     1      -3.075  50.923 -24.899  1.00  0.00     0.001 C 
HETATM    2  C8  UNL     1      -4.296  51.896 -24.795  1.00  0.00     0.039 C 
HETATM    3  C9  UNL     1      -5.049  51.569 -23.484  1.00  0.00     0.142 C 
HETATM    4  C10 UNL     1      -4.107  50.590 -22.738  1.00  0.00     0.102 C 
HETATM    5  C12 UNL     1      -4.653  49.672 -21.636  1.00  0.00    -0.054 C 
HETATM    6  C13 UNL     1      -4.056  48.477 -21.372  1.00  0.00    -0.067 C 
HETATM    7  C14 UNL     1      -2.939  47.931 -22.269  1.00  0.00     0.036 C 
HETATM    8  C15 UNL     1      -2.387  48.873 -23.359  1.00  0.00     0.015 C 
HETATM    9  C16 UNL     1      -3.492  49.767 -23.938  1.00  0.00    -0.016 C 
HETATM   10  C17 UNL     1      -4.516  48.837 -24.662  1.00  0.00     0.017 C 
HETATM   11  C18 UNL     1      -4.471  47.595 -20.161  1.00  0.00    -0.013 C 
HETATM   12  C19 UNL     1      -5.238  46.378 -20.750  1.00  0.00     0.021 C 
HETATM   13  C20 UNL     1      -3.223  47.074 -19.369  1.00  0.00     0.017 C 
HETATM   14  C21 UNL     1      -3.339  47.124 -17.837  1.00  0.00     0.037 C 
HETATM   15  C22 UNL     1      -4.725  46.773 -17.284  1.00  0.00     0.153 C 
HETATM   16  C30 UNL     1      -5.843  47.505 -18.011  1.00  0.00    -0.055 C 
HETATM   17  C31 UNL     1      -7.128  47.347 -17.638  1.00  0.00     0.017 C 
HETATM   18  C32 UNL     1      -5.370  48.398 -19.154  1.00  0.00     0.029 C 
HETATM   19  C33 UNL     1      -6.450  49.191 -19.891  1.00  0.00     0.014 C 
HETATM   20  C34 UNL     1      -5.792  50.218 -20.808  1.00  0.00     0.036 C 
ENDROOT
BRANCH  15  21
HETATM   21  O4  UNL     1      -4.968  45.368 -17.419  1.00  0.00    -0.349 OA
BRANCH  21  22
HETATM   22  C23 UNL     1      -4.252  44.590 -16.453  1.00  0.00     0.292 C 
HETATM   23  O5  UNL     1      -3.200  43.855 -17.070  1.00  0.00    -0.348 OA
HETATM   24  C24 UNL     1      -3.488  42.462 -17.232  1.00  0.00     0.179 C 
HETATM   25  C26 UNL     1      -3.650  41.782 -15.850  1.00  0.00     0.183 C 
HETATM   26  C28 UNL     1      -4.549  42.637 -14.934  1.00  0.00     0.183 C 
HETATM   27  C29 UNL     1      -5.286  43.712 -15.722  1.00  0.00     0.204 C 
BRANCH  24  28
HETATM   28  C25 UNL     1      -2.388  41.832 -18.090  1.00  0.00     0.198 C 
BRANCH  28  29
HETATM   29  O6  UNL     1      -2.921  41.269 -19.289  1.00  0.00    -0.398 OA
HETATM   30  H36 UNL     1      -3.202  42.008 -19.857  1.00  0.00     0.209 HD
ENDBRANCH  28  29
ENDBRANCH  24  28
BRANCH  25  31
HETATM   31  O7  UNL     1      -2.352  41.642 -15.235  1.00  0.00    -0.385 OA
HETATM   32  C27 UNL     1      -2.180  40.378 -14.591  1.00  0.00     0.202 C 
ENDBRANCH  25  31
BRANCH  26  33
HETATM   33  O8  UNL     1      -5.504  41.800 -14.267  1.00  0.00    -0.390 OA
HETATM   34  H42 UNL     1      -6.125  42.418 -13.830  1.00  0.00     0.210 HD
ENDBRANCH  26  33
BRANCH  27  35
HETATM   35  O9  UNL     1      -6.100  44.491 -14.829  1.00  0.00    -0.388 OA
HETATM   36  H44 UNL     1      -6.492  45.196 -15.378  1.00  0.00     0.210 HD
ENDBRANCH  27  35
ENDBRANCH  21  22
ENDBRANCH  15  21
BRANCH   4  37
HETATM   37  C11 UNL     1      -3.033  51.433 -21.969  1.00  0.00     0.156 C 
HETATM   38  O2  UNL     1      -2.200  52.192 -22.449  1.00  0.00    -0.649 OA
BRANCH  37  39
HETATM   39  O3  UNL     1      -3.053  51.316 -20.619  1.00  0.00    -0.775 OA
HETATM   40  H16 UNL     1      -2.329  51.922 -20.343  1.00  0.00     0.167 HD
ENDBRANCH  37  39
ENDBRANCH   4  37
BRANCH   3  41
HETATM   41  O1  UNL     1      -6.312  50.986 -23.812  1.00  0.00    -0.394 OA
HETATM   42  H15 UNL     1      -6.816  51.638 -24.328  1.00  0.00     0.210 HD
ENDBRANCH   3  41
BRANCH   1  43
HETATM   43  C5  UNL     1      -2.709  50.615 -26.384  1.00  0.00    -0.013 C 
HETATM   44  C6  UNL     1      -3.535  49.457 -26.948  1.00  0.00     0.010 C 
BRANCH  43  45
HETATM   45  C4  UNL     1      -1.189  50.308 -26.510  1.00  0.00     0.009 C 
BRANCH  45  46
HETATM   46  C3  UNL     1      -0.318  51.002 -25.449  1.00  0.00     0.034 C 
BRANCH  46  47
HETATM   47  C2  UNL     1       0.269  52.311 -25.956  1.00  0.00    -0.086 C 
HETATM   48  C1  UNL     1      -0.259  53.479 -25.538  1.00  0.00     0.014 C 
BRANCH  47  49
HETATM   49  C35 UNL     1       1.447  52.206 -26.923  1.00  0.00     0.005 C 
HETATM   50  C36 UNL     1       1.073  51.837 -28.367  1.00  0.00     0.014 C 
HETATM   51  C37 UNL     1       2.488  51.219 -26.389  1.00  0.00     0.014 C 
ENDBRANCH  47  49
ENDBRANCH  46  47
ENDBRANCH  45  46
ENDBRANCH  43  45
ENDBRANCH   1  43
TORSDOF 15
ENDMDL
MODEL 4
REMARK minimizedAffinity -7.58793592
REMARK CNNscore 0.366579711
REMARK CNNaffinity 6.82073975
REMARK  15 active torsions:
REMARK  status: ('A' for Active; 'I' for Inactive)
REMARK    1  A    between atoms: C2_2  and  C3_3 
REMARK    2  A    between atoms: C2_2  and  C35_44 
REMARK    3  A    between atoms: C3_3  and  C4_4 
REMARK    4  A    between atoms: C4_4  and  C5_5 
REMARK    5  A    between atoms: C5_5  and  C7_7 
REMARK    6  A    between atoms: C9_9  and  O1_10 
REMARK    7  A    between atoms: C10_11  and  C11_12 
REMARK    8  A    between atoms: C11_12  and  O3_14 
REMARK    9  A    between atoms: C22_25  and  O4_26 
REMARK   10  A    between atoms: O4_26  and  C23_27 
REMARK   11  A    between atoms: C24_29  and  C25_30 
REMARK   12  A    between atoms: C25_30  and  O6_31 
REMARK   13  A    between atoms: C26_32  and  O7_33 
REMARK   14  A    between atoms: C28_35  and  O8_36 
REMARK   15  A    between atoms: C29_37  and  O9_38 
ROOT
HETATM    1  C7  UNL     1      -1.507  50.484 -21.126  1.00  0.00     0.001 C 
HETATM    2  C8  UNL     1      -2.308  51.710 -20.575  1.00  0.00     0.039 C 
HETATM    3  C9  UNL     1      -3.772  51.259 -20.362  1.00  0.00     0.142 C 
HETATM    4  C10 UNL     1      -3.729  49.722 -20.551  1.00  0.00     0.102 C 
HETATM    5  C12 UNL     1      -5.008  48.941 -20.879  1.00  0.00    -0.054 C 
HETATM    6  C13 UNL     1      -4.948  47.775 -21.578  1.00  0.00    -0.067 C 
HETATM    7  C14 UNL     1      -3.635  47.293 -22.208  1.00  0.00     0.036 C 
HETATM    8  C15 UNL     1      -2.354  48.076 -21.853  1.00  0.00     0.015 C 
HETATM    9  C16 UNL     1      -2.643  49.574 -21.689  1.00  0.00    -0.016 C 
HETATM   10  C17 UNL     1      -3.099  50.120 -23.079  1.00  0.00     0.017 C 
HETATM   11  C18 UNL     1      -6.194  46.870 -21.788  1.00  0.00    -0.013 C 
HETATM   12  C19 UNL     1      -6.598  47.024 -23.281  1.00  0.00     0.021 C 
HETATM   13  C20 UNL     1      -5.872  45.363 -21.501  1.00  0.00     0.017 C 
HETATM   14  C21 UNL     1      -6.939  44.595 -20.705  1.00  0.00     0.037 C 
HETATM   15  C22 UNL     1      -8.387  44.954 -21.056  1.00  0.00     0.153 C 
HETATM   16  C30 UNL     1      -8.618  46.457 -21.103  1.00  0.00    -0.055 C 
HETATM   17  C31 UNL     1      -9.841  46.959 -21.362  1.00  0.00     0.017 C 
HETATM   18  C32 UNL     1      -7.370  47.293 -20.836  1.00  0.00     0.029 C 
HETATM   19  C33 UNL     1      -7.555  48.811 -20.829  1.00  0.00     0.014 C 
HETATM   20  C34 UNL     1      -6.292  49.476 -20.289  1.00  0.00     0.036 C 
ENDROOT
BRANCH  15  21
HETATM   21  O4  UNL     1      -8.730  44.422 -22.341  1.00  0.00    -0.349 OA
BRANCH  21  22
HETATM   22  C23 UNL     1      -9.525  43.235 -22.252  1.00  0.00     0.292 C 
HETATM   23  O5  UNL     1      -8.711  42.070 -22.327  1.00  0.00    -0.348 OA
HETATM   24  C24 UNL     1      -8.770  41.406 -23.594  1.00  0.00     0.179 C 
HETATM   25  C26 UNL     1     -10.200  40.873 -23.857  1.00  0.00     0.183 C 
HETATM   26  C28 UNL     1     -11.245  41.956 -23.523  1.00  0.00     0.183 C 
HETATM   27  C29 UNL     1     -10.597  43.324 -23.356  1.00  0.00     0.204 C 
BRANCH  24  28
HETATM   28  C25 UNL     1      -7.701  40.310 -23.623  1.00  0.00     0.198 C 
BRANCH  28  29
HETATM   29  O6  UNL     1      -7.819  39.497 -24.791  1.00  0.00    -0.398 OA
HETATM   30  H36 UNL     1      -7.549  40.042 -25.551  1.00  0.00     0.209 HD
ENDBRANCH  28  29
ENDBRANCH  24  28
BRANCH  25  31
HETATM   31  O7  UNL     1     -10.436  39.720 -23.023  1.00  0.00    -0.385 OA
HETATM   32  C27 UNL     1     -11.432  39.957 -22.026  1.00  0.00     0.202 C 
ENDBRANCH  25  31
BRANCH  26  33
HETATM   33  O8  UNL     1     -12.230  42.022 -24.564  1.00  0.00    -0.390 OA
HETATM   34  H42 UNL     1     -12.763  42.819 -24.363  1.00  0.00     0.210 HD
ENDBRANCH  26  33
BRANCH  27  35
HETATM   35  O9  UNL     1     -11.605  44.298 -23.034  1.00  0.00    -0.388 OA
HETATM   36  H44 UNL     1     -11.123  45.132 -22.877  1.00  0.00     0.210 HD
ENDBRANCH  27  35
ENDBRANCH  21  22
ENDBRANCH  15  21
BRANCH   4  37
HETATM   37  C11 UNL     1      -3.278  49.074 -19.197  1.00  0.00     0.156 C 
HETATM   38  O2  UNL     1      -3.636  49.385 -18.068  1.00  0.00    -0.649 OA
BRANCH  37  39
HETATM   39  O3  UNL     1      -2.411  48.038 -19.304  1.00  0.00    -0.775 OA
HETATM   40  H16 UNL     1      -2.277  47.777 -18.365  1.00  0.00     0.167 HD
ENDBRANCH  37  39
ENDBRANCH   4  37
BRANCH   3  41
HETATM   41  O1  UNL     1      -4.601  51.916 -21.323  1.00  0.00    -0.394 OA
HETATM   42  H15 UNL     1      -4.526  52.874 -21.175  1.00  0.00     0.210 HD
ENDBRANCH   3  41
BRANCH   1  43
HETATM   43  C5  UNL     1      -0.331  50.931 -22.047  1.00  0.00    -0.013 C 
HETATM   44  C6  UNL     1       0.701  51.771 -21.292  1.00  0.00     0.010 C 
BRANCH  43  45
HETATM   45  C4  UNL     1      -0.877  51.717 -23.274  1.00  0.00     0.009 C 
BRANCH  45  46
HETATM   46  C3  UNL     1       0.215  52.220 -24.233  1.00  0.00     0.034 C 
BRANCH  46  47
HETATM   47  C2  UNL     1       0.076  51.623 -25.626  1.00  0.00    -0.086 C 
HETATM   48  C1  UNL     1      -0.926  50.757 -25.877  1.00  0.00     0.014 C 
BRANCH  47  49
HETATM   49  C35 UNL     1       1.105  52.061 -26.666  1.00  0.00     0.005 C 
HETATM   50  C36 UNL     1       0.678  51.865 -28.129  1.00  0.00     0.014 C 
HETATM   51  C37 UNL     1       2.444  51.361 -26.419  1.00  0.00     0.014 C 
ENDBRANCH  47  49
ENDBRANCH  46  47
ENDBRANCH  45  46
ENDBRANCH  43  45
ENDBRANCH   1  43
TORSDOF 15
ENDMDL
MODEL 5
REMARK minimizedAffinity -8.18109035
REMARK CNNscore 0.313741058
REMARK CNNaffinity 6.67977667
REMARK  15 active torsions:
REMARK  status: ('A' for Active; 'I' for Inactive)
REMARK    1  A    between atoms: C2_2  and  C3_3 
REMARK    2  A    between atoms: C2_2  and  C35_44 
REMARK    3  A    between atoms: C3_3  and  C4_4 
REMARK    4  A    between atoms: C4_4  and  C5_5 
REMARK    5  A    between atoms: C5_5  and  C7_7 
REMARK    6  A    between atoms: C9_9  and  O1_10 
REMARK    7  A    between atoms: C10_11  and  C11_12 
REMARK    8  A    between atoms: C11_12  and  O3_14 
REMARK    9  A    between atoms: C22_25  and  O4_26 
REMARK   10  A    between atoms: O4_26  and  C23_27 
REMARK   11  A    between atoms: C24_29  and  C25_30 
REMARK   12  A    between atoms: C25_30  and  O6_31 
REMARK   13  A    between atoms: C26_32  and  O7_33 
REMARK   14  A    between atoms: C28_35  and  O8_36 
REMARK   15  A    between atoms: C29_37  and  O9_38 
ROOT
HETATM    1  C7  UNL     1      -3.409  50.734 -24.784  1.00  0.00     0.001 C 
HETATM    2  C8  UNL     1      -4.437  51.875 -24.488  1.00  0.00     0.039 C 
HETATM    3  C9  UNL     1      -5.089  51.580 -23.117  1.00  0.00     0.142 C 
HETATM    4  C10 UNL     1      -4.244  50.417 -22.537  1.00  0.00     0.102 C 
HETATM    5  C12 UNL     1      -4.809  49.521 -21.428  1.00  0.00    -0.054 C 
HETATM    6  C13 UNL     1      -4.390  48.232 -21.296  1.00  0.00    -0.067 C 
HETATM    7  C14 UNL     1      -3.478  47.583 -22.344  1.00  0.00     0.036 C 
HETATM    8  C15 UNL     1      -2.901  48.501 -23.442  1.00  0.00     0.015 C 
HETATM    9  C16 UNL     1      -3.902  49.593 -23.841  1.00  0.00    -0.016 C 
HETATM   10  C17 UNL     1      -5.135  48.886 -24.488  1.00  0.00     0.017 C 
HETATM   11  C18 UNL     1      -4.810  47.344 -20.092  1.00  0.00    -0.013 C 
HETATM   12  C19 UNL     1      -5.822  46.304 -20.649  1.00  0.00     0.021 C 
HETATM   13  C20 UNL     1      -3.585  46.582 -19.479  1.00  0.00     0.017 C 
HETATM   14  C21 UNL     1      -3.527  46.543 -17.944  1.00  0.00     0.037 C 
HETATM   15  C22 UNL     1      -4.883  46.375 -17.251  1.00  0.00     0.153 C 
HETATM   16  C30 UNL     1      -5.939  47.320 -17.804  1.00  0.00    -0.055 C 
HETATM   17  C31 UNL     1      -7.185  47.338 -17.291  1.00  0.00     0.017 C 
HETATM   18  C32 UNL     1      -5.453  48.205 -18.948  1.00  0.00     0.029 C 
HETATM   19  C33 UNL     1      -6.463  49.206 -19.511  1.00  0.00     0.014 C 
HETATM   20  C34 UNL     1      -5.750  50.179 -20.445  1.00  0.00     0.036 C 
ENDROOT
BRANCH  15  21
HETATM   21  O4  UNL     1      -5.364  45.037 -17.428  1.00  0.00    -0.349 OA
BRANCH  21  22
HETATM   22  C23 UNL     1      -5.894  44.811 -18.739  1.00  0.00     0.292 C 
HETATM   23  O5  UNL     1      -7.310  44.958 -18.749  1.00  0.00    -0.348 OA
HETATM   24  C24 UNL     1      -8.019  43.715 -18.799  1.00  0.00     0.179 C 
HETATM   25  C26 UNL     1      -7.718  42.976 -20.126  1.00  0.00     0.183 C 
HETATM   26  C28 UNL     1      -6.203  42.995 -20.417  1.00  0.00     0.183 C 
HETATM   27  C29 UNL     1      -5.404  43.422 -19.193  1.00  0.00     0.204 C 
BRANCH  24  28
HETATM   28  C25 UNL     1      -9.509  43.993 -18.586  1.00  0.00     0.198 C 
BRANCH  28  29
HETATM   29  O6  UNL     1      -9.838  44.045 -17.197  1.00  0.00    -0.398 OA
HETATM   30  H36 UNL     1      -9.442  44.858 -16.837  1.00  0.00     0.209 HD
ENDBRANCH  28  29
ENDBRANCH  24  28
BRANCH  25  31
HETATM   31  O7  UNL     1      -8.410  43.639 -21.205  1.00  0.00    -0.385 OA
HETATM   32  C27 UNL     1      -8.873  42.728 -22.204  1.00  0.00     0.202 C 
ENDBRANCH  25  31
BRANCH  26  33
HETATM   33  O8  UNL     1      -5.770  41.692 -20.835  1.00  0.00    -0.390 OA
HETATM   34  H42 UNL     1      -4.792  41.741 -20.854  1.00  0.00     0.210 HD
ENDBRANCH  26  33
BRANCH  27  35
HETATM   35  O9  UNL     1      -4.003  43.437 -19.513  1.00  0.00    -0.388 OA
HETATM   36  H44 UNL     1      -3.555  43.777 -18.715  1.00  0.00     0.210 HD
ENDBRANCH  27  35
ENDBRANCH  21  22
ENDBRANCH  15  21
BRANCH   4  37
HETATM   37  C11 UNL     1      -2.971  51.028 -21.857  1.00  0.00     0.156 C 
HETATM   38  O2  UNL     1      -2.283  51.956 -22.264  1.00  0.00    -0.649 OA
BRANCH  37  39
HETATM   39  O3  UNL     1      -2.614  50.470 -20.674  1.00  0.00    -0.775 OA
HETATM   40  H16 UNL     1      -1.824  50.998 -20.421  1.00  0.00     0.167 HD
ENDBRANCH  37  39
ENDBRANCH   4  37
BRANCH   3  41
HETATM   41  O1  UNL     1      -6.457  51.224 -23.325  1.00  0.00    -0.394 OA
HETATM   42  H15 UNL     1      -6.901  51.981 -23.743  1.00  0.00     0.210 HD
ENDBRANCH   3  41
BRANCH   1  43
HETATM   43  C5  UNL     1      -3.259  50.476 -26.315  1.00  0.00    -0.013 C 
HETATM   44  C6  UNL     1      -2.372  49.265 -26.607  1.00  0.00     0.010 C 
BRANCH  43  45
HETATM   45  C4  UNL     1      -2.696  51.743 -27.022  1.00  0.00     0.009 C 
BRANCH  45  46
HETATM   46  C3  UNL     1      -1.317  51.538 -27.671  1.00  0.00     0.034 C 
BRANCH  46  47
HETATM   47  C2  UNL     1      -0.224  52.319 -26.957  1.00  0.00    -0.086 C 
HETATM   48  C1  UNL     1      -0.023  53.615 -27.271  1.00  0.00     0.014 C 
BRANCH  47  49
HETATM   49  C35 UNL     1       0.585  51.562 -25.907  1.00  0.00     0.005 C 
HETATM   50  C36 UNL     1       0.473  52.110 -24.476  1.00  0.00     0.014 C 
HETATM   51  C37 UNL     1       2.058  51.489 -26.319  1.00  0.00     0.014 C 
ENDBRANCH  47  49
ENDBRANCH  46  47
ENDBRANCH  45  46
ENDBRANCH  43  45
ENDBRANCH   1  43
TORSDOF 15
ENDMDL
MODEL 6
REMARK minimizedAffinity -7.57824516
REMARK CNNscore 0.255545557
REMARK CNNaffinity 6.65685797
REMARK  15 active torsions:
REMARK  status: ('A' for Active; 'I' for Inactive)
REMARK    1  A    between atoms: C2_2  and  C3_3 
REMARK    2  A    between atoms: C2_2  and  C35_44 
REMARK    3  A    between atoms: C3_3  and  C4_4 
REMARK    4  A    between atoms: C4_4  and  C5_5 
REMARK    5  A    between atoms: C5_5  and  C7_7 
REMARK    6  A    between atoms: C9_9  and  O1_10 
REMARK    7  A    between atoms: C10_11  and  C11_12 
REMARK    8  A    between atoms: C11_12  and  O3_14 
REMARK    9  A    between atoms: C22_25  and  O4_26 
REMARK   10  A    between atoms: O4_26  and  C23_27 
REMARK   11  A    between atoms: C24_29  and  C25_30 
REMARK   12  A    between atoms: C25_30  and  O6_31 
REMARK   13  A    between atoms: C26_32  and  O7_33 
REMARK   14  A    between atoms: C28_35  and  O8_36 
REMARK   15  A    between atoms: C29_37  and  O9_38 
ROOT
HETATM    1  C7  UNL     1      -1.647  49.692 -15.522  1.00  0.00     0.001 C 
HETATM    2  C8  UNL     1      -2.737  48.765 -14.890  1.00  0.00     0.039 C 
HETATM    3  C9  UNL     1      -3.008  49.267 -13.453  1.00  0.00     0.142 C 
HETATM    4  C10 UNL     1      -2.259  50.621 -13.375  1.00  0.00     0.102 C 
HETATM    5  C12 UNL     1      -1.882  51.227 -12.017  1.00  0.00    -0.054 C 
HETATM    6  C13 UNL     1      -0.801  52.046 -11.899  1.00  0.00    -0.067 C 
HETATM    7  C14 UNL     1       0.170  52.252 -13.067  1.00  0.00     0.036 C 
HETATM    8  C15 UNL     1      -0.232  51.655 -14.432  1.00  0.00     0.015 C 
HETATM    9  C16 UNL     1      -0.984  50.328 -14.261  1.00  0.00    -0.016 C 
HETATM   10  C17 UNL     1       0.009  49.303 -13.628  1.00  0.00     0.017 C 
HETATM   11  C18 UNL     1      -0.481  52.810 -10.584  1.00  0.00    -0.013 C 
HETATM   12  C19 UNL     1       0.760  52.109  -9.963  1.00  0.00     0.021 C 
HETATM   13  C20 UNL     1      -0.133  54.314 -10.857  1.00  0.00     0.017 C 
HETATM   14  C21 UNL     1      -0.752  55.328  -9.883  1.00  0.00     0.037 C 
HETATM   15  C22 UNL     1      -0.805  54.868  -8.421  1.00  0.00     0.153 C 
HETATM   16  C30 UNL     1      -1.356  53.458  -8.275  1.00  0.00    -0.055 C 
HETATM   17  C31 UNL     1      -1.508  52.899  -7.059  1.00  0.00     0.017 C 
HETATM   18  C32 UNL     1      -1.703  52.779  -9.597  1.00  0.00     0.029 C 
HETATM   19  C33 UNL     1      -2.302  51.375  -9.505  1.00  0.00     0.014 C 
HETATM   20  C34 UNL     1      -2.832  50.956 -10.873  1.00  0.00     0.036 C 
ENDROOT
BRANCH  15  21
HETATM   21  O4  UNL     1       0.510  54.880  -7.853  1.00  0.00    -0.349 OA
BRANCH  21  22
HETATM   22  C23 UNL     1       0.811  56.112  -7.187  1.00  0.00     0.292 C 
HETATM   23  O5  UNL     1       2.072  56.622  -7.604  1.00  0.00    -0.348 OA
HETATM   24  C24 UNL     1       3.117  56.433  -6.643  1.00  0.00     0.179 C 
HETATM   25  C26 UNL     1       2.809  57.227  -5.349  1.00  0.00     0.183 C 
HETATM   26  C28 UNL     1       1.343  57.009  -4.924  1.00  0.00     0.183 C 
HETATM   27  C29 UNL     1       0.712  55.843  -5.672  1.00  0.00     0.204 C 
BRANCH  24  28
HETATM   28  C25 UNL     1       4.450  56.821  -7.287  1.00  0.00     0.198 C 
BRANCH  28  29
HETATM   29  O6  UNL     1       5.475  56.988  -6.306  1.00  0.00    -0.398 OA
HETATM   30  H36 UNL     1       5.686  56.105  -5.954  1.00  0.00     0.209 HD
ENDBRANCH  28  29
ENDBRANCH  24  28
BRANCH  25  31
HETATM   31  O7  UNL     1       3.022  58.633  -5.595  1.00  0.00    -0.385 OA
HETATM   32  C27 UNL     1       3.594  59.308  -4.472  1.00  0.00     0.202 C 
ENDBRANCH  25  31
BRANCH  26  33
HETATM   33  O8  UNL     1       1.276  56.759  -3.513  1.00  0.00    -0.390 OA
HETATM   34  H42 UNL     1       0.351  56.484  -3.345  1.00  0.00     0.210 HD
ENDBRANCH  26  33
BRANCH  27  35
HETATM   35  O9  UNL     1      -0.654  55.685  -5.254  1.00  0.00    -0.388 OA
HETATM   36  H44 UNL     1      -1.018  54.971  -5.811  1.00  0.00     0.210 HD
ENDBRANCH  27  35
ENDBRANCH  21  22
ENDBRANCH  15  21
BRANCH   4  37
HETATM   37  C11 UNL     1      -3.182  51.729 -13.991  1.00  0.00     0.156 C 
HETATM   38  O2  UNL     1      -3.498  52.798 -13.486  1.00  0.00    -0.649 OA
BRANCH  37  39
HETATM   39  O3  UNL     1      -3.661  51.469 -15.231  1.00  0.00    -0.775 OA
HETATM   40  H16 UNL     1      -4.187  52.276 -15.428  1.00  0.00     0.167 HD
ENDBRANCH  37  39
ENDBRANCH   4  37
BRANCH   3  41
HETATM   41  O1  UNL     1      -2.511  48.301 -12.526  1.00  0.00    -0.394 OA
HETATM   42  H15 UNL     1      -2.988  47.468 -12.678  1.00  0.00     0.210 HD
ENDBRANCH   3  41
BRANCH   1  43
HETATM   43  C5  UNL     1      -0.775  48.928 -16.566  1.00  0.00    -0.013 C 
HETATM   44  C6  UNL     1       0.693  48.856 -16.142  1.00  0.00     0.010 C 
BRANCH  43  45
HETATM   45  C4  UNL     1      -0.903  49.596 -17.965  1.00  0.00     0.009 C 
BRANCH  45  46
HETATM   46  C3  UNL     1      -1.291  51.084 -17.917  1.00  0.00     0.034 C 
BRANCH  46  47
HETATM   47  C2  UNL     1      -0.791  51.847 -19.135  1.00  0.00    -0.086 C 
HETATM   48  C1  UNL     1      -1.287  51.549 -20.352  1.00  0.00     0.014 C 
BRANCH  47  49
HETATM   49  C35 UNL     1       0.261  52.925 -18.883  1.00  0.00     0.005 C 
HETATM   50  C36 UNL     1       1.096  53.321 -20.111  1.00  0.00     0.014 C 
HETATM   51  C37 UNL     1       1.189  52.509 -17.739  1.00  0.00     0.014 C 
ENDBRANCH  47  49
ENDBRANCH  46  47
ENDBRANCH  45  46
ENDBRANCH  43  45
ENDBRANCH   1  43
TORSDOF 15
ENDMDL
MODEL 7
REMARK minimizedAffinity -9.83603764
REMARK CNNscore 0.242652297
REMARK CNNaffinity 6.53195715
REMARK  15 active torsions:
REMARK  status: ('A' for Active; 'I' for Inactive)
REMARK    1  A    between atoms: C2_2  and  C3_3 
REMARK    2  A    between atoms: C2_2  and  C35_44 
REMARK    3  A    between atoms: C3_3  and  C4_4 
REMARK    4  A    between atoms: C4_4  and  C5_5 
REMARK    5  A    between atoms: C5_5  and  C7_7 
REMARK    6  A    between atoms: C9_9  and  O1_10 
REMARK    7  A    between atoms: C10_11  and  C11_12 
REMARK    8  A    between atoms: C11_12  and  O3_14 
REMARK    9  A    between atoms: C22_25  and  O4_26 
REMARK   10  A    between atoms: O4_26  and  C23_27 
REMARK   11  A    between atoms: C24_29  and  C25_30 
REMARK   12  A    between atoms: C25_30  and  O6_31 
REMARK   13  A    between atoms: C26_32  and  O7_33 
REMARK   14  A    between atoms: C28_35  and  O8_36 
REMARK   15  A    between atoms: C29_37  and  O9_38 
ROOT
HETATM    1  C7  UNL     1      -0.269  50.719 -21.027  1.00  0.00     0.001 C 
HETATM    2  C8  UNL     1      -0.402  51.096 -19.515  1.00  0.00     0.039 C 
HETATM    3  C9  UNL     1      -1.765  50.562 -19.013  1.00  0.00     0.142 C 
HETATM    4  C10 UNL     1      -2.275  49.672 -20.174  1.00  0.00     0.102 C 
HETATM    5  C12 UNL     1      -3.765  49.326 -20.293  1.00  0.00    -0.054 C 
HETATM    6  C13 UNL     1      -4.321  49.062 -21.508  1.00  0.00    -0.067 C 
HETATM    7  C14 UNL     1      -3.529  49.269 -22.805  1.00  0.00     0.036 C 
HETATM    8  C15 UNL     1      -2.027  49.597 -22.669  1.00  0.00     0.015 C 
HETATM    9  C16 UNL     1      -1.754  50.467 -21.435  1.00  0.00    -0.016 C 
HETATM   10  C17 UNL     1      -2.466  51.838 -21.662  1.00  0.00     0.017 C 
HETATM   11  C18 UNL     1      -5.780  48.548 -21.657  1.00  0.00    -0.013 C 
HETATM   12  C19 UNL     1      -6.604  49.734 -22.230  1.00  0.00     0.021 C 
HETATM   13  C20 UNL     1      -5.869  47.339 -22.651  1.00  0.00     0.017 C 
HETATM   14  C21 UNL     1      -6.780  46.182 -22.211  1.00  0.00     0.037 C 
HETATM   15  C22 UNL     1      -8.068  46.611 -21.500  1.00  0.00     0.153 C 
HETATM   16  C30 UNL     1      -7.816  47.644 -20.413  1.00  0.00    -0.055 C 
HETATM   17  C31 UNL     1      -8.829  48.112 -19.657  1.00  0.00     0.017 C 
HETATM   18  C32 UNL     1      -6.357  48.070 -20.277  1.00  0.00     0.029 C 
HETATM   19  C33 UNL     1      -6.041  49.075 -19.168  1.00  0.00     0.014 C 
HETATM   20  C34 UNL     1      -4.529  49.186 -18.997  1.00  0.00     0.036 C 
ENDROOT
BRANCH  15  21
HETATM   21  O4  UNL     1      -8.982  47.186 -22.441  1.00  0.00    -0.349 OA
BRANCH  21  22
HETATM   22  C23 UNL     1      -9.020  46.471 -23.681  1.00  0.00     0.292 C 
HETATM   23  O5  UNL     1      -8.749  47.338 -24.777  1.00  0.00    -0.348 OA
HETATM   24  C24 UNL     1      -9.913  47.696 -25.530  1.00  0.00     0.179 C 
HETATM   25  C26 UNL     1     -10.529  46.441 -26.197  1.00  0.00     0.183 C 
HETATM   26  C28 UNL     1     -10.612  45.282 -25.183  1.00  0.00     0.183 C 
HETATM   27  C29 UNL     1     -10.390  45.770 -23.758  1.00  0.00     0.204 C 
BRANCH  24  28
HETATM   28  C25 UNL     1      -9.530  48.787 -26.533  1.00  0.00     0.198 C 
BRANCH  28  29
HETATM   29  O6  UNL     1      -9.683  50.090 -25.970  1.00  0.00    -0.398 OA
HETATM   30  H36 UNL     1      -8.986  50.199 -25.299  1.00  0.00     0.209 HD
ENDBRANCH  28  29
ENDBRANCH  24  28
BRANCH  25  31
HETATM   31  O7  UNL     1      -9.697  46.036 -27.305  1.00  0.00    -0.385 OA
HETATM   32  C27 UNL     1     -10.456  45.658 -28.454  1.00  0.00     0.202 C 
ENDBRANCH  25  31
BRANCH  26  33
HETATM   33  O8  UNL     1     -11.896  44.647 -25.272  1.00  0.00    -0.390 OA
HETATM   34  H42 UNL     1     -11.931  44.033 -24.510  1.00  0.00     0.210 HD
ENDBRANCH  26  33
BRANCH  27  35
HETATM   35  O9  UNL     1     -10.464  44.657 -22.851  1.00  0.00    -0.388 OA
HETATM   36  H44 UNL     1     -10.251  45.022 -21.971  1.00  0.00     0.210 HD
ENDBRANCH  27  35
ENDBRANCH  21  22
ENDBRANCH  15  21
BRANCH   4  37
HETATM   37  C11 UNL     1      -1.614  48.258 -20.035  1.00  0.00     0.156 C 
HETATM   38  O2  UNL     1      -1.158  47.559 -20.931  1.00  0.00    -0.649 OA
BRANCH  37  39
HETATM   39  O3  UNL     1      -1.524  47.775 -18.772  1.00  0.00    -0.775 OA
HETATM   40  H16 UNL     1      -1.077  46.910 -18.907  1.00  0.00     0.167 HD
ENDBRANCH  37  39
ENDBRANCH   4  37
BRANCH   3  41
HETATM   41  O1  UNL     1      -2.622  51.673 -18.744  1.00  0.00    -0.394 OA
HETATM   42  H15 UNL     1      -2.205  52.211 -18.050  1.00  0.00     0.210 HD
ENDBRANCH   3  41
BRANCH   1  43
HETATM   43  C5  UNL     1       0.593  51.758 -21.807  1.00  0.00    -0.013 C 
HETATM   44  C6  UNL     1       0.910  52.991 -20.958  1.00  0.00     0.010 C 
BRANCH  43  45
HETATM   45  C4  UNL     1      -0.126  52.176 -23.121  1.00  0.00     0.009 C 
BRANCH  45  46
HETATM   46  C3  UNL     1       0.829  52.493 -24.285  1.00  0.00     0.034 C 
BRANCH  46  47
HETATM   47  C2  UNL     1       0.392  51.831 -25.583  1.00  0.00    -0.086 C 
HETATM   48  C1  UNL     1      -0.712  51.057 -25.593  1.00  0.00     0.014 C 
BRANCH  47  49
HETATM   49  C35 UNL     1       1.255  52.099 -26.814  1.00  0.00     0.005 C 
HETATM   50  C36 UNL     1       0.625  51.692 -28.155  1.00  0.00     0.014 C 
HETATM   51  C37 UNL     1       2.624  51.431 -26.661  1.00  0.00     0.014 C 
ENDBRANCH  47  49
ENDBRANCH  46  47
ENDBRANCH  45  46
ENDBRANCH  43  45
ENDBRANCH   1  43
TORSDOF 15
ENDMDL
MODEL 8
REMARK minimizedAffinity -7.59665871
REMARK CNNscore 0.241038606
REMARK CNNaffinity 6.53325319
REMARK  15 active torsions:
REMARK  status: ('A' for Active; 'I' for Inactive)
REMARK    1  A    between atoms: C2_2  and  C3_3 
REMARK    2  A    between atoms: C2_2  and  C35_44 
REMARK    3  A    between atoms: C3_3  and  C4_4 
REMARK    4  A    between atoms: C4_4  and  C5_5 
REMARK    5  A    between atoms: C5_5  and  C7_7 
REMARK    6  A    between atoms: C9_9  and  O1_10 
REMARK    7  A    between atoms: C10_11  and  C11_12 
REMARK    8  A    between atoms: C11_12  and  O3_14 
REMARK    9  A    between atoms: C22_25  and  O4_26 
REMARK   10  A    between atoms: O4_26  and  C23_27 
REMARK   11  A    between atoms: C24_29  and  C25_30 
REMARK   12  A    between atoms: C25_30  and  O6_31 
REMARK   13  A    between atoms: C26_32  and  O7_33 
REMARK   14  A    between atoms: C28_35  and  O8_36 
REMARK   15  A    between atoms: C29_37  and  O9_38 
ROOT
HETATM    1  C7  UNL     1      -3.242  51.133 -24.431  1.00  0.00     0.001 C 
HETATM    2  C8  UNL     1      -4.767  51.443 -24.594  1.00  0.00     0.039 C 
HETATM    3  C9  UNL     1      -5.529  50.647 -23.509  1.00  0.00     0.142 C 
HETATM    4  C10 UNL     1      -4.412  50.096 -22.587  1.00  0.00     0.102 C 
HETATM    5  C12 UNL     1      -4.680  48.894 -21.671  1.00  0.00    -0.054 C 
HETATM    6  C13 UNL     1      -3.666  48.062 -21.304  1.00  0.00    -0.067 C 
HETATM    7  C14 UNL     1      -2.270  48.191 -21.924  1.00  0.00     0.036 C 
HETATM    8  C15 UNL     1      -2.009  49.415 -22.827  1.00  0.00     0.015 C 
HETATM    9  C16 UNL     1      -3.262  49.795 -23.627  1.00  0.00    -0.016 C 
HETATM   10  C17 UNL     1      -3.575  48.614 -24.599  1.00  0.00     0.017 C 
HETATM   11  C18 UNL     1      -3.860  46.936 -20.251  1.00  0.00    -0.013 C 
HETATM   12  C19 UNL     1      -3.846  45.595 -21.037  1.00  0.00     0.021 C 
HETATM   13  C20 UNL     1      -2.698  46.920 -19.198  1.00  0.00     0.017 C 
HETATM   14  C21 UNL     1      -3.126  46.711 -17.738  1.00  0.00     0.037 C 
HETATM   15  C22 UNL     1      -4.274  45.714 -17.539  1.00  0.00     0.153 C 
HETATM   16  C30 UNL     1      -5.433  45.966 -18.491  1.00  0.00    -0.055 C 
HETATM   17  C31 UNL     1      -6.546  45.208 -18.438  1.00  0.00     0.017 C 
HETATM   18  C32 UNL     1      -5.208  47.118 -19.465  1.00  0.00     0.029 C 
HETATM   19  C33 UNL     1      -6.361  47.442 -20.416  1.00  0.00     0.014 C 
HETATM   20  C34 UNL     1      -6.082  48.765 -21.123  1.00  0.00     0.036 C 
ENDROOT
BRANCH  15  21
HETATM   21  O4  UNL     1      -3.810  44.378 -17.765  1.00  0.00    -0.349 OA
BRANCH  21  22
HETATM   22  C23 UNL     1      -3.374  43.735 -16.562  1.00  0.00     0.292 C 
HETATM   23  O5  UNL     1      -1.960  43.575 -16.554  1.00  0.00    -0.348 OA
HETATM   24  C24 UNL     1      -1.529  42.237 -16.825  1.00  0.00     0.179 C 
HETATM   25  C26 UNL     1      -2.013  41.279 -15.709  1.00  0.00     0.183 C 
HETATM   26  C28 UNL     1      -3.497  41.544 -15.383  1.00  0.00     0.183 C 
HETATM   27  C29 UNL     1      -4.156  42.412 -16.446  1.00  0.00     0.204 C 
BRANCH  24  28
HETATM   28  C25 UNL     1      -0.008  42.238 -17.003  1.00  0.00     0.198 C 
BRANCH  28  29
HETATM   29  O6  UNL     1       0.614  43.215 -16.166  1.00  0.00    -0.398 OA
HETATM   30  H36 UNL     1       0.532  42.903 -15.247  1.00  0.00     0.209 HD
ENDBRANCH  28  29
ENDBRANCH  24  28
BRANCH  25  31
HETATM   31  O7  UNL     1      -1.225  41.500 -14.520  1.00  0.00    -0.385 OA
HETATM   32  C27 UNL     1      -0.822  40.282 -13.892  1.00  0.00     0.202 C 
ENDBRANCH  25  31
BRANCH  26  33
HETATM   33  O8  UNL     1      -4.204  40.300 -15.282  1.00  0.00    -0.390 OA
HETATM   34  H42 UNL     1      -5.150  40.547 -15.226  1.00  0.00     0.210 HD
ENDBRANCH  26  33
BRANCH  27  35
HETATM   35  O9  UNL     1      -5.531  42.643 -16.095  1.00  0.00    -0.388 OA
HETATM   36  H44 UNL     1      -5.876  43.252 -16.774  1.00  0.00     0.210 HD
ENDBRANCH  27  35
ENDBRANCH  21  22
ENDBRANCH  15  21
BRANCH   4  37
HETATM   37  C11 UNL     1      -4.024  51.216 -21.562  1.00  0.00     0.156 C 
HETATM   38  O2  UNL     1      -2.936  51.391 -21.028  1.00  0.00    -0.649 OA
BRANCH  37  39
HETATM   39  O3  UNL     1      -5.007  52.098 -21.258  1.00  0.00    -0.775 OA
HETATM   40  H16 UNL     1      -4.558  52.707 -20.630  1.00  0.00     0.167 HD
ENDBRANCH  37  39
ENDBRANCH   4  37
BRANCH   3  41
HETATM   41  O1  UNL     1      -6.288  49.615 -24.143  1.00  0.00    -0.394 OA
HETATM   42  H15 UNL     1      -6.921  50.039 -24.746  1.00  0.00     0.210 HD
ENDBRANCH   3  41
BRANCH   1  43
HETATM   43  C5  UNL     1      -2.488  51.218 -25.794  1.00  0.00    -0.013 C 
HETATM   44  C6  UNL     1      -1.830  49.888 -26.168  1.00  0.00     0.010 C 
BRANCH  43  45
HETATM   45  C4  UNL     1      -1.427  52.354 -25.752  1.00  0.00     0.009 C 
BRANCH  45  46
HETATM   46  C3  UNL     1      -1.253  52.999 -24.366  1.00  0.00     0.034 C 
BRANCH  46  47
HETATM   47  C2  UNL     1       0.105  52.687 -23.754  1.00  0.00    -0.086 C 
HETATM   48  C1  UNL     1       1.098  52.231 -24.543  1.00  0.00     0.014 C 
BRANCH  47  49
HETATM   49  C35 UNL     1       0.250  52.923 -22.252  1.00  0.00     0.005 C 
HETATM   50  C36 UNL     1       1.284  53.988 -21.856  1.00  0.00     0.014 C 
HETATM   51  C37 UNL     1       0.559  51.608 -21.533  1.00  0.00     0.014 C 
ENDBRANCH  47  49
ENDBRANCH  46  47
ENDBRANCH  45  46
ENDBRANCH  43  45
ENDBRANCH   1  43
TORSDOF 15
ENDMDL
MODEL 9
REMARK minimizedAffinity -8.12754631
REMARK CNNscore 0.239591897
REMARK CNNaffinity 6.40133333
REMARK  15 active torsions:
REMARK  status: ('A' for Active; 'I' for Inactive)
REMARK    1  A    between atoms: C2_2  and  C3_3 
REMARK    2  A    between atoms: C2_2  and  C35_44 
REMARK    3  A    between atoms: C3_3  and  C4_4 
REMARK    4  A    between atoms: C4_4  and  C5_5 
REMARK    5  A    between atoms: C5_5  and  C7_7 
REMARK    6  A    between atoms: C9_9  and  O1_10 
REMARK    7  A    between atoms: C10_11  and  C11_12 
REMARK    8  A    between atoms: C11_12  and  O3_14 
REMARK    9  A    between atoms: C22_25  and  O4_26 
REMARK   10  A    between atoms: O4_26  and  C23_27 
REMARK   11  A    between atoms: C24_29  and  C25_30 
REMARK   12  A    between atoms: C25_30  and  O6_31 
REMARK   13  A    between atoms: C26_32  and  O7_33 
REMARK   14  A    between atoms: C28_35  and  O8_36 
REMARK   15  A    between atoms: C29_37  and  O9_38 
ROOT
HETATM    1  C7  UNL     1      -3.131  50.800 -24.163  1.00  0.00     0.001 C 
HETATM    2  C8  UNL     1      -4.451  51.587 -24.455  1.00  0.00     0.039 C 
HETATM    3  C9  UNL     1      -5.562  50.993 -23.558  1.00  0.00     0.142 C 
HETATM    4  C10 UNL     1      -4.806  50.051 -22.589  1.00  0.00     0.102 C 
HETATM    5  C12 UNL     1      -5.551  48.930 -21.851  1.00  0.00    -0.054 C 
HETATM    6  C13 UNL     1      -4.899  47.796 -21.473  1.00  0.00    -0.067 C 
HETATM    7  C14 UNL     1      -3.457  47.523 -21.918  1.00  0.00     0.036 C 
HETATM    8  C15 UNL     1      -2.714  48.666 -22.640  1.00  0.00     0.015 C 
HETATM    9  C16 UNL     1      -3.667  49.481 -23.524  1.00  0.00    -0.016 C 
HETATM   10  C17 UNL     1      -4.185  48.535 -24.653  1.00  0.00     0.017 C 
HETATM   11  C18 UNL     1      -5.570  46.713 -20.583  1.00  0.00    -0.013 C 
HETATM   12  C19 UNL     1      -5.853  45.499 -21.511  1.00  0.00     0.021 C 
HETATM   13  C20 UNL     1      -4.626  46.253 -19.418  1.00  0.00     0.017 C 
HETATM   14  C21 UNL     1      -5.298  46.081 -18.047  1.00  0.00     0.037 C 
HETATM   15  C22 UNL     1      -6.709  45.486 -18.091  1.00  0.00     0.153 C 
HETATM   16  C30 UNL     1      -7.593  46.160 -19.129  1.00  0.00    -0.055 C 
HETATM   17  C31 UNL     1      -8.879  45.791 -19.285  1.00  0.00     0.017 C 
HETATM   18  C32 UNL     1      -6.895  47.252 -19.934  1.00  0.00     0.029 C 
HETATM   19  C33 UNL     1      -7.751  47.993 -20.962  1.00  0.00     0.014 C 
HETATM   20  C34 UNL     1      -6.988  49.210 -21.478  1.00  0.00     0.036 C 
ENDROOT
BRANCH  15  21
HETATM   21  O4  UNL     1      -6.646  44.092 -18.416  1.00  0.00    -0.349 OA
BRANCH  21  22
HETATM   22  C23 UNL     1      -5.777  43.362 -17.543  1.00  0.00     0.292 C 
HETATM   23  O5  UNL     1      -4.825  42.608 -18.286  1.00  0.00    -0.348 OA
HETATM   24  C24 UNL     1      -5.116  41.207 -18.342  1.00  0.00     0.179 C 
HETATM   25  C26 UNL     1      -5.050  40.586 -16.925  1.00  0.00     0.183 C 
HETATM   26  C28 UNL     1      -5.805  41.475 -15.915  1.00  0.00     0.183 C 
HETATM   27  C29 UNL     1      -6.671  42.509 -16.622  1.00  0.00     0.204 C 
BRANCH  24  28
HETATM   28  C25 UNL     1      -4.157  40.547 -19.336  1.00  0.00     0.198 C 
BRANCH  28  29
HETATM   29  O6  UNL     1      -2.862  41.148 -19.290  1.00  0.00    -0.398 OA
HETATM   30  H36 UNL     1      -2.456  40.897 -18.441  1.00  0.00     0.209 HD
ENDBRANCH  28  29
ENDBRANCH  24  28
BRANCH  25  31
HETATM   31  O7  UNL     1      -3.670  40.483 -16.517  1.00  0.00    -0.385 OA
HETATM   32  C27 UNL     1      -3.381  39.247 -15.860  1.00  0.00     0.202 C 
ENDBRANCH  25  31
BRANCH  26  33
HETATM   33  O8  UNL     1      -6.632  40.662 -15.071  1.00  0.00    -0.390 OA
HETATM   34  H42 UNL     1      -7.185  41.294 -14.568  1.00  0.00     0.210 HD
ENDBRANCH  26  33
BRANCH  27  35
HETATM   35  O9  UNL     1      -7.345  43.321 -15.645  1.00  0.00    -0.388 OA
HETATM   36  H44 UNL     1      -7.827  43.999 -16.155  1.00  0.00     0.210 HD
ENDBRANCH  27  35
ENDBRANCH  21  22
ENDBRANCH  15  21
BRANCH   4  37
HETATM   37  C11 UNL     1      -4.243  50.912 -21.406  1.00  0.00     0.156 C 
HETATM   38  O2  UNL     1      -3.246  50.688 -20.731  1.00  0.00    -0.649 OA
BRANCH  37  39
HETATM   39  O3  UNL     1      -4.936  52.042 -21.123  1.00  0.00    -0.775 OA
HETATM   40  H16 UNL     1      -4.418  52.428 -20.382  1.00  0.00     0.167 HD
ENDBRANCH  37  39
ENDBRANCH   4  37
BRANCH   3  41
HETATM   41  O1  UNL     1      -6.502  50.304 -24.385  1.00  0.00    -0.394 OA
HETATM   42  H15 UNL     1      -6.887  50.950 -25.002  1.00  0.00     0.210 HD
ENDBRANCH   3  41
BRANCH   1  43
HETATM   43  C5  UNL     1      -2.204  50.744 -25.416  1.00  0.00    -0.013 C 
HETATM   44  C6  UNL     1      -2.214  49.364 -26.074  1.00  0.00     0.010 C 
BRANCH  43  45
HETATM   45  C4  UNL     1      -0.752  51.150 -25.030  1.00  0.00     0.009 C 
BRANCH  45  46
HETATM   46  C3  UNL     1      -0.563  51.455 -23.535  1.00  0.00     0.034 C 
BRANCH  46  47
HETATM   47  C2  UNL     1       0.373  52.632 -23.302  1.00  0.00    -0.086 C 
HETATM   48  C1  UNL     1       0.664  53.459 -24.327  1.00  0.00     0.014 C 
BRANCH  47  49
HETATM   49  C35 UNL     1       0.928  52.798 -21.889  1.00  0.00     0.005 C 
HETATM   50  C36 UNL     1      -0.048  52.437 -20.759  1.00  0.00     0.014 C 
HETATM   51  C37 UNL     1       1.452  54.222 -21.686  1.00  0.00     0.014 C 
ENDBRANCH  47  49
ENDBRANCH  46  47
ENDBRANCH  45  46
ENDBRANCH  43  45
ENDBRANCH   1  43
TORSDOF 15
ENDMDL
