MODEL 1
REMARK minimizedAffinity -8.21403408
REMARK  8 active torsions:
REMARK  status: ('A' for Active; 'I' for Inactive)
REMARK    1  A    between atoms: C4_4  and  C5_5 
REMARK    2  A    between atoms: C5_5  and  C6_6 
REMARK    3  A    between atoms: C6_6  and  C7_7 
REMARK    4  A    between atoms: C7_7  and  C9_9 
REMARK    5  A    between atoms: C21_21  and  C22_22 
REMARK    6  A    between atoms: C22_22  and  C23_23 
REMARK    7  A    between atoms: C23_23  and  C24_24 
REMARK    8  A    between atoms: C24_24  and  O1_25 
ROOT
HETATM    1  C9  UNL     1      -3.090  49.681 -22.630  1.00  0.00    -0.002 C 
HETATM    2  C10 UNL     1      -2.385  48.371 -22.151  1.00  0.00     0.006 C 
HETATM    3  C11 UNL     1      -3.461  47.261 -22.128  1.00  0.00     0.011 C 
HETATM    4  C12 UNL     1      -4.797  48.020 -22.237  1.00  0.00    -0.032 C 
HETATM    5  C13 UNL     1      -5.085  48.552 -20.791  1.00  0.00     0.016 C 
HETATM    6  C14 UNL     1      -5.995  47.202 -22.794  1.00  0.00     0.003 C 
HETATM    7  C15 UNL     1      -6.343  45.921 -22.002  1.00  0.00     0.010 C 
HETATM    8  C16 UNL     1      -7.657  45.276 -22.456  1.00  0.00     0.035 C 
HETATM    9  C17 UNL     1      -7.979  45.627 -23.891  1.00  0.00    -0.073 C 
HETATM   10  C18 UNL     1      -8.022  44.696 -24.881  1.00  0.00    -0.085 C 
HETATM   11  C19 UNL     1      -8.308  44.991 -26.333  1.00  0.00     0.043 C 
HETATM   12  C20 UNL     1      -7.777  43.228 -24.617  1.00  0.00     0.043 C 
HETATM   13  C21 UNL     1      -8.173  47.145 -24.126  1.00  0.00     0.023 C 
HETATM   14  C25 UNL     1      -7.280  48.057 -23.147  1.00  0.00    -0.032 C 
HETATM   15  C26 UNL     1      -8.073  48.473 -21.879  1.00  0.00     0.016 C 
HETATM   16  C27 UNL     1      -6.880  49.387 -23.887  1.00  0.00     0.011 C 
HETATM   17  C28 UNL     1      -5.600  50.108 -23.403  1.00  0.00     0.011 C 
HETATM   18  C29 UNL     1      -4.405  49.147 -23.279  1.00  0.00    -0.032 C 
HETATM   19  C30 UNL     1      -4.086  48.623 -24.713  1.00  0.00     0.016 C 
ENDROOT
BRANCH   1  20
HETATM   20  C7  UNL     1      -2.131  50.694 -23.331  1.00  0.00    -0.014 C 
HETATM   21  C8  UNL     1      -0.985  51.254 -22.482  1.00  0.00     0.010 C 
BRANCH  20  22
HETATM   22  C6  UNL     1      -1.622  50.134 -24.683  1.00  0.00     0.008 C 
BRANCH  22  23
HETATM   23  C5  UNL     1      -1.123  51.190 -25.686  1.00  0.00     0.028 C 
BRANCH  23  24
HETATM   24  C4  UNL     1       0.374  51.242 -25.819  1.00  0.00    -0.025 C 
HETATM   25  C2  UNL     1       1.099  51.504 -26.924  1.00  0.00    -0.091 C 
HETATM   26  C1  UNL     1       2.603  51.554 -26.859  1.00  0.00     0.042 C 
HETATM   27  C3  UNL     1       0.528  51.778 -28.287  1.00  0.00     0.042 C 
ENDBRANCH  23  24
ENDBRANCH  22  23
ENDBRANCH  20  22
ENDBRANCH   1  20
BRANCH  13  28
HETATM   28  C22 UNL     1      -9.698  47.427 -24.187  1.00  0.00     0.012 C 
BRANCH  28  29
HETATM   29  C23 UNL     1     -10.240  47.722 -25.590  1.00  0.00     0.027 C 
BRANCH  29  30
HETATM   30  C24 UNL     1      -9.377  48.725 -26.354  1.00  0.00     0.164 C 
BRANCH  30  31
HETATM   31  O1  UNL     1      -9.710  50.060 -26.000  1.00  0.00    -0.401 OA
HETATM   32  H42 UNL     1      -9.341  50.231 -25.117  1.00  0.00     0.209 HD
ENDBRANCH  30  31
ENDBRANCH  29  30
ENDBRANCH  28  29
ENDBRANCH  13  28
TORSDOF 8
ENDMDL
MODEL 2
REMARK minimizedAffinity -8.1635828
REMARK  8 active torsions:
REMARK  status: ('A' for Active; 'I' for Inactive)
REMARK    1  A    between atoms: C4_4  and  C5_5 
REMARK    2  A    between atoms: C5_5  and  C6_6 
REMARK    3  A    between atoms: C6_6  and  C7_7 
REMARK    4  A    between atoms: C7_7  and  C9_9 
REMARK    5  A    between atoms: C21_21  and  C22_22 
REMARK    6  A    between atoms: C22_22  and  C23_23 
REMARK    7  A    between atoms: C23_23  and  C24_24 
REMARK    8  A    between atoms: C24_24  and  O1_25 
ROOT
HETATM    1  C9  UNL     1      -4.829  48.449 -22.963  1.00  0.00    -0.002 C 
HETATM    2  C10 UNL     1      -5.289  48.190 -24.434  1.00  0.00     0.006 C 
HETATM    3  C11 UNL     1      -4.478  49.149 -25.337  1.00  0.00     0.011 C 
HETATM    4  C12 UNL     1      -3.857  50.163 -24.357  1.00  0.00    -0.032 C 
HETATM    5  C13 UNL     1      -5.005  51.179 -24.036  1.00  0.00     0.016 C 
HETATM    6  C14 UNL     1      -2.576  50.886 -24.858  1.00  0.00     0.003 C 
HETATM    7  C15 UNL     1      -2.738  51.675 -26.177  1.00  0.00     0.010 C 
HETATM    8  C16 UNL     1      -1.521  52.545 -26.508  1.00  0.00     0.035 C 
HETATM    9  C17 UNL     1      -0.262  52.000 -25.871  1.00  0.00    -0.073 C 
HETATM   10  C18 UNL     1       0.784  51.530 -26.602  1.00  0.00    -0.085 C 
HETATM   11  C19 UNL     1       2.050  50.948 -26.024  1.00  0.00     0.043 C 
HETATM   12  C20 UNL     1       0.779  51.541 -28.114  1.00  0.00     0.043 C 
HETATM   13  C21 UNL     1      -0.321  51.959 -24.325  1.00  0.00     0.023 C 
HETATM   14  C25 UNL     1      -1.805  51.719 -23.753  1.00  0.00    -0.032 C 
HETATM   15  C26 UNL     1      -2.514  53.061 -23.429  1.00  0.00     0.016 C 
HETATM   16  C27 UNL     1      -1.724  50.913 -22.403  1.00  0.00     0.011 C 
HETATM   17  C28 UNL     1      -2.965  50.084 -21.999  1.00  0.00     0.011 C 
HETATM   18  C29 UNL     1      -3.478  49.205 -23.152  1.00  0.00    -0.032 C 
HETATM   19  C30 UNL     1      -2.357  48.170 -23.474  1.00  0.00     0.016 C 
ENDROOT
BRANCH   1  20
HETATM   20  C7  UNL     1      -5.003  47.216 -22.022  1.00  0.00    -0.014 C 
HETATM   21  C8  UNL     1      -4.125  47.181 -20.766  1.00  0.00     0.010 C 
BRANCH  20  22
HETATM   22  C6  UNL     1      -6.497  46.980 -21.682  1.00  0.00     0.008 C 
BRANCH  22  23
HETATM   23  C5  UNL     1      -7.242  48.199 -21.110  1.00  0.00     0.028 C 
BRANCH  23  24
HETATM   24  C4  UNL     1      -8.666  47.912 -20.721  1.00  0.00    -0.025 C 
HETATM   25  C2  UNL     1      -9.313  48.299 -19.603  1.00  0.00    -0.091 C 
HETATM   26  C1  UNL     1     -10.764  47.950 -19.400  1.00  0.00     0.042 C 
HETATM   27  C3  UNL     1      -8.704  49.095 -18.484  1.00  0.00     0.042 C 
ENDBRANCH  23  24
ENDBRANCH  22  23
ENDBRANCH  20  22
ENDBRANCH   1  20
BRANCH  13  28
HETATM   28  C22 UNL     1       0.473  53.179 -23.786  1.00  0.00     0.012 C 
BRANCH  28  29
HETATM   29  C23 UNL     1       0.938  53.049 -22.331  1.00  0.00     0.027 C 
BRANCH  29  30
HETATM   30  C24 UNL     1       1.453  54.368 -21.757  1.00  0.00     0.164 C 
BRANCH  30  31
HETATM   31  O1  UNL     1       1.539  54.310 -20.340  1.00  0.00    -0.401 OA
HETATM   32  H42 UNL     1       2.315  53.770 -20.114  1.00  0.00     0.209 HD
ENDBRANCH  30  31
ENDBRANCH  29  30
ENDBRANCH  28  29
ENDBRANCH  13  28
TORSDOF 8
ENDMDL
MODEL 3
REMARK minimizedAffinity -8.1531868
REMARK  8 active torsions:
REMARK  status: ('A' for Active; 'I' for Inactive)
REMARK    1  A    between atoms: C4_4  and  C5_5 
REMARK    2  A    between atoms: C5_5  and  C6_6 
REMARK    3  A    between atoms: C6_6  and  C7_7 
REMARK    4  A    between atoms: C7_7  and  C9_9 
REMARK    5  A    between atoms: C21_21  and  C22_22 
REMARK    6  A    between atoms: C22_22  and  C23_23 
REMARK    7  A    between atoms: C23_23  and  C24_24 
REMARK    8  A    between atoms: C24_24  and  O1_25 
ROOT
HETATM    1  C9  UNL     1      -2.841  49.889 -23.080  1.00  0.00    -0.002 C 
HETATM    2  C10 UNL     1      -2.105  48.670 -22.437  1.00  0.00     0.006 C 
HETATM    3  C11 UNL     1      -3.173  47.580 -22.181  1.00  0.00     0.011 C 
HETATM    4  C12 UNL     1      -4.517  48.317 -22.340  1.00  0.00    -0.032 C 
HETATM    5  C13 UNL     1      -4.732  49.073 -20.984  1.00  0.00     0.016 C 
HETATM    6  C14 UNL     1      -5.738  47.425 -22.697  1.00  0.00     0.003 C 
HETATM    7  C15 UNL     1      -6.038  46.287 -21.695  1.00  0.00     0.010 C 
HETATM    8  C16 UNL     1      -7.371  45.583 -21.971  1.00  0.00     0.035 C 
HETATM    9  C17 UNL     1      -7.769  45.703 -23.425  1.00  0.00    -0.073 C 
HETATM   10  C18 UNL     1      -7.859  44.626 -24.250  1.00  0.00    -0.085 C 
HETATM   11  C19 UNL     1      -8.221  44.687 -25.714  1.00  0.00     0.043 C 
HETATM   12  C20 UNL     1      -7.592  43.218 -23.770  1.00  0.00     0.043 C 
HETATM   13  C21 UNL     1      -7.982  47.164 -23.887  1.00  0.00     0.023 C 
HETATM   14  C25 UNL     1      -7.044  48.218 -23.113  1.00  0.00    -0.032 C 
HETATM   15  C26 UNL     1      -7.772  48.832 -21.888  1.00  0.00     0.016 C 
HETATM   16  C27 UNL     1      -6.690  49.412 -24.075  1.00  0.00     0.011 C 
HETATM   17  C28 UNL     1      -5.390  50.196 -23.780  1.00  0.00     0.011 C 
HETATM   18  C29 UNL     1      -4.185  49.263 -23.567  1.00  0.00    -0.032 C 
HETATM   19  C30 UNL     1      -3.938  48.517 -24.914  1.00  0.00     0.016 C 
ENDROOT
BRANCH   1  20
HETATM   20  C7  UNL     1      -1.925  50.774 -23.982  1.00  0.00    -0.014 C 
HETATM   21  C8  UNL     1      -2.472  51.142 -25.365  1.00  0.00     0.010 C 
BRANCH  20  22
HETATM   22  C6  UNL     1      -1.425  52.023 -23.213  1.00  0.00     0.008 C 
BRANCH  22  23
HETATM   23  C5  UNL     1      -0.029  51.891 -22.579  1.00  0.00     0.028 C 
BRANCH  23  24
HETATM   24  C4  UNL     1      -0.039  51.929 -21.076  1.00  0.00    -0.025 C 
HETATM   25  C2  UNL     1       0.486  52.871 -20.267  1.00  0.00    -0.091 C 
HETATM   26  C1  UNL     1       0.344  52.762 -18.772  1.00  0.00     0.042 C 
HETATM   27  C3  UNL     1       1.230  54.091 -20.732  1.00  0.00     0.042 C 
ENDBRANCH  23  24
ENDBRANCH  22  23
ENDBRANCH  20  22
ENDBRANCH   1  20
BRANCH  13  28
HETATM   28  C22 UNL     1      -9.510  47.439 -23.912  1.00  0.00     0.012 C 
BRANCH  28  29
HETATM   29  C23 UNL     1     -10.089  47.712 -25.305  1.00  0.00     0.027 C 
BRANCH  29  30
HETATM   30  C24 UNL     1      -9.229  48.677 -26.120  1.00  0.00     0.164 C 
BRANCH  30  31
HETATM   31  O1  UNL     1      -9.702  50.011 -25.999  1.00  0.00    -0.401 OA
HETATM   32  H42 UNL     1      -9.446  50.335 -25.119  1.00  0.00     0.209 HD
ENDBRANCH  30  31
ENDBRANCH  29  30
ENDBRANCH  28  29
ENDBRANCH  13  28
TORSDOF 8
ENDMDL
MODEL 4
REMARK minimizedAffinity -7.68166208
REMARK  8 active torsions:
REMARK  status: ('A' for Active; 'I' for Inactive)
REMARK    1  A    between atoms: C4_4  and  C5_5 
REMARK    2  A    between atoms: C5_5  and  C6_6 
REMARK    3  A    between atoms: C6_6  and  C7_7 
REMARK    4  A    between atoms: C7_7  and  C9_9 
REMARK    5  A    between atoms: C21_21  and  C22_22 
REMARK    6  A    between atoms: C22_22  and  C23_23 
REMARK    7  A    between atoms: C23_23  and  C24_24 
REMARK    8  A    between atoms: C24_24  and  O1_25 
ROOT
HETATM    1  C9  UNL     1      -4.740  48.380 -22.710  1.00  0.00    -0.002 C 
HETATM    2  C10 UNL     1      -5.216  48.053 -24.162  1.00  0.00     0.006 C 
HETATM    3  C11 UNL     1      -4.445  48.997 -25.114  1.00  0.00     0.011 C 
HETATM    4  C12 UNL     1      -3.835  50.063 -24.184  1.00  0.00    -0.032 C 
HETATM    5  C13 UNL     1      -5.004  51.061 -23.882  1.00  0.00     0.016 C 
HETATM    6  C14 UNL     1      -2.582  50.799 -24.732  1.00  0.00     0.003 C 
HETATM    7  C15 UNL     1      -2.784  51.532 -26.078  1.00  0.00     0.010 C 
HETATM    8  C16 UNL     1      -1.595  52.420 -26.462  1.00  0.00     0.035 C 
HETATM    9  C17 UNL     1      -0.313  51.932 -25.825  1.00  0.00    -0.073 C 
HETATM   10  C18 UNL     1       0.733  51.461 -26.555  1.00  0.00    -0.085 C 
HETATM   11  C19 UNL     1       2.023  50.934 -25.976  1.00  0.00     0.043 C 
HETATM   12  C20 UNL     1       0.705  51.414 -28.066  1.00  0.00     0.043 C 
HETATM   13  C21 UNL     1      -0.347  51.949 -24.278  1.00  0.00     0.023 C 
HETATM   14  C25 UNL     1      -1.815  51.693 -23.673  1.00  0.00    -0.032 C 
HETATM   15  C26 UNL     1      -2.554  53.028 -23.389  1.00  0.00     0.016 C 
HETATM   16  C27 UNL     1      -1.692  50.942 -22.295  1.00  0.00     0.011 C 
HETATM   17  C28 UNL     1      -2.905  50.098 -21.839  1.00  0.00     0.011 C 
HETATM   18  C29 UNL     1      -3.412  49.163 -22.950  1.00  0.00    -0.032 C 
HETATM   19  C30 UNL     1      -2.270  48.144 -23.250  1.00  0.00     0.016 C 
ENDROOT
BRANCH   1  20
HETATM   20  C7  UNL     1      -4.868  47.180 -21.719  1.00  0.00    -0.014 C 
HETATM   21  C8  UNL     1      -3.558  46.569 -21.209  1.00  0.00     0.010 C 
BRANCH  20  22
HETATM   22  C6  UNL     1      -5.834  47.518 -20.556  1.00  0.00     0.008 C 
BRANCH  22  23
HETATM   23  C5  UNL     1      -5.421  48.717 -19.685  1.00  0.00     0.028 C 
BRANCH  23  24
HETATM   24  C4  UNL     1      -4.698  48.332 -18.424  1.00  0.00    -0.025 C 
HETATM   25  C2  UNL     1      -3.764  49.037 -17.756  1.00  0.00    -0.091 C 
HETATM   26  C1  UNL     1      -3.173  48.506 -16.476  1.00  0.00     0.042 C 
HETATM   27  C3  UNL     1      -3.231  50.378 -18.175  1.00  0.00     0.042 C 
ENDBRANCH  23  24
ENDBRANCH  22  23
ENDBRANCH  20  22
ENDBRANCH   1  20
BRANCH  13  28
HETATM   28  C22 UNL     1       0.423  53.209 -23.798  1.00  0.00     0.012 C 
BRANCH  28  29
HETATM   29  C23 UNL     1       0.957  53.126 -22.364  1.00  0.00     0.027 C 
BRANCH  29  30
HETATM   30  C24 UNL     1       1.571  54.441 -21.888  1.00  0.00     0.164 C 
BRANCH  30  31
HETATM   31  O1  UNL     1       1.507  54.554 -20.473  1.00  0.00    -0.401 OA
HETATM   32  H42 UNL     1       2.183  53.963 -20.100  1.00  0.00     0.209 HD
ENDBRANCH  30  31
ENDBRANCH  29  30
ENDBRANCH  28  29
ENDBRANCH  13  28
TORSDOF 8
ENDMDL
MODEL 5
REMARK minimizedAffinity -7.62665939
REMARK  8 active torsions:
REMARK  status: ('A' for Active; 'I' for Inactive)
REMARK    1  A    between atoms: C4_4  and  C5_5 
REMARK    2  A    between atoms: C5_5  and  C6_6 
REMARK    3  A    between atoms: C6_6  and  C7_7 
REMARK    4  A    between atoms: C7_7  and  C9_9 
REMARK    5  A    between atoms: C21_21  and  C22_22 
REMARK    6  A    between atoms: C22_22  and  C23_23 
REMARK    7  A    between atoms: C23_23  and  C24_24 
REMARK    8  A    between atoms: C24_24  and  O1_25 
ROOT
HETATM    1  C9  UNL     1      -1.391  50.611 -22.305  1.00  0.00    -0.002 C 
HETATM    2  C10 UNL     1      -2.087  50.278 -23.664  1.00  0.00     0.006 C 
HETATM    3  C11 UNL     1      -3.257  49.317 -23.349  1.00  0.00     0.011 C 
HETATM    4  C12 UNL     1      -2.987  48.844 -21.907  1.00  0.00    -0.032 C 
HETATM    5  C13 UNL     1      -1.895  47.728 -22.041  1.00  0.00     0.016 C 
HETATM    6  C14 UNL     1      -4.227  48.339 -21.119  1.00  0.00     0.003 C 
HETATM    7  C15 UNL     1      -4.991  47.165 -21.773  1.00  0.00     0.010 C 
HETATM    8  C16 UNL     1      -6.062  46.563 -20.857  1.00  0.00     0.035 C 
HETATM    9  C17 UNL     1      -6.551  47.572 -19.842  1.00  0.00    -0.073 C 
HETATM   10  C18 UNL     1      -7.830  48.033 -19.826  1.00  0.00    -0.085 C 
HETATM   11  C19 UNL     1      -8.367  49.060 -18.859  1.00  0.00     0.043 C 
HETATM   12  C20 UNL     1      -8.872  47.552 -20.810  1.00  0.00     0.043 C 
HETATM   13  C21 UNL     1      -5.441  48.075 -18.888  1.00  0.00     0.023 C 
HETATM   14  C25 UNL     1      -3.985  48.109 -19.571  1.00  0.00    -0.032 C 
HETATM   15  C26 UNL     1      -3.195  46.803 -19.290  1.00  0.00     0.016 C 
HETATM   16  C27 UNL     1      -3.143  49.287 -18.956  1.00  0.00     0.011 C 
HETATM   17  C28 UNL     1      -2.001  49.868 -19.824  1.00  0.00     0.011 C 
HETATM   18  C29 UNL     1      -2.466  50.190 -21.254  1.00  0.00    -0.032 C 
HETATM   19  C30 UNL     1      -3.538  51.317 -21.147  1.00  0.00     0.016 C 
ENDROOT
BRANCH   1  20
HETATM   20  C7  UNL     1      -0.665  51.992 -22.290  1.00  0.00    -0.014 C 
HETATM   21  C8  UNL     1       0.688  52.049 -21.573  1.00  0.00     0.010 C 
BRANCH  20  22
HETATM   22  C6  UNL     1      -0.583  52.594 -23.716  1.00  0.00     0.008 C 
BRANCH  22  23
HETATM   23  C5  UNL     1       0.616  52.126 -24.560  1.00  0.00     0.028 C 
BRANCH  23  24
HETATM   24  C4  UNL     1       0.339  52.085 -26.037  1.00  0.00    -0.025 C 
HETATM   25  C2  UNL     1       1.206  51.824 -27.036  1.00  0.00    -0.091 C 
HETATM   26  C1  UNL     1       0.737  51.786 -28.466  1.00  0.00     0.042 C 
HETATM   27  C3  UNL     1       2.671  51.541 -26.855  1.00  0.00     0.042 C 
ENDBRANCH  23  24
ENDBRANCH  22  23
ENDBRANCH  20  22
ENDBRANCH   1  20
BRANCH  13  28
HETATM   28  C22 UNL     1      -5.590  47.319 -17.541  1.00  0.00     0.012 C 
BRANCH  28  29
HETATM   29  C23 UNL     1      -6.409  46.025 -17.619  1.00  0.00     0.027 C 
BRANCH  29  30
HETATM   30  C24 UNL     1      -7.478  45.939 -16.531  1.00  0.00     0.164 C 
BRANCH  30  31
HETATM   31  O1  UNL     1      -7.774  47.225 -16.003  1.00  0.00    -0.401 OA
HETATM   32  H42 UNL     1      -8.310  47.697 -16.662  1.00  0.00     0.209 HD
ENDBRANCH  30  31
ENDBRANCH  29  30
ENDBRANCH  28  29
ENDBRANCH  13  28
TORSDOF 8
ENDMDL
MODEL 6
REMARK minimizedAffinity -7.59806299
REMARK  8 active torsions:
REMARK  status: ('A' for Active; 'I' for Inactive)
REMARK    1  A    between atoms: C4_4  and  C5_5 
REMARK    2  A    between atoms: C5_5  and  C6_6 
REMARK    3  A    between atoms: C6_6  and  C7_7 
REMARK    4  A    between atoms: C7_7  and  C9_9 
REMARK    5  A    between atoms: C21_21  and  C22_22 
REMARK    6  A    between atoms: C22_22  and  C23_23 
REMARK    7  A    between atoms: C23_23  and  C24_24 
REMARK    8  A    between atoms: C24_24  and  O1_25 
ROOT
HETATM    1  C9  UNL     1      -3.383  49.862 -22.935  1.00  0.00    -0.002 C 
HETATM    2  C10 UNL     1      -2.522  48.686 -22.373  1.00  0.00     0.006 C 
HETATM    3  C11 UNL     1      -3.475  47.486 -22.167  1.00  0.00     0.011 C 
HETATM    4  C12 UNL     1      -4.886  48.097 -22.265  1.00  0.00    -0.032 C 
HETATM    5  C13 UNL     1      -5.148  48.750 -20.866  1.00  0.00     0.016 C 
HETATM    6  C14 UNL     1      -6.022  47.112 -22.658  1.00  0.00     0.003 C 
HETATM    7  C15 UNL     1      -6.193  45.895 -21.719  1.00  0.00     0.010 C 
HETATM    8  C16 UNL     1      -7.457  45.082 -22.018  1.00  0.00     0.035 C 
HETATM    9  C17 UNL     1      -7.891  45.244 -23.458  1.00  0.00    -0.073 C 
HETATM   10  C18 UNL     1      -7.892  44.212 -24.343  1.00  0.00    -0.085 C 
HETATM   11  C19 UNL     1      -8.286  44.320 -25.796  1.00  0.00     0.043 C 
HETATM   12  C20 UNL     1      -7.483  42.811 -23.948  1.00  0.00     0.043 C 
HETATM   13  C21 UNL     1      -8.252  46.701 -23.832  1.00  0.00     0.023 C 
HETATM   14  C25 UNL     1      -7.406  47.796 -23.011  1.00  0.00    -0.032 C 
HETATM   15  C26 UNL     1      -8.166  48.267 -21.743  1.00  0.00     0.016 C 
HETATM   16  C27 UNL     1      -7.186  49.071 -23.907  1.00  0.00     0.011 C 
HETATM   17  C28 UNL     1      -5.962  49.959 -23.583  1.00  0.00     0.011 C 
HETATM   18  C29 UNL     1      -4.669  49.138 -23.440  1.00  0.00    -0.032 C 
HETATM   19  C30 UNL     1      -4.377  48.495 -24.831  1.00  0.00     0.016 C 
ENDROOT
BRANCH   1  20
HETATM   20  C7  UNL     1      -2.573  50.882 -23.796  1.00  0.00    -0.014 C 
HETATM   21  C8  UNL     1      -3.104  52.319 -23.839  1.00  0.00     0.010 C 
BRANCH  20  22
HETATM   22  C6  UNL     1      -1.065  50.838 -23.440  1.00  0.00     0.008 C 
BRANCH  22  23
HETATM   23  C5  UNL     1      -0.464  52.171 -22.961  1.00  0.00     0.028 C 
BRANCH  23  24
HETATM   24  C4  UNL     1      -0.219  52.229 -21.478  1.00  0.00    -0.025 C 
HETATM   25  C2  UNL     1       0.580  53.079 -20.803  1.00  0.00    -0.091 C 
HETATM   26  C1  UNL     1       0.670  53.015 -19.301  1.00  0.00     0.042 C 
HETATM   27  C3  UNL     1       1.428  54.149 -21.430  1.00  0.00     0.042 C 
ENDBRANCH  23  24
ENDBRANCH  22  23
ENDBRANCH  20  22
ENDBRANCH   1  20
BRANCH  13  28
HETATM   28  C22 UNL     1      -9.800  46.828 -23.822  1.00  0.00     0.012 C 
BRANCH  28  29
HETATM   29  C23 UNL     1     -10.406  47.381 -25.116  1.00  0.00     0.027 C 
BRANCH  29  30
HETATM   30  C24 UNL     1     -11.845  46.917 -25.336  1.00  0.00     0.164 C 
BRANCH  30  31
HETATM   31  O1  UNL     1     -12.573  47.859 -26.113  1.00  0.00    -0.401 OA
HETATM   32  H42 UNL     1     -12.275  47.772 -27.035  1.00  0.00     0.209 HD
ENDBRANCH  30  31
ENDBRANCH  29  30
ENDBRANCH  28  29
ENDBRANCH  13  28
TORSDOF 8
ENDMDL
MODEL 7
REMARK minimizedAffinity -7.41093731
REMARK  8 active torsions:
REMARK  status: ('A' for Active; 'I' for Inactive)
REMARK    1  A    between atoms: C4_4  and  C5_5 
REMARK    2  A    between atoms: C5_5  and  C6_6 
REMARK    3  A    between atoms: C6_6  and  C7_7 
REMARK    4  A    between atoms: C7_7  and  C9_9 
REMARK    5  A    between atoms: C21_21  and  C22_22 
REMARK    6  A    between atoms: C22_22  and  C23_23 
REMARK    7  A    between atoms: C23_23  and  C24_24 
REMARK    8  A    between atoms: C24_24  and  O1_25 
ROOT
HETATM    1  C9  UNL     1      -1.737  51.043 -22.793  1.00  0.00    -0.002 C 
HETATM    2  C10 UNL     1      -2.885  51.409 -23.789  1.00  0.00     0.006 C 
HETATM    3  C11 UNL     1      -4.064  50.454 -23.490  1.00  0.00     0.011 C 
HETATM    4  C12 UNL     1      -3.450  49.352 -22.605  1.00  0.00    -0.032 C 
HETATM    5  C13 UNL     1      -2.713  48.391 -23.599  1.00  0.00     0.016 C 
HETATM    6  C14 UNL     1      -4.448  48.582 -21.697  1.00  0.00     0.003 C 
HETATM    7  C15 UNL     1      -5.606  47.877 -22.440  1.00  0.00     0.010 C 
HETATM    8  C16 UNL     1      -6.427  46.955 -21.533  1.00  0.00     0.035 C 
HETATM    9  C17 UNL     1      -6.346  47.388 -20.086  1.00  0.00    -0.073 C 
HETATM   10  C18 UNL     1      -7.428  47.834 -19.394  1.00  0.00    -0.085 C 
HETATM   11  C19 UNL     1      -7.402  48.306 -17.960  1.00  0.00     0.043 C 
HETATM   12  C20 UNL     1      -8.806  47.905 -20.011  1.00  0.00     0.043 C 
HETATM   13  C21 UNL     1      -4.910  47.348 -19.510  1.00  0.00     0.023 C 
HETATM   14  C25 UNL     1      -3.776  47.646 -20.611  1.00  0.00    -0.032 C 
HETATM   15  C26 UNL     1      -3.225  46.333 -21.229  1.00  0.00     0.016 C 
HETATM   16  C27 UNL     1      -2.557  48.370 -19.927  1.00  0.00     0.011 C 
HETATM   17  C28 UNL     1      -1.660  49.248 -20.831  1.00  0.00     0.011 C 
HETATM   18  C29 UNL     1      -2.481  50.218 -21.697  1.00  0.00    -0.032 C 
HETATM   19  C30 UNL     1      -3.205  51.201 -20.727  1.00  0.00     0.016 C 
ENDROOT
BRANCH   1  20
HETATM   20  C7  UNL     1      -0.776  52.231 -22.475  1.00  0.00    -0.014 C 
HETATM   21  C8  UNL     1      -0.117  52.229 -21.091  1.00  0.00     0.010 C 
BRANCH  20  22
HETATM   22  C6  UNL     1       0.267  52.422 -23.605  1.00  0.00     0.008 C 
BRANCH  22  23
HETATM   23  C5  UNL     1      -0.186  53.312 -24.776  1.00  0.00     0.028 C 
BRANCH  23  24
HETATM   24  C4  UNL     1       0.448  52.954 -26.091  1.00  0.00    -0.025 C 
HETATM   25  C2  UNL     1       0.269  51.835 -26.821  1.00  0.00    -0.091 C 
HETATM   26  C1  UNL     1       0.964  51.666 -28.146  1.00  0.00     0.042 C 
HETATM   27  C3  UNL     1      -0.610  50.681 -26.430  1.00  0.00     0.042 C 
ENDBRANCH  23  24
ENDBRANCH  22  23
ENDBRANCH  20  22
ENDBRANCH   1  20
BRANCH  13  28
HETATM   28  C22 UNL     1      -4.773  46.055 -18.662  1.00  0.00     0.012 C 
BRANCH  28  29
HETATM   29  C23 UNL     1      -4.432  44.795 -19.465  1.00  0.00     0.027 C 
BRANCH  29  30
HETATM   30  C24 UNL     1      -3.684  43.752 -18.635  1.00  0.00     0.164 C 
BRANCH  30  31
HETATM   31  O1  UNL     1      -3.422  42.583 -19.398  1.00  0.00    -0.401 OA
HETATM   32  H42 UNL     1      -2.698  42.789 -20.013  1.00  0.00     0.209 HD
ENDBRANCH  30  31
ENDBRANCH  29  30
ENDBRANCH  28  29
ENDBRANCH  13  28
TORSDOF 8
ENDMDL
MODEL 8
REMARK minimizedAffinity -7.39329672
REMARK  8 active torsions:
REMARK  status: ('A' for Active; 'I' for Inactive)
REMARK    1  A    between atoms: C4_4  and  C5_5 
REMARK    2  A    between atoms: C5_5  and  C6_6 
REMARK    3  A    between atoms: C6_6  and  C7_7 
REMARK    4  A    between atoms: C7_7  and  C9_9 
REMARK    5  A    between atoms: C21_21  and  C22_22 
REMARK    6  A    between atoms: C22_22  and  C23_23 
REMARK    7  A    between atoms: C23_23  and  C24_24 
REMARK    8  A    between atoms: C24_24  and  O1_25 
ROOT
HETATM    1  C9  UNL     1      -1.088  50.912 -20.993  1.00  0.00    -0.002 C 
HETATM    2  C10 UNL     1      -0.203  49.640 -21.197  1.00  0.00     0.006 C 
HETATM    3  C11 UNL     1      -1.081  48.417 -20.841  1.00  0.00     0.011 C 
HETATM    4  C12 UNL     1      -2.297  49.019 -20.110  1.00  0.00    -0.032 C 
HETATM    5  C13 UNL     1      -1.802  49.291 -18.649  1.00  0.00     0.016 C 
HETATM    6  C14 UNL     1      -3.588  48.154 -20.125  1.00  0.00     0.003 C 
HETATM    7  C15 UNL     1      -3.439  46.737 -19.525  1.00  0.00     0.010 C 
HETATM    8  C16 UNL     1      -4.780  46.014 -19.361  1.00  0.00     0.035 C 
HETATM    9  C17 UNL     1      -5.812  46.533 -20.337  1.00  0.00    -0.073 C 
HETATM   10  C18 UNL     1      -6.341  45.761 -21.323  1.00  0.00    -0.085 C 
HETATM   11  C19 UNL     1      -7.350  46.231 -22.342  1.00  0.00     0.043 C 
HETATM   12  C20 UNL     1      -5.957  44.310 -21.503  1.00  0.00     0.043 C 
HETATM   13  C21 UNL     1      -6.138  48.034 -20.149  1.00  0.00     0.023 C 
HETATM   14  C25 UNL     1      -4.890  48.892 -19.606  1.00  0.00    -0.032 C 
HETATM   15  C26 UNL     1      -4.915  49.017 -18.060  1.00  0.00     0.016 C 
HETATM   16  C27 UNL     1      -4.969  50.355 -20.180  1.00  0.00     0.011 C 
HETATM   17  C28 UNL     1      -3.642  51.144 -20.288  1.00  0.00     0.011 C 
HETATM   18  C29 UNL     1      -2.534  50.327 -20.972  1.00  0.00    -0.032 C 
HETATM   19  C30 UNL     1      -2.996  50.063 -22.438  1.00  0.00     0.016 C 
ENDROOT
BRANCH   1  20
HETATM   20  C7  UNL     1      -0.661  52.125 -21.878  1.00  0.00    -0.014 C 
HETATM   21  C8  UNL     1       0.573  52.909 -21.418  1.00  0.00     0.010 C 
BRANCH  20  22
HETATM   22  C6  UNL     1      -0.559  51.719 -23.370  1.00  0.00     0.008 C 
BRANCH  22  23
HETATM   23  C5  UNL     1       0.561  52.412 -24.166  1.00  0.00     0.028 C 
BRANCH  23  24
HETATM   24  C4  UNL     1       0.343  52.404 -25.653  1.00  0.00    -0.025 C 
HETATM   25  C2  UNL     1       1.157  51.909 -26.607  1.00  0.00    -0.091 C 
HETATM   26  C1  UNL     1       0.752  51.953 -28.057  1.00  0.00     0.042 C 
HETATM   27  C3  UNL     1       2.496  51.274 -26.356  1.00  0.00     0.042 C 
ENDBRANCH  23  24
ENDBRANCH  22  23
ENDBRANCH  20  22
ENDBRANCH   1  20
BRANCH  13  28
HETATM   28  C22 UNL     1      -7.478  48.137 -19.371  1.00  0.00     0.012 C 
BRANCH  28  29
HETATM   29  C23 UNL     1      -7.344  48.043 -17.847  1.00  0.00     0.027 C 
BRANCH  29  30
HETATM   30  C24 UNL     1      -8.122  46.866 -17.260  1.00  0.00     0.164 C 
BRANCH  30  31
HETATM   31  O1  UNL     1      -8.775  47.236 -16.054  1.00  0.00    -0.401 OA
HETATM   32  H42 UNL     1      -9.544  47.783 -16.291  1.00  0.00     0.209 HD
ENDBRANCH  30  31
ENDBRANCH  29  30
ENDBRANCH  28  29
ENDBRANCH  13  28
TORSDOF 8
ENDMDL
MODEL 9
REMARK minimizedAffinity -7.37306118
REMARK  8 active torsions:
REMARK  status: ('A' for Active; 'I' for Inactive)
REMARK    1  A    between atoms: C4_4  and  C5_5 
REMARK    2  A    between atoms: C5_5  and  C6_6 
REMARK    3  A    between atoms: C6_6  and  C7_7 
REMARK    4  A    between atoms: C7_7  and  C9_9 
REMARK    5  A    between atoms: C21_21  and  C22_22 
REMARK    6  A    between atoms: C22_22  and  C23_23 
REMARK    7  A    between atoms: C23_23  and  C24_24 
REMARK    8  A    between atoms: C24_24  and  O1_25 
ROOT
HETATM    1  C9  UNL     1      -2.793  50.779 -23.420  1.00  0.00    -0.002 C 
HETATM    2  C10 UNL     1      -1.749  49.749 -22.881  1.00  0.00     0.006 C 
HETATM    3  C11 UNL     1      -2.547  48.599 -22.223  1.00  0.00     0.011 C 
HETATM    4  C12 UNL     1      -3.975  49.158 -22.078  1.00  0.00    -0.032 C 
HETATM    5  C13 UNL     1      -3.931  50.071 -20.805  1.00  0.00     0.016 C 
HETATM    6  C14 UNL     1      -5.108  48.099 -21.982  1.00  0.00     0.003 C 
HETATM    7  C15 UNL     1      -4.970  47.089 -20.820  1.00  0.00     0.010 C 
HETATM    8  C16 UNL     1      -6.215  46.215 -20.637  1.00  0.00     0.035 C 
HETATM    9  C17 UNL     1      -6.995  46.084 -21.926  1.00  0.00    -0.073 C 
HETATM   10  C18 UNL     1      -7.145  44.898 -22.573  1.00  0.00    -0.085 C 
HETATM   11  C19 UNL     1      -7.885  44.712 -23.876  1.00  0.00     0.043 C 
HETATM   12  C20 UNL     1      -6.566  43.609 -22.038  1.00  0.00     0.043 C 
HETATM   13  C21 UNL     1      -7.526  47.434 -22.464  1.00  0.00     0.023 C 
HETATM   14  C25 UNL     1      -6.577  48.681 -22.100  1.00  0.00    -0.032 C 
HETATM   15  C26 UNL     1      -7.035  49.382 -20.794  1.00  0.00     0.016 C 
HETATM   16  C27 UNL     1      -6.661  49.758 -23.245  1.00  0.00     0.011 C 
HETATM   17  C28 UNL     1      -5.453  50.710 -23.410  1.00  0.00     0.011 C 
HETATM   18  C29 UNL     1      -4.115  49.951 -23.443  1.00  0.00    -0.032 C 
HETATM   19  C30 UNL     1      -4.129  49.051 -24.717  1.00  0.00     0.016 C 
ENDROOT
BRANCH   1  20
HETATM   20  C7  UNL     1      -2.281  51.620 -24.631  1.00  0.00    -0.014 C 
HETATM   21  C8  UNL     1      -3.350  52.237 -25.540  1.00  0.00     0.010 C 
BRANCH  20  22
HETATM   22  C6  UNL     1      -1.238  52.673 -24.178  1.00  0.00     0.008 C 
BRANCH  22  23
HETATM   23  C5  UNL     1       0.188  52.460 -24.714  1.00  0.00     0.028 C 
BRANCH  23  24
HETATM   24  C4  UNL     1       0.260  52.327 -26.210  1.00  0.00    -0.025 C 
HETATM   25  C2  UNL     1       1.257  51.798 -26.948  1.00  0.00    -0.091 C 
HETATM   26  C1  UNL     1       1.137  51.711 -28.447  1.00  0.00     0.042 C 
HETATM   27  C3  UNL     1       2.542  51.248 -26.396  1.00  0.00     0.042 C 
ENDBRANCH  23  24
ENDBRANCH  22  23
ENDBRANCH  20  22
ENDBRANCH   1  20
BRANCH  13  28
HETATM   28  C22 UNL     1      -9.030  47.538 -22.091  1.00  0.00     0.012 C 
BRANCH  28  29
HETATM   29  C23 UNL     1      -9.376  47.046 -20.681  1.00  0.00     0.027 C 
BRANCH  29  30
HETATM   30  C24 UNL     1     -10.879  47.051 -20.410  1.00  0.00     0.164 C 
BRANCH  30  31
HETATM   31  O1  UNL     1     -11.212  47.982 -19.390  1.00  0.00    -0.401 OA
HETATM   32  H42 UNL     1     -11.156  48.873 -19.775  1.00  0.00     0.209 HD
ENDBRANCH  30  31
ENDBRANCH  29  30
ENDBRANCH  28  29
ENDBRANCH  13  28
TORSDOF 8
ENDMDL
