MODEL 1
REMARK minimizedAffinity -8.95128727
REMARK  7 active torsions:
REMARK  status: ('A' for Active; 'I' for Inactive)
REMARK    1  A    between atoms: O1_2  and  C2_3 
REMARK    2  A    between atoms: C19_21  and  C20_22 
REMARK    3  A    between atoms: C20_22  and  C22_24 
REMARK    4  A    between atoms: C22_24  and  C23_25 
REMARK    5  A    between atoms: C23_25  and  C24_26 
REMARK    6  A    between atoms: C25_27  and  C27_29 
REMARK    7  A    between atoms: C27_29  and  O4_31 
ROOT
HETATM    1  C2  UNL     1       2.007   6.318  10.708  1.00  0.00     0.151 C 
HETATM    2  C3  UNL     1       3.181   7.255  10.407  1.00  0.00     0.043 C 
HETATM    3  C4  UNL     1       4.109   7.373  11.625  1.00  0.00     0.016 C 
HETATM    4  C5  UNL     1       5.491   8.039  11.301  1.00  0.00     0.018 C 
HETATM    5  C6  UNL     1       5.416   9.171  10.257  1.00  0.00     0.023 C 
HETATM    6  C7  UNL     1       6.464   6.972  10.752  1.00  0.00     0.023 C 
HETATM    7  C8  UNL     1       6.113   8.573  12.596  1.00  0.00     0.135 C 
HETATM    8  O2  UNL     1       6.933   9.492  12.605  1.00  0.00    -0.297 OA
HETATM    9  C9  UNL     1       5.745   7.862  13.874  1.00  0.00     0.080 C 
HETATM   10  C10 UNL     1       4.238   7.779  14.105  1.00  0.00     0.021 C 
HETATM   11  C11 UNL     1       3.346   7.998  12.847  1.00  0.00    -0.015 C 
HETATM   12  C12 UNL     1       3.085   9.514  12.669  1.00  0.00     0.020 C 
HETATM   13  C13 UNL     1       1.963   7.316  13.041  1.00  0.00    -0.066 C 
HETATM   14  C14 UNL     1       1.389   6.547  12.074  1.00  0.00    -0.039 C 
HETATM   15  C15 UNL     1       0.056   5.848  12.361  1.00  0.00    -0.010 C 
HETATM   16  C16 UNL     1       0.441   4.490  13.031  1.00  0.00     0.021 C 
HETATM   17  C17 UNL     1      -0.915   5.529  11.205  1.00  0.00     0.015 C 
HETATM   18  C18 UNL     1      -2.297   5.358  11.876  1.00  0.00     0.007 C 
HETATM   19  C19 UNL     1      -2.182   5.969  13.292  1.00  0.00    -0.002 C 
HETATM   20  C28 UNL     1      -0.863   6.792  13.230  1.00  0.00    -0.029 C 
HETATM   21  C29 UNL     1      -1.096   8.178  12.563  1.00  0.00     0.016 C 
HETATM   22  C30 UNL     1      -0.167   7.010  14.575  1.00  0.00     0.015 C 
HETATM   23  C31 UNL     1       1.255   7.577  14.386  1.00  0.00     0.036 C 
ENDROOT
BRANCH  19  24
HETATM   24  C20 UNL     1      -3.472   6.537  13.950  1.00  0.00    -0.014 C 
HETATM   25  C21 UNL     1      -3.520   6.117  15.431  1.00  0.00     0.010 C 
BRANCH  24  26
HETATM   26  C22 UNL     1      -4.862   6.384  13.289  1.00  0.00     0.008 C 
BRANCH  26  27
HETATM   27  C23 UNL     1      -5.708   5.122  13.489  1.00  0.00     0.028 C 
BRANCH  27  28
HETATM   28  C24 UNL     1      -5.491   4.035  12.477  1.00  0.00    -0.013 C 
HETATM   29  C25 UNL     1      -6.310   2.996  12.213  1.00  0.00     0.008 C 
HETATM   30  C26 UNL     1      -7.597   2.696  12.918  1.00  0.00     0.055 C 
BRANCH  29  31
HETATM   31  C27 UNL     1      -5.874   2.066  11.141  1.00  0.00     0.171 C 
HETATM   32  O3  UNL     1      -5.875   0.848  11.186  1.00  0.00    -0.646 OA
BRANCH  31  33
HETATM   33  O4  UNL     1      -5.446   2.712  10.044  1.00  0.00    -0.773 OA
HETATM   34  H41 UNL     1      -5.196   1.986   9.437  1.00  0.00     0.167 HD
ENDBRANCH  31  33
ENDBRANCH  29  31
ENDBRANCH  27  28
ENDBRANCH  26  27
ENDBRANCH  24  26
ENDBRANCH  19  24
BRANCH   1  35
HETATM   35  O1  UNL     1       2.470   4.963  10.667  1.00  0.00    -0.386 OA
HETATM   36  C1  UNL     1       3.356   4.706   9.586  1.00  0.00     0.202 C 
ENDBRANCH   1  35
TORSDOF 7
ENDMDL
MODEL 2
REMARK minimizedAffinity -8.84803963
REMARK  7 active torsions:
REMARK  status: ('A' for Active; 'I' for Inactive)
REMARK    1  A    between atoms: O1_2  and  C2_3 
REMARK    2  A    between atoms: C19_21  and  C20_22 
REMARK    3  A    between atoms: C20_22  and  C22_24 
REMARK    4  A    between atoms: C22_24  and  C23_25 
REMARK    5  A    between atoms: C23_25  and  C24_26 
REMARK    6  A    between atoms: C25_27  and  C27_29 
REMARK    7  A    between atoms: C27_29  and  O4_31 
ROOT
HETATM    1  C2  UNL     1      -0.945   5.017  12.081  1.00  0.00     0.151 C 
HETATM    2  C3  UNL     1      -2.077   4.948  13.110  1.00  0.00     0.043 C 
HETATM    3  C4  UNL     1      -2.968   6.196  13.024  1.00  0.00     0.016 C 
HETATM    4  C5  UNL     1      -4.321   6.058  13.801  1.00  0.00     0.018 C 
HETATM    5  C6  UNL     1      -4.215   5.256  15.114  1.00  0.00     0.023 C 
HETATM    6  C7  UNL     1      -5.360   5.343  12.910  1.00  0.00     0.023 C 
HETATM    7  C8  UNL     1      -4.884   7.454  14.094  1.00  0.00     0.135 C 
HETATM    8  O2  UNL     1      -5.656   7.673  15.028  1.00  0.00    -0.297 OA
HETATM    9  C9  UNL     1      -4.520   8.553  13.127  1.00  0.00     0.080 C 
HETATM   10  C10 UNL     1      -3.014   8.710  12.933  1.00  0.00     0.021 C 
HETATM   11  C11 UNL     1      -2.144   7.491  13.359  1.00  0.00    -0.015 C 
HETATM   12  C12 UNL     1      -1.811   7.608  14.867  1.00  0.00     0.020 C 
HETATM   13  C13 UNL     1      -0.792   7.499  12.591  1.00  0.00    -0.066 C 
HETATM   14  C14 UNL     1      -0.282   6.380  12.006  1.00  0.00    -0.039 C 
HETATM   15  C15 UNL     1       1.021   6.477  11.206  1.00  0.00    -0.010 C 
HETATM   16  C16 UNL     1       0.586   6.878   9.759  1.00  0.00     0.021 C 
HETATM   17  C17 UNL     1       1.946   5.248  11.080  1.00  0.00     0.015 C 
HETATM   18  C18 UNL     1       3.334   5.824  10.718  1.00  0.00     0.007 C 
HETATM   19  C19 UNL     1       3.285   7.336  11.039  1.00  0.00    -0.002 C 
HETATM   20  C28 UNL     1       2.008   7.484  11.915  1.00  0.00    -0.029 C 
HETATM   21  C29 UNL     1       2.294   7.096  13.395  1.00  0.00     0.016 C 
HETATM   22  C30 UNL     1       1.357   8.868  11.892  1.00  0.00     0.015 C 
HETATM   23  C31 UNL     1      -0.039   8.844  12.548  1.00  0.00     0.036 C 
ENDROOT
BRANCH  19  24
HETATM   24  C20 UNL     1       4.617   8.049  11.407  1.00  0.00    -0.014 C 
HETATM   25  C21 UNL     1       5.063   8.940  10.233  1.00  0.00     0.010 C 
BRANCH  24  26
HETATM   26  C22 UNL     1       5.820   7.278  12.001  1.00  0.00     0.008 C 
BRANCH  26  27
HETATM   27  C23 UNL     1       7.062   8.010  12.518  1.00  0.00     0.028 C 
BRANCH  27  28
HETATM   28  C24 UNL     1       7.271   7.955  14.004  1.00  0.00    -0.013 C 
HETATM   29  C25 UNL     1       8.448   7.986  14.661  1.00  0.00     0.008 C 
HETATM   30  C26 UNL     1       9.804   8.036  14.024  1.00  0.00     0.055 C 
BRANCH  29  31
HETATM   31  C27 UNL     1       8.380   7.942  16.143  1.00  0.00     0.171 C 
HETATM   32  O3  UNL     1       9.317   7.820  16.914  1.00  0.00    -0.646 OA
BRANCH  31  33
HETATM   33  O4  UNL     1       7.122   8.050  16.602  1.00  0.00    -0.773 OA
HETATM   34  H41 UNL     1       7.231   8.005  17.574  1.00  0.00     0.167 HD
ENDBRANCH  31  33
ENDBRANCH  29  31
ENDBRANCH  27  28
ENDBRANCH  26  27
ENDBRANCH  24  26
ENDBRANCH  19  24
BRANCH   1  35
HETATM   35  O1  UNL     1      -1.475   4.725  10.783  1.00  0.00    -0.386 OA
HETATM   36  C1  UNL     1      -2.266   3.545  10.755  1.00  0.00     0.202 C 
ENDBRANCH   1  35
TORSDOF 7
ENDMDL
MODEL 3
REMARK minimizedAffinity -8.83713913
REMARK  7 active torsions:
REMARK  status: ('A' for Active; 'I' for Inactive)
REMARK    1  A    between atoms: O1_2  and  C2_3 
REMARK    2  A    between atoms: C19_21  and  C20_22 
REMARK    3  A    between atoms: C20_22  and  C22_24 
REMARK    4  A    between atoms: C22_24  and  C23_25 
REMARK    5  A    between atoms: C23_25  and  C24_26 
REMARK    6  A    between atoms: C25_27  and  C27_29 
REMARK    7  A    between atoms: C27_29  and  O4_31 
ROOT
HETATM    1  C2  UNL     1      -0.531   5.306  11.343  1.00  0.00     0.151 C 
HETATM    2  C3  UNL     1       0.545   5.651  10.310  1.00  0.00     0.043 C 
HETATM    3  C4  UNL     1       1.828   6.137  11.002  1.00  0.00     0.016 C 
HETATM    4  C5  UNL     1       3.072   6.195  10.051  1.00  0.00     0.018 C 
HETATM    5  C6  UNL     1       2.744   6.629   8.608  1.00  0.00     0.023 C 
HETATM    6  C7  UNL     1       3.729   4.799   9.972  1.00  0.00     0.023 C 
HETATM    7  C8  UNL     1       4.123   7.140  10.647  1.00  0.00     0.135 C 
HETATM    8  O2  UNL     1       4.967   7.710   9.954  1.00  0.00    -0.297 OA
HETATM    9  C9  UNL     1       4.142   7.279  12.148  1.00  0.00     0.080 C 
HETATM   10  C10 UNL     1       2.792   7.689  12.732  1.00  0.00     0.021 C 
HETATM   11  C11 UNL     1       1.556   7.454  11.813  1.00  0.00    -0.015 C 
HETATM   12  C12 UNL     1       1.365   8.687  10.896  1.00  0.00     0.020 C 
HETATM   13  C13 UNL     1       0.266   7.318  12.670  1.00  0.00    -0.066 C 
HETATM   14  C14 UNL     1      -0.649   6.331  12.455  1.00  0.00    -0.039 C 
HETATM   15  C15 UNL     1      -1.863   6.216  13.383  1.00  0.00    -0.010 C 
HETATM   16  C16 UNL     1      -1.383   5.332  14.579  1.00  0.00     0.021 C 
HETATM   17  C17 UNL     1      -3.180   5.604  12.862  1.00  0.00     0.015 C 
HETATM   18  C18 UNL     1      -4.275   6.131  13.818  1.00  0.00     0.007 C 
HETATM   19  C19 UNL     1      -3.657   7.323  14.586  1.00  0.00    -0.002 C 
HETATM   20  C28 UNL     1      -2.373   7.657  13.774  1.00  0.00    -0.029 C 
HETATM   21  C29 UNL     1      -2.708   8.530  12.529  1.00  0.00     0.016 C 
HETATM   22  C30 UNL     1      -1.261   8.346  14.566  1.00  0.00     0.015 C 
HETATM   23  C31 UNL     1       0.060   8.380  13.768  1.00  0.00     0.036 C 
ENDROOT
BRANCH  19  24
HETATM   24  C20 UNL     1      -4.613   8.435  15.102  1.00  0.00    -0.014 C 
HETATM   25  C21 UNL     1      -3.858   9.343  16.091  1.00  0.00     0.010 C 
BRANCH  24  26
HETATM   26  C22 UNL     1      -6.034   8.115  15.624  1.00  0.00     0.008 C 
BRANCH  26  27
HETATM   27  C23 UNL     1      -7.195   7.840  14.664  1.00  0.00     0.028 C 
BRANCH  27  28
HETATM   28  C24 UNL     1      -7.189   6.488  14.013  1.00  0.00    -0.013 C 
HETATM   29  C25 UNL     1      -8.231   5.861  13.431  1.00  0.00     0.008 C 
HETATM   30  C26 UNL     1      -9.634   6.382  13.356  1.00  0.00     0.055 C 
BRANCH  29  31
HETATM   31  C27 UNL     1      -7.954   4.529  12.835  1.00  0.00     0.171 C 
HETATM   32  O3  UNL     1      -7.052   4.247  12.066  1.00  0.00    -0.646 OA
BRANCH  31  33
HETATM   33  O4  UNL     1      -8.837   3.598  13.231  1.00  0.00    -0.773 OA
HETATM   34  H41 UNL     1      -8.536   2.790  12.767  1.00  0.00     0.167 HD
ENDBRANCH  31  33
ENDBRANCH  29  31
ENDBRANCH  27  28
ENDBRANCH  26  27
ENDBRANCH  24  26
ENDBRANCH  19  24
BRANCH   1  35
HETATM   35  O1  UNL     1      -0.211   4.049  11.949  1.00  0.00    -0.386 OA
HETATM   36  C1  UNL     1      -1.000   2.974  11.458  1.00  0.00     0.202 C 
ENDBRANCH   1  35
TORSDOF 7
ENDMDL
MODEL 4
REMARK minimizedAffinity -8.79306602
REMARK  7 active torsions:
REMARK  status: ('A' for Active; 'I' for Inactive)
REMARK    1  A    between atoms: O1_2  and  C2_3 
REMARK    2  A    between atoms: C19_21  and  C20_22 
REMARK    3  A    between atoms: C20_22  and  C22_24 
REMARK    4  A    between atoms: C22_24  and  C23_25 
REMARK    5  A    between atoms: C23_25  and  C24_26 
REMARK    6  A    between atoms: C25_27  and  C27_29 
REMARK    7  A    between atoms: C27_29  and  O4_31 
ROOT
HETATM    1  C2  UNL     1      -3.587   6.002  13.362  1.00  0.00     0.151 C 
HETATM    2  C3  UNL     1      -4.773   5.411  12.595  1.00  0.00     0.043 C 
HETATM    3  C4  UNL     1      -4.625   3.889  12.454  1.00  0.00     0.016 C 
HETATM    4  C5  UNL     1      -5.935   3.171  11.979  1.00  0.00     0.018 C 
HETATM    5  C6  UNL     1      -6.763   3.978  10.959  1.00  0.00     0.023 C 
HETATM    6  C7  UNL     1      -6.846   2.898  13.196  1.00  0.00     0.023 C 
HETATM    7  C8  UNL     1      -5.577   1.803  11.385  1.00  0.00     0.135 C 
HETATM    8  O2  UNL     1      -6.297   1.231  10.565  1.00  0.00    -0.297 OA
HETATM    9  C9  UNL     1      -4.336   1.131  11.916  1.00  0.00     0.080 C 
HETATM   10  C10 UNL     1      -3.088   2.004  11.811  1.00  0.00     0.021 C 
HETATM   11  C11 UNL     1      -3.340   3.530  11.626  1.00  0.00    -0.015 C 
HETATM   12  C12 UNL     1      -3.500   3.838  10.117  1.00  0.00     0.020 C 
HETATM   13  C13 UNL     1      -2.114   4.343  12.130  1.00  0.00    -0.066 C 
HETATM   14  C14 UNL     1      -2.247   5.439  12.927  1.00  0.00    -0.039 C 
HETATM   15  C15 UNL     1      -0.993   6.151  13.443  1.00  0.00    -0.010 C 
HETATM   16  C16 UNL     1      -0.607   5.401  14.759  1.00  0.00     0.021 C 
HETATM   17  C17 UNL     1      -1.037   7.658  13.772  1.00  0.00     0.015 C 
HETATM   18  C18 UNL     1       0.436   8.125  13.722  1.00  0.00     0.007 C 
HETATM   19  C19 UNL     1       1.227   7.020  12.984  1.00  0.00    -0.002 C 
HETATM   20  C28 UNL     1       0.117   6.155  12.321  1.00  0.00    -0.029 C 
HETATM   21  C29 UNL     1      -0.379   6.798  10.993  1.00  0.00     0.016 C 
HETATM   22  C30 UNL     1       0.502   4.701  12.042  1.00  0.00     0.015 C 
HETATM   23  C31 UNL     1      -0.730   3.857  11.656  1.00  0.00     0.036 C 
ENDROOT
BRANCH  19  24
HETATM   24  C20 UNL     1       2.514   7.432  12.214  1.00  0.00    -0.014 C 
HETATM   25  C21 UNL     1       3.596   7.868  13.220  1.00  0.00     0.010 C 
BRANCH  24  26
HETATM   26  C22 UNL     1       2.469   8.392  11.002  1.00  0.00     0.008 C 
BRANCH  26  27
HETATM   27  C23 UNL     1       3.412   8.218   9.808  1.00  0.00     0.028 C 
BRANCH  27  28
HETATM   28  C24 UNL     1       3.538   6.816   9.285  1.00  0.00    -0.013 C 
HETATM   29  C25 UNL     1       2.934   6.299   8.195  1.00  0.00     0.008 C 
HETATM   30  C26 UNL     1       1.970   7.021   7.304  1.00  0.00     0.055 C 
BRANCH  29  31
HETATM   31  C27 UNL     1       3.245   4.882   7.876  1.00  0.00     0.171 C 
HETATM   32  O3  UNL     1       3.756   4.062   8.618  1.00  0.00    -0.646 OA
BRANCH  31  33
HETATM   33  O4  UNL     1       2.899   4.553   6.621  1.00  0.00    -0.773 OA
HETATM   34  H41 UNL     1       3.159   3.611   6.555  1.00  0.00     0.167 HD
ENDBRANCH  31  33
ENDBRANCH  29  31
ENDBRANCH  27  28
ENDBRANCH  26  27
ENDBRANCH  24  26
ENDBRANCH  19  24
BRANCH   1  35
HETATM   35  O1  UNL     1      -3.743   5.715  14.756  1.00  0.00    -0.386 OA
HETATM   36  C1  UNL     1      -4.281   6.802  15.496  1.00  0.00     0.202 C 
ENDBRANCH   1  35
TORSDOF 7
ENDMDL
MODEL 5
REMARK minimizedAffinity -8.78961849
REMARK  7 active torsions:
REMARK  status: ('A' for Active; 'I' for Inactive)
REMARK    1  A    between atoms: O1_2  and  C2_3 
REMARK    2  A    between atoms: C19_21  and  C20_22 
REMARK    3  A    between atoms: C20_22  and  C22_24 
REMARK    4  A    between atoms: C22_24  and  C23_25 
REMARK    5  A    between atoms: C23_25  and  C24_26 
REMARK    6  A    between atoms: C25_27  and  C27_29 
REMARK    7  A    between atoms: C27_29  and  O4_31 
ROOT
HETATM    1  C2  UNL     1       2.062   6.827  11.171  1.00  0.00     0.151 C 
HETATM    2  C3  UNL     1       3.270   7.729  10.901  1.00  0.00     0.043 C 
HETATM    3  C4  UNL     1       4.247   7.699  12.086  1.00  0.00     0.016 C 
HETATM    4  C5  UNL     1       5.647   8.323  11.762  1.00  0.00     0.018 C 
HETATM    5  C6  UNL     1       5.592   9.542  10.819  1.00  0.00     0.023 C 
HETATM    6  C7  UNL     1       6.544   7.262  11.088  1.00  0.00     0.023 C 
HETATM    7  C8  UNL     1       6.343   8.716  13.071  1.00  0.00     0.135 C 
HETATM    8  O2  UNL     1       7.209   9.590  13.122  1.00  0.00    -0.297 OA
HETATM    9  C9  UNL     1       5.986   7.918  14.300  1.00  0.00     0.080 C 
HETATM   10  C10 UNL     1       4.486   7.888  14.583  1.00  0.00     0.021 C 
HETATM   11  C11 UNL     1       3.562   8.255  13.385  1.00  0.00    -0.015 C 
HETATM   12  C12 UNL     1       3.371   9.791  13.344  1.00  0.00     0.020 C 
HETATM   13  C13 UNL     1       2.153   7.626  13.578  1.00  0.00    -0.066 C 
HETATM   14  C14 UNL     1       1.506   6.969  12.575  1.00  0.00    -0.039 C 
HETATM   15  C15 UNL     1       0.151   6.314  12.857  1.00  0.00    -0.010 C 
HETATM   16  C16 UNL     1       0.489   4.887  13.397  1.00  0.00     0.021 C 
HETATM   17  C17 UNL     1      -0.877   6.140  11.719  1.00  0.00     0.015 C 
HETATM   18  C18 UNL     1      -2.241   5.979  12.429  1.00  0.00     0.007 C 
HETATM   19  C19 UNL     1      -2.043   6.462  13.885  1.00  0.00    -0.002 C 
HETATM   20  C28 UNL     1      -0.687   7.223  13.838  1.00  0.00    -0.029 C 
HETATM   21  C29 UNL     1      -0.873   8.671  13.297  1.00  0.00     0.016 C 
HETATM   22  C30 UNL     1       0.068   7.293  15.166  1.00  0.00     0.015 C 
HETATM   23  C31 UNL     1       1.509   7.806  14.968  1.00  0.00     0.036 C 
ENDROOT
BRANCH  19  24
HETATM   24  C20 UNL     1      -3.277   7.034  14.639  1.00  0.00    -0.014 C 
HETATM   25  C21 UNL     1      -2.853   7.487  16.048  1.00  0.00     0.010 C 
BRANCH  24  26
HETATM   26  C22 UNL     1      -4.627   6.280  14.687  1.00  0.00     0.008 C 
BRANCH  26  27
HETATM   27  C23 UNL     1      -5.627   6.355  13.529  1.00  0.00     0.028 C 
BRANCH  27  28
HETATM   28  C24 UNL     1      -6.652   5.260  13.490  1.00  0.00    -0.013 C 
HETATM   29  C25 UNL     1      -6.515   4.038  12.935  1.00  0.00     0.008 C 
HETATM   30  C26 UNL     1      -5.307   3.542  12.199  1.00  0.00     0.055 C 
BRANCH  29  31
HETATM   31  C27 UNL     1      -7.678   3.123  13.053  1.00  0.00     0.171 C 
HETATM   32  O3  UNL     1      -7.666   1.909  12.946  1.00  0.00    -0.646 OA
BRANCH  31  33
HETATM   33  O4  UNL     1      -8.824   3.780  13.298  1.00  0.00    -0.773 OA
HETATM   34  H41 UNL     1      -9.489   3.063  13.348  1.00  0.00     0.167 HD
ENDBRANCH  31  33
ENDBRANCH  29  31
ENDBRANCH  27  28
ENDBRANCH  26  27
ENDBRANCH  24  26
ENDBRANCH  19  24
BRANCH   1  35
HETATM   35  O1  UNL     1       2.452   5.460  10.999  1.00  0.00    -0.386 OA
HETATM   36  C1  UNL     1       3.132   5.222   9.774  1.00  0.00     0.202 C 
ENDBRANCH   1  35
TORSDOF 7
ENDMDL
MODEL 6
REMARK minimizedAffinity -8.69753933
REMARK  7 active torsions:
REMARK  status: ('A' for Active; 'I' for Inactive)
REMARK    1  A    between atoms: O1_2  and  C2_3 
REMARK    2  A    between atoms: C19_21  and  C20_22 
REMARK    3  A    between atoms: C20_22  and  C22_24 
REMARK    4  A    between atoms: C22_24  and  C23_25 
REMARK    5  A    between atoms: C23_25  and  C24_26 
REMARK    6  A    between atoms: C25_27  and  C27_29 
REMARK    7  A    between atoms: C27_29  and  O4_31 
ROOT
HETATM    1  C2  UNL     1      -1.795   5.586  12.149  1.00  0.00     0.151 C 
HETATM    2  C3  UNL     1      -0.681   6.352  11.428  1.00  0.00     0.043 C 
HETATM    3  C4  UNL     1       0.238   7.054  12.439  1.00  0.00     0.016 C 
HETATM    4  C5  UNL     1       1.575   7.579  11.814  1.00  0.00     0.018 C 
HETATM    5  C6  UNL     1       1.431   8.118  10.376  1.00  0.00     0.023 C 
HETATM    6  C7  UNL     1       2.612   6.436  11.773  1.00  0.00     0.023 C 
HETATM    7  C8  UNL     1       2.163   8.671  12.716  1.00  0.00     0.135 C 
HETATM    8  O2  UNL     1       2.925   9.540  12.291  1.00  0.00    -0.297 OA
HETATM    9  C9  UNL     1       1.840   8.588  14.187  1.00  0.00     0.080 C 
HETATM   10  C10 UNL     1       0.341   8.533  14.472  1.00  0.00     0.021 C 
HETATM   11  C11 UNL     1      -0.563   8.117  13.273  1.00  0.00    -0.015 C 
HETATM   12  C12 UNL     1      -0.917   9.376  12.445  1.00  0.00     0.020 C 
HETATM   13  C13 UNL     1      -1.901   7.519  13.790  1.00  0.00    -0.066 C 
HETATM   14  C14 UNL     1      -2.426   6.367  13.284  1.00  0.00    -0.039 C 
HETATM   15  C15 UNL     1      -3.714   5.799  13.890  1.00  0.00    -0.010 C 
HETATM   16  C16 UNL     1      -3.246   4.908  15.086  1.00  0.00     0.021 C 
HETATM   17  C17 UNL     1      -4.663   4.943  13.026  1.00  0.00     0.015 C 
HETATM   18  C18 UNL     1      -6.032   5.014  13.740  1.00  0.00     0.007 C 
HETATM   19  C19 UNL     1      -5.955   6.200  14.730  1.00  0.00    -0.002 C 
HETATM   20  C28 UNL     1      -4.690   6.979  14.272  1.00  0.00    -0.029 C 
HETATM   21  C29 UNL     1      -5.008   7.905  13.061  1.00  0.00     0.016 C 
HETATM   22  C30 UNL     1      -4.008   7.814  15.357  1.00  0.00     0.015 C 
HETATM   23  C31 UNL     1      -2.624   8.314  14.895  1.00  0.00     0.036 C 
ENDROOT
BRANCH  19  24
HETATM   24  C20 UNL     1      -7.278   6.930  15.101  1.00  0.00    -0.014 C 
HETATM   25  C21 UNL     1      -7.530   6.798  16.614  1.00  0.00     0.010 C 
BRANCH  24  26
HETATM   26  C22 UNL     1      -8.584   6.708  14.303  1.00  0.00     0.008 C 
BRANCH  26  27
HETATM   27  C23 UNL     1      -9.937   7.192  14.835  1.00  0.00     0.028 C 
BRANCH  27  28
HETATM   28  C24 UNL     1     -10.905   7.673  13.793  1.00  0.00    -0.013 C 
HETATM   29  C25 UNL     1     -11.286   8.947  13.565  1.00  0.00     0.008 C 
HETATM   30  C26 UNL     1     -10.845  10.146  14.348  1.00  0.00     0.055 C 
BRANCH  29  31
HETATM   31  C27 UNL     1     -12.244   9.162  12.451  1.00  0.00     0.171 C 
HETATM   32  O3  UNL     1     -13.446   8.963  12.473  1.00  0.00    -0.646 OA
BRANCH  31  33
HETATM   33  O4  UNL     1     -11.643   9.619  11.340  1.00  0.00    -0.773 OA
HETATM   34  H41 UNL     1     -12.382   9.710  10.704  1.00  0.00     0.167 HD
ENDBRANCH  31  33
ENDBRANCH  29  31
ENDBRANCH  27  28
ENDBRANCH  26  27
ENDBRANCH  24  26
ENDBRANCH  19  24
BRANCH   1  35
HETATM   35  O1  UNL     1      -1.250   4.383  12.704  1.00  0.00    -0.386 OA
HETATM   36  C1  UNL     1      -0.436   3.663  11.789  1.00  0.00     0.202 C 
ENDBRANCH   1  35
TORSDOF 7
ENDMDL
MODEL 7
REMARK minimizedAffinity -8.62010479
REMARK  7 active torsions:
REMARK  status: ('A' for Active; 'I' for Inactive)
REMARK    1  A    between atoms: O1_2  and  C2_3 
REMARK    2  A    between atoms: C19_21  and  C20_22 
REMARK    3  A    between atoms: C20_22  and  C22_24 
REMARK    4  A    between atoms: C22_24  and  C23_25 
REMARK    5  A    between atoms: C23_25  and  C24_26 
REMARK    6  A    between atoms: C25_27  and  C27_29 
REMARK    7  A    between atoms: C27_29  and  O4_31 
ROOT
HETATM    1  C2  UNL     1      -3.678   6.083  13.414  1.00  0.00     0.151 C 
HETATM    2  C3  UNL     1      -4.839   5.449  12.642  1.00  0.00     0.043 C 
HETATM    3  C4  UNL     1      -4.626   3.936  12.487  1.00  0.00     0.016 C 
HETATM    4  C5  UNL     1      -5.905   3.167  12.006  1.00  0.00     0.018 C 
HETATM    5  C6  UNL     1      -6.768   3.948  10.995  1.00  0.00     0.023 C 
HETATM    6  C7  UNL     1      -6.802   2.845  13.222  1.00  0.00     0.023 C 
HETATM    7  C8  UNL     1      -5.490   1.821  11.399  1.00  0.00     0.135 C 
HETATM    8  O2  UNL     1      -6.185   1.227  10.575  1.00  0.00    -0.297 OA
HETATM    9  C9  UNL     1      -4.221   1.198  11.924  1.00  0.00     0.080 C 
HETATM   10  C10 UNL     1      -3.011   2.124  11.825  1.00  0.00     0.021 C 
HETATM   11  C11 UNL     1      -3.328   3.639  11.655  1.00  0.00    -0.015 C 
HETATM   12  C12 UNL     1      -3.503   3.954  10.149  1.00  0.00     0.020 C 
HETATM   13  C13 UNL     1      -2.137   4.499  12.165  1.00  0.00    -0.066 C 
HETATM   14  C14 UNL     1      -2.316   5.582  12.973  1.00  0.00    -0.039 C 
HETATM   15  C15 UNL     1      -1.092   6.342  13.494  1.00  0.00    -0.010 C 
HETATM   16  C16 UNL     1      -0.674   5.596  14.803  1.00  0.00     0.021 C 
HETATM   17  C17 UNL     1      -1.200   7.842  13.837  1.00  0.00     0.015 C 
HETATM   18  C18 UNL     1       0.251   8.372  13.790  1.00  0.00     0.007 C 
HETATM   19  C19 UNL     1       1.088   7.308  13.041  1.00  0.00    -0.002 C 
HETATM   20  C28 UNL     1       0.015   6.403  12.371  1.00  0.00    -0.029 C 
HETATM   21  C29 UNL     1      -0.510   7.037  11.050  1.00  0.00     0.016 C 
HETATM   22  C30 UNL     1       0.462   4.969  12.079  1.00  0.00     0.015 C 
HETATM   23  C31 UNL     1      -0.734   4.077  11.686  1.00  0.00     0.036 C 
ENDROOT
BRANCH  19  24
HETATM   24  C20 UNL     1       2.355   7.782  12.274  1.00  0.00    -0.014 C 
HETATM   25  C21 UNL     1       3.133   8.789  13.141  1.00  0.00     0.010 C 
BRANCH  24  26
HETATM   26  C22 UNL     1       2.291   8.256  10.803  1.00  0.00     0.008 C 
BRANCH  26  27
HETATM   27  C23 UNL     1       3.173   7.627   9.720  1.00  0.00     0.028 C 
BRANCH  27  28
HETATM   28  C24 UNL     1       4.398   6.917  10.218  1.00  0.00    -0.013 C 
HETATM   29  C25 UNL     1       5.563   7.479  10.602  1.00  0.00     0.008 C 
HETATM   30  C26 UNL     1       5.882   8.943  10.564  1.00  0.00     0.055 C 
BRANCH  29  31
HETATM   31  C27 UNL     1       6.619   6.552  11.081  1.00  0.00     0.171 C 
HETATM   32  O3  UNL     1       7.636   6.851  11.682  1.00  0.00    -0.646 OA
BRANCH  31  33
HETATM   33  O4  UNL     1       6.353   5.271  10.776  1.00  0.00    -0.773 OA
HETATM   34  H41 UNL     1       7.119   4.787  11.145  1.00  0.00     0.167 HD
ENDBRANCH  31  33
ENDBRANCH  29  31
ENDBRANCH  27  28
ENDBRANCH  26  27
ENDBRANCH  24  26
ENDBRANCH  19  24
BRANCH   1  35
HETATM   35  O1  UNL     1      -3.820   5.776  14.805  1.00  0.00    -0.386 OA
HETATM   36  C1  UNL     1      -4.953   6.392  15.401  1.00  0.00     0.202 C 
ENDBRANCH   1  35
TORSDOF 7
ENDMDL
MODEL 8
REMARK minimizedAffinity -8.46343994
REMARK  7 active torsions:
REMARK  status: ('A' for Active; 'I' for Inactive)
REMARK    1  A    between atoms: O1_2  and  C2_3 
REMARK    2  A    between atoms: C19_21  and  C20_22 
REMARK    3  A    between atoms: C20_22  and  C22_24 
REMARK    4  A    between atoms: C22_24  and  C23_25 
REMARK    5  A    between atoms: C23_25  and  C24_26 
REMARK    6  A    between atoms: C25_27  and  C27_29 
REMARK    7  A    between atoms: C27_29  and  O4_31 
ROOT
HETATM    1  C2  UNL     1      -3.173   9.019  16.579  1.00  0.00     0.151 C 
HETATM    2  C3  UNL     1      -2.291   9.742  17.602  1.00  0.00     0.043 C 
HETATM    3  C4  UNL     1      -1.410  10.794  16.913  1.00  0.00     0.016 C 
HETATM    4  C5  UNL     1      -0.728  11.793  17.909  1.00  0.00     0.018 C 
HETATM    5  C6  UNL     1      -0.292  11.154  19.244  1.00  0.00     0.023 C 
HETATM    6  C7  UNL     1      -1.708  12.938  18.247  1.00  0.00     0.023 C 
HETATM    7  C8  UNL     1       0.484  12.441  17.229  1.00  0.00     0.135 C 
HETATM    8  O2  UNL     1       1.432  12.901  17.866  1.00  0.00    -0.297 OA
HETATM    9  C9  UNL     1       0.432  12.576  15.728  1.00  0.00     0.080 C 
HETATM   10  C10 UNL     1       0.174  11.252  15.012  1.00  0.00     0.021 C 
HETATM   11  C11 UNL     1      -0.433  10.116  15.887  1.00  0.00    -0.015 C 
HETATM   12  C12 UNL     1       0.715   9.344  16.582  1.00  0.00     0.020 C 
HETATM   13  C13 UNL     1      -1.193   9.096  14.993  1.00  0.00    -0.066 C 
HETATM   14  C14 UNL     1      -2.434   8.632  15.313  1.00  0.00    -0.039 C 
HETATM   15  C15 UNL     1      -3.153   7.681  14.350  1.00  0.00    -0.010 C 
HETATM   16  C16 UNL     1      -3.901   8.609  13.340  1.00  0.00     0.021 C 
HETATM   17  C17 UNL     1      -4.183   6.667  14.889  1.00  0.00     0.015 C 
HETATM   18  C18 UNL     1      -4.276   5.571  13.802  1.00  0.00     0.007 C 
HETATM   19  C19 UNL     1      -3.041   5.747  12.888  1.00  0.00    -0.002 C 
HETATM   20  C28 UNL     1      -2.110   6.687  13.706  1.00  0.00    -0.029 C 
HETATM   21  C29 UNL     1      -1.306   5.891  14.774  1.00  0.00     0.016 C 
HETATM   22  C30 UNL     1      -1.128   7.516  12.876  1.00  0.00     0.015 C 
HETATM   23  C31 UNL     1      -0.455   8.611  13.730  1.00  0.00     0.036 C 
ENDROOT
BRANCH  19  24
HETATM   24  C20 UNL     1      -2.494   4.493  12.148  1.00  0.00    -0.014 C 
HETATM   25  C21 UNL     1      -0.968   4.409  12.340  1.00  0.00     0.010 C 
BRANCH  24  26
HETATM   26  C22 UNL     1      -2.884   4.172  10.686  1.00  0.00     0.008 C 
BRANCH  26  27
HETATM   27  C23 UNL     1      -4.101   3.302  10.356  1.00  0.00     0.028 C 
BRANCH  27  28
HETATM   28  C24 UNL     1      -5.252   3.414  11.313  1.00  0.00    -0.013 C 
HETATM   29  C25 UNL     1      -6.077   2.424  11.711  1.00  0.00     0.008 C 
HETATM   30  C26 UNL     1      -6.032   1.003  11.235  1.00  0.00     0.055 C 
BRANCH  29  31
HETATM   31  C27 UNL     1      -7.130   2.793  12.690  1.00  0.00     0.171 C 
HETATM   32  O3  UNL     1      -7.083   3.694  13.508  1.00  0.00    -0.646 OA
BRANCH  31  33
HETATM   33  O4  UNL     1      -8.211   2.000  12.602  1.00  0.00    -0.773 OA
HETATM   34  H41 UNL     1      -8.808   2.354  13.293  1.00  0.00     0.167 HD
ENDBRANCH  31  33
ENDBRANCH  29  31
ENDBRANCH  27  28
ENDBRANCH  26  27
ENDBRANCH  24  26
ENDBRANCH  19  24
BRANCH   1  35
HETATM   35  O1  UNL     1      -4.252   9.882  16.201  1.00  0.00    -0.386 OA
HETATM   36  C1  UNL     1      -3.822  11.182  15.821  1.00  0.00     0.202 C 
ENDBRANCH   1  35
TORSDOF 7
ENDMDL
MODEL 9
REMARK minimizedAffinity -8.43508053
REMARK  7 active torsions:
REMARK  status: ('A' for Active; 'I' for Inactive)
REMARK    1  A    between atoms: O1_2  and  C2_3 
REMARK    2  A    between atoms: C19_21  and  C20_22 
REMARK    3  A    between atoms: C20_22  and  C22_24 
REMARK    4  A    between atoms: C22_24  and  C23_25 
REMARK    5  A    between atoms: C23_25  and  C24_26 
REMARK    6  A    between atoms: C25_27  and  C27_29 
REMARK    7  A    between atoms: C27_29  and  O4_31 
ROOT
HETATM    1  C2  UNL     1      -3.635   3.998  12.419  1.00  0.00     0.151 C 
HETATM    2  C3  UNL     1      -4.902   3.877  13.272  1.00  0.00     0.043 C 
HETATM    3  C4  UNL     1      -5.697   5.191  13.255  1.00  0.00     0.016 C 
HETATM    4  C5  UNL     1      -7.151   5.054  13.822  1.00  0.00     0.018 C 
HETATM    5  C6  UNL     1      -7.277   4.074  15.005  1.00  0.00     0.023 C 
HETATM    6  C7  UNL     1      -8.096   4.552  12.708  1.00  0.00     0.023 C 
HETATM    7  C8  UNL     1      -7.666   6.437  14.241  1.00  0.00     0.135 C 
HETATM    8  O2  UNL     1      -8.547   6.585  15.088  1.00  0.00    -0.297 OA
HETATM    9  C9  UNL     1      -7.107   7.626  13.501  1.00  0.00     0.080 C 
HETATM   10  C10 UNL     1      -5.582   7.690  13.529  1.00  0.00     0.021 C 
HETATM   11  C11 UNL     1      -4.853   6.359  13.880  1.00  0.00    -0.015 C 
HETATM   12  C12 UNL     1      -4.727   6.242  15.419  1.00  0.00     0.020 C 
HETATM   13  C13 UNL     1      -3.409   6.367  13.304  1.00  0.00    -0.066 C 
HETATM   14  C14 UNL     1      -2.889   5.302  12.631  1.00  0.00    -0.039 C 
HETATM   15  C15 UNL     1      -1.484   5.405  12.030  1.00  0.00    -0.010 C 
HETATM   16  C16 UNL     1      -1.689   6.035  10.614  1.00  0.00     0.021 C 
HETATM   17  C17 UNL     1      -0.625   4.137  11.847  1.00  0.00     0.015 C 
HETATM   18  C18 UNL     1       0.832   4.647  11.756  1.00  0.00     0.007 C 
HETATM   19  C19 UNL     1       0.828   6.100  12.287  1.00  0.00    -0.002 C 
HETATM   20  C28 UNL     1      -0.548   6.225  13.002  1.00  0.00    -0.029 C 
HETATM   21  C29 UNL     1      -0.495   5.616  14.433  1.00  0.00     0.016 C 
HETATM   22  C30 UNL     1      -1.106   7.646  13.097  1.00  0.00     0.015 C 
HETATM   23  C31 UNL     1      -2.580   7.641  13.556  1.00  0.00     0.036 C 
ENDROOT
BRANCH  19  24
HETATM   24  C20 UNL     1       2.136   6.648  12.925  1.00  0.00    -0.014 C 
HETATM   25  C21 UNL     1       1.886   6.972  14.410  1.00  0.00     0.010 C 
BRANCH  24  26
HETATM   26  C22 UNL     1       2.968   7.764  12.251  1.00  0.00     0.008 C 
BRANCH  26  27
HETATM   27  C23 UNL     1       4.142   7.436  11.323  1.00  0.00     0.028 C 
BRANCH  27  28
HETATM   28  C24 UNL     1       4.059   6.113  10.620  1.00  0.00    -0.013 C 
HETATM   29  C25 UNL     1       3.459   5.856   9.440  1.00  0.00     0.008 C 
HETATM   30  C26 UNL     1       2.709   6.850   8.606  1.00  0.00     0.055 C 
BRANCH  29  31
HETATM   31  C27 UNL     1       3.539   4.458   8.946  1.00  0.00     0.171 C 
HETATM   32  O3  UNL     1       3.726   4.099   7.797  1.00  0.00    -0.646 OA
BRANCH  31  33
HETATM   33  O4  UNL     1       3.375   3.558   9.930  1.00  0.00    -0.773 OA
HETATM   34  H41 UNL     1       3.450   2.699   9.466  1.00  0.00     0.167 HD
ENDBRANCH  31  33
ENDBRANCH  29  31
ENDBRANCH  27  28
ENDBRANCH  26  27
ENDBRANCH  24  26
ENDBRANCH  19  24
BRANCH   1  35
HETATM   35  O1  UNL     1      -3.996   3.929  11.035  1.00  0.00    -0.386 OA
HETATM   36  C1  UNL     1      -4.979   2.941  10.762  1.00  0.00     0.202 C 
ENDBRANCH   1  35
TORSDOF 7
ENDMDL
