MODEL 1
REMARK minimizedAffinity -9.72900677
REMARK CNNscore 0.463050783
REMARK CNNaffinity 6.22815943
REMARK  12 active torsions:
REMARK  status: ('A' for Active; 'I' for Inactive)
REMARK    1  A    between atoms: C3_3  and  O1_4 
REMARK    2  A    between atoms: N1_14  and  O2_16 
REMARK    3  A    between atoms: O2_16  and  C13_17 
REMARK    4  A    between atoms: C13_17  and  C14_18 
REMARK       I    between atoms: C14_18  and  N2_20 
REMARK    5  A    between atoms: N2_20  and  C15_21 
REMARK    6  A    between atoms: C15_21  and  C16_22 
REMARK    7  A    between atoms: C15_21  and  C26_36 
REMARK       I    between atoms: C16_22  and  N3_24 
REMARK    8  A    between atoms: N3_24  and  C17_25 
REMARK    9  A    between atoms: C17_25  and  C18_26 
REMARK   10  A    between atoms: C17_25  and  C25_33 
REMARK   11  A    between atoms: C18_26  and  C19_27 
REMARK   12  A    between atoms: C25_33  and  O6_35 
ROOT
HETATM    1  C1  UNL     1       0.550  52.720 -25.138  1.00  0.00     0.015 C 
HETATM    2  C2  UNL     1      -0.571  52.372 -25.393  1.00  0.00    -0.078 C 
HETATM    3  C3  UNL     1      -1.945  51.937 -25.742  1.00  0.00     0.128 C 
HETATM    4  C4  UNL     1      -1.889  50.554 -26.408  1.00  0.00     0.052 C 
HETATM    5  C5  UNL     1      -2.185  49.537 -25.298  1.00  0.00     0.010 C 
HETATM    6  C6  UNL     1      -2.383  50.340 -23.989  1.00  0.00     0.002 C 
HETATM    7  C7  UNL     1      -3.256  49.684 -22.878  1.00  0.00    -0.004 C 
HETATM    8  C8  UNL     1      -3.130  48.144 -22.915  1.00  0.00     0.010 C 
HETATM    9  C9  UNL     1      -4.008  47.428 -21.901  1.00  0.00     0.035 C 
HETATM   10  C10 UNL     1      -5.430  47.869 -22.122  1.00  0.00    -0.069 C 
HETATM   11  C11 UNL     1      -6.357  46.984 -22.523  1.00  0.00     0.030 C 
HETATM   12  C12 UNL     1      -7.720  47.413 -22.921  1.00  0.00     0.032 C 
HETATM   13  N1  UNL     1      -8.610  46.483 -23.110  1.00  0.00    -0.271 N 
ATOM     14  H1  UNL     1      -8.439  45.492 -22.938  1.00  0.00     0.194 HD
HETATM   15  C29 UNL     1      -7.938  48.893 -23.141  1.00  0.00     0.060 C 
HETATM   16  C30 UNL     1      -7.196  49.700 -22.078  1.00  0.00     0.020 C 
HETATM   17  C31 UNL     1      -5.685  49.354 -21.914  1.00  0.00    -0.016 C 
HETATM   18  C32 UNL     1      -5.354  49.716 -20.432  1.00  0.00     0.020 C 
HETATM   19  C33 UNL     1      -4.729  50.214 -22.830  1.00  0.00     0.002 C 
HETATM   20  C34 UNL     1      -5.208  50.515 -24.252  1.00  0.00     0.007 C 
HETATM   21  C35 UNL     1      -4.376  51.619 -24.935  1.00  0.00     0.014 C 
HETATM   22  C36 UNL     1      -2.877  51.709 -24.505  1.00  0.00     0.003 C 
HETATM   23  C37 UNL     1      -2.706  52.839 -23.465  1.00  0.00     0.020 C 
ENDROOT
BRANCH   3  24
HETATM   24  O1  UNL     1      -2.497  52.896 -26.633  1.00  0.00    -0.377 OA
HETATM   25  H2  UNL     1      -1.846  53.028 -27.344  1.00  0.00     0.211 HD
ENDBRANCH   3  24
BRANCH  13  26
HETATM   26  O2  UNL     1      -9.830  46.994 -23.575  1.00  0.00    -0.271 OA
BRANCH  26  27
HETATM   27  C13 UNL     1     -10.721  45.905 -23.783  1.00  0.00     0.303 C 
BRANCH  27  28
HETATM   28  C14 UNL     1     -11.911  46.312 -24.645  1.00  0.00     0.244 C 
HETATM   29  O3  UNL     1     -12.097  47.475 -25.000  1.00  0.00    -0.271 OA
HETATM   30  N2  UNL     1     -12.799  45.286 -24.909  1.00  0.00    -0.346 N 
HETATM   31  H16 UNL     1     -12.393  44.353 -24.892  1.00  0.00     0.163 HD
BRANCH  30  32
HETATM   32  C15 UNL     1     -13.934  45.487 -25.812  1.00  0.00     0.180 C 
BRANCH  32  33
HETATM   33  C16 UNL     1     -14.977  46.357 -25.071  1.00  0.00     0.241 C 
HETATM   34  O4  UNL     1     -14.838  47.571 -24.933  1.00  0.00    -0.271 OA
HETATM   35  N3  UNL     1     -16.064  45.672 -24.587  1.00  0.00    -0.345 N 
HETATM   36  H18 UNL     1     -16.250  44.748 -24.958  1.00  0.00     0.163 HD
BRANCH  35  37
HETATM   37  C17 UNL     1     -17.200  46.358 -23.963  1.00  0.00     0.186 C 
BRANCH  37  38
HETATM   38  C18 UNL     1     -17.725  45.591 -22.736  1.00  0.00     0.074 C 
BRANCH  38  39
HETATM   39  C19 UNL     1     -17.505  46.293 -21.412  1.00  0.00    -0.056 A 
HETATM   40  C20 UNL     1     -18.603  46.737 -20.661  1.00  0.00     0.007 A 
HETATM   41  C21 UNL     1     -18.410  47.404 -19.452  1.00  0.00     0.001 A 
HETATM   42  C22 UNL     1     -17.120  47.635 -18.980  1.00  0.00     0.000 A 
HETATM   43  C23 UNL     1     -16.022  47.196 -19.719  1.00  0.00     0.001 A 
HETATM   44  C24 UNL     1     -16.212  46.527 -20.929  1.00  0.00     0.007 A 
ENDBRANCH  38  39
ENDBRANCH  37  38
BRANCH  37  45
HETATM   45  C25 UNL     1     -18.339  46.631 -24.949  1.00  0.00     0.163 C 
HETATM   46  O5  UNL     1     -19.241  47.440 -24.794  1.00  0.00    -0.648 OA
BRANCH  45  47
HETATM   47  O6  UNL     1     -18.307  45.871 -26.065  1.00  0.00    -0.775 OA
HETATM   48  H27 UNL     1     -19.080  46.181 -26.582  1.00  0.00     0.167 HD
ENDBRANCH  45  47
ENDBRANCH  37  45
ENDBRANCH  35  37
ENDBRANCH  32  33
BRANCH  32  49
HETATM   49  C26 UNL     1     -13.448  46.086 -27.151  1.00  0.00     0.009 C 
HETATM   50  C27 UNL     1     -13.250  47.604 -27.111  1.00  0.00     0.012 C 
HETATM   51  C28 UNL     1     -14.359  45.702 -28.319  1.00  0.00     0.012 C 
ENDBRANCH  32  49
ENDBRANCH  30  32
ENDBRANCH  27  28
ENDBRANCH  26  27
ENDBRANCH  13  26
TORSDOF 12
ENDMDL
MODEL 2
REMARK minimizedAffinity -8.43387032
REMARK CNNscore 0.46015951
REMARK CNNaffinity 6.66410017
REMARK  12 active torsions:
REMARK  status: ('A' for Active; 'I' for Inactive)
REMARK    1  A    between atoms: C3_3  and  O1_4 
REMARK    2  A    between atoms: N1_14  and  O2_16 
REMARK    3  A    between atoms: O2_16  and  C13_17 
REMARK    4  A    between atoms: C13_17  and  C14_18 
REMARK       I    between atoms: C14_18  and  N2_20 
REMARK    5  A    between atoms: N2_20  and  C15_21 
REMARK    6  A    between atoms: C15_21  and  C16_22 
REMARK    7  A    between atoms: C15_21  and  C26_36 
REMARK       I    between atoms: C16_22  and  N3_24 
REMARK    8  A    between atoms: N3_24  and  C17_25 
REMARK    9  A    between atoms: C17_25  and  C18_26 
REMARK   10  A    between atoms: C17_25  and  C25_33 
REMARK   11  A    between atoms: C18_26  and  C19_27 
REMARK   12  A    between atoms: C25_33  and  O6_35 
ROOT
HETATM    1  C1  UNL     1       0.360  50.321 -17.335  1.00  0.00     0.015 C 
HETATM    2  C2  UNL     1      -0.590  49.727 -17.769  1.00  0.00    -0.078 C 
HETATM    3  C3  UNL     1      -1.776  48.993 -18.271  1.00  0.00     0.128 C 
HETATM    4  C4  UNL     1      -3.054  49.707 -17.804  1.00  0.00     0.052 C 
HETATM    5  C5  UNL     1      -3.496  50.593 -18.975  1.00  0.00     0.010 C 
HETATM    6  C6  UNL     1      -2.453  50.406 -20.103  1.00  0.00     0.002 C 
HETATM    7  C7  UNL     1      -2.928  50.678 -21.562  1.00  0.00    -0.004 C 
HETATM    8  C8  UNL     1      -4.020  51.770 -21.593  1.00  0.00     0.010 C 
HETATM    9  C9  UNL     1      -4.584  52.042 -22.978  1.00  0.00     0.035 C 
HETATM   10  C10 UNL     1      -5.091  50.741 -23.540  1.00  0.00    -0.069 C 
HETATM   11  C11 UNL     1      -6.400  50.578 -23.791  1.00  0.00     0.030 C 
HETATM   12  C12 UNL     1      -6.959  49.258 -24.173  1.00  0.00     0.032 C 
HETATM   13  N1  UNL     1      -8.194  49.227 -24.584  1.00  0.00    -0.271 N 
ATOM     14  H1  UNL     1      -8.768  50.060 -24.716  1.00  0.00     0.194 HD
HETATM   15  C29 UNL     1      -6.067  48.052 -23.985  1.00  0.00     0.060 C 
HETATM   16  C30 UNL     1      -4.635  48.387 -24.392  1.00  0.00     0.020 C 
HETATM   17  C31 UNL     1      -4.034  49.663 -23.727  1.00  0.00    -0.016 C 
HETATM   18  C32 UNL     1      -2.969  50.178 -24.746  1.00  0.00     0.020 C 
HETATM   19  C33 UNL     1      -3.282  49.382 -22.367  1.00  0.00     0.002 C 
HETATM   20  C34 UNL     1      -3.907  48.352 -21.423  1.00  0.00     0.007 C 
HETATM   21  C35 UNL     1      -2.941  47.912 -20.305  1.00  0.00     0.014 C 
HETATM   22  C36 UNL     1      -1.911  48.986 -19.831  1.00  0.00     0.003 C 
HETATM   23  C37 UNL     1      -0.545  48.726 -20.505  1.00  0.00     0.020 C 
ENDROOT
BRANCH   3  24
HETATM   24  O1  UNL     1      -1.726  47.671 -17.753  1.00  0.00    -0.377 OA
HETATM   25  H2  UNL     1      -1.588  47.749 -16.793  1.00  0.00     0.211 HD
ENDBRANCH   3  24
BRANCH  13  26
HETATM   26  O2  UNL     1      -8.646  47.922 -24.825  1.00  0.00    -0.271 OA
BRANCH  26  27
HETATM   27  C13 UNL     1      -9.892  47.999 -25.507  1.00  0.00     0.303 C 
BRANCH  27  28
HETATM   28  C14 UNL     1     -10.820  46.857 -25.109  1.00  0.00     0.244 C 
HETATM   29  O3  UNL     1     -10.575  46.111 -24.162  1.00  0.00    -0.271 OA
HETATM   30  N2  UNL     1     -11.899  46.680 -25.955  1.00  0.00    -0.346 N 
HETATM   31  H16 UNL     1     -12.197  47.518 -26.450  1.00  0.00     0.163 HD
BRANCH  30  32
HETATM   32  C15 UNL     1     -12.941  45.698 -25.650  1.00  0.00     0.180 C 
BRANCH  32  33
HETATM   33  C16 UNL     1     -14.074  46.434 -24.896  1.00  0.00     0.241 C 
HETATM   34  O4  UNL     1     -14.033  47.642 -24.669  1.00  0.00    -0.271 OA
HETATM   35  N3  UNL     1     -15.124  45.639 -24.506  1.00  0.00    -0.345 N 
HETATM   36  H18 UNL     1     -15.225  44.732 -24.947  1.00  0.00     0.163 HD
BRANCH  35  37
HETATM   37  C17 UNL     1     -16.331  46.194 -23.886  1.00  0.00     0.186 C 
BRANCH  37  38
HETATM   38  C18 UNL     1     -16.841  45.306 -22.737  1.00  0.00     0.074 C 
BRANCH  38  39
HETATM   39  C19 UNL     1     -17.247  46.061 -21.489  1.00  0.00    -0.056 A 
HETATM   40  C20 UNL     1     -18.586  46.434 -21.297  1.00  0.00     0.007 A 
HETATM   41  C21 UNL     1     -18.966  47.149 -20.162  1.00  0.00     0.001 A 
HETATM   42  C22 UNL     1     -18.015  47.501 -19.208  1.00  0.00     0.000 A 
HETATM   43  C23 UNL     1     -16.682  47.134 -19.388  1.00  0.00     0.001 A 
HETATM   44  C24 UNL     1     -16.298  46.416 -20.523  1.00  0.00     0.007 A 
ENDBRANCH  38  39
ENDBRANCH  37  38
BRANCH  37  45
HETATM   45  C25 UNL     1     -17.450  46.451 -24.899  1.00  0.00     0.163 C 
HETATM   46  O5  UNL     1     -18.332  47.289 -24.792  1.00  0.00    -0.648 OA
BRANCH  45  47
HETATM   47  O6  UNL     1     -17.425  45.641 -25.978  1.00  0.00    -0.775 OA
HETATM   48  H27 UNL     1     -18.183  45.947 -26.519  1.00  0.00     0.167 HD
ENDBRANCH  45  47
ENDBRANCH  37  45
ENDBRANCH  35  37
ENDBRANCH  32  33
BRANCH  32  49
HETATM   49  C26 UNL     1     -13.400  44.990 -26.945  1.00  0.00     0.009 C 
HETATM   50  C27 UNL     1     -12.335  44.078 -27.559  1.00  0.00     0.012 C 
HETATM   51  C28 UNL     1     -13.918  45.979 -27.990  1.00  0.00     0.012 C 
ENDBRANCH  32  49
ENDBRANCH  30  32
ENDBRANCH  27  28
ENDBRANCH  26  27
ENDBRANCH  13  26
TORSDOF 12
ENDMDL
MODEL 3
REMARK minimizedAffinity -9.7492485
REMARK CNNscore 0.453526974
REMARK CNNaffinity 7.35201883
REMARK  12 active torsions:
REMARK  status: ('A' for Active; 'I' for Inactive)
REMARK    1  A    between atoms: C3_3  and  O1_4 
REMARK    2  A    between atoms: N1_14  and  O2_16 
REMARK    3  A    between atoms: O2_16  and  C13_17 
REMARK    4  A    between atoms: C13_17  and  C14_18 
REMARK       I    between atoms: C14_18  and  N2_20 
REMARK    5  A    between atoms: N2_20  and  C15_21 
REMARK    6  A    between atoms: C15_21  and  C16_22 
REMARK    7  A    between atoms: C15_21  and  C26_36 
REMARK       I    between atoms: C16_22  and  N3_24 
REMARK    8  A    between atoms: N3_24  and  C17_25 
REMARK    9  A    between atoms: C17_25  and  C18_26 
REMARK   10  A    between atoms: C17_25  and  C25_33 
REMARK   11  A    between atoms: C18_26  and  C19_27 
REMARK   12  A    between atoms: C25_33  and  O6_35 
ROOT
HETATM    1  C1  UNL     1      -1.682  50.221 -16.881  1.00  0.00     0.015 C 
HETATM    2  C2  UNL     1      -1.957  49.689 -17.923  1.00  0.00    -0.078 C 
HETATM    3  C3  UNL     1      -2.324  49.018 -19.193  1.00  0.00     0.128 C 
HETATM    4  C4  UNL     1      -3.802  49.294 -19.507  1.00  0.00     0.052 C 
HETATM    5  C5  UNL     1      -3.814  50.471 -20.490  1.00  0.00     0.010 C 
HETATM    6  C6  UNL     1      -2.339  50.886 -20.716  1.00  0.00     0.002 C 
HETATM    7  C7  UNL     1      -2.001  51.604 -22.057  1.00  0.00    -0.004 C 
HETATM    8  C8  UNL     1      -3.200  52.440 -22.554  1.00  0.00     0.010 C 
HETATM    9  C9  UNL     1      -2.970  53.117 -23.896  1.00  0.00     0.035 C 
HETATM   10  C10 UNL     1      -2.588  52.056 -24.894  1.00  0.00    -0.069 C 
HETATM   11  C11 UNL     1      -3.388  51.794 -25.939  1.00  0.00     0.030 C 
HETATM   12  C12 UNL     1      -3.137  50.641 -26.839  1.00  0.00     0.032 C 
HETATM   13  N1  UNL     1      -3.840  50.571 -27.932  1.00  0.00    -0.271 N 
ATOM     14  H1  UNL     1      -4.499  51.291 -28.230  1.00  0.00     0.194 HD
HETATM   15  C29 UNL     1      -2.135  49.610 -26.373  1.00  0.00     0.060 C 
HETATM   16  C30 UNL     1      -0.943  50.295 -25.709  1.00  0.00     0.020 C 
HETATM   17  C31 UNL     1      -1.301  51.308 -24.580  1.00  0.00    -0.016 C 
HETATM   18  C32 UNL     1      -0.118  52.327 -24.572  1.00  0.00     0.020 C 
HETATM   19  C33 UNL     1      -1.372  50.663 -23.140  1.00  0.00     0.002 C 
HETATM   20  C34 UNL     1      -1.997  49.270 -23.029  1.00  0.00     0.007 C 
HETATM   21  C35 UNL     1      -1.717  48.604 -21.667  1.00  0.00     0.014 C 
HETATM   22  C36 UNL     1      -1.573  49.572 -20.449  1.00  0.00     0.003 C 
HETATM   23  C37 UNL     1      -0.076  49.802 -20.146  1.00  0.00     0.020 C 
ENDROOT
BRANCH   3  24
HETATM   24  O1  UNL     1      -2.101  47.624 -19.033  1.00  0.00    -0.377 OA
HETATM   25  H2  UNL     1      -2.547  47.359 -18.210  1.00  0.00     0.211 HD
ENDBRANCH   3  24
BRANCH  13  26
HETATM   26  O2  UNL     1      -3.590  49.396 -28.655  1.00  0.00    -0.271 OA
BRANCH  26  27
HETATM   27  C13 UNL     1      -4.381  48.352 -28.100  1.00  0.00     0.303 C 
BRANCH  27  28
HETATM   28  C14 UNL     1      -5.428  47.856 -29.091  1.00  0.00     0.244 C 
HETATM   29  O3  UNL     1      -5.130  47.445 -30.211  1.00  0.00    -0.271 OA
HETATM   30  N2  UNL     1      -6.733  47.996 -28.656  1.00  0.00    -0.346 N 
HETATM   31  H16 UNL     1      -6.850  47.994 -27.645  1.00  0.00     0.163 HD
BRANCH  30  32
HETATM   32  C15 UNL     1      -7.849  47.467 -29.442  1.00  0.00     0.180 C 
BRANCH  32  33
HETATM   33  C16 UNL     1      -8.928  46.970 -28.451  1.00  0.00     0.241 C 
HETATM   34  O4  UNL     1      -8.732  46.024 -27.690  1.00  0.00    -0.271 OA
HETATM   35  N3  UNL     1     -10.111  47.667 -28.483  1.00  0.00    -0.345 N 
HETATM   36  H18 UNL     1     -10.115  48.580 -28.923  1.00  0.00     0.163 HD
BRANCH  35  37
HETATM   37  C17 UNL     1     -11.195  47.403 -27.532  1.00  0.00     0.186 C 
BRANCH  37  38
HETATM   38  C18 UNL     1     -12.568  47.788 -28.111  1.00  0.00     0.074 C 
BRANCH  38  39
HETATM   39  C19 UNL     1     -13.675  46.796 -27.820  1.00  0.00    -0.056 A 
HETATM   40  C20 UNL     1     -14.279  46.770 -26.554  1.00  0.00     0.007 A 
HETATM   41  C21 UNL     1     -15.284  45.846 -26.269  1.00  0.00     0.001 A 
HETATM   42  C22 UNL     1     -15.694  44.938 -27.242  1.00  0.00     0.000 A 
HETATM   43  C23 UNL     1     -15.100  44.956 -28.503  1.00  0.00     0.001 A 
HETATM   44  C24 UNL     1     -14.095  45.882 -28.793  1.00  0.00     0.007 A 
ENDBRANCH  38  39
ENDBRANCH  37  38
BRANCH  37  45
HETATM   45  C25 UNL     1     -10.974  48.091 -26.181  1.00  0.00     0.163 C 
HETATM   46  O5  UNL     1     -10.947  47.537 -25.093  1.00  0.00    -0.648 OA
BRANCH  45  47
HETATM   47  O6  UNL     1     -10.818  49.430 -26.253  1.00  0.00    -0.775 OA
HETATM   48  H27 UNL     1     -10.674  49.699 -25.323  1.00  0.00     0.167 HD
ENDBRANCH  45  47
ENDBRANCH  37  45
ENDBRANCH  35  37
ENDBRANCH  32  33
BRANCH  32  49
HETATM   49  C26 UNL     1      -8.352  48.537 -30.439  1.00  0.00     0.009 C 
HETATM   50  C27 UNL     1      -9.869  48.735 -30.416  1.00  0.00     0.012 C 
HETATM   51  C28 UNL     1      -7.874  48.264 -31.866  1.00  0.00     0.012 C 
ENDBRANCH  32  49
ENDBRANCH  30  32
ENDBRANCH  27  28
ENDBRANCH  26  27
ENDBRANCH  13  26
TORSDOF 12
ENDMDL
MODEL 4
REMARK minimizedAffinity -8.56640244
REMARK CNNscore 0.413224339
REMARK CNNaffinity 6.45335388
REMARK  12 active torsions:
REMARK  status: ('A' for Active; 'I' for Inactive)
REMARK    1  A    between atoms: C3_3  and  O1_4 
REMARK    2  A    between atoms: N1_14  and  O2_16 
REMARK    3  A    between atoms: O2_16  and  C13_17 
REMARK    4  A    between atoms: C13_17  and  C14_18 
REMARK       I    between atoms: C14_18  and  N2_20 
REMARK    5  A    between atoms: N2_20  and  C15_21 
REMARK    6  A    between atoms: C15_21  and  C16_22 
REMARK    7  A    between atoms: C15_21  and  C26_36 
REMARK       I    between atoms: C16_22  and  N3_24 
REMARK    8  A    between atoms: N3_24  and  C17_25 
REMARK    9  A    between atoms: C17_25  and  C18_26 
REMARK   10  A    between atoms: C17_25  and  C25_33 
REMARK   11  A    between atoms: C18_26  and  C19_27 
REMARK   12  A    between atoms: C25_33  and  O6_35 
ROOT
HETATM    1  C1  UNL     1       0.331  51.369 -26.935  1.00  0.00     0.015 C 
HETATM    2  C2  UNL     1      -0.829  51.227 -26.659  1.00  0.00    -0.078 C 
HETATM    3  C3  UNL     1      -2.267  51.038 -26.353  1.00  0.00     0.128 C 
HETATM    4  C4  UNL     1      -2.674  49.594 -26.682  1.00  0.00     0.052 C 
HETATM    5  C5  UNL     1      -2.613  48.824 -25.357  1.00  0.00     0.010 C 
HETATM    6  C6  UNL     1      -2.142  49.824 -24.274  1.00  0.00     0.002 C 
HETATM    7  C7  UNL     1      -2.551  49.521 -22.801  1.00  0.00    -0.004 C 
HETATM    8  C8  UNL     1      -2.654  47.999 -22.559  1.00  0.00     0.010 C 
HETATM    9  C9  UNL     1      -3.116  47.625 -21.159  1.00  0.00     0.035 C 
HETATM   10  C10 UNL     1      -4.430  48.313 -20.903  1.00  0.00    -0.069 C 
HETATM   11  C11 UNL     1      -5.547  47.590 -20.721  1.00  0.00     0.030 C 
HETATM   12  C12 UNL     1      -6.883  48.230 -20.645  1.00  0.00     0.032 C 
HETATM   13  N1  UNL     1      -7.884  47.485 -20.276  1.00  0.00    -0.271 N 
ATOM     14  H1  UNL     1      -7.788  46.514 -19.980  1.00  0.00     0.194 HD
HETATM   15  C29 UNL     1      -6.978  49.678 -21.070  1.00  0.00     0.060 C 
HETATM   16  C30 UNL     1      -5.762  50.455 -20.569  1.00  0.00     0.020 C 
HETATM   17  C31 UNL     1      -4.379  49.834 -20.930  1.00  0.00    -0.016 C 
HETATM   18  C32 UNL     1      -3.418  50.322 -19.802  1.00  0.00     0.020 C 
HETATM   19  C33 UNL     1      -3.787  50.343 -22.303  1.00  0.00     0.002 C 
HETATM   20  C34 UNL     1      -4.770  50.535 -23.460  1.00  0.00     0.007 C 
HETATM   21  C35 UNL     1      -4.162  51.340 -24.626  1.00  0.00     0.014 C 
HETATM   22  C36 UNL     1      -2.622  51.180 -24.835  1.00  0.00     0.003 C 
HETATM   23  C37 UNL     1      -1.887  52.384 -24.203  1.00  0.00     0.020 C 
ENDROOT
BRANCH   3  24
HETATM   24  O1  UNL     1      -3.009  51.957 -27.143  1.00  0.00    -0.377 OA
HETATM   25  H2  UNL     1      -2.702  51.852 -28.060  1.00  0.00     0.211 HD
ENDBRANCH   3  24
BRANCH  13  26
HETATM   26  O2  UNL     1      -9.108  48.166 -20.332  1.00  0.00    -0.271 OA
BRANCH  26  27
HETATM   27  C13 UNL     1     -10.157  47.213 -20.201  1.00  0.00     0.303 C 
BRANCH  27  28
HETATM   28  C14 UNL     1     -10.283  46.343 -21.447  1.00  0.00     0.244 C 
HETATM   29  O3  UNL     1      -9.533  45.393 -21.662  1.00  0.00    -0.271 OA
HETATM   30  N2  UNL     1     -11.242  46.772 -22.345  1.00  0.00    -0.346 N 
HETATM   31  H16 UNL     1     -12.008  47.303 -21.933  1.00  0.00     0.163 HD
BRANCH  30  32
HETATM   32  C15 UNL     1     -11.563  45.985 -23.537  1.00  0.00     0.180 C 
BRANCH  32  33
HETATM   33  C16 UNL     1     -13.062  45.609 -23.462  1.00  0.00     0.241 C 
HETATM   34  O4  UNL     1     -13.444  44.439 -23.451  1.00  0.00    -0.271 OA
HETATM   35  N3  UNL     1     -13.925  46.675 -23.404  1.00  0.00    -0.345 N 
HETATM   36  H18 UNL     1     -13.549  47.580 -23.149  1.00  0.00     0.163 HD
BRANCH  35  37
HETATM   37  C17 UNL     1     -15.368  46.497 -23.213  1.00  0.00     0.186 C 
BRANCH  37  38
HETATM   38  C18 UNL     1     -16.183  47.299 -24.243  1.00  0.00     0.074 C 
BRANCH  38  39
HETATM   39  C19 UNL     1     -17.376  46.562 -24.814  1.00  0.00    -0.056 A 
HETATM   40  C20 UNL     1     -17.196  45.616 -25.834  1.00  0.00     0.007 A 
HETATM   41  C21 UNL     1     -18.290  44.948 -26.382  1.00  0.00     0.001 A 
HETATM   42  C22 UNL     1     -19.576  45.218 -25.920  1.00  0.00     0.000 A 
HETATM   43  C23 UNL     1     -19.766  46.156 -24.906  1.00  0.00     0.001 A 
HETATM   44  C24 UNL     1     -18.671  46.825 -24.353  1.00  0.00     0.007 A 
ENDBRANCH  38  39
ENDBRANCH  37  38
BRANCH  37  45
HETATM   45  C25 UNL     1     -15.821  46.839 -21.791  1.00  0.00     0.163 C 
HETATM   46  O5  UNL     1     -16.893  46.537 -21.290  1.00  0.00    -0.648 OA
BRANCH  45  47
HETATM   47  O6  UNL     1     -14.927  47.555 -21.076  1.00  0.00    -0.775 OA
HETATM   48  H27 UNL     1     -15.362  47.669 -20.205  1.00  0.00     0.167 HD
ENDBRANCH  45  47
ENDBRANCH  37  45
ENDBRANCH  35  37
ENDBRANCH  32  33
BRANCH  32  49
HETATM   49  C26 UNL     1     -11.170  46.766 -24.812  1.00  0.00     0.009 C 
HETATM   50  C27 UNL     1     -11.421  45.994 -26.109  1.00  0.00     0.012 C 
HETATM   51  C28 UNL     1      -9.724  47.263 -24.761  1.00  0.00     0.012 C 
ENDBRANCH  32  49
ENDBRANCH  30  32
ENDBRANCH  27  28
ENDBRANCH  26  27
ENDBRANCH  13  26
TORSDOF 12
ENDMDL
MODEL 5
REMARK minimizedAffinity -8.74124432
REMARK CNNscore 0.405424803
REMARK CNNaffinity 7.50791931
REMARK  12 active torsions:
REMARK  status: ('A' for Active; 'I' for Inactive)
REMARK    1  A    between atoms: C3_3  and  O1_4 
REMARK    2  A    between atoms: N1_14  and  O2_16 
REMARK    3  A    between atoms: O2_16  and  C13_17 
REMARK    4  A    between atoms: C13_17  and  C14_18 
REMARK       I    between atoms: C14_18  and  N2_20 
REMARK    5  A    between atoms: N2_20  and  C15_21 
REMARK    6  A    between atoms: C15_21  and  C16_22 
REMARK    7  A    between atoms: C15_21  and  C26_36 
REMARK       I    between atoms: C16_22  and  N3_24 
REMARK    8  A    between atoms: N3_24  and  C17_25 
REMARK    9  A    between atoms: C17_25  and  C18_26 
REMARK   10  A    between atoms: C17_25  and  C25_33 
REMARK   11  A    between atoms: C18_26  and  C19_27 
REMARK   12  A    between atoms: C25_33  and  O6_35 
ROOT
HETATM    1  C1  UNL     1      -1.580  51.413  -7.817  1.00  0.00     0.015 C 
HETATM    2  C2  UNL     1      -1.770  51.835  -8.926  1.00  0.00    -0.078 C 
HETATM    3  C3  UNL     1      -2.012  52.388 -10.280  1.00  0.00     0.128 C 
HETATM    4  C4  UNL     1      -1.188  53.672 -10.462  1.00  0.00     0.052 C 
HETATM    5  C5  UNL     1       0.089  53.254 -11.202  1.00  0.00     0.010 C 
HETATM    6  C6  UNL     1       0.007  51.723 -11.418  1.00  0.00     0.002 C 
HETATM    7  C7  UNL     1       0.811  51.131 -12.614  1.00  0.00    -0.004 C 
HETATM    8  C8  UNL     1       2.090  51.955 -12.882  1.00  0.00     0.010 C 
HETATM    9  C9  UNL     1       2.894  51.478 -14.081  1.00  0.00     0.035 C 
HETATM   10  C10 UNL     1       1.983  51.469 -15.280  1.00  0.00    -0.069 C 
HETATM   11  C11 UNL     1       2.222  52.290 -16.315  1.00  0.00     0.030 C 
HETATM   12  C12 UNL     1       1.253  52.438 -17.429  1.00  0.00     0.032 C 
HETATM   13  N1  UNL     1       1.644  53.099 -18.479  1.00  0.00    -0.271 N 
ATOM     14  H1  UNL     1       2.589  53.461 -18.601  1.00  0.00     0.194 HD
HETATM   15  C29 UNL     1      -0.130  51.866 -17.218  1.00  0.00     0.060 C 
HETATM   16  C30 UNL     1      -0.041  50.523 -16.496  1.00  0.00     0.020 C 
HETATM   17  C31 UNL     1       0.792  50.528 -15.178  1.00  0.00    -0.016 C 
HETATM   18  C32 UNL     1       1.319  49.066 -15.036  1.00  0.00     0.020 C 
HETATM   19  C33 UNL     1      -0.058  50.847 -13.886  1.00  0.00     0.002 C 
HETATM   20  C34 UNL     1      -1.143  51.919 -14.010  1.00  0.00     0.007 C 
HETATM   21  C35 UNL     1      -2.118  51.915 -12.815  1.00  0.00     0.014 C 
HETATM   22  C36 UNL     1      -1.516  51.467 -11.445  1.00  0.00     0.003 C 
HETATM   23  C37 UNL     1      -1.880  49.989 -11.179  1.00  0.00     0.020 C 
ENDROOT
BRANCH   3  24
HETATM   24  O1  UNL     1      -3.400  52.666 -10.399  1.00  0.00    -0.377 OA
HETATM   25  H2  UNL     1      -3.650  53.193  -9.620  1.00  0.00     0.211 HD
ENDBRANCH   3  24
BRANCH  13  26
HETATM   26  O2  UNL     1       0.620  53.259 -19.423  1.00  0.00    -0.271 OA
BRANCH  26  27
HETATM   27  C13 UNL     1       1.035  52.649 -20.640  1.00  0.00     0.303 C 
BRANCH  27  28
HETATM   28  C14 UNL     1      -0.034  51.711 -21.189  1.00  0.00     0.244 C 
HETATM   29  O3  UNL     1      -0.019  51.307 -22.351  1.00  0.00    -0.271 OA
HETATM   30  N2  UNL     1      -1.058  51.435 -20.303  1.00  0.00    -0.346 N 
HETATM   31  H16 UNL     1      -0.804  51.505 -19.319  1.00  0.00     0.163 HD
BRANCH  30  32
HETATM   32  C15 UNL     1      -2.103  50.465 -20.638  1.00  0.00     0.180 C 
BRANCH  32  33
HETATM   33  C16 UNL     1      -3.055  51.135 -21.657  1.00  0.00     0.241 C 
HETATM   34  O4  UNL     1      -3.978  51.869 -21.308  1.00  0.00    -0.271 OA
HETATM   35  N3  UNL     1      -2.787  50.852 -22.974  1.00  0.00    -0.345 N 
HETATM   36  H18 UNL     1      -1.876  50.473 -23.205  1.00  0.00     0.163 HD
BRANCH  35  37
HETATM   37  C17 UNL     1      -3.517  51.494 -24.072  1.00  0.00     0.186 C 
BRANCH  37  38
HETATM   38  C18 UNL     1      -4.296  50.469 -24.915  1.00  0.00     0.074 C 
BRANCH  38  39
HETATM   39  C19 UNL     1      -5.376  49.722 -24.159  1.00  0.00    -0.056 A 
HETATM   40  C20 UNL     1      -5.460  48.325 -24.251  1.00  0.00     0.007 A 
HETATM   41  C21 UNL     1      -6.464  47.630 -23.578  1.00  0.00     0.001 A 
HETATM   42  C22 UNL     1      -7.395  48.322 -22.807  1.00  0.00     0.000 A 
HETATM   43  C23 UNL     1      -7.319  49.711 -22.708  1.00  0.00     0.001 A 
HETATM   44  C24 UNL     1      -6.314  50.409 -23.380  1.00  0.00     0.007 A 
ENDBRANCH  38  39
ENDBRANCH  37  38
BRANCH  37  45
HETATM   45  C25 UNL     1      -2.609  52.341 -24.967  1.00  0.00     0.163 C 
HETATM   46  O5  UNL     1      -1.427  52.577 -24.768  1.00  0.00    -0.648 OA
BRANCH  45  47
HETATM   47  O6  UNL     1      -3.222  52.867 -26.049  1.00  0.00    -0.775 OA
HETATM   48  H27 UNL     1      -2.508  53.354 -26.509  1.00  0.00     0.167 HD
ENDBRANCH  45  47
ENDBRANCH  37  45
ENDBRANCH  35  37
ENDBRANCH  32  33
BRANCH  32  49
HETATM   49  C26 UNL     1      -1.467  49.149 -21.138  1.00  0.00     0.009 C 
HETATM   50  C27 UNL     1      -2.302  48.424 -22.197  1.00  0.00     0.012 C 
HETATM   51  C28 UNL     1      -1.129  48.199 -19.988  1.00  0.00     0.012 C 
ENDBRANCH  32  49
ENDBRANCH  30  32
ENDBRANCH  27  28
ENDBRANCH  26  27
ENDBRANCH  13  26
TORSDOF 12
ENDMDL
MODEL 6
REMARK minimizedAffinity -10.1934814
REMARK CNNscore 0.377029061
REMARK CNNaffinity 7.45853567
REMARK  12 active torsions:
REMARK  status: ('A' for Active; 'I' for Inactive)
REMARK    1  A    between atoms: C3_3  and  O1_4 
REMARK    2  A    between atoms: N1_14  and  O2_16 
REMARK    3  A    between atoms: O2_16  and  C13_17 
REMARK    4  A    between atoms: C13_17  and  C14_18 
REMARK       I    between atoms: C14_18  and  N2_20 
REMARK    5  A    between atoms: N2_20  and  C15_21 
REMARK    6  A    between atoms: C15_21  and  C16_22 
REMARK    7  A    between atoms: C15_21  and  C26_36 
REMARK       I    between atoms: C16_22  and  N3_24 
REMARK    8  A    between atoms: N3_24  and  C17_25 
REMARK    9  A    between atoms: C17_25  and  C18_26 
REMARK   10  A    between atoms: C17_25  and  C25_33 
REMARK   11  A    between atoms: C18_26  and  C19_27 
REMARK   12  A    between atoms: C25_33  and  O6_35 
ROOT
HETATM    1  C1  UNL     1      -2.674  50.523  -8.701  1.00  0.00     0.015 C 
HETATM    2  C2  UNL     1      -2.832  51.010  -9.788  1.00  0.00    -0.078 C 
HETATM    3  C3  UNL     1      -3.037  51.641 -11.113  1.00  0.00     0.128 C 
HETATM    4  C4  UNL     1      -2.265  52.969 -11.171  1.00  0.00     0.052 C 
HETATM    5  C5  UNL     1      -0.939  52.657 -11.874  1.00  0.00     0.010 C 
HETATM    6  C6  UNL     1      -0.941  51.142 -12.194  1.00  0.00     0.002 C 
HETATM    7  C7  UNL     1      -0.057  50.666 -13.385  1.00  0.00    -0.004 C 
HETATM    8  C8  UNL     1       1.194  51.560 -13.537  1.00  0.00     0.010 C 
HETATM    9  C9  UNL     1       2.072  51.199 -14.724  1.00  0.00     0.035 C 
HETATM   10  C10 UNL     1       1.218  51.231 -15.964  1.00  0.00    -0.069 C 
HETATM   11  C11 UNL     1       1.466  52.129 -16.930  1.00  0.00     0.030 C 
HETATM   12  C12 UNL     1       0.543  52.310 -18.078  1.00  0.00     0.032 C 
HETATM   13  N1  UNL     1       0.951  53.057 -19.062  1.00  0.00    -0.271 N 
ATOM     14  H1  UNL     1       1.883  53.466 -19.115  1.00  0.00     0.194 HD
HETATM   15  C29 UNL     1      -0.821  51.667 -17.971  1.00  0.00     0.060 C 
HETATM   16  C30 UNL     1      -0.703  50.284 -17.335  1.00  0.00     0.020 C 
HETATM   17  C31 UNL     1       0.068  50.236 -15.981  1.00  0.00    -0.016 C 
HETATM   18  C32 UNL     1       0.654  48.791 -15.909  1.00  0.00     0.020 C 
HETATM   19  C33 UNL     1      -0.853  50.431 -14.713  1.00  0.00     0.002 C 
HETATM   20  C34 UNL     1      -1.980  51.462 -14.819  1.00  0.00     0.007 C 
HETATM   21  C35 UNL     1      -3.006  51.335 -13.676  1.00  0.00     0.014 C 
HETATM   22  C36 UNL     1      -2.447  50.823 -12.310  1.00  0.00     0.003 C 
HETATM   23  C37 UNL     1      -2.755  49.317 -12.158  1.00  0.00     0.020 C 
ENDROOT
BRANCH   3  24
HETATM   24  O1  UNL     1      -4.430  51.868 -11.281  1.00  0.00    -0.377 OA
HETATM   25  H2  UNL     1      -4.739  52.330 -10.482  1.00  0.00     0.211 HD
ENDBRANCH   3  24
BRANCH  13  26
HETATM   26  O2  UNL     1      -0.035  53.235 -20.043  1.00  0.00    -0.271 OA
BRANCH  26  27
HETATM   27  C13 UNL     1       0.594  53.701 -21.231  1.00  0.00     0.303 C 
BRANCH  27  28
HETATM   28  C14 UNL     1       0.718  52.592 -22.270  1.00  0.00     0.244 C 
HETATM   29  O3  UNL     1       1.095  51.458 -21.979  1.00  0.00    -0.271 OA
HETATM   30  N2  UNL     1       0.462  52.997 -23.567  1.00  0.00    -0.346 N 
HETATM   31  H16 UNL     1      -0.162  53.797 -23.650  1.00  0.00     0.163 HD
BRANCH  30  32
HETATM   32  C15 UNL     1       0.431  52.030 -24.665  1.00  0.00     0.180 C 
BRANCH  32  33
HETATM   33  C16 UNL     1      -1.051  51.804 -25.051  1.00  0.00     0.241 C 
HETATM   34  O4  UNL     1      -1.917  52.654 -24.849  1.00  0.00    -0.271 OA
HETATM   35  N3  UNL     1      -1.319  50.592 -25.638  1.00  0.00    -0.345 N 
HETATM   36  H18 UNL     1      -0.542  50.062 -26.016  1.00  0.00     0.163 HD
BRANCH  35  37
HETATM   37  C17 UNL     1      -2.645  50.262 -26.170  1.00  0.00     0.186 C 
BRANCH  37  38
HETATM   38  C18 UNL     1      -2.974  48.769 -25.997  1.00  0.00     0.074 C 
BRANCH  38  39
HETATM   39  C19 UNL     1      -4.001  48.469 -24.925  1.00  0.00    -0.056 A 
HETATM   40  C20 UNL     1      -3.599  48.324 -23.589  1.00  0.00     0.007 A 
HETATM   41  C21 UNL     1      -4.534  48.026 -22.597  1.00  0.00     0.001 A 
HETATM   42  C22 UNL     1      -5.877  47.868 -22.929  1.00  0.00     0.000 A 
HETATM   43  C23 UNL     1      -6.286  48.012 -24.255  1.00  0.00     0.001 A 
HETATM   44  C24 UNL     1      -5.353  48.312 -25.249  1.00  0.00     0.007 A 
ENDBRANCH  38  39
ENDBRANCH  37  38
BRANCH  37  45
HETATM   45  C25 UNL     1      -2.815  50.680 -27.633  1.00  0.00     0.163 C 
HETATM   46  O5  UNL     1      -3.480  50.093 -28.472  1.00  0.00    -0.648 OA
BRANCH  45  47
HETATM   47  O6  UNL     1      -2.133  51.793 -27.980  1.00  0.00    -0.775 OA
HETATM   48  H27 UNL     1      -2.363  51.923 -28.923  1.00  0.00     0.167 HD
ENDBRANCH  45  47
ENDBRANCH  37  45
ENDBRANCH  35  37
ENDBRANCH  32  33
BRANCH  32  49
HETATM   49  C26 UNL     1       1.320  52.519 -25.831  1.00  0.00     0.009 C 
HETATM   50  C27 UNL     1       0.531  53.133 -26.991  1.00  0.00     0.012 C 
HETATM   51  C28 UNL     1       2.252  51.421 -26.346  1.00  0.00     0.012 C 
ENDBRANCH  32  49
ENDBRANCH  30  32
ENDBRANCH  27  28
ENDBRANCH  26  27
ENDBRANCH  13  26
TORSDOF 12
ENDMDL
MODEL 7
REMARK minimizedAffinity -8.665205
REMARK CNNscore 0.289034635
REMARK CNNaffinity 6.30124092
REMARK  12 active torsions:
REMARK  status: ('A' for Active; 'I' for Inactive)
REMARK    1  A    between atoms: C3_3  and  O1_4 
REMARK    2  A    between atoms: N1_14  and  O2_16 
REMARK    3  A    between atoms: O2_16  and  C13_17 
REMARK    4  A    between atoms: C13_17  and  C14_18 
REMARK       I    between atoms: C14_18  and  N2_20 
REMARK    5  A    between atoms: N2_20  and  C15_21 
REMARK    6  A    between atoms: C15_21  and  C16_22 
REMARK    7  A    between atoms: C15_21  and  C26_36 
REMARK       I    between atoms: C16_22  and  N3_24 
REMARK    8  A    between atoms: N3_24  and  C17_25 
REMARK    9  A    between atoms: C17_25  and  C18_26 
REMARK   10  A    between atoms: C17_25  and  C25_33 
REMARK   11  A    between atoms: C18_26  and  C19_27 
REMARK   12  A    between atoms: C25_33  and  O6_35 
ROOT
HETATM    1  C1  UNL     1       0.516  51.320 -17.675  1.00  0.00     0.015 C 
HETATM    2  C2  UNL     1      -0.348  50.563 -18.029  1.00  0.00    -0.078 C 
HETATM    3  C3  UNL     1      -1.424  49.627 -18.433  1.00  0.00     0.128 C 
HETATM    4  C4  UNL     1      -2.771  50.137 -17.899  1.00  0.00     0.052 C 
HETATM    5  C5  UNL     1      -3.426  50.895 -19.060  1.00  0.00     0.010 C 
HETATM    6  C6  UNL     1      -2.438  50.842 -20.250  1.00  0.00     0.002 C 
HETATM    7  C7  UNL     1      -3.041  50.980 -21.680  1.00  0.00    -0.004 C 
HETATM    8  C8  UNL     1      -4.299  51.875 -21.666  1.00  0.00     0.010 C 
HETATM    9  C9  UNL     1      -4.985  52.001 -23.017  1.00  0.00     0.035 C 
HETATM   10  C10 UNL     1      -5.302  50.614 -23.510  1.00  0.00    -0.069 C 
HETATM   11  C11 UNL     1      -6.578  50.230 -23.669  1.00  0.00     0.030 C 
HETATM   12  C12 UNL     1      -6.933  48.823 -23.980  1.00  0.00     0.032 C 
HETATM   13  N1  UNL     1      -8.168  48.575 -24.306  1.00  0.00    -0.271 N 
ATOM     14  H1  UNL     1      -8.879  49.296 -24.421  1.00  0.00     0.194 HD
HETATM   15  C29 UNL     1      -5.843  47.788 -23.821  1.00  0.00     0.060 C 
HETATM   16  C30 UNL     1      -4.514  48.339 -24.331  1.00  0.00     0.020 C 
HETATM   17  C31 UNL     1      -4.093  49.720 -23.741  1.00  0.00    -0.016 C 
HETATM   18  C32 UNL     1      -3.194  50.365 -24.841  1.00  0.00     0.020 C 
HETATM   19  C33 UNL     1      -3.223  49.615 -22.427  1.00  0.00     0.002 C 
HETATM   20  C34 UNL     1      -3.608  48.531 -21.418  1.00  0.00     0.007 C 
HETATM   21  C35 UNL     1      -2.515  48.296 -20.356  1.00  0.00     0.014 C 
HETATM   22  C36 UNL     1      -1.651  49.542 -19.979  1.00  0.00     0.003 C 
HETATM   23  C37 UNL     1      -0.306  49.485 -20.736  1.00  0.00     0.020 C 
ENDROOT
BRANCH   3  24
HETATM   24  O1  UNL     1      -1.123  48.350 -17.886  1.00  0.00    -0.377 OA
HETATM   25  H2  UNL     1      -0.941  48.484 -16.939  1.00  0.00     0.211 HD
ENDBRANCH   3  24
BRANCH  13  26
HETATM   26  O2  UNL     1      -8.410  47.206 -24.484  1.00  0.00    -0.271 OA
BRANCH  26  27
HETATM   27  C13 UNL     1      -8.767  46.987 -25.844  1.00  0.00     0.303 C 
BRANCH  27  28
HETATM   28  C14 UNL     1     -10.279  47.019 -26.038  1.00  0.00     0.244 C 
HETATM   29  O3  UNL     1     -10.972  47.955 -25.644  1.00  0.00    -0.271 OA
HETATM   30  N2  UNL     1     -10.804  45.873 -26.606  1.00  0.00    -0.346 N 
HETATM   31  H16 UNL     1     -10.158  45.354 -27.198  1.00  0.00     0.163 HD
BRANCH  30  32
HETATM   32  C15 UNL     1     -12.222  45.789 -26.959  1.00  0.00     0.180 C 
BRANCH  32  33
HETATM   33  C16 UNL     1     -13.023  46.534 -25.865  1.00  0.00     0.241 C 
HETATM   34  O4  UNL     1     -13.434  47.683 -26.021  1.00  0.00    -0.271 OA
HETATM   35  N3  UNL     1     -13.243  45.814 -24.716  1.00  0.00    -0.345 N 
HETATM   36  H18 UNL     1     -13.121  44.809 -24.752  1.00  0.00     0.163 HD
BRANCH  35  37
HETATM   37  C17 UNL     1     -14.082  46.325 -23.628  1.00  0.00     0.186 C 
BRANCH  37  38
HETATM   38  C18 UNL     1     -15.233  47.200 -24.157  1.00  0.00     0.074 C 
BRANCH  38  39
HETATM   39  C19 UNL     1     -16.618  46.653 -23.882  1.00  0.00    -0.056 A 
HETATM   40  C20 UNL     1     -17.016  46.379 -22.565  1.00  0.00     0.007 A 
HETATM   41  C21 UNL     1     -18.282  45.855 -22.302  1.00  0.00     0.001 A 
HETATM   42  C22 UNL     1     -19.161  45.596 -23.351  1.00  0.00     0.000 A 
HETATM   43  C23 UNL     1     -18.775  45.866 -24.663  1.00  0.00     0.001 A 
HETATM   44  C24 UNL     1     -17.509  46.393 -24.929  1.00  0.00     0.007 A 
ENDBRANCH  38  39
ENDBRANCH  37  38
BRANCH  37  45
HETATM   45  C25 UNL     1     -13.277  47.086 -22.570  1.00  0.00     0.163 C 
HETATM   46  O5  UNL     1     -13.729  47.891 -21.770  1.00  0.00    -0.648 OA
BRANCH  45  47
HETATM   47  O6  UNL     1     -11.954  46.820 -22.575  1.00  0.00    -0.775 OA
HETATM   48  H27 UNL     1     -11.602  47.365 -21.841  1.00  0.00     0.167 HD
ENDBRANCH  45  47
ENDBRANCH  37  45
ENDBRANCH  35  37
ENDBRANCH  32  33
BRANCH  32  49
HETATM   49  C26 UNL     1     -12.447  46.333 -28.388  1.00  0.00     0.009 C 
HETATM   50  C27 UNL     1     -12.113  47.819 -28.541  1.00  0.00     0.012 C 
HETATM   51  C28 UNL     1     -13.863  46.053 -28.895  1.00  0.00     0.012 C 
ENDBRANCH  32  49
ENDBRANCH  30  32
ENDBRANCH  27  28
ENDBRANCH  26  27
ENDBRANCH  13  26
TORSDOF 12
ENDMDL
MODEL 8
REMARK minimizedAffinity -9.17588139
REMARK CNNscore 0.283430547
REMARK CNNaffinity 6.55659866
REMARK  12 active torsions:
REMARK  status: ('A' for Active; 'I' for Inactive)
REMARK    1  A    between atoms: C3_3  and  O1_4 
REMARK    2  A    between atoms: N1_14  and  O2_16 
REMARK    3  A    between atoms: O2_16  and  C13_17 
REMARK    4  A    between atoms: C13_17  and  C14_18 
REMARK       I    between atoms: C14_18  and  N2_20 
REMARK    5  A    between atoms: N2_20  and  C15_21 
REMARK    6  A    between atoms: C15_21  and  C16_22 
REMARK    7  A    between atoms: C15_21  and  C26_36 
REMARK       I    between atoms: C16_22  and  N3_24 
REMARK    8  A    between atoms: N3_24  and  C17_25 
REMARK    9  A    between atoms: C17_25  and  C18_26 
REMARK   10  A    between atoms: C17_25  and  C25_33 
REMARK   11  A    between atoms: C18_26  and  C19_27 
REMARK   12  A    between atoms: C25_33  and  O6_35 
ROOT
HETATM    1  C1  UNL     1       0.496  51.814 -27.215  1.00  0.00     0.015 C 
HETATM    2  C2  UNL     1      -0.636  51.802 -26.813  1.00  0.00    -0.078 C 
HETATM    3  C3  UNL     1      -2.045  51.781 -26.350  1.00  0.00     0.128 C 
HETATM    4  C4  UNL     1      -2.729  50.501 -26.854  1.00  0.00     0.052 C 
HETATM    5  C5  UNL     1      -2.662  49.501 -25.694  1.00  0.00     0.010 C 
HETATM    6  C6  UNL     1      -1.912  50.201 -24.534  1.00  0.00     0.002 C 
HETATM    7  C7  UNL     1      -2.209  49.698 -23.090  1.00  0.00    -0.004 C 
HETATM    8  C8  UNL     1      -2.549  48.191 -23.089  1.00  0.00     0.010 C 
HETATM    9  C9  UNL     1      -2.918  47.641 -21.720  1.00  0.00     0.035 C 
HETATM   10  C10 UNL     1      -4.058  48.463 -21.180  1.00  0.00    -0.069 C 
HETATM   11  C11 UNL     1      -5.257  47.897 -20.970  1.00  0.00     0.030 C 
HETATM   12  C12 UNL     1      -6.446  48.709 -20.610  1.00  0.00     0.032 C 
HETATM   13  N1  UNL     1      -7.517  48.069 -20.237  1.00  0.00    -0.271 N 
ATOM     14  H1  UNL     1      -7.561  47.058 -20.120  1.00  0.00     0.194 HD
HETATM   15  C29 UNL     1      -6.332  50.207 -20.775  1.00  0.00     0.060 C 
HETATM   16  C30 UNL     1      -4.955  50.684 -20.323  1.00  0.00     0.020 C 
HETATM   17  C31 UNL     1      -3.746  49.936 -20.964  1.00  0.00    -0.016 C 
HETATM   18  C32 UNL     1      -2.601  50.057 -19.911  1.00  0.00     0.020 C 
HETATM   19  C33 UNL     1      -3.224  50.594 -22.301  1.00  0.00     0.002 C 
HETATM   20  C34 UNL     1      -4.276  51.142 -23.268  1.00  0.00     0.007 C 
HETATM   21  C35 UNL     1      -3.664  52.046 -24.358  1.00  0.00     0.014 C 
HETATM   22  C36 UNL     1      -2.206  51.694 -24.796  1.00  0.00     0.003 C 
HETATM   23  C37 UNL     1      -1.211  52.635 -24.080  1.00  0.00     0.020 C 
ENDROOT
BRANCH   3  24
HETATM   24  O1  UNL     1      -2.695  52.932 -26.872  1.00  0.00    -0.377 OA
HETATM   25  H2  UNL     1      -2.510  52.952 -27.827  1.00  0.00     0.211 HD
ENDBRANCH   3  24
BRANCH  13  26
HETATM   26  O2  UNL     1      -8.603  48.928 -20.015  1.00  0.00    -0.271 OA
BRANCH  26  27
HETATM   27  C13 UNL     1      -9.112  48.676 -18.711  1.00  0.00     0.303 C 
BRANCH  27  28
HETATM   28  C14 UNL     1     -10.424  47.901 -18.761  1.00  0.00     0.244 C 
HETATM   29  O3  UNL     1     -11.341  48.210 -19.521  1.00  0.00    -0.271 OA
HETATM   30  N2  UNL     1     -10.525  46.892 -17.822  1.00  0.00    -0.346 N 
HETATM   31  H16 UNL     1      -9.636  46.500 -17.518  1.00  0.00     0.163 HD
BRANCH  30  32
HETATM   32  C15 UNL     1     -11.674  45.985 -17.811  1.00  0.00     0.180 C 
BRANCH  32  33
HETATM   33  C16 UNL     1     -12.952  46.848 -17.681  1.00  0.00     0.241 C 
HETATM   34  O4  UNL     1     -13.168  47.555 -16.697  1.00  0.00    -0.271 OA
HETATM   35  N3  UNL     1     -13.817  46.769 -18.744  1.00  0.00    -0.345 N 
HETATM   36  H18 UNL     1     -13.465  46.395 -19.618  1.00  0.00     0.163 HD
BRANCH  35  37
HETATM   37  C17 UNL     1     -15.015  47.608 -18.836  1.00  0.00     0.186 C 
BRANCH  37  38
HETATM   38  C18 UNL     1     -15.922  47.181 -20.005  1.00  0.00     0.074 C 
BRANCH  38  39
HETATM   39  C19 UNL     1     -17.195  46.474 -19.589  1.00  0.00    -0.056 A 
HETATM   40  C20 UNL     1     -18.399  47.189 -19.500  1.00  0.00     0.007 A 
HETATM   41  C21 UNL     1     -19.572  46.553 -19.097  1.00  0.00     0.001 A 
HETATM   42  C22 UNL     1     -19.556  45.198 -18.776  1.00  0.00     0.000 A 
HETATM   43  C23 UNL     1     -18.365  44.478 -18.862  1.00  0.00     0.001 A 
HETATM   44  C24 UNL     1     -17.189  45.112 -19.268  1.00  0.00     0.007 A 
ENDBRANCH  38  39
ENDBRANCH  37  38
BRANCH  37  45
HETATM   45  C25 UNL     1     -14.684  49.100 -18.935  1.00  0.00     0.163 C 
HETATM   46  O5  UNL     1     -15.093  49.974 -18.186  1.00  0.00    -0.648 OA
BRANCH  45  47
HETATM   47  O6  UNL     1     -13.880  49.428 -19.969  1.00  0.00    -0.775 OA
HETATM   48  H27 UNL     1     -13.759  50.396 -19.874  1.00  0.00     0.167 HD
ENDBRANCH  45  47
ENDBRANCH  37  45
ENDBRANCH  35  37
ENDBRANCH  32  33
BRANCH  32  49
HETATM   49  C26 UNL     1     -11.649  45.079 -19.063  1.00  0.00     0.009 C 
HETATM   50  C27 UNL     1     -12.764  44.031 -19.087  1.00  0.00     0.012 C 
HETATM   51  C28 UNL     1     -10.288  44.411 -19.262  1.00  0.00     0.012 C 
ENDBRANCH  32  49
ENDBRANCH  30  32
ENDBRANCH  27  28
ENDBRANCH  26  27
ENDBRANCH  13  26
TORSDOF 12
ENDMDL
MODEL 9
REMARK minimizedAffinity -9.65231133
REMARK CNNscore 0.281524539
REMARK CNNaffinity 7.12210035
REMARK  12 active torsions:
REMARK  status: ('A' for Active; 'I' for Inactive)
REMARK    1  A    between atoms: C3_3  and  O1_4 
REMARK    2  A    between atoms: N1_14  and  O2_16 
REMARK    3  A    between atoms: O2_16  and  C13_17 
REMARK    4  A    between atoms: C13_17  and  C14_18 
REMARK       I    between atoms: C14_18  and  N2_20 
REMARK    5  A    between atoms: N2_20  and  C15_21 
REMARK    6  A    between atoms: C15_21  and  C16_22 
REMARK    7  A    between atoms: C15_21  and  C26_36 
REMARK       I    between atoms: C16_22  and  N3_24 
REMARK    8  A    between atoms: N3_24  and  C17_25 
REMARK    9  A    between atoms: C17_25  and  C18_26 
REMARK   10  A    between atoms: C17_25  and  C25_33 
REMARK   11  A    between atoms: C18_26  and  C19_27 
REMARK   12  A    between atoms: C25_33  and  O6_35 
ROOT
HETATM    1  C1  UNL     1      -1.687  52.056  -7.876  1.00  0.00     0.015 C 
HETATM    2  C2  UNL     1      -1.987  52.329  -9.007  1.00  0.00    -0.078 C 
HETATM    3  C3  UNL     1      -2.362  52.700 -10.392  1.00  0.00     0.128 C 
HETATM    4  C4  UNL     1      -1.507  53.891 -10.851  1.00  0.00     0.052 C 
HETATM    5  C5  UNL     1      -0.349  53.294 -11.659  1.00  0.00     0.010 C 
HETATM    6  C6  UNL     1      -0.527  51.756 -11.638  1.00  0.00     0.002 C 
HETATM    7  C7  UNL     1       0.101  50.951 -12.815  1.00  0.00    -0.004 C 
HETATM    8  C8  UNL     1       1.375  51.646 -13.342  1.00  0.00     0.010 C 
HETATM    9  C9  UNL     1       2.008  50.955 -14.539  1.00  0.00     0.035 C 
HETATM   10  C10 UNL     1       0.961  50.835 -15.615  1.00  0.00    -0.069 C 
HETATM   11  C11 UNL     1       1.113  51.485 -16.780  1.00  0.00     0.030 C 
HETATM   12  C12 UNL     1       0.026  51.536 -17.789  1.00  0.00     0.032 C 
HETATM   13  N1  UNL     1       0.320  52.017 -18.961  1.00  0.00    -0.271 N 
ATOM     14  H1  UNL     1       1.260  52.298 -19.240  1.00  0.00     0.194 HD
HETATM   15  C29 UNL     1      -1.347  51.089 -17.343  1.00  0.00     0.060 C 
HETATM   16  C30 UNL     1      -1.236  49.858 -16.447  1.00  0.00     0.020 C 
HETATM   17  C31 UNL     1      -0.252  49.996 -15.245  1.00  0.00    -0.016 C 
HETATM   18  C32 UNL     1       0.219  48.537 -14.948  1.00  0.00     0.020 C 
HETATM   19  C33 UNL     1      -0.926  50.547 -13.927  1.00  0.00     0.002 C 
HETATM   20  C34 UNL     1      -1.967  51.657 -14.086  1.00  0.00     0.007 C 
HETATM   21  C35 UNL     1      -2.792  51.883 -12.803  1.00  0.00     0.014 C 
HETATM   22  C36 UNL     1      -2.052  51.595 -11.457  1.00  0.00     0.003 C 
HETATM   23  C37 UNL     1      -2.451  50.196 -10.937  1.00  0.00     0.020 C 
ENDROOT
BRANCH   3  24
HETATM   24  O1  UNL     1      -3.741  53.047 -10.396  1.00  0.00    -0.377 OA
HETATM   25  H2  UNL     1      -3.871  53.693  -9.680  1.00  0.00     0.211 HD
ENDBRANCH   3  24
BRANCH  13  26
HETATM   26  O2  UNL     1      -0.800  52.107 -19.800  1.00  0.00    -0.271 OA
BRANCH  26  27
HETATM   27  C13 UNL     1      -0.347  52.327 -21.130  1.00  0.00     0.303 C 
BRANCH  27  28
HETATM   28  C14 UNL     1      -1.192  51.564 -22.144  1.00  0.00     0.244 C 
HETATM   29  O3  UNL     1      -0.715  51.091 -23.174  1.00  0.00    -0.271 OA
HETATM   30  N2  UNL     1      -2.543  51.532 -21.849  1.00  0.00    -0.346 N 
HETATM   31  H16 UNL     1      -2.767  51.617 -20.860  1.00  0.00     0.163 HD
BRANCH  30  32
HETATM   32  C15 UNL     1      -3.472  50.747 -22.663  1.00  0.00     0.180 C 
BRANCH  32  33
HETATM   33  C16 UNL     1      -3.106  50.977 -24.148  1.00  0.00     0.241 C 
HETATM   34  O4  UNL     1      -3.238  52.071 -24.694  1.00  0.00    -0.271 OA
HETATM   35  N3  UNL     1      -2.619  49.872 -24.804  1.00  0.00    -0.345 N 
HETATM   36  H18 UNL     1      -2.286  49.094 -24.246  1.00  0.00     0.163 HD
BRANCH  35  37
HETATM   37  C17 UNL     1      -2.116  49.943 -26.179  1.00  0.00     0.186 C 
BRANCH  37  38
HETATM   38  C18 UNL     1      -1.651  51.364 -26.543  1.00  0.00     0.074 C 
BRANCH  38  39
HETATM   39  C19 UNL     1      -0.175  51.482 -26.863  1.00  0.00    -0.056 A 
HETATM   40  C20 UNL     1       0.236  51.979 -28.108  1.00  0.00     0.007 A 
HETATM   41  C21 UNL     1       1.592  52.071 -28.421  1.00  0.00     0.001 A 
HETATM   42  C22 UNL     1       2.551  51.666 -27.496  1.00  0.00     0.000 A 
HETATM   43  C23 UNL     1       2.152  51.171 -26.255  1.00  0.00     0.001 A 
HETATM   44  C24 UNL     1       0.795  51.079 -25.938  1.00  0.00     0.007 A 
ENDBRANCH  38  39
ENDBRANCH  37  38
BRANCH  37  45
HETATM   45  C25 UNL     1      -3.131  49.434 -27.205  1.00  0.00     0.163 C 
HETATM   46  O5  UNL     1      -3.540  48.287 -27.299  1.00  0.00    -0.648 OA
BRANCH  45  47
HETATM   47  O6  UNL     1      -3.569  50.372 -28.073  1.00  0.00    -0.775 OA
HETATM   48  H27 UNL     1      -4.211  49.890 -28.635  1.00  0.00     0.167 HD
ENDBRANCH  45  47
ENDBRANCH  37  45
ENDBRANCH  35  37
ENDBRANCH  32  33
BRANCH  32  49
HETATM   49  C26 UNL     1      -3.440  49.264 -22.226  1.00  0.00     0.009 C 
HETATM   50  C27 UNL     1      -2.080  48.809 -21.693  1.00  0.00     0.012 C 
HETATM   51  C28 UNL     1      -3.916  48.326 -23.337  1.00  0.00     0.012 C 
ENDBRANCH  32  49
ENDBRANCH  30  32
ENDBRANCH  27  28
ENDBRANCH  26  27
ENDBRANCH  13  26
TORSDOF 12
ENDMDL
