MODEL 1
REMARK minimizedAffinity -10.4518728
REMARK CNNscore 0.594009399
REMARK CNNaffinity 7.60625887
REMARK  14 active torsions:
REMARK  status: ('A' for Active; 'I' for Inactive)
REMARK    1  A    between atoms: C19_20  and  O2_21 
REMARK    2  A    between atoms: C19_20  and  C20_22 
REMARK    3  A    between atoms: C20_22  and  C21_24 
REMARK    4  A    between atoms: C21_24  and  O4_25 
REMARK    5  A    between atoms: O4_25  and  C22_26 
REMARK    6  A    between atoms: C22_26  and  C23_28 
REMARK    7  A    between atoms: C23_28  and  C24_29 
REMARK    8  A    between atoms: C24_29  and  C25_30 
REMARK       I    between atoms: C25_30  and  N1_32 
REMARK    9  A    between atoms: N1_32  and  C26_33 
REMARK   10  A    between atoms: C26_33  and  C27_34 
REMARK   11  A    between atoms: C26_33  and  C36_45 
REMARK   12  A    between atoms: C27_34  and  C28_35 
REMARK   13  A    between atoms: C33_41  and  O7_42 
REMARK   14  A    between atoms: C36_45  and  O9_47 
ROOT
HETATM    1  O4  UNL     1      -0.854   9.214  16.987  1.00  0.00    -0.314 OA
ENDROOT
BRANCH   1   2
HETATM    2  C21 UNL     1      -1.051   9.321  15.583  1.00  0.00     0.260 C 
BRANCH   2   3
HETATM    3  C20 UNL     1      -1.025   7.957  14.904  1.00  0.00     0.185 C 
HETATM    4  O3  UNL     1      -0.052   7.210  15.058  1.00  0.00    -0.292 OA
BRANCH   3   5
HETATM    5  C19 UNL     1      -2.238   7.528  14.038  1.00  0.00     0.128 C 
HETATM    6  C14 UNL     1      -3.580   7.277  14.796  1.00  0.00    -0.002 C 
HETATM    7  C13 UNL     1      -4.417   8.516  15.170  1.00  0.00     0.013 C 
HETATM    8  C15 UNL     1      -3.323   6.430  16.075  1.00  0.00     0.019 C 
HETATM    9  C16 UNL     1      -4.362   6.499  13.694  1.00  0.00     0.002 C 
HETATM   10  C12 UNL     1      -5.861   8.158  15.580  1.00  0.00     0.007 C 
HETATM   11  C11 UNL     1      -6.583   7.315  14.506  1.00  0.00     0.002 C 
HETATM   12  C2  UNL     1      -8.076   6.958  14.813  1.00  0.00    -0.016 C 
HETATM   13  C10 UNL     1      -5.751   6.040  14.158  1.00  0.00    -0.004 C 
HETATM   14  C1  UNL     1      -8.193   5.953  15.983  1.00  0.00     0.020 C 
HETATM   15  C3  UNL     1      -8.893   8.231  15.156  1.00  0.00     0.022 C 
HETATM   16  C7  UNL     1      -8.678   6.343  13.545  1.00  0.00    -0.068 C 
HETATM   17  C4  UNL     1     -10.396   7.974  15.275  1.00  0.00     0.084 C 
HETATM   18  C5  UNL     1     -10.937   7.154  14.128  1.00  0.00     0.149 C 
HETATM   19  O1  UNL     1     -12.143   7.066  13.907  1.00  0.00    -0.293 OA
HETATM   20  C6  UNL     1      -9.989   6.426  13.252  1.00  0.00     0.053 C 
HETATM   21  C8  UNL     1      -7.730   5.726  12.541  1.00  0.00     0.035 C 
HETATM   22  C9  UNL     1      -6.479   5.113  13.163  1.00  0.00     0.010 C 
HETATM   23  C17 UNL     1      -3.358   5.456  13.220  1.00  0.00     0.009 C 
HETATM   24  C18 UNL     1      -1.990   6.158  13.333  1.00  0.00     0.047 C 
BRANCH   5  25
HETATM   25  O2  UNL     1      -2.438   8.497  13.000  1.00  0.00    -0.381 OA
HETATM   26  H27 UNL     1      -1.622   8.523  12.467  1.00  0.00     0.211 HD
ENDBRANCH   5  25
ENDBRANCH   3   5
ENDBRANCH   2   3
ENDBRANCH   1   2
BRANCH   1  27
HETATM   27  C22 UNL     1      -0.825  10.403  17.644  1.00  0.00     0.259 C 
HETATM   28  O5  UNL     1      -1.804  11.109  17.847  1.00  0.00    -0.265 OA
BRANCH  27  29
HETATM   29  C23 UNL     1       0.584  10.830  17.985  1.00  0.00     0.120 C 
BRANCH  29  30
HETATM   30  C24 UNL     1       0.833  11.117  19.462  1.00  0.00     0.112 C 
BRANCH  30  31
HETATM   31  C25 UNL     1       2.013  10.334  19.999  1.00  0.00     0.218 C 
HETATM   32  O6  UNL     1       2.727   9.628  19.302  1.00  0.00    -0.274 OA
HETATM   33  N1  UNL     1       2.207  10.509  21.352  1.00  0.00    -0.346 N 
HETATM   34  H34 UNL     1       1.390  10.783  21.885  1.00  0.00     0.163 HD
BRANCH  33  35
HETATM   35  C26 UNL     1       3.179   9.665  22.068  1.00  0.00     0.186 C 
BRANCH  35  36
HETATM   36  C27 UNL     1       3.917  10.488  23.131  1.00  0.00     0.077 C 
BRANCH  36  37
HETATM   37  C28 UNL     1       4.179  11.904  22.724  1.00  0.00    -0.028 A 
HETATM   38  C29 UNL     1       3.256  12.792  22.208  1.00  0.00     0.096 A 
HETATM   39  N2  UNL     1       3.889  13.984  21.974  1.00  0.00    -0.365 N 
HETATM   40  C30 UNL     1       5.216  13.893  22.320  1.00  0.00     0.043 A 
HETATM   41  H39 UNL     1       3.450  14.814  21.599  1.00  0.00     0.165 HD
HETATM   42  C31 UNL     1       6.233  14.856  22.253  1.00  0.00     0.033 A 
HETATM   43  C35 UNL     1       5.431  12.598  22.791  1.00  0.00     0.001 A 
HETATM   44  C32 UNL     1       7.511  14.481  22.679  1.00  0.00     0.039 A 
HETATM   45  C33 UNL     1       7.746  13.193  23.147  1.00  0.00     0.066 A 
HETATM   46  C34 UNL     1       6.728  12.243  23.215  1.00  0.00     0.050 A 
BRANCH  45  47
HETATM   47  O7  UNL     1       8.991  12.811  23.561  1.00  0.00    -0.361 OA
HETATM   48  H42 UNL     1       9.590  13.571  23.488  1.00  0.00     0.217 HD
ENDBRANCH  45  47
ENDBRANCH  36  37
ENDBRANCH  35  36
BRANCH  35  49
HETATM   49  C36 UNL     1       2.381   8.552  22.744  1.00  0.00     0.163 C 
HETATM   50  O8  UNL     1       1.798   7.644  22.166  1.00  0.00    -0.648 OA
BRANCH  49  51
HETATM   51  O9  UNL     1       2.365   8.631  24.087  1.00  0.00    -0.775 OA
HETATM   52  H44 UNL     1       1.863   7.846  24.381  1.00  0.00     0.167 HD
ENDBRANCH  49  51
ENDBRANCH  35  49
ENDBRANCH  33  35
ENDBRANCH  30  31
ENDBRANCH  29  30
ENDBRANCH  27  29
ENDBRANCH   1  27
TORSDOF 14
ENDMDL
MODEL 2
REMARK minimizedAffinity -10.7721176
REMARK CNNscore 0.591492414
REMARK CNNaffinity 6.78208685
REMARK  14 active torsions:
REMARK  status: ('A' for Active; 'I' for Inactive)
REMARK    1  A    between atoms: C19_20  and  O2_21 
REMARK    2  A    between atoms: C19_20  and  C20_22 
REMARK    3  A    between atoms: C20_22  and  C21_24 
REMARK    4  A    between atoms: C21_24  and  O4_25 
REMARK    5  A    between atoms: O4_25  and  C22_26 
REMARK    6  A    between atoms: C22_26  and  C23_28 
REMARK    7  A    between atoms: C23_28  and  C24_29 
REMARK    8  A    between atoms: C24_29  and  C25_30 
REMARK       I    between atoms: C25_30  and  N1_32 
REMARK    9  A    between atoms: N1_32  and  C26_33 
REMARK   10  A    between atoms: C26_33  and  C27_34 
REMARK   11  A    between atoms: C26_33  and  C36_45 
REMARK   12  A    between atoms: C27_34  and  C28_35 
REMARK   13  A    between atoms: C33_41  and  O7_42 
REMARK   14  A    between atoms: C36_45  and  O9_47 
ROOT
HETATM    1  O4  UNL     1      -1.381  11.011  17.491  1.00  0.00    -0.314 OA
ENDROOT
BRANCH   1   2
HETATM    2  C21 UNL     1      -2.526  10.202  17.733  1.00  0.00     0.260 C 
BRANCH   2   3
HETATM    3  C20 UNL     1      -3.111   9.653  16.437  1.00  0.00     0.185 C 
HETATM    4  O3  UNL     1      -4.061  10.232  15.897  1.00  0.00    -0.292 OA
BRANCH   3   5
HETATM    5  C19 UNL     1      -2.490   8.375  15.816  1.00  0.00     0.128 C 
HETATM    6  C14 UNL     1      -1.787   8.547  14.432  1.00  0.00    -0.002 C 
HETATM    7  C13 UNL     1      -0.353   9.115  14.439  1.00  0.00     0.013 C 
HETATM    8  C15 UNL     1      -2.671   9.405  13.484  1.00  0.00     0.019 C 
HETATM    9  C16 UNL     1      -1.695   7.052  13.998  1.00  0.00     0.002 C 
HETATM   10  C12 UNL     1       0.375   8.911  13.095  1.00  0.00     0.007 C 
HETATM   11  C11 UNL     1       0.376   7.433  12.647  1.00  0.00     0.002 C 
HETATM   12  C2  UNL     1       1.148   7.124  11.320  1.00  0.00    -0.016 C 
HETATM   13  C10 UNL     1      -1.081   6.871  12.603  1.00  0.00    -0.004 C 
HETATM   14  C1  UNL     1       0.423   7.717  10.088  1.00  0.00     0.020 C 
HETATM   15  C3  UNL     1       2.593   7.685  11.375  1.00  0.00     0.022 C 
HETATM   16  C7  UNL     1       1.242   5.602  11.179  1.00  0.00    -0.068 C 
HETATM   17  C4  UNL     1       3.458   7.250  10.192  1.00  0.00     0.084 C 
HETATM   18  C5  UNL     1       3.355   5.769   9.911  1.00  0.00     0.149 C 
HETATM   19  O1  UNL     1       4.159   5.190   9.183  1.00  0.00    -0.293 OA
HETATM   20  C6  UNL     1       2.246   4.997  10.519  1.00  0.00     0.053 C 
HETATM   21  C8  UNL     1       0.222   4.760  11.914  1.00  0.00     0.035 C 
HETATM   22  C9  UNL     1      -1.142   5.428  12.065  1.00  0.00     0.010 C 
HETATM   23  C17 UNL     1      -3.099   6.522  14.263  1.00  0.00     0.009 C 
HETATM   24  C18 UNL     1      -3.574   7.295  15.509  1.00  0.00     0.047 C 
BRANCH   5  25
HETATM   25  O2  UNL     1      -1.579   7.791  16.757  1.00  0.00    -0.381 OA
HETATM   26  H27 UNL     1      -2.091   7.575  17.559  1.00  0.00     0.211 HD
ENDBRANCH   5  25
ENDBRANCH   3   5
ENDBRANCH   2   3
ENDBRANCH   1   2
BRANCH   1  27
HETATM   27  C22 UNL     1      -0.228  10.529  18.023  1.00  0.00     0.259 C 
HETATM   28  O5  UNL     1       0.543   9.774  17.443  1.00  0.00    -0.265 OA
BRANCH  27  29
HETATM   29  C23 UNL     1      -0.063  10.920  19.473  1.00  0.00     0.120 C 
BRANCH  29  30
HETATM   30  C24 UNL     1       1.277  11.560  19.821  1.00  0.00     0.112 C 
BRANCH  30  31
HETATM   31  C25 UNL     1       2.306  10.529  20.235  1.00  0.00     0.218 C 
HETATM   32  O6  UNL     1       2.854   9.770  19.449  1.00  0.00    -0.274 OA
HETATM   33  N1  UNL     1       2.570  10.541  21.588  1.00  0.00    -0.346 N 
HETATM   34  H34 UNL     1       1.835  10.911  22.179  1.00  0.00     0.163 HD
BRANCH  33  35
HETATM   35  C26 UNL     1       3.389   9.472  22.185  1.00  0.00     0.186 C 
BRANCH  35  36
HETATM   36  C27 UNL     1       4.459  10.072  23.103  1.00  0.00     0.077 C 
BRANCH  36  37
HETATM   37  C28 UNL     1       4.545  11.564  23.039  1.00  0.00    -0.028 A 
HETATM   38  C29 UNL     1       3.482  12.443  22.954  1.00  0.00     0.096 A 
HETATM   39  N2  UNL     1       3.979  13.718  22.924  1.00  0.00    -0.365 N 
HETATM   40  C30 UNL     1       5.352  13.695  22.979  1.00  0.00     0.043 A 
HETATM   41  H39 UNL     1       3.423  14.560  22.868  1.00  0.00     0.165 HD
HETATM   42  C31 UNL     1       6.273  14.752  22.975  1.00  0.00     0.033 A 
HETATM   43  C35 UNL     1       5.739  12.356  23.048  1.00  0.00     0.001 A 
HETATM   44  C32 UNL     1       7.633  14.430  23.042  1.00  0.00     0.039 A 
HETATM   45  C33 UNL     1       8.038  13.101  23.105  1.00  0.00     0.066 A 
HETATM   46  C34 UNL     1       7.115  12.056  23.113  1.00  0.00     0.050 A 
BRANCH  45  47
HETATM   47  O7  UNL     1       9.362  12.771  23.163  1.00  0.00    -0.361 OA
HETATM   48  H42 UNL     1       9.886  13.588  23.181  1.00  0.00     0.217 HD
ENDBRANCH  45  47
ENDBRANCH  36  37
ENDBRANCH  35  36
BRANCH  35  49
HETATM   49  C36 UNL     1       2.441   8.597  23.003  1.00  0.00     0.163 C 
HETATM   50  O8  UNL     1       2.268   8.675  24.213  1.00  0.00    -0.648 OA
BRANCH  49  51
HETATM   51  O9  UNL     1       1.767   7.692  22.272  1.00  0.00    -0.775 OA
HETATM   52  H44 UNL     1       1.178   7.240  22.908  1.00  0.00     0.167 HD
ENDBRANCH  49  51
ENDBRANCH  35  49
ENDBRANCH  33  35
ENDBRANCH  30  31
ENDBRANCH  29  30
ENDBRANCH  27  29
ENDBRANCH   1  27
TORSDOF 14
ENDMDL
MODEL 3
REMARK minimizedAffinity -11.4294376
REMARK CNNscore 0.583194911
REMARK CNNaffinity 6.8683219
REMARK  14 active torsions:
REMARK  status: ('A' for Active; 'I' for Inactive)
REMARK    1  A    between atoms: C19_20  and  O2_21 
REMARK    2  A    between atoms: C19_20  and  C20_22 
REMARK    3  A    between atoms: C20_22  and  C21_24 
REMARK    4  A    between atoms: C21_24  and  O4_25 
REMARK    5  A    between atoms: O4_25  and  C22_26 
REMARK    6  A    between atoms: C22_26  and  C23_28 
REMARK    7  A    between atoms: C23_28  and  C24_29 
REMARK    8  A    between atoms: C24_29  and  C25_30 
REMARK       I    between atoms: C25_30  and  N1_32 
REMARK    9  A    between atoms: N1_32  and  C26_33 
REMARK   10  A    between atoms: C26_33  and  C27_34 
REMARK   11  A    between atoms: C26_33  and  C36_45 
REMARK   12  A    between atoms: C27_34  and  C28_35 
REMARK   13  A    between atoms: C33_41  and  O7_42 
REMARK   14  A    between atoms: C36_45  and  O9_47 
ROOT
HETATM    1  O4  UNL     1      -0.295  10.740  16.779  1.00  0.00    -0.314 OA
ENDROOT
BRANCH   1   2
HETATM    2  C21 UNL     1       0.102  11.062  15.452  1.00  0.00     0.260 C 
BRANCH   2   3
HETATM    3  C20 UNL     1      -1.059  10.941  14.472  1.00  0.00     0.185 C 
HETATM    4  O3  UNL     1      -1.715  11.944  14.167  1.00  0.00    -0.292 OA
BRANCH   3   5
HETATM    5  C19 UNL     1      -1.388   9.552  13.866  1.00  0.00     0.128 C 
HETATM    6  C14 UNL     1      -2.670   8.843  14.408  1.00  0.00    -0.002 C 
HETATM    7  C13 UNL     1      -4.023   9.301  13.828  1.00  0.00     0.013 C 
HETATM    8  C15 UNL     1      -2.722   8.940  15.959  1.00  0.00     0.019 C 
HETATM    9  C16 UNL     1      -2.406   7.396  13.893  1.00  0.00     0.002 C 
HETATM   10  C12 UNL     1      -5.170   8.320  14.144  1.00  0.00     0.007 C 
HETATM   11  C11 UNL     1      -4.846   6.877  13.701  1.00  0.00     0.002 C 
HETATM   12  C2  UNL     1      -5.982   5.823  13.929  1.00  0.00    -0.016 C 
HETATM   13  C10 UNL     1      -3.494   6.402  14.322  1.00  0.00    -0.004 C 
HETATM   14  C1  UNL     1      -6.200   5.537  15.433  1.00  0.00     0.020 C 
HETATM   15  C3  UNL     1      -7.319   6.305  13.307  1.00  0.00     0.022 C 
HETATM   16  C7  UNL     1      -5.571   4.533  13.213  1.00  0.00    -0.068 C 
HETATM   17  C4  UNL     1      -8.416   5.239  13.327  1.00  0.00     0.084 C 
HETATM   18  C5  UNL     1      -7.928   3.896  12.838  1.00  0.00     0.149 C 
HETATM   19  O1  UNL     1      -8.708   2.995  12.534  1.00  0.00    -0.293 OA
HETATM   20  C6  UNL     1      -6.470   3.653  12.734  1.00  0.00     0.053 C 
HETATM   21  C8  UNL     1      -4.099   4.313  12.942  1.00  0.00     0.035 C 
HETATM   22  C9  UNL     1      -3.176   4.930  13.989  1.00  0.00     0.010 C 
HETATM   23  C17 UNL     1      -0.962   7.134  14.303  1.00  0.00     0.009 C 
HETATM   24  C18 UNL     1      -0.272   8.506  14.177  1.00  0.00     0.047 C 
BRANCH   5  25
HETATM   25  O2  UNL     1      -1.460   9.668  12.439  1.00  0.00    -0.381 OA
HETATM   26  H27 UNL     1      -0.592   9.985  12.130  1.00  0.00     0.211 HD
ENDBRANCH   5  25
ENDBRANCH   3   5
ENDBRANCH   2   3
ENDBRANCH   1   2
BRANCH   1  27
HETATM   27  C22 UNL     1       0.106  11.636  17.719  1.00  0.00     0.259 C 
HETATM   28  O5  UNL     1       0.650  12.705  17.473  1.00  0.00    -0.265 OA
BRANCH  27  29
HETATM   29  C23 UNL     1      -0.073  11.106  19.123  1.00  0.00     0.120 C 
BRANCH  29  30
HETATM   30  C24 UNL     1       0.943  11.614  20.140  1.00  0.00     0.112 C 
BRANCH  30  31
HETATM   31  C25 UNL     1       2.009  10.580  20.440  1.00  0.00     0.218 C 
HETATM   32  O6  UNL     1       2.376   9.737  19.635  1.00  0.00    -0.274 OA
HETATM   33  N1  UNL     1       2.529  10.694  21.711  1.00  0.00    -0.346 N 
HETATM   34  H34 UNL     1       1.932  11.141  22.396  1.00  0.00     0.163 HD
BRANCH  33  35
HETATM   35  C26 UNL     1       3.423   9.646  22.234  1.00  0.00     0.186 C 
BRANCH  35  36
HETATM   36  C27 UNL     1       4.425  10.248  23.227  1.00  0.00     0.077 C 
BRANCH  36  37
HETATM   37  C28 UNL     1       4.600  11.727  23.088  1.00  0.00    -0.028 A 
HETATM   38  C29 UNL     1       3.592  12.662  22.952  1.00  0.00     0.096 A 
HETATM   39  N2  UNL     1       4.165  13.902  22.862  1.00  0.00    -0.365 N 
HETATM   40  C30 UNL     1       5.534  13.800  22.926  1.00  0.00     0.043 A 
HETATM   41  H39 UNL     1       3.661  14.773  22.760  1.00  0.00     0.165 HD
HETATM   42  C31 UNL     1       6.517  14.798  22.875  1.00  0.00     0.033 A 
HETATM   43  C35 UNL     1       5.839  12.445  23.064  1.00  0.00     0.001 A 
HETATM   44  C32 UNL     1       7.855  14.399  22.966  1.00  0.00     0.039 A 
HETATM   45  C33 UNL     1       8.179  13.054  23.099  1.00  0.00     0.066 A 
HETATM   46  C34 UNL     1       7.195  12.067  23.153  1.00  0.00     0.050 A 
BRANCH  45  47
HETATM   47  O7  UNL     1       9.480  12.648  23.181  1.00  0.00    -0.361 OA
HETATM   48  H42 UNL     1      10.052  13.432  23.161  1.00  0.00     0.217 HD
ENDBRANCH  45  47
ENDBRANCH  36  37
ENDBRANCH  35  36
BRANCH  35  49
HETATM   49  C36 UNL     1       2.536   8.630  22.952  1.00  0.00     0.163 C 
HETATM   50  O8  UNL     1       2.348   8.578  24.161  1.00  0.00    -0.648 OA
BRANCH  49  51
HETATM   51  O9  UNL     1       1.937   7.753  22.127  1.00  0.00    -0.775 OA
HETATM   52  H44 UNL     1       1.378   7.200  22.709  1.00  0.00     0.167 HD
ENDBRANCH  49  51
ENDBRANCH  35  49
ENDBRANCH  33  35
ENDBRANCH  30  31
ENDBRANCH  29  30
ENDBRANCH  27  29
ENDBRANCH   1  27
TORSDOF 14
ENDMDL
MODEL 4
REMARK minimizedAffinity -10.2024908
REMARK CNNscore 0.410222352
REMARK CNNaffinity 6.86271811
REMARK  14 active torsions:
REMARK  status: ('A' for Active; 'I' for Inactive)
REMARK    1  A    between atoms: C19_20  and  O2_21 
REMARK    2  A    between atoms: C19_20  and  C20_22 
REMARK    3  A    between atoms: C20_22  and  C21_24 
REMARK    4  A    between atoms: C21_24  and  O4_25 
REMARK    5  A    between atoms: O4_25  and  C22_26 
REMARK    6  A    between atoms: C22_26  and  C23_28 
REMARK    7  A    between atoms: C23_28  and  C24_29 
REMARK    8  A    between atoms: C24_29  and  C25_30 
REMARK       I    between atoms: C25_30  and  N1_32 
REMARK    9  A    between atoms: N1_32  and  C26_33 
REMARK   10  A    between atoms: C26_33  and  C27_34 
REMARK   11  A    between atoms: C26_33  and  C36_45 
REMARK   12  A    between atoms: C27_34  and  C28_35 
REMARK   13  A    between atoms: C33_41  and  O7_42 
REMARK   14  A    between atoms: C36_45  and  O9_47 
ROOT
HETATM    1  O4  UNL     1      -0.041  12.253  16.188  1.00  0.00    -0.314 OA
ENDROOT
BRANCH   1   2
HETATM    2  C21 UNL     1       0.127  11.141  15.317  1.00  0.00     0.260 C 
BRANCH   2   3
HETATM    3  C20 UNL     1      -1.059  10.981  14.373  1.00  0.00     0.185 C 
HETATM    4  O3  UNL     1      -1.744  11.965  14.071  1.00  0.00    -0.292 OA
BRANCH   3   5
HETATM    5  C19 UNL     1      -1.376   9.575  13.799  1.00  0.00     0.128 C 
HETATM    6  C14 UNL     1      -2.659   8.874  14.348  1.00  0.00    -0.002 C 
HETATM    7  C13 UNL     1      -4.009   9.310  13.745  1.00  0.00     0.013 C 
HETATM    8  C15 UNL     1      -2.725   9.009  15.895  1.00  0.00     0.019 C 
HETATM    9  C16 UNL     1      -2.384   7.415  13.871  1.00  0.00     0.002 C 
HETATM   10  C12 UNL     1      -5.154   8.331  14.077  1.00  0.00     0.007 C 
HETATM   11  C11 UNL     1      -4.819   6.879  13.671  1.00  0.00     0.002 C 
HETATM   12  C2  UNL     1      -5.952   5.826  13.916  1.00  0.00    -0.016 C 
HETATM   13  C10 UNL     1      -3.470   6.427  14.315  1.00  0.00    -0.004 C 
HETATM   14  C1  UNL     1      -6.181   5.576  15.426  1.00  0.00     0.020 C 
HETATM   15  C3  UNL     1      -7.286   6.286  13.272  1.00  0.00     0.022 C 
HETATM   16  C7  UNL     1      -5.529   4.520  13.237  1.00  0.00    -0.068 C 
HETATM   17  C4  UNL     1      -8.378   5.215  13.309  1.00  0.00     0.084 C 
HETATM   18  C5  UNL     1      -7.880   3.862  12.857  1.00  0.00     0.149 C 
HETATM   19  O1  UNL     1      -8.652   2.950  12.570  1.00  0.00    -0.293 OA
HETATM   20  C6  UNL     1      -6.419   3.625  12.772  1.00  0.00     0.053 C 
HETATM   21  C8  UNL     1      -4.054   4.302  12.983  1.00  0.00     0.035 C 
HETATM   22  C9  UNL     1      -3.142   4.949  14.022  1.00  0.00     0.010 C 
HETATM   23  C17 UNL     1      -0.942   7.171  14.299  1.00  0.00     0.009 C 
HETATM   24  C18 UNL     1      -0.257   8.544  14.145  1.00  0.00     0.047 C 
BRANCH   5  25
HETATM   25  O2  UNL     1      -1.437   9.656  12.369  1.00  0.00    -0.381 OA
HETATM   26  H27 UNL     1      -0.567   9.970  12.060  1.00  0.00     0.211 HD
ENDBRANCH   5  25
ENDBRANCH   3   5
ENDBRANCH   2   3
ENDBRANCH   1   2
BRANCH   1  27
HETATM   27  C22 UNL     1      -0.357  11.922  17.468  1.00  0.00     0.259 C 
HETATM   28  O5  UNL     1      -1.472  11.581  17.842  1.00  0.00    -0.265 OA
BRANCH  27  29
HETATM   29  C23 UNL     1       0.795  12.155  18.416  1.00  0.00     0.120 C 
BRANCH  29  30
HETATM   30  C24 UNL     1       0.660  11.477  19.776  1.00  0.00     0.112 C 
BRANCH  30  31
HETATM   31  C25 UNL     1       1.847  10.590  20.087  1.00  0.00     0.218 C 
HETATM   32  O6  UNL     1       2.473   9.978  19.233  1.00  0.00    -0.274 OA
HETATM   33  N1  UNL     1       2.157  10.552  21.429  1.00  0.00    -0.346 N 
HETATM   34  H34 UNL     1       1.398  10.765  22.065  1.00  0.00     0.163 HD
BRANCH  33  35
HETATM   35  C26 UNL     1       3.149   9.582  21.925  1.00  0.00     0.186 C 
BRANCH  35  36
HETATM   36  C27 UNL     1       4.190  10.287  22.801  1.00  0.00     0.077 C 
BRANCH  36  37
HETATM   37  C28 UNL     1       4.524  11.673  22.347  1.00  0.00    -0.028 A 
HETATM   38  C29 UNL     1       5.472  12.020  21.403  1.00  0.00     0.096 A 
HETATM   39  N2  UNL     1       5.465  13.382  21.267  1.00  0.00    -0.365 N 
HETATM   40  C30 UNL     1       4.535  13.940  22.111  1.00  0.00     0.043 A 
HETATM   41  H39 UNL     1       6.057  13.909  20.639  1.00  0.00     0.165 HD
HETATM   42  C31 UNL     1       4.187  15.284  22.308  1.00  0.00     0.033 A 
HETATM   43  C35 UNL     1       3.930  12.893  22.806  1.00  0.00     0.001 A 
HETATM   44  C32 UNL     1       3.189  15.566  23.247  1.00  0.00     0.039 A 
HETATM   45  C33 UNL     1       2.577  14.536  23.953  1.00  0.00     0.066 A 
HETATM   46  C34 UNL     1       2.927  13.202  23.749  1.00  0.00     0.050 A 
BRANCH  45  47
HETATM   47  O7  UNL     1       1.606  14.797  24.878  1.00  0.00    -0.361 OA
HETATM   48  H42 UNL     1       1.443  15.753  24.896  1.00  0.00     0.217 HD
ENDBRANCH  45  47
ENDBRANCH  36  37
ENDBRANCH  35  36
BRANCH  35  49
HETATM   49  C36 UNL     1       2.383   8.558  22.761  1.00  0.00     0.163 C 
HETATM   50  O8  UNL     1       1.708   7.639  22.316  1.00  0.00    -0.648 OA
BRANCH  49  51
HETATM   51  O9  UNL     1       2.509   8.735  24.088  1.00  0.00    -0.775 OA
HETATM   52  H44 UNL     1       2.011   7.997  24.491  1.00  0.00     0.167 HD
ENDBRANCH  49  51
ENDBRANCH  35  49
ENDBRANCH  33  35
ENDBRANCH  30  31
ENDBRANCH  29  30
ENDBRANCH  27  29
ENDBRANCH   1  27
TORSDOF 14
ENDMDL
MODEL 5
REMARK minimizedAffinity -8.73039913
REMARK CNNscore 0.366789162
REMARK CNNaffinity 6.78505325
REMARK  14 active torsions:
REMARK  status: ('A' for Active; 'I' for Inactive)
REMARK    1  A    between atoms: C19_20  and  O2_21 
REMARK    2  A    between atoms: C19_20  and  C20_22 
REMARK    3  A    between atoms: C20_22  and  C21_24 
REMARK    4  A    between atoms: C21_24  and  O4_25 
REMARK    5  A    between atoms: O4_25  and  C22_26 
REMARK    6  A    between atoms: C22_26  and  C23_28 
REMARK    7  A    between atoms: C23_28  and  C24_29 
REMARK    8  A    between atoms: C24_29  and  C25_30 
REMARK       I    between atoms: C25_30  and  N1_32 
REMARK    9  A    between atoms: N1_32  and  C26_33 
REMARK   10  A    between atoms: C26_33  and  C27_34 
REMARK   11  A    between atoms: C26_33  and  C36_45 
REMARK   12  A    between atoms: C27_34  and  C28_35 
REMARK   13  A    between atoms: C33_41  and  O7_42 
REMARK   14  A    between atoms: C36_45  and  O9_47 
ROOT
HETATM    1  O4  UNL     1     -10.079   6.932  15.259  1.00  0.00    -0.314 OA
ENDROOT
BRANCH   1   2
HETATM    2  C21 UNL     1     -10.100   7.508  13.959  1.00  0.00     0.260 C 
BRANCH   2   3
HETATM    3  C20 UNL     1     -10.925   8.789  13.924  1.00  0.00     0.185 C 
HETATM    4  O3  UNL     1     -10.590   9.757  14.617  1.00  0.00    -0.292 OA
BRANCH   3   5
HETATM    5  C19 UNL     1     -12.171   8.853  13.003  1.00  0.00     0.128 C 
HETATM    6  C14 UNL     1     -13.375   9.703  13.520  1.00  0.00    -0.002 C 
HETATM    7  C13 UNL     1     -13.287  11.230  13.334  1.00  0.00     0.013 C 
HETATM    8  C15 UNL     1     -13.650   9.387  15.018  1.00  0.00     0.019 C 
HETATM    9  C16 UNL     1     -14.493   9.179  12.569  1.00  0.00     0.002 C 
HETATM   10  C12 UNL     1     -14.645  11.934  13.538  1.00  0.00     0.007 C 
HETATM   11  C11 UNL     1     -15.754  11.338  12.644  1.00  0.00     0.002 C 
HETATM   12  C2  UNL     1     -17.153  12.034  12.741  1.00  0.00    -0.016 C 
HETATM   13  C10 UNL     1     -15.866   9.796  12.863  1.00  0.00    -0.004 C 
HETATM   14  C1  UNL     1     -17.825  11.774  14.111  1.00  0.00     0.020 C 
HETATM   15  C3  UNL     1     -17.029  13.564  12.520  1.00  0.00     0.022 C 
HETATM   16  C7  UNL     1     -18.033  11.469  11.622  1.00  0.00    -0.068 C 
HETATM   17  C4  UNL     1     -18.380  14.272  12.411  1.00  0.00     0.084 C 
HETATM   18  C5  UNL     1     -19.333  13.565  11.476  1.00  0.00     0.149 C 
HETATM   19  O1  UNL     1     -20.353  14.107  11.057  1.00  0.00    -0.293 OA
HETATM   20  C6  UNL     1     -19.035  12.172  11.064  1.00  0.00     0.053 C 
HETATM   21  C8  UNL     1     -17.673  10.113  11.055  1.00  0.00     0.035 C 
HETATM   22  C9  UNL     1     -17.029   9.169  12.067  1.00  0.00     0.010 C 
HETATM   23  C17 UNL     1     -14.332   7.665  12.636  1.00  0.00     0.009 C 
HETATM   24  C18 UNL     1     -12.815   7.446  12.803  1.00  0.00     0.047 C 
BRANCH   5  25
HETATM   25  O2  UNL     1     -11.771   9.313  11.705  1.00  0.00    -0.381 OA
HETATM   26  H27 UNL     1     -11.117   8.677  11.362  1.00  0.00     0.211 HD
ENDBRANCH   5  25
ENDBRANCH   3   5
ENDBRANCH   2   3
ENDBRANCH   1   2
BRANCH   1  27
HETATM   27  C22 UNL     1      -8.921   7.128  15.944  1.00  0.00     0.259 C 
HETATM   28  O5  UNL     1      -8.847   7.653  17.047  1.00  0.00    -0.265 OA
BRANCH  27  29
HETATM   29  C23 UNL     1      -7.708   6.747  15.129  1.00  0.00     0.120 C 
BRANCH  29  30
HETATM   30  C24 UNL     1      -6.369   7.167  15.728  1.00  0.00     0.112 C 
BRANCH  30  31
HETATM   31  C25 UNL     1      -5.228   6.981  14.750  1.00  0.00     0.218 C 
HETATM   32  O6  UNL     1      -5.205   7.486  13.637  1.00  0.00    -0.274 OA
HETATM   33  N1  UNL     1      -4.213   6.193  15.247  1.00  0.00    -0.346 N 
HETATM   34  H34 UNL     1      -4.474   5.542  15.978  1.00  0.00     0.163 HD
BRANCH  33  35
HETATM   35  C26 UNL     1      -3.129   5.745  14.356  1.00  0.00     0.186 C 
BRANCH  35  36
HETATM   36  C27 UNL     1      -3.572   5.837  12.891  1.00  0.00     0.077 C 
BRANCH  36  37
HETATM   37  C28 UNL     1      -3.804   4.507  12.245  1.00  0.00    -0.028 A 
HETATM   38  C29 UNL     1      -2.892   3.793  11.491  1.00  0.00     0.096 A 
HETATM   39  N2  UNL     1      -3.487   2.628  11.088  1.00  0.00    -0.365 N 
HETATM   40  C30 UNL     1      -4.777   2.565  11.556  1.00  0.00     0.043 A 
HETATM   41  H39 UNL     1      -3.047   1.912  10.525  1.00  0.00     0.165 HD
HETATM   42  C31 UNL     1      -5.749   1.567  11.392  1.00  0.00     0.033 A 
HETATM   43  C35 UNL     1      -5.008   3.733  12.283  1.00  0.00     0.001 A 
HETATM   44  C32 UNL     1      -6.997   1.771  11.989  1.00  0.00     0.039 A 
HETATM   45  C33 UNL     1      -7.248   2.932  12.714  1.00  0.00     0.066 A 
HETATM   46  C34 UNL     1      -6.275   3.917  12.876  1.00  0.00     0.050 A 
BRANCH  45  47
HETATM   47  O7  UNL     1      -8.464   3.148  13.297  1.00  0.00    -0.361 OA
HETATM   48  H42 UNL     1      -9.030   2.377  13.132  1.00  0.00     0.217 HD
ENDBRANCH  45  47
ENDBRANCH  36  37
ENDBRANCH  35  36
BRANCH  35  49
HETATM   49  C36 UNL     1      -1.948   6.683  14.594  1.00  0.00     0.163 C 
HETATM   50  O8  UNL     1      -1.935   7.628  15.373  1.00  0.00    -0.648 OA
BRANCH  49  51
HETATM   51  O9  UNL     1      -0.860   6.388  13.860  1.00  0.00    -0.775 OA
HETATM   52  H44 UNL     1      -0.181   7.032  14.141  1.00  0.00     0.167 HD
ENDBRANCH  49  51
ENDBRANCH  35  49
ENDBRANCH  33  35
ENDBRANCH  30  31
ENDBRANCH  29  30
ENDBRANCH  27  29
ENDBRANCH   1  27
TORSDOF 14
ENDMDL
MODEL 6
REMARK minimizedAffinity -9.26971817
REMARK CNNscore 0.355302453
REMARK CNNaffinity 6.17658234
REMARK  14 active torsions:
REMARK  status: ('A' for Active; 'I' for Inactive)
REMARK    1  A    between atoms: C19_20  and  O2_21 
REMARK    2  A    between atoms: C19_20  and  C20_22 
REMARK    3  A    between atoms: C20_22  and  C21_24 
REMARK    4  A    between atoms: C21_24  and  O4_25 
REMARK    5  A    between atoms: O4_25  and  C22_26 
REMARK    6  A    between atoms: C22_26  and  C23_28 
REMARK    7  A    between atoms: C23_28  and  C24_29 
REMARK    8  A    between atoms: C24_29  and  C25_30 
REMARK       I    between atoms: C25_30  and  N1_32 
REMARK    9  A    between atoms: N1_32  and  C26_33 
REMARK   10  A    between atoms: C26_33  and  C27_34 
REMARK   11  A    between atoms: C26_33  and  C36_45 
REMARK   12  A    between atoms: C27_34  and  C28_35 
REMARK   13  A    between atoms: C33_41  and  O7_42 
REMARK   14  A    between atoms: C36_45  and  O9_47 
ROOT
HETATM    1  O4  UNL     1       1.639   8.861  11.400  1.00  0.00    -0.314 OA
ENDROOT
BRANCH   1   2
HETATM    2  C21 UNL     1       2.158   7.796  10.613  1.00  0.00     0.260 C 
BRANCH   2   3
HETATM    3  C20 UNL     1       3.650   7.963  10.352  1.00  0.00     0.185 C 
HETATM    4  O3  UNL     1       4.038   8.432   9.276  1.00  0.00    -0.292 OA
BRANCH   3   5
HETATM    5  C19 UNL     1       4.656   7.548  11.457  1.00  0.00     0.128 C 
HETATM    6  C14 UNL     1       5.517   8.693  12.079  1.00  0.00    -0.002 C 
HETATM    7  C13 UNL     1       4.848   9.566  13.160  1.00  0.00     0.013 C 
HETATM    8  C15 UNL     1       6.078   9.613  10.958  1.00  0.00     0.019 C 
HETATM    9  C16 UNL     1       6.618   7.841  12.781  1.00  0.00     0.002 C 
HETATM   10  C12 UNL     1       5.864  10.412  13.955  1.00  0.00     0.007 C 
HETATM   11  C11 UNL     1       6.991   9.552  14.568  1.00  0.00     0.002 C 
HETATM   12  C2  UNL     1       8.035  10.322  15.444  1.00  0.00    -0.016 C 
HETATM   13  C10 UNL     1       7.692   8.698  13.463  1.00  0.00    -0.004 C 
HETATM   14  C1  UNL     1       8.924  11.253  14.586  1.00  0.00     0.020 C 
HETATM   15  C3  UNL     1       7.328  11.165  16.537  1.00  0.00     0.022 C 
HETATM   16  C7  UNL     1       8.911   9.282  16.149  1.00  0.00    -0.068 C 
HETATM   17  C4  UNL     1       8.296  11.787  17.545  1.00  0.00     0.084 C 
HETATM   18  C5  UNL     1       9.315  10.797  18.058  1.00  0.00     0.149 C 
HETATM   19  O1  UNL     1      10.000  11.028  19.052  1.00  0.00    -0.293 OA
HETATM   20  C6  UNL     1       9.502   9.517  17.334  1.00  0.00     0.053 C 
HETATM   21  C8  UNL     1       9.007   7.904  15.531  1.00  0.00     0.035 C 
HETATM   22  C9  UNL     1       8.892   7.897  14.009  1.00  0.00     0.010 C 
HETATM   23  C17 UNL     1       7.037   6.850  11.702  1.00  0.00     0.009 C 
HETATM   24  C18 UNL     1       5.743   6.570  10.912  1.00  0.00     0.047 C 
BRANCH   5  25
HETATM   25  O2  UNL     1       3.952   6.849  12.493  1.00  0.00    -0.381 OA
HETATM   26  H27 UNL     1       3.541   6.065  12.084  1.00  0.00     0.211 HD
ENDBRANCH   5  25
ENDBRANCH   3   5
ENDBRANCH   2   3
ENDBRANCH   1   2
BRANCH   1  27
HETATM   27  C22 UNL     1       1.124   8.477  12.598  1.00  0.00     0.259 C 
HETATM   28  O5  UNL     1       1.760   8.424  13.643  1.00  0.00    -0.265 OA
BRANCH  27  29
HETATM   29  C23 UNL     1      -0.300   7.988  12.473  1.00  0.00     0.120 C 
BRANCH  29  30
HETATM   30  C24 UNL     1      -0.517   6.528  12.858  1.00  0.00     0.112 C 
BRANCH  30  31
HETATM   31  C25 UNL     1      -1.974   6.127  12.753  1.00  0.00     0.218 C 
HETATM   32  O6  UNL     1      -2.372   5.213  12.045  1.00  0.00    -0.274 OA
HETATM   33  N1  UNL     1      -2.804   6.889  13.547  1.00  0.00    -0.346 N 
HETATM   34  H34 UNL     1      -2.463   7.812  13.786  1.00  0.00     0.163 HD
BRANCH  33  35
HETATM   35  C26 UNL     1      -4.265   6.767  13.409  1.00  0.00     0.186 C 
BRANCH  35  36
HETATM   36  C27 UNL     1      -4.854   6.029  14.618  1.00  0.00     0.077 C 
BRANCH  36  37
HETATM   37  C28 UNL     1      -5.988   5.116  14.275  1.00  0.00    -0.028 A 
HETATM   38  C29 UNL     1      -7.269   5.172  14.789  1.00  0.00     0.096 A 
HETATM   39  N2  UNL     1      -8.006   4.170  14.218  1.00  0.00    -0.365 N 
HETATM   40  C30 UNL     1      -7.231   3.448  13.342  1.00  0.00     0.043 A 
HETATM   41  H39 UNL     1      -8.981   3.980  14.409  1.00  0.00     0.165 HD
HETATM   42  C31 UNL     1      -7.562   2.346  12.542  1.00  0.00     0.033 A 
HETATM   43  C35 UNL     1      -5.956   4.015  13.359  1.00  0.00     0.001 A 
HETATM   44  C32 UNL     1      -6.557   1.804  11.734  1.00  0.00     0.039 A 
HETATM   45  C33 UNL     1      -5.279   2.351  11.741  1.00  0.00     0.066 A 
HETATM   46  C34 UNL     1      -4.959   3.451  12.536  1.00  0.00     0.050 A 
BRANCH  45  47
HETATM   47  O7  UNL     1      -4.285   1.829  10.963  1.00  0.00    -0.361 OA
HETATM   48  H42 UNL     1      -4.650   1.095  10.444  1.00  0.00     0.217 HD
ENDBRANCH  45  47
ENDBRANCH  36  37
ENDBRANCH  35  36
BRANCH  35  49
HETATM   49  C36 UNL     1      -4.822   8.188  13.354  1.00  0.00     0.163 C 
HETATM   50  O8  UNL     1      -5.823   8.583  13.938  1.00  0.00    -0.648 OA
BRANCH  49  51
HETATM   51  O9  UNL     1      -4.101   9.026  12.587  1.00  0.00    -0.775 OA
HETATM   52  H44 UNL     1      -4.542   9.894  12.677  1.00  0.00     0.167 HD
ENDBRANCH  49  51
ENDBRANCH  35  49
ENDBRANCH  33  35
ENDBRANCH  30  31
ENDBRANCH  29  30
ENDBRANCH  27  29
ENDBRANCH   1  27
TORSDOF 14
ENDMDL
MODEL 7
REMARK minimizedAffinity -9.38634968
REMARK CNNscore 0.283695817
REMARK CNNaffinity 7.00586653
REMARK  14 active torsions:
REMARK  status: ('A' for Active; 'I' for Inactive)
REMARK    1  A    between atoms: C19_20  and  O2_21 
REMARK    2  A    between atoms: C19_20  and  C20_22 
REMARK    3  A    between atoms: C20_22  and  C21_24 
REMARK    4  A    between atoms: C21_24  and  O4_25 
REMARK    5  A    between atoms: O4_25  and  C22_26 
REMARK    6  A    between atoms: C22_26  and  C23_28 
REMARK    7  A    between atoms: C23_28  and  C24_29 
REMARK    8  A    between atoms: C24_29  and  C25_30 
REMARK       I    between atoms: C25_30  and  N1_32 
REMARK    9  A    between atoms: N1_32  and  C26_33 
REMARK   10  A    between atoms: C26_33  and  C27_34 
REMARK   11  A    between atoms: C26_33  and  C36_45 
REMARK   12  A    between atoms: C27_34  and  C28_35 
REMARK   13  A    between atoms: C33_41  and  O7_42 
REMARK   14  A    between atoms: C36_45  and  O9_47 
ROOT
HETATM    1  O4  UNL     1      -9.229   6.621  16.020  1.00  0.00    -0.314 OA
ENDROOT
BRANCH   1   2
HETATM    2  C21 UNL     1      -7.824   6.590  16.238  1.00  0.00     0.260 C 
BRANCH   2   3
HETATM    3  C20 UNL     1      -7.095   5.868  15.112  1.00  0.00     0.185 C 
HETATM    4  O3  UNL     1      -7.238   4.648  14.969  1.00  0.00    -0.292 OA
BRANCH   3   5
HETATM    5  C19 UNL     1      -6.190   6.689  14.157  1.00  0.00     0.128 C 
HETATM    6  C14 UNL     1      -4.662   6.371  14.203  1.00  0.00    -0.002 C 
HETATM    7  C13 UNL     1      -4.179   5.130  13.426  1.00  0.00     0.013 C 
HETATM    8  C15 UNL     1      -4.179   6.268  15.678  1.00  0.00     0.019 C 
HETATM    9  C16 UNL     1      -4.110   7.628  13.465  1.00  0.00     0.002 C 
HETATM   10  C12 UNL     1      -2.649   5.105  13.233  1.00  0.00     0.007 C 
HETATM   11  C11 UNL     1      -2.120   6.400  12.577  1.00  0.00     0.002 C 
HETATM   12  C2  UNL     1      -0.582   6.436  12.287  1.00  0.00    -0.016 C 
HETATM   13  C10 UNL     1      -2.578   7.653  13.389  1.00  0.00    -0.004 C 
HETATM   14  C1  UNL     1       0.243   6.510  13.594  1.00  0.00     0.020 C 
HETATM   15  C3  UNL     1      -0.139   5.187  11.480  1.00  0.00     0.022 C 
HETATM   16  C7  UNL     1      -0.298   7.673  11.430  1.00  0.00    -0.068 C 
HETATM   17  C4  UNL     1       1.311   5.259  11.000  1.00  0.00     0.084 C 
HETATM   18  C5  UNL     1       1.647   6.586  10.363  1.00  0.00     0.149 C 
HETATM   19  O1  UNL     1       2.664   6.744   9.691  1.00  0.00    -0.293 OA
HETATM   20  C6  UNL     1       0.732   7.735  10.567  1.00  0.00     0.053 C 
HETATM   21  C8  UNL     1      -1.292   8.812  11.482  1.00  0.00     0.035 C 
HETATM   22  C9  UNL     1      -1.990   8.965  12.831  1.00  0.00     0.010 C 
HETATM   23  C17 UNL     1      -4.836   8.782  14.145  1.00  0.00     0.009 C 
HETATM   24  C18 UNL     1      -6.225   8.212  14.493  1.00  0.00     0.047 C 
BRANCH   5  25
HETATM   25  O2  UNL     1      -6.677   6.550  12.815  1.00  0.00    -0.381 OA
HETATM   26  H27 UNL     1      -7.592   6.887  12.804  1.00  0.00     0.211 HD
ENDBRANCH   5  25
ENDBRANCH   3   5
ENDBRANCH   2   3
ENDBRANCH   1   2
BRANCH   1  27
HETATM   27  C22 UNL     1      -9.665   7.691  15.304  1.00  0.00     0.259 C 
HETATM   28  O5  UNL     1      -9.529   8.858  15.647  1.00  0.00    -0.265 OA
BRANCH  27  29
HETATM   29  C23 UNL     1     -10.462   7.276  14.090  1.00  0.00     0.120 C 
BRANCH  29  30
HETATM   30  C24 UNL     1     -11.284   8.388  13.446  1.00  0.00     0.112 C 
BRANCH  30  31
HETATM   31  C25 UNL     1     -12.772   8.160  13.611  1.00  0.00     0.218 C 
HETATM   32  O6  UNL     1     -13.408   8.539  14.583  1.00  0.00    -0.274 OA
HETATM   33  N1  UNL     1     -13.338   7.491  12.547  1.00  0.00    -0.346 N 
HETATM   34  H34 UNL     1     -12.710   6.912  12.003  1.00  0.00     0.163 HD
BRANCH  33  35
HETATM   35  C26 UNL     1     -14.727   7.010  12.638  1.00  0.00     0.186 C 
BRANCH  35  36
HETATM   36  C27 UNL     1     -15.143   6.863  14.107  1.00  0.00     0.077 C 
BRANCH  36  37
HETATM   37  C28 UNL     1     -16.288   5.922  14.320  1.00  0.00    -0.028 A 
HETATM   38  C29 UNL     1     -17.630   6.248  14.301  1.00  0.00     0.096 A 
HETATM   39  N2  UNL     1     -18.353   5.108  14.530  1.00  0.00    -0.365 N 
HETATM   40  C30 UNL     1     -17.509   4.038  14.708  1.00  0.00     0.043 A 
HETATM   41  H39 UNL     1     -19.362   5.054  14.566  1.00  0.00     0.165 HD
HETATM   42  C31 UNL     1     -17.803   2.691  14.964  1.00  0.00     0.033 A 
HETATM   43  C35 UNL     1     -16.205   4.517  14.586  1.00  0.00     0.001 A 
HETATM   44  C32 UNL     1     -16.728   1.806  15.102  1.00  0.00     0.039 A 
HETATM   45  C33 UNL     1     -15.421   2.266  14.988  1.00  0.00     0.066 A 
HETATM   46  C34 UNL     1     -15.137   3.606  14.729  1.00  0.00     0.050 A 
BRANCH  45  47
HETATM   47  O7  UNL     1     -14.361   1.416  15.127  1.00  0.00    -0.361 OA
HETATM   48  H42 UNL     1     -14.699   0.518  15.273  1.00  0.00     0.217 HD
ENDBRANCH  45  47
ENDBRANCH  36  37
ENDBRANCH  35  36
BRANCH  35  49
HETATM   49  C36 UNL     1     -15.602   8.061  11.960  1.00  0.00     0.163 C 
HETATM   50  O8  UNL     1     -16.519   7.830  11.181  1.00  0.00    -0.648 OA
BRANCH  49  51
HETATM   51  O9  UNL     1     -15.291   9.327  12.294  1.00  0.00    -0.775 OA
HETATM   52  H44 UNL     1     -15.948   9.881  11.827  1.00  0.00     0.167 HD
ENDBRANCH  49  51
ENDBRANCH  35  49
ENDBRANCH  33  35
ENDBRANCH  30  31
ENDBRANCH  29  30
ENDBRANCH  27  29
ENDBRANCH   1  27
TORSDOF 14
ENDMDL
MODEL 8
REMARK minimizedAffinity -9.73329353
REMARK CNNscore 0.28314212
REMARK CNNaffinity 6.44715118
REMARK  14 active torsions:
REMARK  status: ('A' for Active; 'I' for Inactive)
REMARK    1  A    between atoms: C19_20  and  O2_21 
REMARK    2  A    between atoms: C19_20  and  C20_22 
REMARK    3  A    between atoms: C20_22  and  C21_24 
REMARK    4  A    between atoms: C21_24  and  O4_25 
REMARK    5  A    between atoms: O4_25  and  C22_26 
REMARK    6  A    between atoms: C22_26  and  C23_28 
REMARK    7  A    between atoms: C23_28  and  C24_29 
REMARK    8  A    between atoms: C24_29  and  C25_30 
REMARK       I    between atoms: C25_30  and  N1_32 
REMARK    9  A    between atoms: N1_32  and  C26_33 
REMARK   10  A    between atoms: C26_33  and  C27_34 
REMARK   11  A    between atoms: C26_33  and  C36_45 
REMARK   12  A    between atoms: C27_34  and  C28_35 
REMARK   13  A    between atoms: C33_41  and  O7_42 
REMARK   14  A    between atoms: C36_45  and  O9_47 
ROOT
HETATM    1  O4  UNL     1      -0.342  13.485  17.475  1.00  0.00    -0.314 OA
ENDROOT
BRANCH   1   2
HETATM    2  C21 UNL     1      -1.352  12.490  17.365  1.00  0.00     0.260 C 
BRANCH   2   3
HETATM    3  C20 UNL     1      -1.877  12.375  15.939  1.00  0.00     0.185 C 
HETATM    4  O3  UNL     1      -2.709  13.189  15.521  1.00  0.00    -0.292 OA
BRANCH   3   5
HETATM    5  C19 UNL     1      -1.342  11.236  15.032  1.00  0.00     0.128 C 
HETATM    6  C14 UNL     1      -2.014   9.837  15.205  1.00  0.00    -0.002 C 
HETATM    7  C13 UNL     1      -3.369   9.618  14.504  1.00  0.00     0.013 C 
HETATM    8  C15 UNL     1      -2.159   9.495  16.715  1.00  0.00     0.019 C 
HETATM    9  C16 UNL     1      -0.961   8.949  14.475  1.00  0.00     0.002 C 
HETATM   10  C12 UNL     1      -3.768   8.129  14.431  1.00  0.00     0.007 C 
HETATM   11  C11 UNL     1      -2.670   7.260  13.780  1.00  0.00     0.002 C 
HETATM   12  C2  UNL     1      -3.016   5.742  13.608  1.00  0.00    -0.016 C 
HETATM   13  C10 UNL     1      -1.307   7.455  14.517  1.00  0.00    -0.004 C 
HETATM   14  C1  UNL     1      -3.080   5.015  14.972  1.00  0.00     0.020 C 
HETATM   15  C3  UNL     1      -4.371   5.561  12.875  1.00  0.00     0.022 C 
HETATM   16  C7  UNL     1      -1.925   5.111  12.739  1.00  0.00    -0.068 C 
HETATM   17  C4  UNL     1      -4.671   4.108  12.506  1.00  0.00     0.084 C 
HETATM   18  C5  UNL     1      -3.494   3.418  11.858  1.00  0.00     0.149 C 
HETATM   19  O1  UNL     1      -3.616   2.350  11.261  1.00  0.00    -0.293 OA
HETATM   20  C6  UNL     1      -2.152   4.040  11.957  1.00  0.00     0.053 C 
HETATM   21  C8  UNL     1      -0.580   5.801  12.681  1.00  0.00     0.035 C 
HETATM   22  C9  UNL     1      -0.201   6.531  13.967  1.00  0.00     0.010 C 
HETATM   23  C17 UNL     1       0.364   9.418  15.063  1.00  0.00     0.009 C 
HETATM   24  C18 UNL     1       0.160  10.924  15.320  1.00  0.00     0.047 C 
BRANCH   5  25
HETATM   25  O2  UNL     1      -1.423  11.651  13.662  1.00  0.00    -0.381 OA
HETATM   26  H27 UNL     1      -0.878  12.453  13.570  1.00  0.00     0.211 HD
ENDBRANCH   5  25
ENDBRANCH   3   5
ENDBRANCH   2   3
ENDBRANCH   1   2
BRANCH   1  27
HETATM   27  C22 UNL     1       0.125  13.676  18.737  1.00  0.00     0.259 C 
HETATM   28  O5  UNL     1      -0.198  14.606  19.464  1.00  0.00    -0.265 OA
BRANCH  27  29
HETATM   29  C23 UNL     1       1.202  12.680  19.101  1.00  0.00     0.120 C 
BRANCH  29  30
HETATM   30  C24 UNL     1       0.854  11.746  20.255  1.00  0.00     0.112 C 
BRANCH  30  31
HETATM   31  C25 UNL     1       1.909  10.679  20.457  1.00  0.00     0.218 C 
HETATM   32  O6  UNL     1       2.214   9.861  19.600  1.00  0.00    -0.274 OA
HETATM   33  N1  UNL     1       2.500  10.730  21.701  1.00  0.00    -0.346 N 
HETATM   34  H34 UNL     1       1.950  11.162  22.435  1.00  0.00     0.163 HD
BRANCH  33  35
HETATM   35  C26 UNL     1       3.395   9.643  22.134  1.00  0.00     0.186 C 
BRANCH  35  36
HETATM   36  C27 UNL     1       4.492  10.192  23.053  1.00  0.00     0.077 C 
BRANCH  36  37
HETATM   37  C28 UNL     1       4.613  11.683  23.028  1.00  0.00    -0.028 A 
HETATM   38  C29 UNL     1       3.571  12.588  22.979  1.00  0.00     0.096 A 
HETATM   39  N2  UNL     1       4.098  13.852  22.978  1.00  0.00    -0.365 N 
HETATM   40  C30 UNL     1       5.471  13.795  23.018  1.00  0.00     0.043 A 
HETATM   41  H39 UNL     1       3.561  14.708  22.951  1.00  0.00     0.165 HD
HETATM   42  C31 UNL     1       6.416  14.830  23.032  1.00  0.00     0.033 A 
HETATM   43  C35 UNL     1       5.825  12.446  23.045  1.00  0.00     0.001 A 
HETATM   44  C32 UNL     1       7.769  14.474  23.075  1.00  0.00     0.039 A 
HETATM   45  C33 UNL     1       8.142  13.135  23.098  1.00  0.00     0.066 A 
HETATM   46  C34 UNL     1       7.195  12.111  23.087  1.00  0.00     0.050 A 
BRANCH  45  47
HETATM   47  O7  UNL     1       9.458  12.772  23.132  1.00  0.00    -0.361 OA
HETATM   48  H42 UNL     1      10.002  13.575  23.166  1.00  0.00     0.217 HD
ENDBRANCH  45  47
ENDBRANCH  36  37
ENDBRANCH  35  36
BRANCH  35  49
HETATM   49  C36 UNL     1       2.534   8.644  22.902  1.00  0.00     0.163 C 
HETATM   50  O8  UNL     1       2.379   8.624  24.117  1.00  0.00    -0.648 OA
BRANCH  49  51
HETATM   51  O9  UNL     1       1.917   7.741  22.119  1.00  0.00    -0.775 OA
HETATM   52  H44 UNL     1       1.377   7.201  22.730  1.00  0.00     0.167 HD
ENDBRANCH  49  51
ENDBRANCH  35  49
ENDBRANCH  33  35
ENDBRANCH  30  31
ENDBRANCH  29  30
ENDBRANCH  27  29
ENDBRANCH   1  27
TORSDOF 14
ENDMDL
MODEL 9
REMARK minimizedAffinity -9.14977455
REMARK CNNscore 0.280041099
REMARK CNNaffinity 6.47906303
REMARK  14 active torsions:
REMARK  status: ('A' for Active; 'I' for Inactive)
REMARK    1  A    between atoms: C19_20  and  O2_21 
REMARK    2  A    between atoms: C19_20  and  C20_22 
REMARK    3  A    between atoms: C20_22  and  C21_24 
REMARK    4  A    between atoms: C21_24  and  O4_25 
REMARK    5  A    between atoms: O4_25  and  C22_26 
REMARK    6  A    between atoms: C22_26  and  C23_28 
REMARK    7  A    between atoms: C23_28  and  C24_29 
REMARK    8  A    between atoms: C24_29  and  C25_30 
REMARK       I    between atoms: C25_30  and  N1_32 
REMARK    9  A    between atoms: N1_32  and  C26_33 
REMARK   10  A    between atoms: C26_33  and  C27_34 
REMARK   11  A    between atoms: C26_33  and  C36_45 
REMARK   12  A    between atoms: C27_34  and  C28_35 
REMARK   13  A    between atoms: C33_41  and  O7_42 
REMARK   14  A    between atoms: C36_45  and  O9_47 
ROOT
HETATM    1  O4  UNL     1       2.157   8.375  14.041  1.00  0.00    -0.314 OA
ENDROOT
BRANCH   1   2
HETATM    2  C21 UNL     1       0.963   7.612  13.925  1.00  0.00     0.260 C 
BRANCH   2   3
HETATM    3  C20 UNL     1      -0.266   8.504  13.801  1.00  0.00     0.185 C 
HETATM    4  O3  UNL     1      -0.207   9.687  14.156  1.00  0.00    -0.292 OA
BRANCH   3   5
HETATM    5  C19 UNL     1      -1.572   7.904  13.216  1.00  0.00     0.128 C 
HETATM    6  C14 UNL     1      -2.768   7.744  14.208  1.00  0.00    -0.002 C 
HETATM    7  C13 UNL     1      -3.604   9.003  14.509  1.00  0.00     0.013 C 
HETATM    8  C15 UNL     1      -2.275   7.127  15.548  1.00  0.00     0.019 C 
HETATM    9  C16 UNL     1      -3.665   6.774  13.381  1.00  0.00     0.002 C 
HETATM   10  C12 UNL     1      -4.947   8.678  15.194  1.00  0.00     0.007 C 
HETATM   11  C11 UNL     1      -5.778   7.649  14.395  1.00  0.00     0.002 C 
HETATM   12  C2  UNL     1      -7.186   7.305  14.987  1.00  0.00    -0.016 C 
HETATM   13  C10 UNL     1      -4.941   6.358  14.125  1.00  0.00    -0.004 C 
HETATM   14  C1  UNL     1      -7.070   6.504  16.305  1.00  0.00     0.020 C 
HETATM   15  C3  UNL     1      -8.008   8.594  15.249  1.00  0.00     0.022 C 
HETATM   16  C7  UNL     1      -7.939   6.474  13.944  1.00  0.00    -0.068 C 
HETATM   17  C4  UNL     1      -9.459   8.318  15.644  1.00  0.00     0.084 C 
HETATM   18  C5  UNL     1     -10.124   7.306  14.741  1.00  0.00     0.149 C 
HETATM   19  O1  UNL     1     -11.343   7.149  14.731  1.00  0.00    -0.293 OA
HETATM   20  C6  UNL     1      -9.281   6.471  13.853  1.00  0.00     0.053 C 
HETATM   21  C8  UNL     1      -7.123   5.727  12.913  1.00  0.00     0.035 C 
HETATM   22  C9  UNL     1      -5.760   5.260  13.418  1.00  0.00     0.010 C 
HETATM   23  C17 UNL     1      -2.690   5.695  12.925  1.00  0.00     0.009 C 
HETATM   24  C18 UNL     1      -1.361   6.444  12.707  1.00  0.00     0.047 C 
BRANCH   5  25
HETATM   25  O2  UNL     1      -1.978   8.683  12.083  1.00  0.00    -0.381 OA
HETATM   26  H27 UNL     1      -1.255   8.644  11.431  1.00  0.00     0.211 HD
ENDBRANCH   5  25
ENDBRANCH   3   5
ENDBRANCH   2   3
ENDBRANCH   1   2
BRANCH   1  27
HETATM   27  C22 UNL     1       3.161   7.980  13.214  1.00  0.00     0.259 C 
HETATM   28  O5  UNL     1       3.019   7.225  12.261  1.00  0.00    -0.265 OA
BRANCH  27  29
HETATM   29  C23 UNL     1       4.510   8.470  13.683  1.00  0.00     0.120 C 
BRANCH  29  30
HETATM   30  C24 UNL     1       5.573   8.579  12.594  1.00  0.00     0.112 C 
BRANCH  30  31
HETATM   31  C25 UNL     1       6.967   8.691  13.174  1.00  0.00     0.218 C 
HETATM   32  O6  UNL     1       7.962   8.231  12.631  1.00  0.00    -0.274 OA
HETATM   33  N1  UNL     1       7.003   9.375  14.370  1.00  0.00    -0.346 N 
HETATM   34  H34 UNL     1       6.141   9.381  14.902  1.00  0.00     0.163 HD
BRANCH  33  35
HETATM   35  C26 UNL     1       8.242   9.397  15.165  1.00  0.00     0.186 C 
BRANCH  35  36
HETATM   36  C27 UNL     1       8.479  10.797  15.743  1.00  0.00     0.077 C 
BRANCH  36  37
HETATM   37  C28 UNL     1       9.893  11.271  15.618  1.00  0.00    -0.028 A 
HETATM   38  C29 UNL     1      10.508  11.720  14.466  1.00  0.00     0.096 A 
HETATM   39  N2  UNL     1      11.796  12.068  14.773  1.00  0.00    -0.365 N 
HETATM   40  C30 UNL     1      12.043  11.848  16.107  1.00  0.00     0.043 A 
HETATM   41  H39 UNL     1      12.475  12.432  14.118  1.00  0.00     0.165 HD
HETATM   42  C31 UNL     1      13.210  12.059  16.855  1.00  0.00     0.033 A 
HETATM   43  C35 UNL     1      10.868  11.344  16.665  1.00  0.00     0.001 A 
HETATM   44  C32 UNL     1      13.176  11.743  18.217  1.00  0.00     0.039 A 
HETATM   45  C33 UNL     1      12.015  11.234  18.791  1.00  0.00     0.066 A 
HETATM   46  C34 UNL     1      10.858  11.031  18.041  1.00  0.00     0.050 A 
BRANCH  45  47
HETATM   47  O7  UNL     1      11.968  10.914  20.117  1.00  0.00    -0.361 OA
HETATM   48  H42 UNL     1      12.824  11.131  20.520  1.00  0.00     0.217 HD
ENDBRANCH  45  47
ENDBRANCH  36  37
ENDBRANCH  35  36
BRANCH  35  49
HETATM   49  C36 UNL     1       8.052   8.397  16.304  1.00  0.00     0.163 C 
HETATM   50  O8  UNL     1       8.938   7.974  17.035  1.00  0.00    -0.648 OA
BRANCH  49  51
HETATM   51  O9  UNL     1       6.779   7.994  16.467  1.00  0.00    -0.775 OA
HETATM   52  H44 UNL     1       6.798   7.400  17.243  1.00  0.00     0.167 HD
ENDBRANCH  49  51
ENDBRANCH  35  49
ENDBRANCH  33  35
ENDBRANCH  30  31
ENDBRANCH  29  30
ENDBRANCH  27  29
ENDBRANCH   1  27
TORSDOF 14
ENDMDL
