MODEL 1
REMARK minimizedAffinity -10.3013182
REMARK  8 active torsions:
REMARK  status: ('A' for Active; 'I' for Inactive)
REMARK    1  A    between atoms: C4_4  and  C5_5 
REMARK    2  A    between atoms: C5_5  and  C6_6 
REMARK    3  A    between atoms: C6_6  and  C7_7 
REMARK    4  A    between atoms: C7_7  and  C9_9 
REMARK    5  A    between atoms: C22_22  and  O1_23 
REMARK    6  A    between atoms: C24_25  and  O2_26 
REMARK    7  A    between atoms: C25_27  and  C27_29 
REMARK    8  A    between atoms: C27_29  and  O4_31 
ROOT
HETATM    1  C9  UNL     1      -1.553  48.962 -18.564  1.00  0.00    -0.002 C 
HETATM    2  C10 UNL     1      -2.927  48.271 -18.736  1.00  0.00     0.007 C 
HETATM    3  C11 UNL     1      -3.319  48.431 -20.224  1.00  0.00     0.015 C 
HETATM    4  C12 UNL     1      -2.033  48.905 -20.941  1.00  0.00    -0.005 C 
HETATM    5  C13 UNL     1      -1.197  47.625 -21.257  1.00  0.00     0.021 C 
HETATM    6  C14 UNL     1      -2.093  49.655 -22.266  1.00  0.00    -0.000 C 
HETATM    7  C15 UNL     1      -1.121  50.540 -22.620  1.00  0.00    -0.058 C 
HETATM    8  C16 UNL     1       0.028  50.859 -21.646  1.00  0.00     0.036 C 
HETATM    9  C17 UNL     1      -0.011  50.222 -20.240  1.00  0.00     0.015 C 
HETATM   10  C18 UNL     1      -1.438  49.854 -19.833  1.00  0.00    -0.028 C 
HETATM   11  C19 UNL     1      -2.245  51.175 -19.655  1.00  0.00     0.016 C 
HETATM   12  C20 UNL     1      -1.121  51.323 -23.977  1.00  0.00     0.011 C 
HETATM   13  C21 UNL     1      -1.716  52.719 -23.668  1.00  0.00     0.023 C 
HETATM   14  C22 UNL     1       0.327  51.486 -24.574  1.00  0.00     0.133 C 
HETATM   15  C23 UNL     1       0.346  52.007 -26.009  1.00  0.00     0.065 C 
HETATM   16  C24 UNL     1      -0.502  51.158 -26.941  1.00  0.00     0.139 C 
HETATM   17  C25 UNL     1      -1.983  51.045 -26.493  1.00  0.00     0.072 C 
HETATM   18  C26 UNL     1      -2.691  50.060 -27.453  1.00  0.00     0.030 C 
HETATM   19  C28 UNL     1      -1.979  50.501 -25.016  1.00  0.00     0.029 C 
HETATM   20  C29 UNL     1      -3.365  50.182 -24.446  1.00  0.00     0.090 C 
HETATM   21  C30 UNL     1      -3.228  49.356 -23.194  1.00  0.00     0.157 C 
HETATM   22  O5  UNL     1      -4.045  48.473 -22.943  1.00  0.00    -0.293 OA
ENDROOT
BRANCH   1  23
HETATM   23  C7  UNL     1      -1.256  49.588 -17.169  1.00  0.00    -0.014 C 
HETATM   24  C8  UNL     1      -2.247  50.748 -16.950  1.00  0.00     0.010 C 
BRANCH  23  25
HETATM   25  C6  UNL     1       0.192  50.094 -16.955  1.00  0.00     0.008 C 
BRANCH  25  26
HETATM   26  C5  UNL     1       0.316  51.620 -16.800  1.00  0.00     0.028 C 
BRANCH  26  27
HETATM   27  C4  UNL     1       1.727  52.134 -16.853  1.00  0.00    -0.025 C 
HETATM   28  C2  UNL     1       2.665  52.098 -15.887  1.00  0.00    -0.091 C 
HETATM   29  C1  UNL     1       4.041  52.659 -16.140  1.00  0.00     0.042 C 
HETATM   30  C3  UNL     1       2.472  51.544 -14.502  1.00  0.00     0.042 C 
ENDBRANCH  26  27
ENDBRANCH  25  26
ENDBRANCH  23  25
ENDBRANCH   1  23
BRANCH  14  31
HETATM   31  O1  UNL     1       1.109  52.403 -23.805  1.00  0.00    -0.394 OA
HETATM   32  H35 UNL     1       2.018  52.385 -24.155  1.00  0.00     0.210 HD
ENDBRANCH  14  31
BRANCH  17  33
HETATM   33  C27 UNL     1      -2.771  52.348 -26.624  1.00  0.00     0.151 C 
HETATM   34  O3  UNL     1      -3.673  52.720 -25.892  1.00  0.00    -0.649 OA
BRANCH  33  35
HETATM   35  O4  UNL     1      -2.447  53.104 -27.692  1.00  0.00    -0.776 OA
HETATM   36  H43 UNL     1      -3.073  53.861 -27.631  1.00  0.00     0.167 HD
ENDBRANCH  33  35
ENDBRANCH  17  33
BRANCH  16  37
HETATM   37  O2  UNL     1      -0.355  51.634 -28.278  1.00  0.00    -0.394 OA
HETATM   38  H39 UNL     1      -0.782  52.514 -28.315  1.00  0.00     0.210 HD
ENDBRANCH  16  37
TORSDOF 8
ENDMDL
MODEL 2
REMARK minimizedAffinity -9.47065544
REMARK  8 active torsions:
REMARK  status: ('A' for Active; 'I' for Inactive)
REMARK    1  A    between atoms: C4_4  and  C5_5 
REMARK    2  A    between atoms: C5_5  and  C6_6 
REMARK    3  A    between atoms: C6_6  and  C7_7 
REMARK    4  A    between atoms: C7_7  and  C9_9 
REMARK    5  A    between atoms: C22_22  and  O1_23 
REMARK    6  A    between atoms: C24_25  and  O2_26 
REMARK    7  A    between atoms: C25_27  and  C27_29 
REMARK    8  A    between atoms: C27_29  and  O4_31 
ROOT
HETATM    1  C9  UNL     1      -1.254  51.075 -23.151  1.00  0.00    -0.002 C 
HETATM    2  C10 UNL     1      -0.628  52.486 -23.267  1.00  0.00     0.007 C 
HETATM    3  C11 UNL     1       0.000  52.805 -21.891  1.00  0.00     0.015 C 
HETATM    4  C12 UNL     1       0.020  51.462 -21.124  1.00  0.00    -0.005 C 
HETATM    5  C13 UNL     1       1.306  50.704 -21.580  1.00  0.00     0.021 C 
HETATM    6  C14 UNL     1       0.073  51.417 -19.602  1.00  0.00    -0.000 C 
HETATM    7  C15 UNL     1      -0.459  50.374 -18.908  1.00  0.00    -0.058 C 
HETATM    8  C16 UNL     1      -1.198  49.245 -19.652  1.00  0.00     0.036 C 
HETATM    9  C17 UNL     1      -1.393  49.385 -21.178  1.00  0.00     0.015 C 
HETATM   10  C18 UNL     1      -1.345  50.849 -21.615  1.00  0.00    -0.028 C 
HETATM   11  C19 UNL     1      -2.593  51.570 -21.024  1.00  0.00     0.016 C 
HETATM   12  C20 UNL     1      -0.416  50.265 -17.346  1.00  0.00     0.011 C 
HETATM   13  C21 UNL     1      -1.788  50.775 -16.841  1.00  0.00     0.023 C 
HETATM   14  C22 UNL     1      -0.188  48.787 -16.854  1.00  0.00     0.133 C 
HETATM   15  C23 UNL     1       0.120  48.675 -15.363  1.00  0.00     0.065 C 
HETATM   16  C24 UNL     1       1.299  49.541 -14.952  1.00  0.00     0.139 C 
HETATM   17  C25 UNL     1       1.105  51.042 -15.289  1.00  0.00     0.072 C 
HETATM   18  C26 UNL     1       2.420  51.777 -14.934  1.00  0.00     0.030 C 
HETATM   19  C28 UNL     1       0.796  51.136 -16.828  1.00  0.00     0.029 C 
HETATM   20  C29 UNL     1       0.717  52.562 -17.383  1.00  0.00     0.090 C 
HETATM   21  C30 UNL     1       0.770  52.532 -18.888  1.00  0.00     0.157 C 
HETATM   22  O5  UNL     1       1.360  53.417 -19.503  1.00  0.00    -0.293 OA
ENDROOT
BRANCH   1  23
HETATM   23  C7  UNL     1      -2.507  50.793 -24.034  1.00  0.00    -0.014 C 
HETATM   24  C8  UNL     1      -2.711  49.266 -24.091  1.00  0.00     0.010 C 
BRANCH  23  25
HETATM   25  C6  UNL     1      -2.456  51.365 -25.472  1.00  0.00     0.008 C 
BRANCH  25  26
HETATM   26  C5  UNL     1      -1.634  50.522 -26.463  1.00  0.00     0.028 C 
BRANCH  26  27
HETATM   27  C4  UNL     1      -0.146  50.642 -26.290  1.00  0.00    -0.025 C 
HETATM   28  C2  UNL     1       0.717  51.405 -26.991  1.00  0.00    -0.091 C 
HETATM   29  C1  UNL     1       2.186  51.399 -26.654  1.00  0.00     0.042 C 
HETATM   30  C3  UNL     1       0.354  52.297 -28.146  1.00  0.00     0.042 C 
ENDBRANCH  26  27
ENDBRANCH  25  26
ENDBRANCH  23  25
ENDBRANCH   1  23
BRANCH  14  31
HETATM   31  O1  UNL     1      -1.342  47.975 -17.087  1.00  0.00    -0.394 OA
HETATM   32  H35 UNL     1      -1.110  47.056 -16.862  1.00  0.00     0.210 HD
ENDBRANCH  14  31
BRANCH  17  33
HETATM   33  C27 UNL     1       0.035  51.734 -14.444  1.00  0.00     0.151 C 
HETATM   34  O3  UNL     1      -1.105  51.340 -14.263  1.00  0.00    -0.649 OA
BRANCH  33  35
HETATM   35  O4  UNL     1       0.408  52.913 -13.907  1.00  0.00    -0.776 OA
HETATM   36  H43 UNL     1      -0.406  53.218 -13.446  1.00  0.00     0.167 HD
ENDBRANCH  33  35
ENDBRANCH  17  33
BRANCH  16  37
HETATM   37  O2  UNL     1       1.599  49.307 -13.577  1.00  0.00    -0.394 OA
HETATM   38  H39 UNL     1       0.853  49.671 -13.057  1.00  0.00     0.210 HD
ENDBRANCH  16  37
TORSDOF 8
ENDMDL
MODEL 3
REMARK minimizedAffinity -9.44398022
REMARK  8 active torsions:
REMARK  status: ('A' for Active; 'I' for Inactive)
REMARK    1  A    between atoms: C4_4  and  C5_5 
REMARK    2  A    between atoms: C5_5  and  C6_6 
REMARK    3  A    between atoms: C6_6  and  C7_7 
REMARK    4  A    between atoms: C7_7  and  C9_9 
REMARK    5  A    between atoms: C22_22  and  O1_23 
REMARK    6  A    between atoms: C24_25  and  O2_26 
REMARK    7  A    between atoms: C25_27  and  C27_29 
REMARK    8  A    between atoms: C27_29  and  O4_31 
ROOT
HETATM    1  C9  UNL     1      -2.487  50.476 -22.058  1.00  0.00    -0.002 C 
HETATM    2  C10 UNL     1      -1.908  51.868 -22.409  1.00  0.00     0.007 C 
HETATM    3  C11 UNL     1      -0.975  52.266 -21.242  1.00  0.00     0.015 C 
HETATM    4  C12 UNL     1      -0.772  50.974 -20.416  1.00  0.00    -0.005 C 
HETATM    5  C13 UNL     1       0.372  50.172 -21.111  1.00  0.00     0.021 C 
HETATM    6  C14 UNL     1      -0.363  51.025 -18.950  1.00  0.00    -0.000 C 
HETATM    7  C15 UNL     1      -0.715  50.035 -18.084  1.00  0.00    -0.058 C 
HETATM    8  C16 UNL     1      -1.605  48.871 -18.559  1.00  0.00     0.036 C 
HETATM    9  C17 UNL     1      -2.154  48.916 -20.002  1.00  0.00     0.015 C 
HETATM   10  C18 UNL     1      -2.213  50.349 -20.532  1.00  0.00    -0.028 C 
HETATM   11  C19 UNL     1      -3.289  51.122 -19.712  1.00  0.00     0.016 C 
HETATM   12  C20 UNL     1      -0.305  50.025 -16.572  1.00  0.00     0.011 C 
HETATM   13  C21 UNL     1      -1.521  50.584 -15.793  1.00  0.00     0.023 C 
HETATM   14  C22 UNL     1       0.036  48.579 -16.053  1.00  0.00     0.133 C 
HETATM   15  C23 UNL     1       0.686  48.557 -14.672  1.00  0.00     0.065 C 
HETATM   16  C24 UNL     1       1.926  49.432 -14.606  1.00  0.00     0.139 C 
HETATM   17  C25 UNL     1       1.656  50.911 -14.985  1.00  0.00     0.072 C 
HETATM   18  C26 UNL     1       3.015  51.650 -14.997  1.00  0.00     0.030 C 
HETATM   19  C28 UNL     1       0.993  50.911 -16.411  1.00  0.00     0.029 C 
HETATM   20  C29 UNL     1       0.783  52.300 -17.023  1.00  0.00     0.090 C 
HETATM   21  C30 UNL     1       0.481  52.174 -18.493  1.00  0.00     0.157 C 
HETATM   22  O5  UNL     1       0.907  53.010 -19.286  1.00  0.00    -0.293 OA
ENDROOT
BRANCH   1  23
HETATM   23  C7  UNL     1      -3.911  50.155 -22.602  1.00  0.00    -0.014 C 
HETATM   24  C8  UNL     1      -4.880  50.121 -21.403  1.00  0.00     0.010 C 
BRANCH  23  25
HETATM   25  C6  UNL     1      -4.039  48.840 -23.411  1.00  0.00     0.008 C 
BRANCH  25  26
HETATM   26  C5  UNL     1      -3.149  48.777 -24.665  1.00  0.00     0.028 C 
BRANCH  26  27
HETATM   27  C4  UNL     1      -3.862  48.317 -25.905  1.00  0.00    -0.025 C 
HETATM   28  C2  UNL     1      -3.847  48.875 -27.132  1.00  0.00    -0.091 C 
HETATM   29  C1  UNL     1      -4.623  48.249 -28.262  1.00  0.00     0.042 C 
HETATM   30  C3  UNL     1      -3.113  50.131 -27.511  1.00  0.00     0.042 C 
ENDBRANCH  26  27
ENDBRANCH  25  26
ENDBRANCH  23  25
ENDBRANCH   1  23
BRANCH  14  31
HETATM   31  O1  UNL     1      -1.139  47.769 -15.955  1.00  0.00    -0.394 OA
HETATM   32  H35 UNL     1      -0.859  46.863 -15.732  1.00  0.00     0.210 HD
ENDBRANCH  14  31
BRANCH  17  33
HETATM   33  C27 UNL     1       0.813  51.669 -13.959  1.00  0.00     0.151 C 
HETATM   34  O3  UNL     1       0.188  51.175 -13.036  1.00  0.00    -0.649 OA
BRANCH  33  35
HETATM   35  O4  UNL     1       0.736  53.000 -14.157  1.00  0.00    -0.776 OA
HETATM   36  H43 UNL     1       0.133  53.301 -13.440  1.00  0.00     0.167 HD
ENDBRANCH  33  35
ENDBRANCH  17  33
BRANCH  16  37
HETATM   37  O2  UNL     1       2.542  49.282 -13.327  1.00  0.00    -0.394 OA
HETATM   38  H39 UNL     1       1.938  49.688 -12.672  1.00  0.00     0.210 HD
ENDBRANCH  16  37
TORSDOF 8
ENDMDL
MODEL 4
REMARK minimizedAffinity -9.3526783
REMARK  8 active torsions:
REMARK  status: ('A' for Active; 'I' for Inactive)
REMARK    1  A    between atoms: C4_4  and  C5_5 
REMARK    2  A    between atoms: C5_5  and  C6_6 
REMARK    3  A    between atoms: C6_6  and  C7_7 
REMARK    4  A    between atoms: C7_7  and  C9_9 
REMARK    5  A    between atoms: C22_22  and  O1_23 
REMARK    6  A    between atoms: C24_25  and  O2_26 
REMARK    7  A    between atoms: C25_27  and  C27_29 
REMARK    8  A    between atoms: C27_29  and  O4_31 
ROOT
HETATM    1  C9  UNL     1      -4.942  48.035 -19.920  1.00  0.00    -0.002 C 
HETATM    2  C10 UNL     1      -5.681  47.262 -21.039  1.00  0.00     0.007 C 
HETATM    3  C11 UNL     1      -5.025  47.685 -22.375  1.00  0.00     0.015 C 
HETATM    4  C12 UNL     1      -3.723  48.421 -21.981  1.00  0.00    -0.005 C 
HETATM    5  C13 UNL     1      -2.638  47.322 -21.750  1.00  0.00     0.021 C 
HETATM    6  C14 UNL     1      -3.058  49.417 -22.922  1.00  0.00    -0.000 C 
HETATM    7  C15 UNL     1      -2.309  50.448 -22.443  1.00  0.00    -0.058 C 
HETATM    8  C16 UNL     1      -2.180  50.672 -20.925  1.00  0.00     0.036 C 
HETATM    9  C17 UNL     1      -2.994  49.759 -19.983  1.00  0.00     0.015 C 
HETATM   10  C18 UNL     1      -4.218  49.175 -20.690  1.00  0.00    -0.028 C 
HETATM   11  C19 UNL     1      -5.200  50.345 -20.997  1.00  0.00     0.016 C 
HETATM   12  C20 UNL     1      -1.587  51.490 -23.364  1.00  0.00     0.011 C 
HETATM   13  C21 UNL     1      -2.517  52.726 -23.426  1.00  0.00     0.023 C 
HETATM   14  C22 UNL     1      -0.180  51.914 -22.799  1.00  0.00     0.133 C 
HETATM   15  C23 UNL     1       0.663  52.719 -23.787  1.00  0.00     0.065 C 
HETATM   16  C24 UNL     1       0.837  52.000 -25.113  1.00  0.00     0.139 C 
HETATM   17  C25 UNL     1      -0.507  51.651 -25.805  1.00  0.00     0.072 C 
HETATM   18  C26 UNL     1      -0.184  50.819 -27.069  1.00  0.00     0.030 C 
HETATM   19  C28 UNL     1      -1.355  50.818 -24.774  1.00  0.00     0.029 C 
HETATM   20  C29 UNL     1      -2.667  50.253 -25.330  1.00  0.00     0.090 C 
HETATM   21  C30 UNL     1      -3.211  49.205 -24.395  1.00  0.00     0.157 C 
HETATM   22  O5  UNL     1      -3.781  48.213 -24.844  1.00  0.00    -0.293 OA
ENDROOT
BRANCH   1  23
HETATM   23  C7  UNL     1      -5.773  48.387 -18.649  1.00  0.00    -0.014 C 
HETATM   24  C8  UNL     1      -5.700  47.184 -17.688  1.00  0.00     0.010 C 
BRANCH  23  25
HETATM   25  C6  UNL     1      -7.254  48.763 -18.901  1.00  0.00     0.008 C 
BRANCH  25  26
HETATM   26  C5  UNL     1      -8.206  48.400 -17.748  1.00  0.00     0.028 C 
BRANCH  26  27
HETATM   27  C4  UNL     1      -9.658  48.369 -18.132  1.00  0.00    -0.025 C 
HETATM   28  C2  UNL     1     -10.203  48.000 -19.308  1.00  0.00    -0.091 C 
HETATM   29  C1  UNL     1     -11.698  48.024 -19.497  1.00  0.00     0.042 C 
HETATM   30  C3  UNL     1      -9.437  47.560 -20.525  1.00  0.00     0.042 C 
ENDBRANCH  26  27
ENDBRANCH  25  26
ENDBRANCH  23  25
ENDBRANCH   1  23
BRANCH  14  31
HETATM   31  O1  UNL     1      -0.310  52.726 -21.629  1.00  0.00    -0.394 OA
HETATM   32  H35 UNL     1       0.582  52.871 -21.266  1.00  0.00     0.210 HD
ENDBRANCH  14  31
BRANCH  17  33
HETATM   33  C27 UNL     1      -1.269  52.869 -26.327  1.00  0.00     0.151 C 
HETATM   34  O3  UNL     1      -2.345  52.852 -26.901  1.00  0.00    -0.649 OA
BRANCH  33  35
HETATM   35  O4  UNL     1      -0.637  54.048 -26.166  1.00  0.00    -0.776 OA
HETATM   36  H43 UNL     1      -1.248  54.692 -26.591  1.00  0.00     0.167 HD
ENDBRANCH  33  35
ENDBRANCH  17  33
BRANCH  16  37
HETATM   37  O2  UNL     1       1.719  52.753 -25.945  1.00  0.00    -0.394 OA
HETATM   38  H39 UNL     1       1.246  53.575 -26.189  1.00  0.00     0.210 HD
ENDBRANCH  16  37
TORSDOF 8
ENDMDL
MODEL 5
REMARK minimizedAffinity -9.34264851
REMARK  8 active torsions:
REMARK  status: ('A' for Active; 'I' for Inactive)
REMARK    1  A    between atoms: C4_4  and  C5_5 
REMARK    2  A    between atoms: C5_5  and  C6_6 
REMARK    3  A    between atoms: C6_6  and  C7_7 
REMARK    4  A    between atoms: C7_7  and  C9_9 
REMARK    5  A    between atoms: C22_22  and  O1_23 
REMARK    6  A    between atoms: C24_25  and  O2_26 
REMARK    7  A    between atoms: C25_27  and  C27_29 
REMARK    8  A    between atoms: C27_29  and  O4_31 
ROOT
HETATM    1  C9  UNL     1      -1.567  49.470 -18.197  1.00  0.00    -0.002 C 
HETATM    2  C10 UNL     1      -2.857  48.633 -18.377  1.00  0.00     0.007 C 
HETATM    3  C11 UNL     1      -3.193  48.660 -19.886  1.00  0.00     0.015 C 
HETATM    4  C12 UNL     1      -1.929  49.217 -20.581  1.00  0.00    -0.005 C 
HETATM    5  C13 UNL     1      -0.956  48.012 -20.778  1.00  0.00     0.021 C 
HETATM    6  C14 UNL     1      -2.002  49.873 -21.955  1.00  0.00    -0.000 C 
HETATM    7  C15 UNL     1      -1.108  50.829 -22.328  1.00  0.00    -0.058 C 
HETATM    8  C16 UNL     1      -0.042  51.324 -21.332  1.00  0.00     0.036 C 
HETATM    9  C17 UNL     1      -0.083  50.775 -19.889  1.00  0.00     0.015 C 
HETATM   10  C18 UNL     1      -1.484  50.288 -19.517  1.00  0.00    -0.028 C 
HETATM   11  C19 UNL     1      -2.425  51.529 -19.458  1.00  0.00     0.016 C 
HETATM   12  C20 UNL     1      -1.123  51.522 -23.733  1.00  0.00     0.011 C 
HETATM   13  C21 UNL     1      -1.868  52.867 -23.541  1.00  0.00     0.023 C 
HETATM   14  C22 UNL     1       0.327  51.795 -24.282  1.00  0.00     0.133 C 
HETATM   15  C23 UNL     1       0.361  52.225 -25.746  1.00  0.00     0.065 C 
HETATM   16  C24 UNL     1      -0.355  51.238 -26.653  1.00  0.00     0.139 C 
HETATM   17  C25 UNL     1      -1.836  51.002 -26.257  1.00  0.00     0.072 C 
HETATM   18  C26 UNL     1      -2.397  49.891 -27.177  1.00  0.00     0.030 C 
HETATM   19  C28 UNL     1      -1.846  50.554 -24.749  1.00  0.00     0.029 C 
HETATM   20  C29 UNL     1      -3.219  50.130 -24.213  1.00  0.00     0.090 C 
HETATM   21  C30 UNL     1      -3.058  49.402 -22.905  1.00  0.00     0.157 C 
HETATM   22  O5  UNL     1      -3.793  48.458 -22.629  1.00  0.00    -0.293 OA
ENDROOT
BRANCH   1  23
HETATM   23  C7  UNL     1      -1.399  50.209 -16.835  1.00  0.00    -0.014 C 
HETATM   24  C8  UNL     1       0.034  49.950 -16.329  1.00  0.00     0.010 C 
BRANCH  23  25
HETATM   25  C6  UNL     1      -2.418  49.825 -15.733  1.00  0.00     0.008 C 
BRANCH  25  26
HETATM   26  C5  UNL     1      -2.968  51.018 -14.933  1.00  0.00     0.028 C 
BRANCH  26  27
HETATM   27  C4  UNL     1      -2.137  51.398 -13.740  1.00  0.00    -0.025 C 
HETATM   28  C2  UNL     1      -2.497  52.140 -12.675  1.00  0.00    -0.091 C 
HETATM   29  C1  UNL     1      -1.515  52.402 -11.562  1.00  0.00     0.042 C 
HETATM   30  C3  UNL     1      -3.840  52.785 -12.473  1.00  0.00     0.042 C 
ENDBRANCH  26  27
ENDBRANCH  25  26
ENDBRANCH  23  25
ENDBRANCH   1  23
BRANCH  14  31
HETATM   31  O1  UNL     1       0.978  52.834 -23.545  1.00  0.00    -0.394 OA
HETATM   32  H35 UNL     1       1.900  52.887 -23.856  1.00  0.00     0.210 HD
ENDBRANCH  14  31
BRANCH  17  33
HETATM   33  C27 UNL     1      -2.743  52.206 -26.506  1.00  0.00     0.151 C 
HETATM   34  O3  UNL     1      -3.703  52.536 -25.830  1.00  0.00    -0.649 OA
BRANCH  33  35
HETATM   35  O4  UNL     1      -2.455  52.916 -27.615  1.00  0.00    -0.776 OA
HETATM   36  H43 UNL     1      -3.155  53.608 -27.628  1.00  0.00     0.167 HD
ENDBRANCH  33  35
ENDBRANCH  17  33
BRANCH  16  37
HETATM   37  O2  UNL     1      -0.193  51.642 -28.011  1.00  0.00    -0.394 OA
HETATM   38  H39 UNL     1      -0.704  52.470 -28.124  1.00  0.00     0.210 HD
ENDBRANCH  16  37
TORSDOF 8
ENDMDL
MODEL 6
REMARK minimizedAffinity -9.12580109
REMARK  8 active torsions:
REMARK  status: ('A' for Active; 'I' for Inactive)
REMARK    1  A    between atoms: C4_4  and  C5_5 
REMARK    2  A    between atoms: C5_5  and  C6_6 
REMARK    3  A    between atoms: C6_6  and  C7_7 
REMARK    4  A    between atoms: C7_7  and  C9_9 
REMARK    5  A    between atoms: C22_22  and  O1_23 
REMARK    6  A    between atoms: C24_25  and  O2_26 
REMARK    7  A    between atoms: C25_27  and  C27_29 
REMARK    8  A    between atoms: C27_29  and  O4_31 
ROOT
HETATM    1  C9  UNL     1      -0.528  50.376 -21.481  1.00  0.00    -0.002 C 
HETATM    2  C10 UNL     1      -0.529  50.006 -19.978  1.00  0.00     0.007 C 
HETATM    3  C11 UNL     1      -1.797  49.154 -19.734  1.00  0.00     0.015 C 
HETATM    4  C12 UNL     1      -2.314  48.771 -21.140  1.00  0.00    -0.005 C 
HETATM    5  C13 UNL     1      -1.506  47.513 -21.589  1.00  0.00     0.021 C 
HETATM    6  C14 UNL     1      -3.771  48.389 -21.373  1.00  0.00    -0.000 C 
HETATM    7  C15 UNL     1      -4.371  48.599 -22.577  1.00  0.00    -0.058 C 
HETATM    8  C16 UNL     1      -3.604  49.303 -23.713  1.00  0.00     0.036 C 
HETATM    9  C17 UNL     1      -2.186  49.837 -23.412  1.00  0.00     0.015 C 
HETATM   10  C18 UNL     1      -1.995  50.102 -21.918  1.00  0.00    -0.028 C 
HETATM   11  C19 UNL     1      -2.921  51.289 -21.518  1.00  0.00     0.016 C 
HETATM   12  C20 UNL     1      -5.857  48.208 -22.880  1.00  0.00     0.011 C 
HETATM   13  C21 UNL     1      -6.688  49.502 -22.695  1.00  0.00     0.023 C 
HETATM   14  C22 UNL     1      -6.047  47.663 -24.344  1.00  0.00     0.133 C 
HETATM   15  C23 UNL     1      -7.415  47.031 -24.593  1.00  0.00     0.065 C 
HETATM   16  C24 UNL     1      -7.733  45.935 -23.591  1.00  0.00     0.139 C 
HETATM   17  C25 UNL     1      -7.691  46.417 -22.118  1.00  0.00     0.072 C 
HETATM   18  C26 UNL     1      -7.907  45.182 -21.212  1.00  0.00     0.030 C 
HETATM   19  C28 UNL     1      -6.274  47.058 -21.881  1.00  0.00     0.029 C 
HETATM   20  C29 UNL     1      -5.986  47.465 -20.432  1.00  0.00     0.090 C 
HETATM   21  C30 UNL     1      -4.514  47.730 -20.255  1.00  0.00     0.157 C 
HETATM   22  O5  UNL     1      -3.953  47.423 -19.205  1.00  0.00    -0.293 OA
ENDROOT
BRANCH   1  23
HETATM   23  C7  UNL     1       0.138  51.731 -21.866  1.00  0.00    -0.014 C 
HETATM   24  C8  UNL     1      -0.056  52.705 -20.687  1.00  0.00     0.010 C 
BRANCH  23  25
HETATM   25  C6  UNL     1      -0.378  52.384 -23.172  1.00  0.00     0.008 C 
BRANCH  25  26
HETATM   26  C5  UNL     1       0.731  52.817 -24.147  1.00  0.00     0.028 C 
BRANCH  26  27
HETATM   27  C4  UNL     1       0.394  52.612 -25.597  1.00  0.00    -0.025 C 
HETATM   28  C2  UNL     1       1.095  51.939 -26.530  1.00  0.00    -0.091 C 
HETATM   29  C1  UNL     1       0.578  51.833 -27.942  1.00  0.00     0.042 C 
HETATM   30  C3  UNL     1       2.418  51.260 -26.307  1.00  0.00     0.042 C 
ENDBRANCH  26  27
ENDBRANCH  25  26
ENDBRANCH  23  25
ENDBRANCH   1  23
BRANCH  14  31
HETATM   31  O1  UNL     1      -5.906  48.706 -25.313  1.00  0.00    -0.394 OA
HETATM   32  H35 UNL     1      -5.928  48.297 -26.196  1.00  0.00     0.210 HD
ENDBRANCH  14  31
BRANCH  17  33
HETATM   33  C27 UNL     1      -8.824  47.374 -21.746  1.00  0.00     0.151 C 
HETATM   34  O3  UNL     1      -8.823  48.164 -20.818  1.00  0.00    -0.649 OA
BRANCH  33  35
HETATM   35  O4  UNL     1      -9.932  47.266 -22.507  1.00  0.00    -0.776 OA
HETATM   36  H43 UNL     1     -10.549  47.915 -22.099  1.00  0.00     0.167 HD
ENDBRANCH  33  35
ENDBRANCH  17  33
BRANCH  16  37
HETATM   37  O2  UNL     1      -8.970  45.317 -23.945  1.00  0.00    -0.394 OA
HETATM   38  H39 UNL     1      -9.673  45.981 -23.792  1.00  0.00     0.210 HD
ENDBRANCH  16  37
TORSDOF 8
ENDMDL
MODEL 7
REMARK minimizedAffinity -9.05781937
REMARK  8 active torsions:
REMARK  status: ('A' for Active; 'I' for Inactive)
REMARK    1  A    between atoms: C4_4  and  C5_5 
REMARK    2  A    between atoms: C5_5  and  C6_6 
REMARK    3  A    between atoms: C6_6  and  C7_7 
REMARK    4  A    between atoms: C7_7  and  C9_9 
REMARK    5  A    between atoms: C22_22  and  O1_23 
REMARK    6  A    between atoms: C24_25  and  O2_26 
REMARK    7  A    between atoms: C25_27  and  C27_29 
REMARK    8  A    between atoms: C27_29  and  O4_31 
ROOT
HETATM    1  C9  UNL     1      -0.398  50.585 -18.275  1.00  0.00    -0.002 C 
HETATM    2  C10 UNL     1      -1.689  49.736 -18.185  1.00  0.00     0.007 C 
HETATM    3  C11 UNL     1      -2.216  49.579 -19.630  1.00  0.00     0.015 C 
HETATM    4  C12 UNL     1      -1.060  50.044 -20.545  1.00  0.00    -0.005 C 
HETATM    5  C13 UNL     1      -0.105  48.822 -20.718  1.00  0.00     0.021 C 
HETATM    6  C14 UNL     1      -1.317  50.529 -21.966  1.00  0.00    -0.000 C 
HETATM    7  C15 UNL     1      -0.491  51.430 -22.565  1.00  0.00    -0.058 C 
HETATM    8  C16 UNL     1       0.687  52.040 -21.782  1.00  0.00     0.036 C 
HETATM    9  C17 UNL     1       0.839  51.670 -20.290  1.00  0.00     0.015 C 
HETATM   10  C18 UNL     1      -0.496  51.236 -19.684  1.00  0.00    -0.028 C 
HETATM   11  C19 UNL     1      -1.438  52.477 -19.655  1.00  0.00     0.016 C 
HETATM   12  C20 UNL     1      -0.695  51.947 -24.029  1.00  0.00     0.011 C 
HETATM   13  C21 UNL     1      -1.427  53.307 -23.907  1.00  0.00     0.023 C 
HETATM   14  C22 UNL     1       0.669  52.147 -24.790  1.00  0.00     0.133 C 
HETATM   15  C23 UNL     1       0.508  52.396 -26.288  1.00  0.00     0.065 C 
HETATM   16  C24 UNL     1      -0.305  51.308 -26.968  1.00  0.00     0.139 C 
HETATM   17  C25 UNL     1      -1.720  51.125 -26.358  1.00  0.00     0.072 C 
HETATM   18  C26 UNL     1      -2.380  49.913 -27.057  1.00  0.00     0.030 C 
HETATM   19  C28 UNL     1      -1.531  50.864 -24.819  1.00  0.00     0.029 C 
HETATM   20  C29 UNL     1      -2.817  50.513 -24.063  1.00  0.00     0.090 C 
HETATM   21  C30 UNL     1      -2.480  49.949 -22.708  1.00  0.00     0.157 C 
HETATM   22  O5  UNL     1      -3.162  49.047 -22.227  1.00  0.00    -0.293 OA
ENDROOT
BRANCH   1  23
HETATM   23  C7  UNL     1      -0.066  51.484 -17.046  1.00  0.00    -0.014 C 
HETATM   24  C8  UNL     1       1.424  51.868 -17.129  1.00  0.00     0.010 C 
BRANCH  23  25
HETATM   25  C6  UNL     1      -0.366  50.861 -15.660  1.00  0.00     0.008 C 
BRANCH  25  26
HETATM   26  C5  UNL     1       0.864  50.271 -14.949  1.00  0.00     0.028 C 
BRANCH  26  27
HETATM   27  C4  UNL     1       0.965  48.774 -15.028  1.00  0.00    -0.025 C 
HETATM   28  C2  UNL     1       1.869  47.966 -14.439  1.00  0.00    -0.091 C 
HETATM   29  C1  UNL     1       1.794  46.473 -14.630  1.00  0.00     0.042 C 
HETATM   30  C3  UNL     1       3.016  48.420 -13.579  1.00  0.00     0.042 C 
ENDBRANCH  26  27
ENDBRANCH  25  26
ENDBRANCH  23  25
ENDBRANCH   1  23
BRANCH  14  31
HETATM   31  O1  UNL     1       1.395  53.266 -24.274  1.00  0.00    -0.394 OA
HETATM   32  H35 UNL     1       2.268  53.279 -24.706  1.00  0.00     0.210 HD
ENDBRANCH  14  31
BRANCH  17  33
HETATM   33  C27 UNL     1      -2.667  52.293 -26.632  1.00  0.00     0.151 C 
HETATM   34  O3  UNL     1      -3.617  52.626 -25.943  1.00  0.00    -0.649 OA
BRANCH  33  35
HETATM   35  O4  UNL     1      -2.431  52.962 -27.779  1.00  0.00    -0.776 OA
HETATM   36  H43 UNL     1      -3.149  53.633 -27.801  1.00  0.00     0.167 HD
ENDBRANCH  33  35
ENDBRANCH  17  33
BRANCH  16  37
HETATM   37  O2  UNL     1      -0.325  51.543 -28.375  1.00  0.00    -0.394 OA
HETATM   38  H39 UNL     1      -0.857  52.353 -28.520  1.00  0.00     0.210 HD
ENDBRANCH  16  37
TORSDOF 8
ENDMDL
MODEL 8
REMARK minimizedAffinity -8.97036362
REMARK  8 active torsions:
REMARK  status: ('A' for Active; 'I' for Inactive)
REMARK    1  A    between atoms: C4_4  and  C5_5 
REMARK    2  A    between atoms: C5_5  and  C6_6 
REMARK    3  A    between atoms: C6_6  and  C7_7 
REMARK    4  A    between atoms: C7_7  and  C9_9 
REMARK    5  A    between atoms: C22_22  and  O1_23 
REMARK    6  A    between atoms: C24_25  and  O2_26 
REMARK    7  A    between atoms: C25_27  and  C27_29 
REMARK    8  A    between atoms: C27_29  and  O4_31 
ROOT
HETATM    1  C9  UNL     1       0.031  51.105 -21.606  1.00  0.00    -0.002 C 
HETATM    2  C10 UNL     1       0.157  51.346 -20.083  1.00  0.00     0.007 C 
HETATM    3  C11 UNL     1      -1.054  50.647 -19.423  1.00  0.00     0.015 C 
HETATM    4  C12 UNL     1      -1.661  49.745 -20.524  1.00  0.00    -0.005 C 
HETATM    5  C13 UNL     1      -0.840  48.418 -20.519  1.00  0.00     0.021 C 
HETATM    6  C14 UNL     1      -3.115  49.293 -20.468  1.00  0.00    -0.000 C 
HETATM    7  C15 UNL     1      -3.811  49.016 -21.604  1.00  0.00    -0.058 C 
HETATM    8  C16 UNL     1      -3.160  49.230 -22.983  1.00  0.00     0.036 C 
HETATM    9  C17 UNL     1      -1.746  49.848 -23.033  1.00  0.00     0.015 C 
HETATM   10  C18 UNL     1      -1.453  50.673 -21.779  1.00  0.00    -0.028 C 
HETATM   11  C19 UNL     1      -2.392  51.916 -21.790  1.00  0.00     0.016 C 
HETATM   12  C20 UNL     1      -5.300  48.528 -21.605  1.00  0.00     0.011 C 
HETATM   13  C21 UNL     1      -6.165  49.787 -21.864  1.00  0.00     0.023 C 
HETATM   14  C22 UNL     1      -5.578  47.456 -22.724  1.00  0.00     0.133 C 
HETATM   15  C23 UNL     1      -6.935  46.768 -22.594  1.00  0.00     0.065 C 
HETATM   16  C24 UNL     1      -7.134  46.144 -21.224  1.00  0.00     0.139 C 
HETATM   17  C25 UNL     1      -7.000  47.160 -20.060  1.00  0.00     0.072 C 
HETATM   18  C26 UNL     1      -7.099  46.371 -18.733  1.00  0.00     0.030 C 
HETATM   19  C28 UNL     1      -5.595  47.852 -20.209  1.00  0.00     0.029 C 
HETATM   20  C29 UNL     1      -5.215  48.791 -19.059  1.00  0.00     0.090 C 
HETATM   21  C30 UNL     1      -3.745  49.114 -19.123  1.00  0.00     0.157 C 
HETATM   22  O5  UNL     1      -3.096  49.242 -18.088  1.00  0.00    -0.293 OA
ENDROOT
BRANCH   1  23
HETATM   23  C7  UNL     1       0.613  52.210 -22.539  1.00  0.00    -0.014 C 
HETATM   24  C8  UNL     1       0.918  53.448 -21.673  1.00  0.00     0.010 C 
BRANCH  23  25
HETATM   25  C6  UNL     1      -0.284  52.618 -23.734  1.00  0.00     0.008 C 
BRANCH  25  26
HETATM   26  C5  UNL     1       0.420  53.494 -24.785  1.00  0.00     0.028 C 
BRANCH  26  27
HETATM   27  C4  UNL     1       0.281  52.997 -26.196  1.00  0.00    -0.025 C 
HETATM   28  C2  UNL     1       1.050  52.099 -26.844  1.00  0.00    -0.091 C 
HETATM   29  C1  UNL     1       0.737  51.716 -28.268  1.00  0.00     0.042 C 
HETATM   30  C3  UNL     1       2.260  51.413 -26.274  1.00  0.00     0.042 C 
ENDBRANCH  26  27
ENDBRANCH  25  26
ENDBRANCH  23  25
ENDBRANCH   1  23
BRANCH  14  31
HETATM   31  O1  UNL     1      -5.550  48.043 -24.029  1.00  0.00    -0.394 OA
HETATM   32  H35 UNL     1      -5.623  47.324 -24.681  1.00  0.00     0.210 HD
ENDBRANCH  14  31
BRANCH  17  33
HETATM   33  C27 UNL     1      -8.138  48.178 -19.992  1.00  0.00     0.151 C 
HETATM   34  O3  UNL     1      -8.275  49.049 -19.149  1.00  0.00    -0.649 OA
BRANCH  33  35
HETATM   35  O4  UNL     1      -9.088  48.034 -20.938  1.00  0.00    -0.776 OA
HETATM   36  H43 UNL     1      -9.741  48.734 -20.711  1.00  0.00     0.167 HD
ENDBRANCH  33  35
ENDBRANCH  17  33
BRANCH  16  37
HETATM   37  O2  UNL     1      -8.369  45.429 -21.206  1.00  0.00    -0.394 OA
HETATM   38  H39 UNL     1      -9.084  46.095 -21.262  1.00  0.00     0.210 HD
ENDBRANCH  16  37
TORSDOF 8
ENDMDL
MODEL 9
REMARK minimizedAffinity -8.93150043
REMARK  8 active torsions:
REMARK  status: ('A' for Active; 'I' for Inactive)
REMARK    1  A    between atoms: C4_4  and  C5_5 
REMARK    2  A    between atoms: C5_5  and  C6_6 
REMARK    3  A    between atoms: C6_6  and  C7_7 
REMARK    4  A    between atoms: C7_7  and  C9_9 
REMARK    5  A    between atoms: C22_22  and  O1_23 
REMARK    6  A    between atoms: C24_25  and  O2_26 
REMARK    7  A    between atoms: C25_27  and  C27_29 
REMARK    8  A    between atoms: C27_29  and  O4_31 
ROOT
HETATM    1  C9  UNL     1      -4.327  49.939 -24.722  1.00  0.00    -0.002 C 
HETATM    2  C10 UNL     1      -5.581  49.178 -24.228  1.00  0.00     0.007 C 
HETATM    3  C11 UNL     1      -5.449  49.060 -22.692  1.00  0.00     0.015 C 
HETATM    4  C12 UNL     1      -4.312  50.032 -22.299  1.00  0.00    -0.005 C 
HETATM    5  C13 UNL     1      -4.956  51.448 -22.175  1.00  0.00     0.021 C 
HETATM    6  C14 UNL     1      -3.530  49.856 -21.003  1.00  0.00    -0.000 C 
HETATM    7  C15 UNL     1      -2.243  50.284 -20.894  1.00  0.00    -0.058 C 
HETATM    8  C16 UNL     1      -1.521  50.890 -22.112  1.00  0.00     0.036 C 
HETATM    9  C17 UNL     1      -2.267  50.909 -23.464  1.00  0.00     0.015 C 
HETATM   10  C18 UNL     1      -3.344  49.825 -23.523  1.00  0.00    -0.028 C 
HETATM   11  C19 UNL     1      -2.633  48.439 -23.521  1.00  0.00     0.016 C 
HETATM   12  C20 UNL     1      -1.398  50.148 -19.581  1.00  0.00     0.011 C 
HETATM   13  C21 UNL     1      -0.534  48.874 -19.756  1.00  0.00     0.023 C 
HETATM   14  C22 UNL     1      -0.463  51.391 -19.339  1.00  0.00     0.133 C 
HETATM   15  C23 UNL     1       0.176  51.421 -17.953  1.00  0.00     0.065 C 
HETATM   16  C24 UNL     1      -0.855  51.329 -16.842  1.00  0.00     0.139 C 
HETATM   17  C25 UNL     1      -1.745  50.062 -16.932  1.00  0.00     0.072 C 
HETATM   18  C26 UNL     1      -2.821  50.163 -15.824  1.00  0.00     0.030 C 
HETATM   19  C28 UNL     1      -2.398  50.055 -18.363  1.00  0.00     0.029 C 
HETATM   20  C29 UNL     1      -3.433  48.949 -18.592  1.00  0.00     0.090 C 
HETATM   21  C30 UNL     1      -4.233  49.242 -19.834  1.00  0.00     0.157 C 
HETATM   22  O5  UNL     1      -5.429  48.963 -19.879  1.00  0.00    -0.293 OA
ENDROOT
BRANCH   1  23
HETATM   23  C7  UNL     1      -3.820  49.593 -26.155  1.00  0.00    -0.014 C 
HETATM   24  C8  UNL     1      -4.556  48.322 -26.623  1.00  0.00     0.010 C 
BRANCH  23  25
HETATM   25  C6  UNL     1      -2.290  49.390 -26.293  1.00  0.00     0.008 C 
BRANCH  25  26
HETATM   26  C5  UNL     1      -1.543  50.591 -26.898  1.00  0.00     0.028 C 
BRANCH  26  27
HETATM   27  C4  UNL     1      -0.134  50.755 -26.402  1.00  0.00    -0.025 C 
HETATM   28  C2  UNL     1       0.912  51.325 -27.032  1.00  0.00    -0.091 C 
HETATM   29  C1  UNL     1       2.256  51.408 -26.356  1.00  0.00     0.042 C 
HETATM   30  C3  UNL     1       0.885  51.903 -28.420  1.00  0.00     0.042 C 
ENDBRANCH  26  27
ENDBRANCH  25  26
ENDBRANCH  23  25
ENDBRANCH   1  23
BRANCH  14  31
HETATM   31  O1  UNL     1       0.616  51.424 -20.278  1.00  0.00    -0.394 OA
HETATM   32  H35 UNL     1       1.097  52.262 -20.150  1.00  0.00     0.210 HD
ENDBRANCH  14  31
BRANCH  17  33
HETATM   33  C27 UNL     1      -1.002  48.761 -16.632  1.00  0.00     0.151 C 
HETATM   34  O3  UNL     1       0.192  48.649 -16.407  1.00  0.00    -0.649 OA
BRANCH  33  35
HETATM   35  O4  UNL     1      -1.760  47.647 -16.680  1.00  0.00    -0.776 OA
HETATM   36  H43 UNL     1      -1.114  46.926 -16.506  1.00  0.00     0.167 HD
ENDBRANCH  33  35
ENDBRANCH  17  33
BRANCH  16  37
HETATM   37  O2  UNL     1      -0.203  51.470 -15.580  1.00  0.00    -0.394 OA
HETATM   38  H39 UNL     1       0.344  50.669 -15.452  1.00  0.00     0.210 HD
ENDBRANCH  16  37
TORSDOF 8
ENDMDL
