MODEL 1
REMARK minimizedAffinity -6.03529501
REMARK CNNscore 0.375502855
REMARK CNNaffinity 5.70940924
REMARK  8 active torsions:
REMARK  status: ('A' for Active; 'I' for Inactive)
REMARK    1  A    between atoms: C12_14  and  C13_15 
REMARK    2  A    between atoms: C13_15  and  C15_17 
REMARK    3  A    between atoms: C15_17  and  C16_18 
REMARK    4  A    between atoms: C16_18  and  C17_19 
REMARK    5  A    between atoms: C26_28  and  C27_29 
REMARK    6  A    between atoms: C27_29  and  C28_30 
REMARK    7  A    between atoms: C28_30  and  C29_31 
REMARK    8  A    between atoms: C29_31  and  O4_33 
ROOT
HETATM    1  C1  UNL     1      -7.901  -9.518  12.802  1.00  0.00     0.025 C 
HETATM    2  C2  UNL     1      -6.945  -9.966  11.979  1.00  0.00     0.015 C 
HETATM    3  C3  UNL     1      -6.324 -11.308  12.121  1.00  0.00     0.289 C 
HETATM    4  O1  UNL     1      -6.730 -12.224  12.815  1.00  0.00    -0.260 OA
HETATM    5  O2  UNL     1      -5.224 -11.343  11.307  1.00  0.00    -0.311 OA
HETATM    6  C4  UNL     1      -4.945 -10.007  10.881  1.00  0.00     0.142 C 
HETATM    7  C5  UNL     1      -4.189  -9.941   9.566  1.00  0.00     0.039 C 
HETATM    8  C6  UNL     1      -4.943 -10.559   8.371  1.00  0.00     0.006 C 
HETATM    9  C7  UNL     1      -6.372  -9.966   8.225  1.00  0.00    -0.027 A 
HETATM   10  C8  UNL     1      -6.886  -9.585   6.808  1.00  0.00     0.011 C 
HETATM   11  C9  UNL     1      -6.020  -9.888   5.579  1.00  0.00     0.011 C 
HETATM   12  C10 UNL     1      -4.971 -10.964   5.839  1.00  0.00    -0.032 C 
HETATM   13  C11 UNL     1      -5.691 -12.314   6.073  1.00  0.00     0.016 C 
HETATM   14  C12 UNL     1      -3.893 -11.106   4.720  1.00  0.00    -0.002 C 
HETATM   15  C21 UNL     1      -2.639 -11.605   5.471  1.00  0.00     0.006 C 
HETATM   16  C22 UNL     1      -2.925 -11.447   6.978  1.00  0.00     0.011 C 
HETATM   17  C23 UNL     1      -4.115 -10.472   7.056  1.00  0.00    -0.032 C 
HETATM   18  C24 UNL     1      -3.541  -9.027   6.892  1.00  0.00     0.016 C 
HETATM   19  C25 UNL     1      -7.450 -10.693   9.024  1.00  0.00     0.022 A 
HETATM   20  C26 UNL     1      -7.021  -9.328   9.498  1.00  0.00    -0.021 A 
HETATM   21  C31 UNL     1      -6.272  -9.266  10.844  1.00  0.00     0.063 C 
ENDROOT
BRANCH  14  22
HETATM   22  C13 UNL     1      -4.235 -11.752   3.344  1.00  0.00    -0.014 C 
HETATM   23  C14 UNL     1      -4.045 -13.279   3.445  1.00  0.00     0.010 C 
BRANCH  22  24
HETATM   24  C15 UNL     1      -5.541 -11.407   2.581  1.00  0.00     0.008 C 
BRANCH  24  25
HETATM   25  C16 UNL     1      -5.529 -10.626   1.259  1.00  0.00     0.028 C 
BRANCH  25  26
HETATM   26  C17 UNL     1      -4.809 -11.320   0.142  1.00  0.00    -0.025 C 
HETATM   27  C18 UNL     1      -4.884 -11.071  -1.180  1.00  0.00    -0.091 C 
HETATM   28  C19 UNL     1      -5.674  -9.959  -1.810  1.00  0.00     0.042 C 
HETATM   29  C20 UNL     1      -4.140 -11.943  -2.158  1.00  0.00     0.042 C 
ENDBRANCH  25  26
ENDBRANCH  24  25
ENDBRANCH  22  24
ENDBRANCH  14  22
BRANCH  20  30
HETATM   30  C27 UNL     1      -8.032  -8.191   9.315  1.00  0.00     0.021 C 
BRANCH  30  31
HETATM   31  C28 UNL     1      -9.466  -8.635   9.601  1.00  0.00     0.112 C 
BRANCH  31  32
HETATM   32  C29 UNL     1     -10.351  -8.373   8.411  1.00  0.00     0.258 C 
HETATM   33  O3  UNL     1      -9.980  -8.459   7.246  1.00  0.00    -0.265 OA
BRANCH  32  34
HETATM   34  O4  UNL     1     -11.605  -8.028   8.814  1.00  0.00    -0.326 OA
HETATM   35  C30 UNL     1     -12.480  -7.670   7.740  1.00  0.00     0.213 C 
ENDBRANCH  32  34
ENDBRANCH  31  32
ENDBRANCH  30  31
ENDBRANCH  20  30
TORSDOF 8
ENDMDL
MODEL 2
REMARK minimizedAffinity -8.5279789
REMARK CNNscore 0.299605995
REMARK CNNaffinity 7.05666685
REMARK  8 active torsions:
REMARK  status: ('A' for Active; 'I' for Inactive)
REMARK    1  A    between atoms: C12_14  and  C13_15 
REMARK    2  A    between atoms: C13_15  and  C15_17 
REMARK    3  A    between atoms: C15_17  and  C16_18 
REMARK    4  A    between atoms: C16_18  and  C17_19 
REMARK    5  A    between atoms: C26_28  and  C27_29 
REMARK    6  A    between atoms: C27_29  and  C28_30 
REMARK    7  A    between atoms: C28_30  and  C29_31 
REMARK    8  A    between atoms: C29_31  and  O4_33 
ROOT
HETATM    1  C1  UNL     1       2.605   5.993   8.918  1.00  0.00     0.025 C 
HETATM    2  C2  UNL     1       1.939   6.814   9.740  1.00  0.00     0.015 C 
HETATM    3  C3  UNL     1       1.345   8.099   9.289  1.00  0.00     0.289 C 
HETATM    4  O1  UNL     1       1.187   8.457   8.136  1.00  0.00    -0.260 OA
HETATM    5  O2  UNL     1       0.981   8.800  10.406  1.00  0.00    -0.311 OA
HETATM    6  C4  UNL     1       1.572   8.165  11.542  1.00  0.00     0.142 C 
HETATM    7  C5  UNL     1       0.819   8.421  12.835  1.00  0.00     0.039 C 
HETATM    8  C6  UNL     1      -0.633   7.901  12.836  1.00  0.00     0.006 C 
HETATM    9  C7  UNL     1      -0.705   6.401  12.435  1.00  0.00    -0.027 A 
HETATM   10  C8  UNL     1      -1.634   5.451  13.242  1.00  0.00     0.011 C 
HETATM   11  C9  UNL     1      -2.530   6.025  14.346  1.00  0.00     0.011 C 
HETATM   12  C10 UNL     1      -2.768   7.525  14.204  1.00  0.00    -0.032 C 
HETATM   13  C11 UNL     1      -3.615   7.775  12.932  1.00  0.00     0.016 C 
HETATM   14  C12 UNL     1      -3.431   8.199  15.445  1.00  0.00    -0.002 C 
HETATM   15  C21 UNL     1      -2.894   9.647  15.414  1.00  0.00     0.006 C 
HETATM   16  C22 UNL     1      -1.746   9.678  14.384  1.00  0.00     0.011 C 
HETATM   17  C23 UNL     1      -1.355   8.203  14.180  1.00  0.00    -0.032 C 
HETATM   18  C24 UNL     1      -0.432   7.799  15.375  1.00  0.00     0.016 C 
HETATM   19  C25 UNL     1      -0.824   6.145  10.935  1.00  0.00     0.022 A 
HETATM   20  C26 UNL     1       0.486   5.819  11.603  1.00  0.00    -0.021 A 
HETATM   21  C31 UNL     1       1.699   6.687  11.208  1.00  0.00     0.063 C 
ENDROOT
BRANCH  14  22
HETATM   22  C13 UNL     1      -4.937   7.977  15.778  1.00  0.00    -0.014 C 
HETATM   23  C14 UNL     1      -5.763   9.120  15.151  1.00  0.00     0.010 C 
BRANCH  22  24
HETATM   24  C15 UNL     1      -5.631   6.608  15.555  1.00  0.00     0.008 C 
BRANCH  24  25
HETATM   25  C16 UNL     1      -6.603   6.367  14.390  1.00  0.00     0.028 C 
BRANCH  25  26
HETATM   26  C17 UNL     1      -6.755   4.926  14.006  1.00  0.00    -0.025 C 
HETATM   27  C18 UNL     1      -7.556   4.396  13.061  1.00  0.00    -0.091 C 
HETATM   28  C19 UNL     1      -8.427   5.181  12.122  1.00  0.00     0.042 C 
HETATM   29  C20 UNL     1      -7.629   2.901  12.883  1.00  0.00     0.042 C 
ENDBRANCH  25  26
ENDBRANCH  24  25
ENDBRANCH  22  24
ENDBRANCH  14  22
BRANCH  20  30
HETATM   30  C27 UNL     1       0.829   4.333  11.750  1.00  0.00     0.021 C 
BRANCH  30  31
HETATM   31  C28 UNL     1      -0.385   3.491  12.143  1.00  0.00     0.112 C 
BRANCH  31  32
HETATM   32  C29 UNL     1      -0.808   2.604  11.001  1.00  0.00     0.258 C 
HETATM   33  O3  UNL     1      -1.751   2.845  10.257  1.00  0.00    -0.265 OA
BRANCH  32  34
HETATM   34  O4  UNL     1      -0.004   1.508  10.924  1.00  0.00    -0.326 OA
HETATM   35  C30 UNL     1      -0.687   0.317  10.520  1.00  0.00     0.213 C 
ENDBRANCH  32  34
ENDBRANCH  31  32
ENDBRANCH  30  31
ENDBRANCH  20  30
TORSDOF 8
ENDMDL
MODEL 3
REMARK minimizedAffinity -6.19088936
REMARK CNNscore 0.248854905
REMARK CNNaffinity 6.09918928
REMARK  8 active torsions:
REMARK  status: ('A' for Active; 'I' for Inactive)
REMARK    1  A    between atoms: C12_14  and  C13_15 
REMARK    2  A    between atoms: C13_15  and  C15_17 
REMARK    3  A    between atoms: C15_17  and  C16_18 
REMARK    4  A    between atoms: C16_18  and  C17_19 
REMARK    5  A    between atoms: C26_28  and  C27_29 
REMARK    6  A    between atoms: C27_29  and  C28_30 
REMARK    7  A    between atoms: C28_30  and  C29_31 
REMARK    8  A    between atoms: C29_31  and  O4_33 
ROOT
HETATM    1  C1  UNL     1      -1.193  15.956  16.392  1.00  0.00     0.025 C 
HETATM    2  C2  UNL     1      -1.910  14.954  15.869  1.00  0.00     0.015 C 
HETATM    3  C3  UNL     1      -2.528  15.023  14.520  1.00  0.00     0.289 C 
HETATM    4  O1  UNL     1      -2.293  15.852  13.659  1.00  0.00    -0.260 OA
HETATM    5  O2  UNL     1      -3.392  13.968  14.406  1.00  0.00    -0.311 OA
HETATM    6  C4  UNL     1      -3.576  13.403  15.707  1.00  0.00     0.142 C 
HETATM    7  C5  UNL     1      -3.985  11.941  15.675  1.00  0.00     0.039 C 
HETATM    8  C6  UNL     1      -2.952  11.009  15.010  1.00  0.00     0.006 C 
HETATM    9  C7  UNL     1      -1.539  11.181  15.635  1.00  0.00    -0.027 A 
HETATM   10  C8  UNL     1      -0.696   9.912  15.949  1.00  0.00     0.011 C 
HETATM   11  C9  UNL     1      -1.229   8.531  15.550  1.00  0.00     0.011 C 
HETATM   12  C10 UNL     1      -2.294   8.593  14.461  1.00  0.00    -0.032 C 
HETATM   13  C11 UNL     1      -1.636   9.081  13.148  1.00  0.00     0.016 C 
HETATM   14  C12 UNL     1      -3.062   7.255  14.223  1.00  0.00    -0.002 C 
HETATM   15  C21 UNL     1      -4.454   7.705  13.732  1.00  0.00     0.006 C 
HETATM   16  C22 UNL     1      -4.551   9.223  13.986  1.00  0.00     0.011 C 
HETATM   17  C23 UNL     1      -3.431   9.529  14.997  1.00  0.00    -0.032 C 
HETATM   18  C24 UNL     1      -3.966   9.137  16.413  1.00  0.00     0.016 C 
HETATM   19  C25 UNL     1      -0.681  12.265  14.988  1.00  0.00     0.022 A 
HETATM   20  C26 UNL     1      -1.232  12.531  16.364  1.00  0.00    -0.021 A 
HETATM   21  C31 UNL     1      -2.291  13.646  16.482  1.00  0.00     0.063 C 
ENDROOT
BRANCH  14  22
HETATM   22  C13 UNL     1      -2.381   6.048  13.509  1.00  0.00    -0.014 C 
HETATM   23  C14 UNL     1      -1.622   5.208  14.556  1.00  0.00     0.010 C 
BRANCH  22  24
HETATM   24  C15 UNL     1      -3.159   5.134  12.526  1.00  0.00     0.008 C 
BRANCH  24  25
HETATM   25  C16 UNL     1      -4.414   4.360  12.955  1.00  0.00     0.028 C 
BRANCH  25  26
HETATM   26  C17 UNL     1      -4.740   3.187  12.080  1.00  0.00    -0.025 C 
HETATM   27  C18 UNL     1      -5.912   2.530  11.969  1.00  0.00    -0.091 C 
HETATM   28  C19 UNL     1      -7.187   2.908  12.668  1.00  0.00     0.042 C 
HETATM   29  C20 UNL     1      -6.015   1.311  11.090  1.00  0.00     0.042 C 
ENDBRANCH  25  26
ENDBRANCH  24  25
ENDBRANCH  22  24
ENDBRANCH  14  22
BRANCH  20  30
HETATM   30  C27 UNL     1      -0.224  12.531  17.518  1.00  0.00     0.021 C 
BRANCH  30  31
HETATM   31  C28 UNL     1       1.092  11.851  17.141  1.00  0.00     0.112 C 
BRANCH  31  32
HETATM   32  C29 UNL     1       1.932  11.602  18.366  1.00  0.00     0.258 C 
HETATM   33  O3  UNL     1       2.887  12.296  18.698  1.00  0.00    -0.265 OA
BRANCH  32  34
HETATM   34  O4  UNL     1       1.485  10.505  19.038  1.00  0.00    -0.326 OA
HETATM   35  C30 UNL     1       1.094  10.774  20.388  1.00  0.00     0.213 C 
ENDBRANCH  32  34
ENDBRANCH  31  32
ENDBRANCH  30  31
ENDBRANCH  20  30
TORSDOF 8
ENDMDL
MODEL 4
REMARK minimizedAffinity -6.93863821
REMARK CNNscore 0.231358528
REMARK CNNaffinity 6.25419044
REMARK  8 active torsions:
REMARK  status: ('A' for Active; 'I' for Inactive)
REMARK    1  A    between atoms: C12_14  and  C13_15 
REMARK    2  A    between atoms: C13_15  and  C15_17 
REMARK    3  A    between atoms: C15_17  and  C16_18 
REMARK    4  A    between atoms: C16_18  and  C17_19 
REMARK    5  A    between atoms: C26_28  and  C27_29 
REMARK    6  A    between atoms: C27_29  and  C28_30 
REMARK    7  A    between atoms: C28_30  and  C29_31 
REMARK    8  A    between atoms: C29_31  and  O4_33 
ROOT
HETATM    1  C1  UNL     1      -2.349  13.705  18.090  1.00  0.00     0.025 C 
HETATM    2  C2  UNL     1      -2.748  12.760  17.231  1.00  0.00     0.015 C 
HETATM    3  C3  UNL     1      -3.386  13.073  15.926  1.00  0.00     0.289 C 
HETATM    4  O1  UNL     1      -3.423  14.162  15.383  1.00  0.00    -0.260 OA
HETATM    5  O2  UNL     1      -3.902  11.908  15.428  1.00  0.00    -0.311 OA
HETATM    6  C4  UNL     1      -3.885  10.932  16.472  1.00  0.00     0.142 C 
HETATM    7  C5  UNL     1      -3.845   9.503  15.961  1.00  0.00     0.039 C 
HETATM    8  C6  UNL     1      -2.596   9.166  15.122  1.00  0.00     0.006 C 
HETATM    9  C7  UNL     1      -1.284   9.528  15.874  1.00  0.00    -0.027 A 
HETATM   10  C8  UNL     1      -0.099   8.522  15.845  1.00  0.00     0.011 C 
HETATM   11  C9  UNL     1      -0.207   7.247  15.000  1.00  0.00     0.011 C 
HETATM   12  C10 UNL     1      -1.265   7.344  13.905  1.00  0.00    -0.032 C 
HETATM   13  C11 UNL     1      -0.806   8.390  12.861  1.00  0.00     0.016 C 
HETATM   14  C12 UNL     1      -1.607   5.989  13.210  1.00  0.00    -0.002 C 
HETATM   15  C21 UNL     1      -3.080   6.154  12.777  1.00  0.00     0.006 C 
HETATM   16  C22 UNL     1      -3.616   7.419  13.479  1.00  0.00     0.011 C 
HETATM   17  C23 UNL     1      -2.617   7.695  14.617  1.00  0.00    -0.032 C 
HETATM   18  C24 UNL     1      -2.984   6.739  15.798  1.00  0.00     0.016 C 
HETATM   19  C25 UNL     1      -0.798  10.959  15.660  1.00  0.00     0.022 A 
HETATM   20  C26 UNL     1      -1.376  10.606  17.005  1.00  0.00    -0.021 A 
HETATM   21  C31 UNL     1      -2.715  11.274  17.381  1.00  0.00     0.063 C 
ENDROOT
BRANCH  14  22
HETATM   22  C13 UNL     1      -0.614   5.319  12.212  1.00  0.00    -0.014 C 
HETATM   23  C14 UNL     1      -1.138   3.914  11.852  1.00  0.00     0.010 C 
BRANCH  22  24
HETATM   24  C15 UNL     1      -0.102   6.058  10.948  1.00  0.00     0.008 C 
BRANCH  24  25
HETATM   25  C16 UNL     1       1.373   6.453  10.778  1.00  0.00     0.028 C 
BRANCH  25  26
HETATM   26  C17 UNL     1       1.827   6.528   9.351  1.00  0.00    -0.025 C 
HETATM   27  C18 UNL     1       1.415   7.376   8.389  1.00  0.00    -0.091 C 
HETATM   28  C19 UNL     1       0.440   8.503   8.585  1.00  0.00     0.042 C 
HETATM   29  C20 UNL     1       1.935   7.235   6.982  1.00  0.00     0.042 C 
ENDBRANCH  25  26
ENDBRANCH  24  25
ENDBRANCH  22  24
ENDBRANCH  14  22
BRANCH  20  30
HETATM   30  C27 UNL     1      -0.390  10.529  18.176  1.00  0.00     0.021 C 
BRANCH  30  31
HETATM   31  C28 UNL     1       0.789  11.487  18.008  1.00  0.00     0.112 C 
BRANCH  31  32
HETATM   32  C29 UNL     1       2.096  10.746  18.112  1.00  0.00     0.258 C 
HETATM   33  O3  UNL     1       2.191   9.551  18.368  1.00  0.00    -0.265 OA
BRANCH  32  34
HETATM   34  O4  UNL     1       3.142  11.588  17.889  1.00  0.00    -0.326 OA
HETATM   35  C30 UNL     1       4.035  11.708  19.001  1.00  0.00     0.213 C 
ENDBRANCH  32  34
ENDBRANCH  31  32
ENDBRANCH  30  31
ENDBRANCH  20  30
TORSDOF 8
ENDMDL
MODEL 5
REMARK minimizedAffinity -6.02673292
REMARK CNNscore 0.206733525
REMARK CNNaffinity 5.55370331
REMARK  8 active torsions:
REMARK  status: ('A' for Active; 'I' for Inactive)
REMARK    1  A    between atoms: C12_14  and  C13_15 
REMARK    2  A    between atoms: C13_15  and  C15_17 
REMARK    3  A    between atoms: C15_17  and  C16_18 
REMARK    4  A    between atoms: C16_18  and  C17_19 
REMARK    5  A    between atoms: C26_28  and  C27_29 
REMARK    6  A    between atoms: C27_29  and  C28_30 
REMARK    7  A    between atoms: C28_30  and  C29_31 
REMARK    8  A    between atoms: C29_31  and  O4_33 
ROOT
HETATM    1  C1  UNL     1     -16.509  -0.917  17.531  1.00  0.00     0.025 C 
HETATM    2  C2  UNL     1     -16.013  -1.832  16.688  1.00  0.00     0.015 C 
HETATM    3  C3  UNL     1     -15.970  -3.282  17.006  1.00  0.00     0.289 C 
HETATM    4  O1  UNL     1     -16.553  -3.840  17.919  1.00  0.00    -0.260 OA
HETATM    5  O2  UNL     1     -15.177  -3.888  16.069  1.00  0.00    -0.311 OA
HETATM    6  C4  UNL     1     -14.481  -2.867  15.350  1.00  0.00     0.142 C 
HETATM    7  C5  UNL     1     -14.059  -3.293  13.956  1.00  0.00     0.039 C 
HETATM    8  C6  UNL     1     -15.232  -3.665  13.026  1.00  0.00     0.006 C 
HETATM    9  C7  UNL     1     -16.297  -2.534  12.966  1.00  0.00    -0.027 A 
HETATM   10  C8  UNL     1     -16.902  -2.142  11.588  1.00  0.00     0.011 C 
HETATM   11  C9  UNL     1     -16.512  -2.937  10.336  1.00  0.00     0.011 C 
HETATM   12  C10 UNL     1     -15.956  -4.321  10.655  1.00  0.00    -0.032 C 
HETATM   13  C11 UNL     1     -17.092  -5.187  11.253  1.00  0.00     0.016 C 
HETATM   14  C12 UNL     1     -15.290  -5.050   9.447  1.00  0.00    -0.002 C 
HETATM   15  C21 UNL     1     -14.216  -5.947  10.099  1.00  0.00     0.006 C 
HETATM   16  C22 UNL     1     -14.088  -5.499  11.569  1.00  0.00     0.011 C 
HETATM   17  C23 UNL     1     -14.738  -4.104  11.618  1.00  0.00    -0.032 C 
HETATM   18  C24 UNL     1     -13.680  -3.081  11.089  1.00  0.00     0.016 C 
HETATM   19  C25 UNL     1     -17.381  -2.620  14.038  1.00  0.00     0.022 A 
HETATM   20  C26 UNL     1     -16.350  -1.529  14.165  1.00  0.00    -0.021 A 
HETATM   21  C31 UNL     1     -15.372  -1.635  15.353  1.00  0.00     0.063 C 
ENDROOT
BRANCH  14  22
HETATM   22  C13 UNL     1     -16.147  -5.645   8.289  1.00  0.00    -0.014 C 
HETATM   23  C14 UNL     1     -15.595  -5.133   6.943  1.00  0.00     0.010 C 
BRANCH  22  24
HETATM   24  C15 UNL     1     -16.477  -7.158   8.211  1.00  0.00     0.008 C 
BRANCH  24  25
HETATM   25  C16 UNL     1     -15.695  -8.116   7.300  1.00  0.00     0.028 C 
BRANCH  25  26
HETATM   26  C17 UNL     1     -16.480  -8.629   6.130  1.00  0.00    -0.025 C 
HETATM   27  C18 UNL     1     -17.786  -8.443   5.857  1.00  0.00    -0.091 C 
HETATM   28  C19 UNL     1     -18.728  -7.590   6.660  1.00  0.00     0.042 C 
HETATM   29  C20 UNL     1     -18.414  -9.117   4.664  1.00  0.00     0.042 C 
ENDBRANCH  25  26
ENDBRANCH  24  25
ENDBRANCH  22  24
ENDBRANCH  14  22
BRANCH  20  30
HETATM   30  C27 UNL     1     -16.830  -0.098  13.903  1.00  0.00     0.021 C 
BRANCH  30  31
HETATM   31  C28 UNL     1     -15.701   0.819  13.432  1.00  0.00     0.112 C 
BRANCH  31  32
HETATM   32  C29 UNL     1     -15.366   1.837  14.491  1.00  0.00     0.258 C 
HETATM   33  O3  UNL     1     -14.477   1.698  15.322  1.00  0.00    -0.265 OA
BRANCH  32  34
HETATM   34  O4  UNL     1     -16.190   2.917  14.393  1.00  0.00    -0.326 OA
HETATM   35  C30 UNL     1     -15.607   4.134  14.869  1.00  0.00     0.213 C 
ENDBRANCH  32  34
ENDBRANCH  31  32
ENDBRANCH  30  31
ENDBRANCH  20  30
TORSDOF 8
ENDMDL
MODEL 6
REMARK minimizedAffinity -6.69002199
REMARK CNNscore 0.184567392
REMARK CNNaffinity 5.09027338
REMARK  8 active torsions:
REMARK  status: ('A' for Active; 'I' for Inactive)
REMARK    1  A    between atoms: C12_14  and  C13_15 
REMARK    2  A    between atoms: C13_15  and  C15_17 
REMARK    3  A    between atoms: C15_17  and  C16_18 
REMARK    4  A    between atoms: C16_18  and  C17_19 
REMARK    5  A    between atoms: C26_28  and  C27_29 
REMARK    6  A    between atoms: C27_29  and  C28_30 
REMARK    7  A    between atoms: C28_30  and  C29_31 
REMARK    8  A    between atoms: C29_31  and  O4_33 
ROOT
HETATM    1  C1  UNL     1      -2.570  14.443  14.283  1.00  0.00     0.025 C 
HETATM    2  C2  UNL     1      -1.407  14.191  14.896  1.00  0.00     0.015 C 
HETATM    3  C3  UNL     1      -0.389  15.241  15.156  1.00  0.00     0.289 C 
HETATM    4  O1  UNL     1      -0.552  16.445  15.064  1.00  0.00    -0.260 OA
HETATM    5  O2  UNL     1       0.763  14.614  15.544  1.00  0.00    -0.311 OA
HETATM    6  C4  UNL     1       0.624  13.218  15.266  1.00  0.00     0.142 C 
HETATM    7  C5  UNL     1       1.497  12.340  16.143  1.00  0.00     0.039 C 
HETATM    8  C6  UNL     1       1.192  12.448  17.651  1.00  0.00     0.006 C 
HETATM    9  C7  UNL     1      -0.316  12.212  17.949  1.00  0.00    -0.027 A 
HETATM   10  C8  UNL     1      -0.713  11.316  19.156  1.00  0.00     0.011 C 
HETATM   11  C9  UNL     1       0.378  10.765  20.082  1.00  0.00     0.011 C 
HETATM   12  C10 UNL     1       1.683  11.550  20.002  1.00  0.00    -0.032 C 
HETATM   13  C11 UNL     1       1.448  12.966  20.581  1.00  0.00     0.016 C 
HETATM   14  C12 UNL     1       2.898  10.867  20.704  1.00  0.00    -0.002 C 
HETATM   15  C21 UNL     1       4.120  11.362  19.899  1.00  0.00     0.006 C 
HETATM   16  C22 UNL     1       3.575  12.036  18.624  1.00  0.00     0.011 C 
HETATM   17  C23 UNL     1       2.125  11.535  18.498  1.00  0.00    -0.032 C 
HETATM   18  C24 UNL     1       2.181  10.107  17.863  1.00  0.00     0.016 C 
HETATM   19  C25 UNL     1      -1.183  13.467  17.886  1.00  0.00     0.022 A 
HETATM   20  C26 UNL     1      -1.328  12.455  16.780  1.00  0.00    -0.021 A 
HETATM   21  C31 UNL     1      -0.856  12.889  15.377  1.00  0.00     0.063 C 
ENDROOT
BRANCH  14  22
HETATM   22  C13 UNL     1       3.009  10.813  22.257  1.00  0.00    -0.014 C 
HETATM   23  C14 UNL     1       3.168   9.343  22.698  1.00  0.00     0.010 C 
BRANCH  22  24
HETATM   24  C15 UNL     1       3.982  11.733  23.041  1.00  0.00     0.008 C 
BRANCH  24  25
HETATM   25  C16 UNL     1       5.501  11.512  23.025  1.00  0.00     0.028 C 
BRANCH  25  26
HETATM   26  C17 UNL     1       6.306  12.777  23.072  1.00  0.00    -0.025 C 
HETATM   27  C18 UNL     1       7.643  12.910  23.168  1.00  0.00    -0.091 C 
HETATM   28  C19 UNL     1       8.630  11.778  23.170  1.00  0.00     0.042 C 
HETATM   29  C20 UNL     1       8.260  14.280  23.288  1.00  0.00     0.042 C 
ENDBRANCH  25  26
ENDBRANCH  24  25
ENDBRANCH  22  24
ENDBRANCH  14  22
BRANCH  20  30
HETATM   30  C27 UNL     1      -2.630  11.647  16.756  1.00  0.00     0.021 C 
BRANCH  30  31
HETATM   31  C28 UNL     1      -2.681  10.658  15.593  1.00  0.00     0.112 C 
BRANCH  31  32
HETATM   32  C29 UNL     1      -2.479   9.248  16.083  1.00  0.00     0.258 C 
HETATM   33  O3  UNL     1      -1.480   8.864  16.679  1.00  0.00    -0.265 OA
BRANCH  32  34
HETATM   34  O4  UNL     1      -3.553   8.474  15.766  1.00  0.00    -0.326 OA
HETATM   35  C30 UNL     1      -4.732   9.221  15.451  1.00  0.00     0.213 C 
ENDBRANCH  32  34
ENDBRANCH  31  32
ENDBRANCH  30  31
ENDBRANCH  20  30
TORSDOF 8
ENDMDL
MODEL 7
REMARK minimizedAffinity -6.75680113
REMARK CNNscore 0.180697858
REMARK CNNaffinity 6.19799757
REMARK  8 active torsions:
REMARK  status: ('A' for Active; 'I' for Inactive)
REMARK    1  A    between atoms: C12_14  and  C13_15 
REMARK    2  A    between atoms: C13_15  and  C15_17 
REMARK    3  A    between atoms: C15_17  and  C16_18 
REMARK    4  A    between atoms: C16_18  and  C17_19 
REMARK    5  A    between atoms: C26_28  and  C27_29 
REMARK    6  A    between atoms: C27_29  and  C28_30 
REMARK    7  A    between atoms: C28_30  and  C29_31 
REMARK    8  A    between atoms: C29_31  and  O4_33 
ROOT
HETATM    1  C1  UNL     1      -5.263   3.174  12.025  1.00  0.00     0.025 C 
HETATM    2  C2  UNL     1      -4.148   3.881  12.245  1.00  0.00     0.015 C 
HETATM    3  C3  UNL     1      -3.134   4.139  11.191  1.00  0.00     0.289 C 
HETATM    4  O1  UNL     1      -3.272   3.955   9.994  1.00  0.00    -0.260 OA
HETATM    5  O2  UNL     1      -2.021   4.648  11.802  1.00  0.00    -0.311 OA
HETATM    6  C4  UNL     1      -2.162   4.457  13.212  1.00  0.00     0.142 C 
HETATM    7  C5  UNL     1      -1.364   5.450  14.037  1.00  0.00     0.039 C 
HETATM    8  C6  UNL     1      -1.771   6.922  13.822  1.00  0.00     0.006 C 
HETATM    9  C7  UNL     1      -3.299   7.130  14.020  1.00  0.00    -0.027 A 
HETATM   10  C8  UNL     1      -3.791   8.365  14.827  1.00  0.00     0.011 C 
HETATM   11  C9  UNL     1      -2.774   9.400  15.324  1.00  0.00     0.011 C 
HETATM   12  C10 UNL     1      -1.455   9.357  14.560  1.00  0.00    -0.032 C 
HETATM   13  C11 UNL     1      -1.708   9.821  13.105  1.00  0.00     0.016 C 
HETATM   14  C12 UNL     1      -0.302  10.186  15.206  1.00  0.00    -0.002 C 
HETATM   15  C21 UNL     1       0.979   9.437  14.781  1.00  0.00     0.006 C 
HETATM   16  C22 UNL     1       0.533   8.084  14.190  1.00  0.00     0.011 C 
HETATM   17  C23 UNL     1      -0.912   7.892  14.684  1.00  0.00    -0.032 C 
HETATM   18  C24 UNL     1      -0.834   7.361  16.152  1.00  0.00     0.016 C 
HETATM   19  C25 UNL     1      -4.140   6.922  12.764  1.00  0.00     0.022 A 
HETATM   20  C26 UNL     1      -4.225   5.880  13.849  1.00  0.00    -0.021 A 
HETATM   21  C31 UNL     1      -3.651   4.487  13.517  1.00  0.00     0.063 C 
ENDROOT
BRANCH  14  22
HETATM   22  C13 UNL     1      -0.298  11.744  15.154  1.00  0.00    -0.014 C 
HETATM   23  C14 UNL     1      -1.651  12.230  14.594  1.00  0.00     0.010 C 
BRANCH  22  24
HETATM   24  C15 UNL     1       0.136  12.602  16.371  1.00  0.00     0.008 C 
BRANCH  24  25
HETATM   25  C16 UNL     1      -0.197  12.196  17.814  1.00  0.00     0.028 C 
BRANCH  25  26
HETATM   26  C17 UNL     1      -1.586  12.558  18.249  1.00  0.00    -0.025 C 
HETATM   27  C18 UNL     1      -2.586  11.733  18.617  1.00  0.00    -0.091 C 
HETATM   28  C19 UNL     1      -2.476  10.240  18.744  1.00  0.00     0.042 C 
HETATM   29  C20 UNL     1      -3.947  12.292  18.941  1.00  0.00     0.042 C 
ENDBRANCH  25  26
ENDBRANCH  24  25
ENDBRANCH  22  24
ENDBRANCH  14  22
BRANCH  20  30
HETATM   30  C27 UNL     1      -5.534   5.822  14.642  1.00  0.00     0.021 C 
BRANCH  30  31
HETATM   31  C28 UNL     1      -6.713   6.408  13.865  1.00  0.00     0.112 C 
BRANCH  31  32
HETATM   32  C29 UNL     1      -7.888   5.466  13.890  1.00  0.00     0.258 C 
HETATM   33  O3  UNL     1      -7.790   4.246  13.963  1.00  0.00    -0.265 OA
BRANCH  32  34
HETATM   34  O4  UNL     1      -9.057   6.159  13.815  1.00  0.00    -0.326 OA
HETATM   35  C30 UNL     1      -9.087   7.333  14.634  1.00  0.00     0.213 C 
ENDBRANCH  32  34
ENDBRANCH  31  32
ENDBRANCH  30  31
ENDBRANCH  20  30
TORSDOF 8
ENDMDL
MODEL 8
REMARK minimizedAffinity -6.86027575
REMARK CNNscore 0.165197462
REMARK CNNaffinity 5.65249252
REMARK  8 active torsions:
REMARK  status: ('A' for Active; 'I' for Inactive)
REMARK    1  A    between atoms: C12_14  and  C13_15 
REMARK    2  A    between atoms: C13_15  and  C15_17 
REMARK    3  A    between atoms: C15_17  and  C16_18 
REMARK    4  A    between atoms: C16_18  and  C17_19 
REMARK    5  A    between atoms: C26_28  and  C27_29 
REMARK    6  A    between atoms: C27_29  and  C28_30 
REMARK    7  A    between atoms: C28_30  and  C29_31 
REMARK    8  A    between atoms: C29_31  and  O4_33 
ROOT
HETATM    1  C1  UNL     1      13.168  10.965  15.371  1.00  0.00     0.025 C 
HETATM    2  C2  UNL     1      12.181  10.861  14.473  1.00  0.00     0.015 C 
HETATM    3  C3  UNL     1      12.417  10.495  13.053  1.00  0.00     0.289 C 
HETATM    4  O1  UNL     1      13.445  10.040  12.585  1.00  0.00    -0.260 OA
HETATM    5  O2  UNL     1      11.259  10.737  12.366  1.00  0.00    -0.311 OA
HETATM    6  C4  UNL     1      10.395  11.506  13.206  1.00  0.00     0.142 C 
HETATM    7  C5  UNL     1       8.925  11.346  12.867  1.00  0.00     0.039 C 
HETATM    8  C6  UNL     1       8.395   9.905  13.013  1.00  0.00     0.006 C 
HETATM    9  C7  UNL     1       8.711   9.317  14.417  1.00  0.00    -0.027 A 
HETATM   10  C8  UNL     1       7.605   8.520  15.165  1.00  0.00     0.011 C 
HETATM   11  C9  UNL     1       6.266   8.245  14.469  1.00  0.00     0.011 C 
HETATM   12  C10 UNL     1       6.347   8.363  12.951  1.00  0.00    -0.032 C 
HETATM   13  C11 UNL     1       7.237   7.219  12.410  1.00  0.00     0.016 C 
HETATM   14  C12 UNL     1       4.966   8.372  12.225  1.00  0.00    -0.002 C 
HETATM   15  C21 UNL     1       5.217   9.215  10.955  1.00  0.00     0.006 C 
HETATM   16  C22 UNL     1       6.589   9.896  11.133  1.00  0.00     0.011 C 
HETATM   17  C23 UNL     1       6.887   9.801  12.640  1.00  0.00    -0.032 C 
HETATM   18  C24 UNL     1       6.092  10.949  13.344  1.00  0.00     0.016 C 
HETATM   19  C25 UNL     1      10.064   8.618  14.527  1.00  0.00     0.022 A 
HETATM   20  C26 UNL     1       9.901   9.950  15.212  1.00  0.00    -0.021 A 
HETATM   21  C31 UNL     1      10.720  11.126  14.642  1.00  0.00     0.063 C 
ENDROOT
BRANCH  14  22
HETATM   22  C13 UNL     1       4.112   7.075  12.094  1.00  0.00    -0.014 C 
HETATM   23  C14 UNL     1       2.755   7.294  12.793  1.00  0.00     0.010 C 
BRANCH  22  24
HETATM   24  C15 UNL     1       3.923   6.354  10.733  1.00  0.00     0.008 C 
BRANCH  24  25
HETATM   25  C16 UNL     1       3.605   7.123   9.442  1.00  0.00     0.028 C 
BRANCH  25  26
HETATM   26  C17 UNL     1       2.203   7.651   9.372  1.00  0.00    -0.025 C 
HETATM   27  C18 UNL     1       1.415   7.780   8.286  1.00  0.00    -0.091 C 
HETATM   28  C19 UNL     1       1.771   7.333   6.897  1.00  0.00     0.042 C 
HETATM   29  C20 UNL     1       0.055   8.418   8.410  1.00  0.00     0.042 C 
ENDBRANCH  25  26
ENDBRANCH  24  25
ENDBRANCH  22  24
ENDBRANCH  14  22
BRANCH  20  30
HETATM   30  C27 UNL     1       9.854   9.932  16.744  1.00  0.00     0.021 C 
BRANCH  30  31
HETATM   31  C28 UNL     1      10.236  11.280  17.354  1.00  0.00     0.112 C 
BRANCH  31  32
HETATM   32  C29 UNL     1      10.891  11.090  18.697  1.00  0.00     0.258 C 
HETATM   33  O3  UNL     1      12.058  10.746  18.851  1.00  0.00    -0.265 OA
BRANCH  32  34
HETATM   34  O4  UNL     1      10.007  11.346  19.700  1.00  0.00    -0.326 OA
HETATM   35  C30 UNL     1       8.650  11.464  19.260  1.00  0.00     0.213 C 
ENDBRANCH  32  34
ENDBRANCH  31  32
ENDBRANCH  30  31
ENDBRANCH  20  30
TORSDOF 8
ENDMDL
MODEL 9
REMARK minimizedAffinity -5.79084635
REMARK CNNscore 0.144814894
REMARK CNNaffinity 5.16256285
REMARK  8 active torsions:
REMARK  status: ('A' for Active; 'I' for Inactive)
REMARK    1  A    between atoms: C12_14  and  C13_15 
REMARK    2  A    between atoms: C13_15  and  C15_17 
REMARK    3  A    between atoms: C15_17  and  C16_18 
REMARK    4  A    between atoms: C16_18  and  C17_19 
REMARK    5  A    between atoms: C26_28  and  C27_29 
REMARK    6  A    between atoms: C27_29  and  C28_30 
REMARK    7  A    between atoms: C28_30  and  C29_31 
REMARK    8  A    between atoms: C29_31  and  O4_33 
ROOT
HETATM    1  C1  UNL     1      -4.369  -9.471  11.181  1.00  0.00     0.025 C 
HETATM    2  C2  UNL     1      -5.683  -9.684  11.036  1.00  0.00     0.015 C 
HETATM    3  C3  UNL     1      -6.694  -9.176  11.999  1.00  0.00     0.289 C 
HETATM    4  O1  UNL     1      -6.507  -8.350  12.875  1.00  0.00    -0.260 OA
HETATM    5  O2  UNL     1      -7.884  -9.784  11.707  1.00  0.00    -0.311 OA
HETATM    6  C4  UNL     1      -7.623 -10.863  10.805  1.00  0.00     0.142 C 
HETATM    7  C5  UNL     1      -8.819 -11.231   9.946  1.00  0.00     0.039 C 
HETATM    8  C6  UNL     1      -9.313 -10.095   9.028  1.00  0.00     0.006 C 
HETATM    9  C7  UNL     1      -8.161  -9.514   8.162  1.00  0.00    -0.027 A 
HETATM   10  C8  UNL     1      -8.424  -9.220   6.658  1.00  0.00     0.011 C 
HETATM   11  C9  UNL     1      -9.833  -9.415   6.084  1.00  0.00     0.011 C 
HETATM   12  C10 UNL     1     -10.921  -9.408   7.153  1.00  0.00    -0.032 C 
HETATM   13  C11 UNL     1     -11.009  -7.988   7.763  1.00  0.00     0.016 C 
HETATM   14  C12 UNL     1     -12.323  -9.879   6.657  1.00  0.00    -0.002 C 
HETATM   15  C21 UNL     1     -12.974 -10.497   7.914  1.00  0.00     0.006 C 
HETATM   16  C22 UNL     1     -11.862 -10.639   8.973  1.00  0.00     0.011 C 
HETATM   17  C23 UNL     1     -10.545 -10.528   8.183  1.00  0.00    -0.032 C 
HETATM   18  C24 UNL     1     -10.274 -11.926   7.536  1.00  0.00     0.016 C 
HETATM   19  C25 UNL     1      -7.380  -8.377   8.817  1.00  0.00     0.022 A 
HETATM   20  C26 UNL     1      -6.698  -9.713   8.682  1.00  0.00    -0.021 A 
HETATM   21  C31 UNL     1      -6.400 -10.474   9.991  1.00  0.00     0.063 C 
ENDROOT
BRANCH  14  22
HETATM   22  C13 UNL     1     -13.201  -8.978   5.737  1.00  0.00    -0.014 C 
HETATM   23  C14 UNL     1     -14.442  -9.776   5.289  1.00  0.00     0.010 C 
BRANCH  22  24
HETATM   24  C15 UNL     1     -13.591  -7.532   6.140  1.00  0.00     0.008 C 
BRANCH  24  25
HETATM   25  C16 UNL     1     -14.654  -7.243   7.211  1.00  0.00     0.028 C 
BRANCH  25  26
HETATM   26  C17 UNL     1     -14.360  -6.042   8.059  1.00  0.00    -0.025 C 
HETATM   27  C18 UNL     1     -14.531  -4.742   7.751  1.00  0.00    -0.091 C 
HETATM   28  C19 UNL     1     -15.144  -4.225   6.480  1.00  0.00     0.042 C 
HETATM   29  C20 UNL     1     -14.092  -3.671   8.715  1.00  0.00     0.042 C 
ENDBRANCH  25  26
ENDBRANCH  24  25
ENDBRANCH  22  24
ENDBRANCH  14  22
BRANCH  20  30
HETATM   30  C27 UNL     1      -5.560  -9.802   7.659  1.00  0.00     0.021 C 
BRANCH  30  31
HETATM   31  C28 UNL     1      -4.749 -11.089   7.800  1.00  0.00     0.112 C 
BRANCH  31  32
HETATM   32  C29 UNL     1      -3.482 -11.012   6.989  1.00  0.00     0.258 C 
HETATM   33  O3  UNL     1      -2.805 -11.984   6.677  1.00  0.00    -0.265 OA
BRANCH  32  34
HETATM   34  O4  UNL     1      -3.202  -9.720   6.663  1.00  0.00    -0.326 OA
HETATM   35  C30 UNL     1      -2.717  -9.552   5.327  1.00  0.00     0.213 C 
ENDBRANCH  32  34
ENDBRANCH  31  32
ENDBRANCH  30  31
ENDBRANCH  20  30
TORSDOF 8
ENDMDL
