MODEL 1
REMARK minimizedAffinity -9.50062656
REMARK CNNscore 0.793452799
REMARK CNNaffinity 7.62267351
REMARK  13 active torsions:
REMARK  status: ('A' for Active; 'I' for Inactive)
REMARK    1  A    between atoms: O1_2  and  C2_3 
REMARK    2  A    between atoms: C2_3  and  C3_4 
REMARK    3  A    between atoms: C3_4  and  C4_5 
REMARK    4  A    between atoms: C4_5  and  O2_6 
REMARK    5  A    between atoms: O2_6  and  C5_7 
REMARK    6  A    between atoms: C20_23  and  C21_24 
REMARK    7  A    between atoms: C21_24  and  O4_26 
REMARK    8  A    between atoms: C21_24  and  C23_27 
REMARK    9  A    between atoms: C23_27  and  O5_28 
REMARK   10  A    between atoms: C23_27  and  C24_29 
REMARK   11  A    between atoms: C28_34  and  C29_35 
REMARK       I    between atoms: C29_35  and  N1_37 
REMARK   12  A    between atoms: C32_41  and  O8_42 
REMARK   13  A    between atoms: C37_47  and  O9_48 
ROOT
HETATM    1  C5  UNL     1      -1.905  52.217 -26.175  1.00  0.00     0.122 C 
HETATM    2  C6  UNL     1      -3.326  51.672 -26.046  1.00  0.00     0.033 C 
HETATM    3  C7  UNL     1      -3.623  51.163 -24.641  1.00  0.00     0.013 C 
HETATM    4  C8  UNL     1      -2.583  50.124 -24.109  1.00  0.00    -0.026 C 
HETATM    5  C9  UNL     1      -2.687  48.838 -24.974  1.00  0.00     0.016 C 
HETATM    6  C10 UNL     1      -1.159  50.731 -24.233  1.00  0.00     0.071 C 
HETATM    7  C11 UNL     1      -0.861  51.224 -25.661  1.00  0.00     0.045 C 
HETATM    8  C12 UNL     1      -0.923  51.870 -23.243  1.00  0.00     0.154 C 
HETATM    9  O3  UNL     1      -0.171  52.814 -23.473  1.00  0.00    -0.293 OA
HETATM   10  C13 UNL     1      -1.558  51.806 -21.910  1.00  0.00     0.057 C 
HETATM   11  C14 UNL     1      -2.448  50.851 -21.608  1.00  0.00    -0.037 C 
HETATM   12  C15 UNL     1      -2.944  49.801 -22.611  1.00  0.00     0.026 C 
HETATM   13  C16 UNL     1      -2.554  48.399 -22.090  1.00  0.00     0.011 C 
HETATM   14  C17 UNL     1      -3.078  48.148 -20.659  1.00  0.00     0.014 C 
HETATM   15  C18 UNL     1      -2.616  49.240 -19.670  1.00  0.00    -0.002 C 
HETATM   16  C19 UNL     1      -1.078  49.107 -19.485  1.00  0.00     0.019 C 
HETATM   17  C20 UNL     1      -3.380  49.288 -18.302  1.00  0.00     0.034 C 
HETATM   18  C35 UNL     1      -3.089  50.724 -17.787  1.00  0.00     0.012 C 
HETATM   19  C36 UNL     1      -2.686  51.561 -19.029  1.00  0.00     0.044 C 
HETATM   20  C37 UNL     1      -3.012  50.652 -20.222  1.00  0.00     0.089 C 
ENDROOT
BRANCH  17  21
HETATM   21  C21 UNL     1      -3.294  48.135 -17.250  1.00  0.00     0.087 C 
HETATM   22  C22 UNL     1      -3.102  46.745 -17.864  1.00  0.00     0.049 C 
BRANCH  21  23
HETATM   23  O4  UNL     1      -4.553  48.108 -16.558  1.00  0.00    -0.387 OA
HETATM   24  H34 UNL     1      -4.782  49.009 -16.282  1.00  0.00     0.210 HD
ENDBRANCH  21  23
BRANCH  21  25
HETATM   25  C23 UNL     1      -2.129  48.463 -16.224  1.00  0.00     0.181 C 
BRANCH  25  26
HETATM   26  O5  UNL     1      -1.956  47.364 -15.321  1.00  0.00    -0.390 OA
HETATM   27  H36 UNL     1      -1.028  47.074 -15.367  1.00  0.00     0.210 HD
ENDBRANCH  25  26
BRANCH  25  28
HETATM   28  C24 UNL     1      -2.292  49.798 -15.453  1.00  0.00     0.158 C 
HETATM   29  O6  UNL     1      -2.856  49.603 -14.125  1.00  0.00    -0.373 OA
HETATM   30  C25 UNL     1      -2.374  50.697 -13.341  1.00  0.00     0.185 C 
HETATM   31  C26 UNL     1      -0.922  50.776 -13.741  1.00  0.00     0.028 C 
HETATM   32  C32 UNL     1      -2.498  50.539 -11.821  1.00  0.00     0.384 C 
HETATM   33  C27 UNL     1      -0.315  52.008 -13.111  1.00  0.00     0.053 C 
HETATM   34  C33 UNL     1      -1.040  50.710 -15.256  1.00  0.00     0.020 C 
HETATM   35  C28 UNL     1      -0.507  51.963 -11.576  1.00  0.00     0.309 C 
HETATM   36  N2  UNL     1      -1.888  51.663 -11.130  1.00  0.00     0.128 N 
HETATM   37  H47 UNL     1      -2.472  52.483 -11.291  1.00  0.00     0.320 HD
HETATM   38  C34 UNL     1       0.263  50.325 -15.947  1.00  0.00     0.013 C 
BRANCH  35  39
HETATM   39  C29 UNL     1      -0.110  53.345 -11.025  1.00  0.00     0.233 C 
HETATM   40  O7  UNL     1       1.008  53.834 -11.202  1.00  0.00    -0.277 OA
HETATM   41  N1  UNL     1      -1.110  53.919 -10.239  1.00  0.00    -0.249 NA
HETATM   42  C30 UNL     1      -0.779  54.530  -8.981  1.00  0.00     0.113 A 
HETATM   43  C31 UNL     1      -1.201  55.351 -10.146  1.00  0.00     0.113 A 
ENDBRANCH  35  39
BRANCH  32  44
HETATM   44  O8  UNL     1      -3.871  50.500 -11.473  1.00  0.00    -0.366 OA
HETATM   45  H49 UNL     1      -4.259  49.821 -12.060  1.00  0.00     0.212 HD
ENDBRANCH  32  44
ENDBRANCH  25  28
ENDBRANCH  21  25
ENDBRANCH  17  21
BRANCH  20  46
HETATM   46  O9  UNL     1      -4.442  50.754 -20.382  1.00  0.00    -0.384 OA
HETATM   47  H58 UNL     1      -4.613  51.595 -20.837  1.00  0.00     0.211 HD
ENDBRANCH  20  46
BRANCH   1  48
HETATM   48  O2  UNL     1      -1.661  52.451 -27.567  1.00  0.00    -0.386 OA
BRANCH  48  49
HETATM   49  C4  UNL     1      -0.346  52.947 -27.826  1.00  0.00     0.170 C 
BRANCH  49  50
HETATM   50  C3  UNL     1       0.579  51.762 -28.069  1.00  0.00     0.052 C 
BRANCH  50  51
HETATM   51  C2  UNL     1       2.006  52.225 -28.353  1.00  0.00     0.169 C 
BRANCH  51  52
HETATM   52  O1  UNL     1       2.934  51.466 -27.575  1.00  0.00    -0.396 OA
HETATM   53  C1  UNL     1       2.441  51.172 -26.271  1.00  0.00     0.201 C 
ENDBRANCH  51  52
ENDBRANCH  50  51
ENDBRANCH  49  50
ENDBRANCH  48  49
ENDBRANCH   1  48
TORSDOF 13
ENDMDL
MODEL 2
REMARK minimizedAffinity -9.5146637
REMARK CNNscore 0.504092216
REMARK CNNaffinity 7.00077438
REMARK  13 active torsions:
REMARK  status: ('A' for Active; 'I' for Inactive)
REMARK    1  A    between atoms: O1_2  and  C2_3 
REMARK    2  A    between atoms: C2_3  and  C3_4 
REMARK    3  A    between atoms: C3_4  and  C4_5 
REMARK    4  A    between atoms: C4_5  and  O2_6 
REMARK    5  A    between atoms: O2_6  and  C5_7 
REMARK    6  A    between atoms: C20_23  and  C21_24 
REMARK    7  A    between atoms: C21_24  and  O4_26 
REMARK    8  A    between atoms: C21_24  and  C23_27 
REMARK    9  A    between atoms: C23_27  and  O5_28 
REMARK   10  A    between atoms: C23_27  and  C24_29 
REMARK   11  A    between atoms: C28_34  and  C29_35 
REMARK       I    between atoms: C29_35  and  N1_37 
REMARK   12  A    between atoms: C32_41  and  O8_42 
REMARK   13  A    between atoms: C37_47  and  O9_48 
ROOT
HETATM    1  C5  UNL     1      -0.947  50.775 -18.068  1.00  0.00     0.122 C 
HETATM    2  C6  UNL     1      -1.335  51.852 -19.078  1.00  0.00     0.033 C 
HETATM    3  C7  UNL     1      -2.549  51.454 -19.909  1.00  0.00     0.013 C 
HETATM    4  C8  UNL     1      -2.408  50.065 -20.611  1.00  0.00    -0.026 C 
HETATM    5  C9  UNL     1      -1.278  50.163 -21.672  1.00  0.00     0.016 C 
HETATM    6  C10 UNL     1      -2.042  48.998 -19.544  1.00  0.00     0.071 C 
HETATM    7  C11 UNL     1      -0.803  49.400 -18.724  1.00  0.00     0.045 C 
HETATM    8  C12 UNL     1      -3.202  48.697 -18.598  1.00  0.00     0.154 C 
HETATM    9  O3  UNL     1      -3.043  48.354 -17.429  1.00  0.00    -0.293 OA
HETATM   10  C13 UNL     1      -4.584  48.739 -19.119  1.00  0.00     0.057 C 
HETATM   11  C14 UNL     1      -4.848  49.176 -20.358  1.00  0.00    -0.037 C 
HETATM   12  C15 UNL     1      -3.780  49.735 -21.309  1.00  0.00     0.026 C 
HETATM   13  C16 UNL     1      -3.720  48.836 -22.566  1.00  0.00     0.011 C 
HETATM   14  C17 UNL     1      -5.103  48.696 -23.241  1.00  0.00     0.014 C 
HETATM   15  C18 UNL     1      -6.180  48.182 -22.261  1.00  0.00    -0.002 C 
HETATM   16  C19 UNL     1      -5.841  46.710 -21.895  1.00  0.00     0.019 C 
HETATM   17  C20 UNL     1      -7.666  48.354 -22.730  1.00  0.00     0.034 C 
HETATM   18  C35 UNL     1      -8.467  48.261 -21.402  1.00  0.00     0.012 C 
HETATM   19  C36 UNL     1      -7.465  48.586 -20.264  1.00  0.00     0.044 C 
HETATM   20  C37 UNL     1      -6.216  49.101 -20.991  1.00  0.00     0.089 C 
ENDROOT
BRANCH  17  21
HETATM   21  C21 UNL     1      -8.254  47.586 -23.958  1.00  0.00     0.087 C 
HETATM   22  C22 UNL     1      -9.715  47.159 -23.783  1.00  0.00     0.049 C 
BRANCH  21  23
HETATM   23  O4  UNL     1      -7.488  46.379 -24.100  1.00  0.00    -0.387 OA
HETATM   24  H34 UNL     1      -6.544  46.597 -24.064  1.00  0.00     0.210 HD
ENDBRANCH  21  23
BRANCH  21  25
HETATM   25  C23 UNL     1      -8.082  48.484 -25.255  1.00  0.00     0.181 C 
BRANCH  25  26
HETATM   26  O5  UNL     1      -9.046  49.542 -25.242  1.00  0.00    -0.390 OA
HETATM   27  H36 UNL     1      -8.572  50.389 -25.317  1.00  0.00     0.210 HD
ENDBRANCH  25  26
BRANCH  25  28
HETATM   28  C24 UNL     1      -8.122  47.709 -26.596  1.00  0.00     0.158 C 
HETATM   29  O6  UNL     1      -9.038  48.313 -27.555  1.00  0.00    -0.373 OA
HETATM   30  C25 UNL     1      -8.532  47.954 -28.844  1.00  0.00     0.185 C 
HETATM   31  C26 UNL     1      -7.049  48.180 -28.692  1.00  0.00     0.028 C 
HETATM   32  C32 UNL     1      -9.074  48.765 -30.027  1.00  0.00     0.384 C 
HETATM   33  C27 UNL     1      -6.354  47.677 -29.936  1.00  0.00     0.053 C 
HETATM   34  C33 UNL     1      -6.787  47.474 -27.370  1.00  0.00     0.020 C 
HETATM   35  C28 UNL     1      -6.937  48.380 -31.184  1.00  0.00     0.309 C 
HETATM   36  N2  UNL     1      -8.417  48.380 -31.265  1.00  0.00     0.128 N 
HETATM   37  H47 UNL     1      -8.734  47.442 -31.508  1.00  0.00     0.320 HD
HETATM   38  C34 UNL     1      -5.476  47.890 -26.712  1.00  0.00     0.013 C 
BRANCH  35  39
HETATM   39  C29 UNL     1      -6.386  47.648 -32.422  1.00  0.00     0.233 C 
HETATM   40  O7  UNL     1      -7.030  46.783 -33.022  1.00  0.00    -0.277 OA
HETATM   41  N1  UNL     1      -5.069  48.002 -32.716  1.00  0.00    -0.249 NA
HETATM   42  C30 UNL     1      -4.102  46.988 -33.034  1.00  0.00     0.113 A 
HETATM   43  C31 UNL     1      -4.603  47.925 -34.074  1.00  0.00     0.113 A 
ENDBRANCH  35  39
BRANCH  32  44
HETATM   44  O8  UNL     1     -10.460  48.508 -30.164  1.00  0.00    -0.366 OA
HETATM   45  H49 UNL     1     -10.831  48.653 -29.271  1.00  0.00     0.212 HD
ENDBRANCH  32  44
ENDBRANCH  25  28
ENDBRANCH  21  25
ENDBRANCH  17  21
BRANCH  20  46
HETATM   46  O9  UNL     1      -6.536  50.459 -21.354  1.00  0.00    -0.384 OA
HETATM   47  H58 UNL     1      -6.423  50.997 -20.552  1.00  0.00     0.211 HD
ENDBRANCH  20  46
BRANCH   1  48
HETATM   48  O2  UNL     1       0.320  51.146 -17.511  1.00  0.00    -0.386 OA
BRANCH  48  49
HETATM   49  C4  UNL     1       0.445  50.799 -16.131  1.00  0.00     0.170 C 
BRANCH  49  50
HETATM   50  C3  UNL     1       1.698  51.463 -15.577  1.00  0.00     0.052 C 
BRANCH  50  51
HETATM   51  C2  UNL     1       2.105  52.666 -16.422  1.00  0.00     0.169 C 
BRANCH  51  52
HETATM   52  O1  UNL     1       3.502  52.930 -16.265  1.00  0.00    -0.396 OA
HETATM   53  C1  UNL     1       4.144  51.981 -15.420  1.00  0.00     0.201 C 
ENDBRANCH  51  52
ENDBRANCH  50  51
ENDBRANCH  49  50
ENDBRANCH  48  49
ENDBRANCH   1  48
TORSDOF 13
ENDMDL
MODEL 3
REMARK minimizedAffinity -8.85834217
REMARK CNNscore 0.502269149
REMARK CNNaffinity 8.0290556
REMARK  13 active torsions:
REMARK  status: ('A' for Active; 'I' for Inactive)
REMARK    1  A    between atoms: O1_2  and  C2_3 
REMARK    2  A    between atoms: C2_3  and  C3_4 
REMARK    3  A    between atoms: C3_4  and  C4_5 
REMARK    4  A    between atoms: C4_5  and  O2_6 
REMARK    5  A    between atoms: O2_6  and  C5_7 
REMARK    6  A    between atoms: C20_23  and  C21_24 
REMARK    7  A    between atoms: C21_24  and  O4_26 
REMARK    8  A    between atoms: C21_24  and  C23_27 
REMARK    9  A    between atoms: C23_27  and  O5_28 
REMARK   10  A    between atoms: C23_27  and  C24_29 
REMARK   11  A    between atoms: C28_34  and  C29_35 
REMARK       I    between atoms: C29_35  and  N1_37 
REMARK   12  A    between atoms: C32_41  and  O8_42 
REMARK   13  A    between atoms: C37_47  and  O9_48 
ROOT
HETATM    1  C5  UNL     1       2.006  50.898 -12.779  1.00  0.00     0.122 C 
HETATM    2  C6  UNL     1       1.316  52.207 -13.158  1.00  0.00     0.033 C 
HETATM    3  C7  UNL     1       0.281  52.014 -14.259  1.00  0.00     0.013 C 
HETATM    4  C8  UNL     1       0.833  51.292 -15.531  1.00  0.00    -0.026 C 
HETATM    5  C9  UNL     1       1.885  52.217 -16.202  1.00  0.00     0.016 C 
HETATM    6  C10 UNL     1       1.498  49.957 -15.101  1.00  0.00     0.071 C 
HETATM    7  C11 UNL     1       2.558  50.165 -14.003  1.00  0.00     0.045 C 
HETATM    8  C12 UNL     1       0.478  48.921 -14.633  1.00  0.00     0.154 C 
HETATM    9  O3  UNL     1       0.730  48.067 -13.786  1.00  0.00    -0.293 OA
HETATM   10  C13 UNL     1      -0.851  48.881 -15.277  1.00  0.00     0.057 C 
HETATM   11  C14 UNL     1      -1.229  49.821 -16.153  1.00  0.00    -0.037 C 
HETATM   12  C15 UNL     1      -0.375  51.046 -16.510  1.00  0.00     0.026 C 
HETATM   13  C16 UNL     1      -0.045  50.994 -18.019  1.00  0.00     0.011 C 
HETATM   14  C17 UNL     1      -1.320  50.885 -18.885  1.00  0.00     0.014 C 
HETATM   15  C18 UNL     1      -2.197  49.680 -18.482  1.00  0.00    -0.002 C 
HETATM   16  C19 UNL     1      -1.434  48.378 -18.855  1.00  0.00     0.019 C 
HETATM   17  C20 UNL     1      -3.664  49.691 -19.033  1.00  0.00     0.034 C 
HETATM   18  C35 UNL     1      -4.405  48.713 -18.079  1.00  0.00     0.012 C 
HETATM   19  C36 UNL     1      -3.550  48.630 -16.788  1.00  0.00     0.044 C 
HETATM   20  C37 UNL     1      -2.511  49.747 -16.948  1.00  0.00     0.089 C 
ENDROOT
BRANCH  17  21
HETATM   21  C21 UNL     1      -3.992  49.566 -20.556  1.00  0.00     0.087 C 
HETATM   22  C22 UNL     1      -4.804  48.317 -20.918  1.00  0.00     0.049 C 
BRANCH  21  23
HETATM   23  O4  UNL     1      -2.736  49.452 -21.244  1.00  0.00    -0.387 OA
HETATM   24  H34 UNL     1      -2.137  50.145 -20.927  1.00  0.00     0.210 HD
ENDBRANCH  21  23
BRANCH  21  25
HETATM   25  C23 UNL     1      -4.743  50.881 -21.029  1.00  0.00     0.181 C 
BRANCH  25  26
HETATM   26  O5  UNL     1      -5.944  50.528 -21.725  1.00  0.00    -0.390 OA
HETATM   27  H36 UNL     1      -6.692  50.973 -21.288  1.00  0.00     0.210 HD
ENDBRANCH  25  26
BRANCH  25  28
HETATM   28  C24 UNL     1      -3.881  51.861 -21.866  1.00  0.00     0.158 C 
HETATM   29  O6  UNL     1      -2.526  51.987 -21.346  1.00  0.00    -0.373 OA
HETATM   30  C25 UNL     1      -1.718  52.344 -22.470  1.00  0.00     0.185 C 
HETATM   31  C26 UNL     1      -2.226  51.421 -23.549  1.00  0.00     0.028 C 
HETATM   32  C32 UNL     1      -0.205  52.168 -22.291  1.00  0.00     0.384 C 
HETATM   33  C27 UNL     1      -1.573  51.802 -24.857  1.00  0.00     0.053 C 
HETATM   34  C33 UNL     1      -3.728  51.607 -23.399  1.00  0.00     0.020 C 
HETATM   35  C28 UNL     1      -0.033  51.752 -24.709  1.00  0.00     0.309 C 
HETATM   36  N2  UNL     1       0.503  52.465 -23.526  1.00  0.00     0.128 N 
HETATM   37  H47 UNL     1       0.439  53.469 -23.689  1.00  0.00     0.320 HD
HETATM   38  C34 UNL     1      -4.543  50.490 -24.041  1.00  0.00     0.013 C 
BRANCH  35  39
HETATM   39  C29 UNL     1       0.569  52.395 -25.973  1.00  0.00     0.233 C 
HETATM   40  O7  UNL     1       0.916  53.578 -26.014  1.00  0.00    -0.277 OA
HETATM   41  N1  UNL     1       0.583  51.527 -27.065  1.00  0.00    -0.249 NA
HETATM   42  C30 UNL     1       0.154  51.985 -28.358  1.00  0.00     0.113 A 
HETATM   43  C31 UNL     1       1.585  51.689 -28.084  1.00  0.00     0.113 A 
ENDBRANCH  35  39
BRANCH  32  44
HETATM   44  O8  UNL     1       0.247  53.069 -21.296  1.00  0.00    -0.366 OA
HETATM   45  H49 UNL     1      -0.347  52.921 -20.534  1.00  0.00     0.212 HD
ENDBRANCH  32  44
ENDBRANCH  25  28
ENDBRANCH  21  25
ENDBRANCH  17  21
BRANCH  20  46
HETATM   46  O9  UNL     1      -3.221  50.960 -16.626  1.00  0.00    -0.384 OA
HETATM   47  H58 UNL     1      -3.277  51.002 -15.656  1.00  0.00     0.211 HD
ENDBRANCH  20  46
BRANCH   1  48
HETATM   48  O2  UNL     1       3.103  51.227 -11.916  1.00  0.00    -0.386 OA
BRANCH  48  49
HETATM   49  C4  UNL     1       2.692  51.905 -10.728  1.00  0.00     0.170 C 
BRANCH  49  50
HETATM   50  C3  UNL     1       3.900  52.049  -9.812  1.00  0.00     0.052 C 
BRANCH  50  51
HETATM   51  C2  UNL     1       4.236  53.518  -9.568  1.00  0.00     0.169 C 
BRANCH  51  52
HETATM   52  O1  UNL     1       3.429  54.353 -10.402  1.00  0.00    -0.396 OA
HETATM   53  C1  UNL     1       4.185  55.375 -11.044  1.00  0.00     0.201 C 
ENDBRANCH  51  52
ENDBRANCH  50  51
ENDBRANCH  49  50
ENDBRANCH  48  49
ENDBRANCH   1  48
TORSDOF 13
ENDMDL
MODEL 4
REMARK minimizedAffinity -7.60496187
REMARK CNNscore 0.486630291
REMARK CNNaffinity 6.43489885
REMARK  13 active torsions:
REMARK  status: ('A' for Active; 'I' for Inactive)
REMARK    1  A    between atoms: O1_2  and  C2_3 
REMARK    2  A    between atoms: C2_3  and  C3_4 
REMARK    3  A    between atoms: C3_4  and  C4_5 
REMARK    4  A    between atoms: C4_5  and  O2_6 
REMARK    5  A    between atoms: O2_6  and  C5_7 
REMARK    6  A    between atoms: C20_23  and  C21_24 
REMARK    7  A    between atoms: C21_24  and  O4_26 
REMARK    8  A    between atoms: C21_24  and  C23_27 
REMARK    9  A    between atoms: C23_27  and  O5_28 
REMARK   10  A    between atoms: C23_27  and  C24_29 
REMARK   11  A    between atoms: C28_34  and  C29_35 
REMARK       I    between atoms: C29_35  and  N1_37 
REMARK   12  A    between atoms: C32_41  and  O8_42 
REMARK   13  A    between atoms: C37_47  and  O9_48 
ROOT
HETATM    1  C5  UNL     1      -2.577  50.342 -22.816  1.00  0.00     0.122 C 
HETATM    2  C6  UNL     1      -3.869  50.648 -22.061  1.00  0.00     0.033 C 
HETATM    3  C7  UNL     1      -3.671  50.641 -20.551  1.00  0.00     0.013 C 
HETATM    4  C8  UNL     1      -3.008  49.335 -20.003  1.00  0.00    -0.026 C 
HETATM    5  C9  UNL     1      -3.991  48.154 -20.229  1.00  0.00     0.016 C 
HETATM    6  C10 UNL     1      -1.687  49.080 -20.778  1.00  0.00     0.071 C 
HETATM    7  C11 UNL     1      -1.901  49.068 -22.302  1.00  0.00     0.045 C 
HETATM    8  C12 UNL     1      -0.600  50.094 -20.425  1.00  0.00     0.154 C 
HETATM    9  O3  UNL     1       0.269  50.448 -21.218  1.00  0.00    -0.293 OA
HETATM   10  C13 UNL     1      -0.529  50.620 -19.047  1.00  0.00     0.057 C 
HETATM   11  C14 UNL     1      -1.480  50.342 -18.145  1.00  0.00    -0.037 C 
HETATM   12  C15 UNL     1      -2.746  49.535 -18.464  1.00  0.00     0.026 C 
HETATM   13  C16 UNL     1      -2.751  48.261 -17.588  1.00  0.00     0.011 C 
HETATM   14  C17 UNL     1      -2.621  48.593 -16.085  1.00  0.00     0.014 C 
HETATM   15  C18 UNL     1      -1.372  49.450 -15.784  1.00  0.00    -0.002 C 
HETATM   16  C19 UNL     1      -0.112  48.576 -16.039  1.00  0.00     0.019 C 
HETATM   17  C20 UNL     1      -1.344  50.143 -14.379  1.00  0.00     0.034 C 
HETATM   18  C35 UNL     1      -0.311  51.287 -14.572  1.00  0.00     0.012 C 
HETATM   19  C36 UNL     1      -0.222  51.543 -16.099  1.00  0.00     0.044 C 
HETATM   20  C37 UNL     1      -1.382  50.729 -16.689  1.00  0.00     0.089 C 
ENDROOT
BRANCH  17  21
HETATM   21  C21 UNL     1      -1.253  49.335 -13.044  1.00  0.00     0.087 C 
HETATM   22  C22 UNL     1       0.178  48.963 -12.639  1.00  0.00     0.049 C 
BRANCH  21  23
HETATM   23  O4  UNL     1      -1.953  48.098 -13.257  1.00  0.00    -0.387 OA
HETATM   24  H34 UNL     1      -2.816  48.288 -13.657  1.00  0.00     0.210 HD
ENDBRANCH  21  23
BRANCH  21  25
HETATM   25  C23 UNL     1      -1.966  50.162 -11.894  1.00  0.00     0.181 C 
BRANCH  25  26
HETATM   26  O5  UNL     1      -2.863  51.118 -12.471  1.00  0.00    -0.390 OA
HETATM   27  H36 UNL     1      -3.749  50.970 -12.097  1.00  0.00     0.210 HD
ENDBRANCH  25  26
BRANCH  25  28
HETATM   28  C24 UNL     1      -1.006  50.837 -10.882  1.00  0.00     0.158 C 
HETATM   29  O6  UNL     1      -0.170  51.853 -11.507  1.00  0.00    -0.373 OA
HETATM   30  C25 UNL     1       0.149  52.778 -10.465  1.00  0.00     0.185 C 
HETATM   31  C26 UNL     1      -1.173  52.954  -9.762  1.00  0.00     0.028 C 
HETATM   32  C32 UNL     1       0.694  54.138 -10.919  1.00  0.00     0.384 C 
HETATM   33  C27 UNL     1      -0.952  53.786  -8.519  1.00  0.00     0.053 C 
HETATM   34  C33 UNL     1      -1.607  51.505  -9.604  1.00  0.00     0.020 C 
HETATM   35  C28 UNL     1      -0.298  55.135  -8.900  1.00  0.00     0.309 C 
HETATM   36  N2  UNL     1       0.886  55.026  -9.784  1.00  0.00     0.128 N 
HETATM   37  H47 UNL     1       1.672  54.671  -9.240  1.00  0.00     0.320 HD
HETATM   38  C34 UNL     1      -3.099  51.347  -9.329  1.00  0.00     0.013 C 
BRANCH  35  39
HETATM   39  C29 UNL     1       0.138  55.818  -7.591  1.00  0.00     0.233 C 
HETATM   40  O7  UNL     1      -0.419  56.827  -7.152  1.00  0.00    -0.277 OA
HETATM   41  N1  UNL     1       1.270  55.230  -7.027  1.00  0.00    -0.249 NA
HETATM   42  C30 UNL     1       2.343  56.051  -6.538  1.00  0.00     0.113 A 
HETATM   43  C31 UNL     1       1.467  55.296  -5.604  1.00  0.00     0.113 A 
ENDBRANCH  35  39
BRANCH  32  44
HETATM   44  O8  UNL     1       1.949  53.944 -11.546  1.00  0.00    -0.366 OA
HETATM   45  H49 UNL     1       1.792  53.244 -12.209  1.00  0.00     0.212 HD
ENDBRANCH  32  44
ENDBRANCH  25  28
ENDBRANCH  21  25
ENDBRANCH  17  21
BRANCH  20  46
HETATM   46  O9  UNL     1      -2.557  51.525 -16.433  1.00  0.00    -0.384 OA
HETATM   47  H58 UNL     1      -2.568  52.230 -17.102  1.00  0.00     0.211 HD
ENDBRANCH  20  46
BRANCH   1  48
HETATM   48  O2  UNL     1      -2.920  50.148 -24.193  1.00  0.00    -0.386 OA
BRANCH  48  49
HETATM   49  C4  UNL     1      -2.151  50.963 -25.078  1.00  0.00     0.170 C 
BRANCH  49  50
HETATM   50  C3  UNL     1      -1.437  52.028 -24.257  1.00  0.00     0.052 C 
BRANCH  50  51
HETATM   51  C2  UNL     1       0.069  51.999 -24.505  1.00  0.00     0.169 C 
BRANCH  51  52
HETATM   52  O1  UNL     1       0.346  51.452 -25.796  1.00  0.00    -0.396 OA
HETATM   53  C1  UNL     1       1.661  51.762 -26.249  1.00  0.00     0.201 C 
ENDBRANCH  51  52
ENDBRANCH  50  51
ENDBRANCH  49  50
ENDBRANCH  48  49
ENDBRANCH   1  48
TORSDOF 13
ENDMDL
MODEL 5
REMARK minimizedAffinity -8.2445755
REMARK CNNscore 0.443205535
REMARK CNNaffinity 6.96108627
REMARK  13 active torsions:
REMARK  status: ('A' for Active; 'I' for Inactive)
REMARK    1  A    between atoms: O1_2  and  C2_3 
REMARK    2  A    between atoms: C2_3  and  C3_4 
REMARK    3  A    between atoms: C3_4  and  C4_5 
REMARK    4  A    between atoms: C4_5  and  O2_6 
REMARK    5  A    between atoms: O2_6  and  C5_7 
REMARK    6  A    between atoms: C20_23  and  C21_24 
REMARK    7  A    between atoms: C21_24  and  O4_26 
REMARK    8  A    between atoms: C21_24  and  C23_27 
REMARK    9  A    between atoms: C23_27  and  O5_28 
REMARK   10  A    between atoms: C23_27  and  C24_29 
REMARK   11  A    between atoms: C28_34  and  C29_35 
REMARK       I    between atoms: C29_35  and  N1_37 
REMARK   12  A    between atoms: C32_41  and  O8_42 
REMARK   13  A    between atoms: C37_47  and  O9_48 
ROOT
HETATM    1  C5  UNL     1      -3.084  51.525 -25.258  1.00  0.00     0.122 C 
HETATM    2  C6  UNL     1      -4.231  52.131 -24.452  1.00  0.00     0.033 C 
HETATM    3  C7  UNL     1      -4.033  51.965 -22.951  1.00  0.00     0.013 C 
HETATM    4  C8  UNL     1      -3.767  50.490 -22.506  1.00  0.00    -0.026 C 
HETATM    5  C9  UNL     1      -5.046  49.655 -22.782  1.00  0.00     0.016 C 
HETATM    6  C10 UNL     1      -2.577  49.925 -23.329  1.00  0.00     0.071 C 
HETATM    7  C11 UNL     1      -2.796  50.079 -24.845  1.00  0.00     0.045 C 
HETATM    8  C12 UNL     1      -1.244  50.562 -22.940  1.00  0.00     0.154 C 
HETATM    9  O3  UNL     1      -0.315  50.709 -23.730  1.00  0.00    -0.293 OA
HETATM   10  C13 UNL     1      -1.018  50.950 -21.533  1.00  0.00     0.057 C 
HETATM   11  C14 UNL     1      -2.003  50.891 -20.626  1.00  0.00    -0.037 C 
HETATM   12  C15 UNL     1      -3.448  50.500 -20.964  1.00  0.00     0.026 C 
HETATM   13  C16 UNL     1      -3.811  49.222 -20.173  1.00  0.00     0.011 C 
HETATM   14  C17 UNL     1      -3.582  49.399 -18.655  1.00  0.00     0.014 C 
HETATM   15  C18 UNL     1      -2.139  49.843 -18.332  1.00  0.00    -0.002 C 
HETATM   16  C19 UNL     1      -1.181  48.668 -18.675  1.00  0.00     0.019 C 
HETATM   17  C20 UNL     1      -1.906  50.401 -16.886  1.00  0.00     0.034 C 
HETATM   18  C35 UNL     1      -0.592  51.216 -17.031  1.00  0.00     0.012 C 
HETATM   19  C36 UNL     1      -0.443  51.541 -18.540  1.00  0.00     0.044 C 
HETATM   20  C37 UNL     1      -1.790  51.133 -19.152  1.00  0.00     0.089 C 
ENDROOT
BRANCH  17  21
HETATM   21  C21 UNL     1      -2.040  49.510 -15.609  1.00  0.00     0.087 C 
HETATM   22  C22 UNL     1      -2.401  48.050 -15.904  1.00  0.00     0.049 C 
BRANCH  21  23
HETATM   23  O4  UNL     1      -3.123  50.051 -14.835  1.00  0.00    -0.387 OA
HETATM   24  H34 UNL     1      -3.005  51.011 -14.754  1.00  0.00     0.210 HD
ENDBRANCH  21  23
BRANCH  21  25
HETATM   25  C23 UNL     1      -0.693  49.599 -14.777  1.00  0.00     0.181 C 
BRANCH  25  26
HETATM   26  O5  UNL     1      -0.617  48.501 -13.860  1.00  0.00    -0.390 OA
HETATM   27  H36 UNL     1       0.214  48.022 -14.025  1.00  0.00     0.210 HD
ENDBRANCH  25  26
BRANCH  25  28
HETATM   28  C24 UNL     1      -0.460  50.949 -14.051  1.00  0.00     0.158 C 
HETATM   29  O6  UNL     1      -1.106  50.993 -12.746  1.00  0.00    -0.373 OA
HETATM   30  C25 UNL     1      -0.336  51.914 -11.970  1.00  0.00     0.185 C 
HETATM   31  C26 UNL     1       1.082  51.523 -12.302  1.00  0.00     0.028 C 
HETATM   32  C32 UNL     1      -0.559  51.864 -10.454  1.00  0.00     0.384 C 
HETATM   33  C27 UNL     1       2.019  52.531 -11.678  1.00  0.00     0.053 C 
HETATM   34  C33 UNL     1       1.006  51.436 -13.819  1.00  0.00     0.020 C 
HETATM   35  C28 UNL     1       1.766  52.609 -10.153  1.00  0.00     0.309 C 
HETATM   36  N2  UNL     1       0.345  52.771  -9.765  1.00  0.00     0.128 N 
HETATM   37  H47 UNL     1       0.052  53.724  -9.976  1.00  0.00     0.320 HD
HETATM   38  C34 UNL     1       2.148  50.637 -14.436  1.00  0.00     0.013 C 
BRANCH  35  39
HETATM   39  C29 UNL     1       2.553  53.821  -9.621  1.00  0.00     0.233 C 
HETATM   40  O7  UNL     1       2.534  54.154  -8.433  1.00  0.00    -0.277 OA
HETATM   41  N1  UNL     1       3.194  54.535 -10.634  1.00  0.00    -0.249 NA
HETATM   42  C30 UNL     1       3.124  55.970 -10.662  1.00  0.00     0.113 A 
HETATM   43  C31 UNL     1       4.393  55.270 -10.331  1.00  0.00     0.113 A 
ENDBRANCH  35  39
BRANCH  32  44
HETATM   44  O8  UNL     1      -1.888  52.267 -10.171  1.00  0.00    -0.366 OA
HETATM   45  H49 UNL     1      -2.446  51.719 -10.757  1.00  0.00     0.212 HD
ENDBRANCH  32  44
ENDBRANCH  25  28
ENDBRANCH  21  25
ENDBRANCH  17  21
BRANCH  20  46
HETATM   46  O9  UNL     1      -2.688  52.209 -18.815  1.00  0.00    -0.384 OA
HETATM   47  H58 UNL     1      -2.502  52.933 -19.437  1.00  0.00     0.211 HD
ENDBRANCH  20  46
BRANCH   1  48
HETATM   48  O2  UNL     1      -3.477  51.532 -26.635  1.00  0.00    -0.386 OA
BRANCH  48  49
HETATM   49  C4  UNL     1      -2.517  50.909 -27.491  1.00  0.00     0.170 C 
BRANCH  49  50
HETATM   50  C3  UNL     1      -1.171  51.591 -27.284  1.00  0.00     0.052 C 
BRANCH  50  51
HETATM   51  C2  UNL     1      -1.188  53.021 -27.817  1.00  0.00     0.169 C 
BRANCH  51  52
HETATM   52  O1  UNL     1       0.075  53.649 -27.588  1.00  0.00    -0.396 OA
HETATM   53  C1  UNL     1      -0.057  55.008 -27.184  1.00  0.00     0.201 C 
ENDBRANCH  51  52
ENDBRANCH  50  51
ENDBRANCH  49  50
ENDBRANCH  48  49
ENDBRANCH   1  48
TORSDOF 13
ENDMDL
MODEL 6
REMARK minimizedAffinity -9.13829136
REMARK CNNscore 0.419593871
REMARK CNNaffinity 7.00511789
REMARK  13 active torsions:
REMARK  status: ('A' for Active; 'I' for Inactive)
REMARK    1  A    between atoms: O1_2  and  C2_3 
REMARK    2  A    between atoms: C2_3  and  C3_4 
REMARK    3  A    between atoms: C3_4  and  C4_5 
REMARK    4  A    between atoms: C4_5  and  O2_6 
REMARK    5  A    between atoms: O2_6  and  C5_7 
REMARK    6  A    between atoms: C20_23  and  C21_24 
REMARK    7  A    between atoms: C21_24  and  O4_26 
REMARK    8  A    between atoms: C21_24  and  C23_27 
REMARK    9  A    between atoms: C23_27  and  O5_28 
REMARK   10  A    between atoms: C23_27  and  C24_29 
REMARK   11  A    between atoms: C28_34  and  C29_35 
REMARK       I    between atoms: C29_35  and  N1_37 
REMARK   12  A    between atoms: C32_41  and  O8_42 
REMARK   13  A    between atoms: C37_47  and  O9_48 
ROOT
HETATM    1  C5  UNL     1      -1.903  52.458 -25.868  1.00  0.00     0.122 C 
HETATM    2  C6  UNL     1      -3.346  51.963 -25.817  1.00  0.00     0.033 C 
HETATM    3  C7  UNL     1      -3.679  51.287 -24.493  1.00  0.00     0.013 C 
HETATM    4  C8  UNL     1      -2.689  50.143 -24.098  1.00  0.00    -0.026 C 
HETATM    5  C9  UNL     1      -2.839  48.988 -25.125  1.00  0.00     0.016 C 
HETATM    6  C10 UNL     1      -1.239  50.699 -24.136  1.00  0.00     0.071 C 
HETATM    7  C11 UNL     1      -0.907  51.362 -25.485  1.00  0.00     0.045 C 
HETATM    8  C12 UNL     1      -0.964  51.687 -23.003  1.00  0.00     0.154 C 
HETATM    9  O3  UNL     1      -0.170  52.619 -23.105  1.00  0.00    -0.293 OA
HETATM   10  C13 UNL     1      -1.614  51.476 -21.694  1.00  0.00     0.057 C 
HETATM   11  C14 UNL     1      -2.546  50.529 -21.522  1.00  0.00    -0.037 C 
HETATM   12  C15 UNL     1      -3.077  49.642 -22.658  1.00  0.00     0.026 C 
HETATM   13  C16 UNL     1      -2.752  48.168 -22.324  1.00  0.00     0.011 C 
HETATM   14  C17 UNL     1      -3.300  47.755 -20.941  1.00  0.00     0.014 C 
HETATM   15  C18 UNL     1      -2.801  48.686 -19.814  1.00  0.00    -0.002 C 
HETATM   16  C19 UNL     1      -1.273  48.463 -19.642  1.00  0.00     0.019 C 
HETATM   17  C20 UNL     1      -3.575  48.587 -18.455  1.00  0.00     0.034 C 
HETATM   18  C35 UNL     1      -3.229  49.930 -17.755  1.00  0.00     0.012 C 
HETATM   19  C36 UNL     1      -2.779  50.904 -18.874  1.00  0.00     0.044 C 
HETATM   20  C37 UNL     1      -3.132  50.174 -20.177  1.00  0.00     0.089 C 
ENDROOT
BRANCH  17  21
HETATM   21  C21 UNL     1      -3.548  47.304 -17.563  1.00  0.00     0.087 C 
HETATM   22  C22 UNL     1      -3.271  47.582 -16.082  1.00  0.00     0.049 C 
BRANCH  21  23
HETATM   23  O4  UNL     1      -2.463  46.490 -18.037  1.00  0.00    -0.387 OA
HETATM   24  H34 UNL     1      -2.521  46.415 -19.002  1.00  0.00     0.210 HD
ENDBRANCH  21  23
BRANCH  21  25
HETATM   25  C23 UNL     1      -4.918  46.525 -17.742  1.00  0.00     0.181 C 
BRANCH  25  26
HETATM   26  O5  UNL     1      -4.812  45.607 -18.837  1.00  0.00    -0.390 OA
HETATM   27  H36 UNL     1      -5.034  44.717 -18.512  1.00  0.00     0.210 HD
ENDBRANCH  25  26
BRANCH  25  28
HETATM   28  C24 UNL     1      -6.169  47.427 -17.890  1.00  0.00     0.158 C 
HETATM   29  O6  UNL     1      -6.652  47.482 -19.263  1.00  0.00    -0.373 OA
HETATM   30  C25 UNL     1      -8.051  47.758 -19.165  1.00  0.00     0.185 C 
HETATM   31  C26 UNL     1      -8.492  46.841 -18.052  1.00  0.00     0.028 C 
HETATM   32  C32 UNL     1      -8.878  47.493 -20.429  1.00  0.00     0.384 C 
HETATM   33  C27 UNL     1      -9.934  47.147 -17.717  1.00  0.00     0.053 C 
HETATM   34  C33 UNL     1      -7.423  47.125 -17.008  1.00  0.00     0.020 C 
HETATM   35  C28 UNL     1     -10.809  47.005 -18.986  1.00  0.00     0.309 C 
HETATM   36  N2  UNL     1     -10.293  47.713 -20.181  1.00  0.00     0.128 N 
HETATM   37  H47 UNL     1     -10.437  48.715 -20.058  1.00  0.00     0.320 HD
HETATM   38  C34 UNL     1      -7.321  46.044 -15.937  1.00  0.00     0.013 C 
BRANCH  35  39
HETATM   39  C29 UNL     1     -12.199  47.576 -18.649  1.00  0.00     0.233 C 
HETATM   40  O7  UNL     1     -12.610  47.680 -17.491  1.00  0.00    -0.277 OA
HETATM   41  N1  UNL     1     -12.954  47.865 -19.786  1.00  0.00    -0.249 NA
HETATM   42  C30 UNL     1     -14.334  47.471 -19.857  1.00  0.00     0.113 A 
HETATM   43  C31 UNL     1     -13.949  48.901 -19.730  1.00  0.00     0.113 A 
ENDBRANCH  35  39
BRANCH  32  44
HETATM   44  O8  UNL     1      -8.463  48.390 -21.445  1.00  0.00    -0.366 OA
HETATM   45  H49 UNL     1      -7.491  48.298 -21.479  1.00  0.00     0.212 HD
ENDBRANCH  32  44
ENDBRANCH  25  28
ENDBRANCH  21  25
ENDBRANCH  17  21
BRANCH  20  46
HETATM   46  O9  UNL     1      -4.554  50.358 -20.328  1.00  0.00    -0.384 OA
HETATM   47  H58 UNL     1      -4.685  51.259 -20.669  1.00  0.00     0.211 HD
ENDBRANCH  20  46
BRANCH   1  48
HETATM   48  O2  UNL     1      -1.636  52.862 -27.217  1.00  0.00    -0.386 OA
BRANCH  48  49
HETATM   49  C4  UNL     1      -0.441  53.635 -27.340  1.00  0.00     0.170 C 
BRANCH  49  50
HETATM   50  C3  UNL     1       0.360  53.104 -28.521  1.00  0.00     0.052 C 
BRANCH  50  51
HETATM   51  C2  UNL     1       1.201  51.895 -28.118  1.00  0.00     0.169 C 
BRANCH  51  52
HETATM   52  O1  UNL     1       2.176  52.274 -27.144  1.00  0.00    -0.396 OA
HETATM   53  C1  UNL     1       2.580  51.182 -26.324  1.00  0.00     0.201 C 
ENDBRANCH  51  52
ENDBRANCH  50  51
ENDBRANCH  49  50
ENDBRANCH  48  49
ENDBRANCH   1  48
TORSDOF 13
ENDMDL
MODEL 7
REMARK minimizedAffinity -8.38322926
REMARK CNNscore 0.400353193
REMARK CNNaffinity 6.89717627
REMARK  13 active torsions:
REMARK  status: ('A' for Active; 'I' for Inactive)
REMARK    1  A    between atoms: O1_2  and  C2_3 
REMARK    2  A    between atoms: C2_3  and  C3_4 
REMARK    3  A    between atoms: C3_4  and  C4_5 
REMARK    4  A    between atoms: C4_5  and  O2_6 
REMARK    5  A    between atoms: O2_6  and  C5_7 
REMARK    6  A    between atoms: C20_23  and  C21_24 
REMARK    7  A    between atoms: C21_24  and  O4_26 
REMARK    8  A    between atoms: C21_24  and  C23_27 
REMARK    9  A    between atoms: C23_27  and  O5_28 
REMARK   10  A    between atoms: C23_27  and  C24_29 
REMARK   11  A    between atoms: C28_34  and  C29_35 
REMARK       I    between atoms: C29_35  and  N1_37 
REMARK   12  A    between atoms: C32_41  and  O8_42 
REMARK   13  A    between atoms: C37_47  and  O9_48 
ROOT
HETATM    1  C5  UNL     1      -2.110  52.266 -26.001  1.00  0.00     0.122 C 
HETATM    2  C6  UNL     1      -1.840  52.919 -24.647  1.00  0.00     0.033 C 
HETATM    3  C7  UNL     1      -2.169  51.991 -23.483  1.00  0.00     0.013 C 
HETATM    4  C8  UNL     1      -3.616  51.401 -23.533  1.00  0.00    -0.026 C 
HETATM    5  C9  UNL     1      -4.628  52.565 -23.346  1.00  0.00     0.016 C 
HETATM    6  C10 UNL     1      -3.835  50.725 -24.913  1.00  0.00     0.071 C 
HETATM    7  C11 UNL     1      -3.519  51.676 -26.082  1.00  0.00     0.045 C 
HETATM    8  C12 UNL     1      -3.022  49.441 -25.069  1.00  0.00     0.154 C 
HETATM    9  O3  UNL     1      -2.601  49.041 -26.152  1.00  0.00    -0.293 OA
HETATM   10  C13 UNL     1      -2.793  48.588 -23.885  1.00  0.00     0.057 C 
HETATM   11  C14 UNL     1      -3.155  48.987 -22.658  1.00  0.00    -0.037 C 
HETATM   12  C15 UNL     1      -3.757  50.367 -22.354  1.00  0.00     0.026 C 
HETATM   13  C16 UNL     1      -5.175  50.168 -21.771  1.00  0.00     0.011 C 
HETATM   14  C17 UNL     1      -5.166  49.239 -20.537  1.00  0.00     0.014 C 
HETATM   15  C18 UNL     1      -4.511  47.873 -20.841  1.00  0.00    -0.002 C 
HETATM   16  C19 UNL     1      -5.432  47.103 -21.827  1.00  0.00     0.019 C 
HETATM   17  C20 UNL     1      -4.121  47.012 -19.591  1.00  0.00     0.034 C 
HETATM   18  C35 UNL     1      -3.066  46.025 -20.160  1.00  0.00     0.012 C 
HETATM   19  C36 UNL     1      -2.518  46.671 -21.459  1.00  0.00     0.044 C 
HETATM   20  C37 UNL     1      -3.081  48.099 -21.440  1.00  0.00     0.089 C 
ENDROOT
BRANCH  17  21
HETATM   21  C21 UNL     1      -5.187  46.413 -18.616  1.00  0.00     0.087 C 
HETATM   22  C22 UNL     1      -4.621  46.003 -17.253  1.00  0.00     0.049 C 
BRANCH  21  23
HETATM   23  O4  UNL     1      -5.686  45.214 -19.230  1.00  0.00    -0.387 OA
HETATM   24  H34 UNL     1      -5.917  45.404 -20.153  1.00  0.00     0.210 HD
ENDBRANCH  21  23
BRANCH  21  25
HETATM   25  C23 UNL     1      -6.369  47.457 -18.444  1.00  0.00     0.181 C 
BRANCH  25  26
HETATM   26  O5  UNL     1      -6.339  48.006 -17.121  1.00  0.00    -0.390 OA
HETATM   27  H36 UNL     1      -6.289  48.976 -17.194  1.00  0.00     0.210 HD
ENDBRANCH  25  26
BRANCH  25  28
HETATM   28  C24 UNL     1      -7.778  46.913 -18.790  1.00  0.00     0.158 C 
HETATM   29  O6  UNL     1      -8.279  45.993 -17.778  1.00  0.00    -0.373 OA
HETATM   30  C25 UNL     1      -9.704  46.082 -17.854  1.00  0.00     0.185 C 
HETATM   31  C26 UNL     1      -9.937  47.567 -17.971  1.00  0.00     0.028 C 
HETATM   32  C32 UNL     1     -10.476  45.516 -16.656  1.00  0.00     0.384 C 
HETATM   33  C27 UNL     1     -11.407  47.806 -18.231  1.00  0.00     0.053 C 
HETATM   34  C33 UNL     1      -8.933  47.929 -19.054  1.00  0.00     0.020 C 
HETATM   35  C28 UNL     1     -12.251  47.159 -17.108  1.00  0.00     0.309 C 
HETATM   36  N2  UNL     1     -11.904  45.751 -16.800  1.00  0.00     0.128 N 
HETATM   37  H47 UNL     1     -12.244  45.155 -17.553  1.00  0.00     0.320 HD
HETATM   38  C34 UNL     1      -8.603  49.417 -19.100  1.00  0.00     0.013 C 
BRANCH  35  39
HETATM   39  C29 UNL     1     -13.724  47.204 -17.559  1.00  0.00     0.233 C 
HETATM   40  O7  UNL     1     -14.661  47.249 -16.758  1.00  0.00    -0.277 OA
HETATM   41  N1  UNL     1     -13.868  47.094 -18.942  1.00  0.00    -0.249 NA
HETATM   42  C30 UNL     1     -14.859  46.215 -19.497  1.00  0.00     0.113 A 
HETATM   43  C31 UNL     1     -15.008  47.691 -19.584  1.00  0.00     0.113 A 
ENDBRANCH  35  39
BRANCH  32  44
HETATM   44  O8  UNL     1     -10.264  44.117 -16.592  1.00  0.00    -0.366 OA
HETATM   45  H49 UNL     1      -9.293  44.009 -16.632  1.00  0.00     0.212 HD
ENDBRANCH  32  44
ENDBRANCH  25  28
ENDBRANCH  21  25
ENDBRANCH  17  21
BRANCH  20  46
HETATM   46  O9  UNL     1      -2.244  48.811 -20.507  1.00  0.00    -0.384 OA
HETATM   47  H58 UNL     1      -1.421  49.026 -20.977  1.00  0.00     0.211 HD
ENDBRANCH  20  46
BRANCH   1  48
HETATM   48  O2  UNL     1      -1.988  53.286 -26.999  1.00  0.00    -0.386 OA
BRANCH  48  49
HETATM   49  C4  UNL     1      -0.696  53.318 -27.609  1.00  0.00     0.170 C 
BRANCH  49  50
HETATM   50  C3  UNL     1      -0.220  51.885 -27.806  1.00  0.00     0.052 C 
BRANCH  50  51
HETATM   51  C2  UNL     1       1.256  51.842 -28.193  1.00  0.00     0.169 C 
BRANCH  51  52
HETATM   52  O1  UNL     1       2.068  52.249 -27.089  1.00  0.00    -0.396 OA
HETATM   53  C1  UNL     1       2.397  51.166 -26.226  1.00  0.00     0.201 C 
ENDBRANCH  51  52
ENDBRANCH  50  51
ENDBRANCH  49  50
ENDBRANCH  48  49
ENDBRANCH   1  48
TORSDOF 13
ENDMDL
MODEL 8
REMARK minimizedAffinity -9.05910683
REMARK CNNscore 0.390316606
REMARK CNNaffinity 6.04926062
REMARK  13 active torsions:
REMARK  status: ('A' for Active; 'I' for Inactive)
REMARK    1  A    between atoms: O1_2  and  C2_3 
REMARK    2  A    between atoms: C2_3  and  C3_4 
REMARK    3  A    between atoms: C3_4  and  C4_5 
REMARK    4  A    between atoms: C4_5  and  O2_6 
REMARK    5  A    between atoms: O2_6  and  C5_7 
REMARK    6  A    between atoms: C20_23  and  C21_24 
REMARK    7  A    between atoms: C21_24  and  O4_26 
REMARK    8  A    between atoms: C21_24  and  C23_27 
REMARK    9  A    between atoms: C23_27  and  O5_28 
REMARK   10  A    between atoms: C23_27  and  C24_29 
REMARK   11  A    between atoms: C28_34  and  C29_35 
REMARK       I    between atoms: C29_35  and  N1_37 
REMARK   12  A    between atoms: C32_41  and  O8_42 
REMARK   13  A    between atoms: C37_47  and  O9_48 
ROOT
HETATM    1  C5  UNL     1       0.382  51.333 -18.218  1.00  0.00     0.122 C 
HETATM    2  C6  UNL     1      -0.140  49.958 -17.806  1.00  0.00     0.033 C 
HETATM    3  C7  UNL     1      -1.135  49.393 -18.811  1.00  0.00     0.013 C 
HETATM    4  C8  UNL     1      -2.321  50.358 -19.141  1.00  0.00    -0.026 C 
HETATM    5  C9  UNL     1      -3.182  50.532 -17.860  1.00  0.00     0.016 C 
HETATM    6  C10 UNL     1      -1.744  51.730 -19.582  1.00  0.00     0.071 C 
HETATM    7  C11 UNL     1      -0.755  52.302 -18.549  1.00  0.00     0.045 C 
HETATM    8  C12 UNL     1      -1.069  51.667 -20.951  1.00  0.00     0.154 C 
HETATM    9  O3  UNL     1      -0.125  52.387 -21.267  1.00  0.00    -0.293 OA
HETATM   10  C13 UNL     1      -1.617  50.759 -21.980  1.00  0.00     0.057 C 
HETATM   11  C14 UNL     1      -2.596  49.890 -21.693  1.00  0.00    -0.037 C 
HETATM   12  C15 UNL     1      -3.178  49.698 -20.285  1.00  0.00     0.026 C 
HETATM   13  C16 UNL     1      -4.681  50.056 -20.320  1.00  0.00     0.011 C 
HETATM   14  C17 UNL     1      -5.442  49.246 -21.394  1.00  0.00     0.014 C 
HETATM   15  C18 UNL     1      -4.816  49.406 -22.797  1.00  0.00    -0.002 C 
HETATM   16  C19 UNL     1      -5.043  50.871 -23.265  1.00  0.00     0.019 C 
HETATM   17  C20 UNL     1      -5.271  48.358 -23.869  1.00  0.00     0.034 C 
HETATM   18  C35 UNL     1      -4.142  48.432 -24.934  1.00  0.00     0.012 C 
HETATM   19  C36 UNL     1      -2.907  49.043 -24.221  1.00  0.00     0.044 C 
HETATM   20  C37 UNL     1      -3.291  49.048 -22.735  1.00  0.00     0.089 C 
ENDROOT
BRANCH  17  21
HETATM   21  C21 UNL     1      -6.737  48.287 -24.406  1.00  0.00     0.087 C 
HETATM   22  C22 UNL     1      -6.854  47.702 -25.818  1.00  0.00     0.049 C 
BRANCH  21  23
HETATM   23  O4  UNL     1      -7.219  49.638 -24.482  1.00  0.00    -0.387 OA
HETATM   24  H34 UNL     1      -7.024  50.091 -23.646  1.00  0.00     0.210 HD
ENDBRANCH  21  23
BRANCH  21  25
HETATM   25  C23 UNL     1      -7.620  47.461 -23.380  1.00  0.00     0.181 C 
BRANCH  25  26
HETATM   26  O5  UNL     1      -6.921  46.274 -22.987  1.00  0.00    -0.390 OA
HETATM   27  H36 UNL     1      -6.851  46.268 -22.016  1.00  0.00     0.210 HD
ENDBRANCH  25  26
BRANCH  25  28
HETATM   28  C24 UNL     1      -9.053  47.129 -23.870  1.00  0.00     0.158 C 
HETATM   29  O6  UNL     1      -9.550  48.107 -24.828  1.00  0.00    -0.373 OA
HETATM   30  C25 UNL     1     -10.497  47.403 -25.635  1.00  0.00     0.185 C 
HETATM   31  C26 UNL     1      -9.795  46.097 -25.907  1.00  0.00     0.028 C 
HETATM   32  C32 UNL     1     -10.889  48.080 -26.954  1.00  0.00     0.384 C 
HETATM   33  C27 UNL     1     -10.755  45.172 -26.618  1.00  0.00     0.053 C 
HETATM   34  C33 UNL     1      -9.324  45.729 -24.508  1.00  0.00     0.020 C 
HETATM   35  C28 UNL     1     -11.275  45.846 -27.909  1.00  0.00     0.309 C 
HETATM   36  N2  UNL     1     -11.775  47.230 -27.731  1.00  0.00     0.128 N 
HETATM   37  H47 UNL     1     -12.675  47.196 -27.252  1.00  0.00     0.320 HD
HETATM   38  C34 UNL     1      -8.207  44.692 -24.499  1.00  0.00     0.013 C 
BRANCH  35  39
HETATM   39  C29 UNL     1     -12.432  44.980 -28.444  1.00  0.00     0.233 C 
HETATM   40  O7  UNL     1     -12.313  44.253 -29.433  1.00  0.00    -0.277 OA
HETATM   41  N1  UNL     1     -13.625  45.186 -27.750  1.00  0.00    -0.249 NA
HETATM   42  C30 UNL     1     -14.859  45.348 -28.468  1.00  0.00     0.113 A 
HETATM   43  C31 UNL     1     -14.589  44.122 -27.672  1.00  0.00     0.113 A 
ENDBRANCH  35  39
BRANCH  32  44
HETATM   44  O8  UNL     1     -11.574  49.286 -26.666  1.00  0.00    -0.366 OA
HETATM   45  H49 UNL     1     -10.995  49.759 -26.036  1.00  0.00     0.212 HD
ENDBRANCH  32  44
ENDBRANCH  25  28
ENDBRANCH  21  25
ENDBRANCH  17  21
BRANCH  20  46
HETATM   46  O9  UNL     1      -3.105  47.686 -22.302  1.00  0.00    -0.384 OA
HETATM   47  H58 UNL     1      -2.150  47.564 -22.166  1.00  0.00     0.211 HD
ENDBRANCH  20  46
BRANCH   1  48
HETATM   48  O2  UNL     1       1.118  51.862 -17.109  1.00  0.00    -0.386 OA
BRANCH  48  49
HETATM   49  C4  UNL     1       0.516  51.563 -15.848  1.00  0.00     0.170 C 
BRANCH  49  50
HETATM   50  C3  UNL     1       1.528  51.856 -14.748  1.00  0.00     0.052 C 
BRANCH  50  51
HETATM   51  C2  UNL     1       0.928  51.611 -13.366  1.00  0.00     0.169 C 
BRANCH  51  52
HETATM   52  O1  UNL     1      -0.058  52.604 -13.073  1.00  0.00    -0.396 OA
HETATM   53  C1  UNL     1       0.239  53.334 -11.886  1.00  0.00     0.201 C 
ENDBRANCH  51  52
ENDBRANCH  50  51
ENDBRANCH  49  50
ENDBRANCH  48  49
ENDBRANCH   1  48
TORSDOF 13
ENDMDL
MODEL 9
REMARK minimizedAffinity -9.0844593
REMARK CNNscore 0.380264699
REMARK CNNaffinity 6.49571991
REMARK  13 active torsions:
REMARK  status: ('A' for Active; 'I' for Inactive)
REMARK    1  A    between atoms: O1_2  and  C2_3 
REMARK    2  A    between atoms: C2_3  and  C3_4 
REMARK    3  A    between atoms: C3_4  and  C4_5 
REMARK    4  A    between atoms: C4_5  and  O2_6 
REMARK    5  A    between atoms: O2_6  and  C5_7 
REMARK    6  A    between atoms: C20_23  and  C21_24 
REMARK    7  A    between atoms: C21_24  and  O4_26 
REMARK    8  A    between atoms: C21_24  and  C23_27 
REMARK    9  A    between atoms: C23_27  and  O5_28 
REMARK   10  A    between atoms: C23_27  and  C24_29 
REMARK   11  A    between atoms: C28_34  and  C29_35 
REMARK       I    between atoms: C29_35  and  N1_37 
REMARK   12  A    between atoms: C32_41  and  O8_42 
REMARK   13  A    between atoms: C37_47  and  O9_48 
ROOT
HETATM    1  C5  UNL     1      -2.378  49.951 -22.032  1.00  0.00     0.122 C 
HETATM    2  C6  UNL     1      -2.835  51.012 -23.031  1.00  0.00     0.033 C 
HETATM    3  C7  UNL     1      -4.119  50.615 -23.748  1.00  0.00     0.013 C 
HETATM    4  C8  UNL     1      -4.058  49.207 -24.426  1.00  0.00    -0.026 C 
HETATM    5  C9  UNL     1      -3.020  49.264 -25.580  1.00  0.00     0.016 C 
HETATM    6  C10 UNL     1      -3.618  48.159 -23.369  1.00  0.00     0.071 C 
HETATM    7  C11 UNL     1      -2.309  48.560 -22.665  1.00  0.00     0.045 C 
HETATM    8  C12 UNL     1      -4.699  47.899 -22.321  1.00  0.00     0.154 C 
HETATM    9  O3  UNL     1      -4.446  47.579 -21.162  1.00  0.00    -0.293 OA
HETATM   10  C13 UNL     1      -6.119  47.951 -22.726  1.00  0.00     0.057 C 
HETATM   11  C14 UNL     1      -6.480  48.364 -23.949  1.00  0.00    -0.037 C 
HETATM   12  C15 UNL     1      -5.488  48.884 -24.999  1.00  0.00     0.026 C 
HETATM   13  C16 UNL     1      -5.547  47.956 -26.235  1.00  0.00     0.011 C 
HETATM   14  C17 UNL     1      -6.983  47.823 -26.787  1.00  0.00     0.014 C 
HETATM   15  C18 UNL     1      -7.982  47.349 -25.709  1.00  0.00    -0.002 C 
HETATM   16  C19 UNL     1      -7.633  45.880 -25.337  1.00  0.00     0.019 C 
HETATM   17  C20 UNL     1      -9.498  47.534 -26.056  1.00  0.00     0.034 C 
HETATM   18  C35 UNL     1     -10.186  47.484 -24.664  1.00  0.00     0.012 C 
HETATM   19  C36 UNL     1      -9.088  47.818 -23.621  1.00  0.00     0.044 C 
HETATM   20  C37 UNL     1      -7.897  48.297 -24.463  1.00  0.00     0.089 C 
ENDROOT
BRANCH  17  21
HETATM   21  C21 UNL     1     -10.199  46.748 -27.211  1.00  0.00     0.087 C 
HETATM   22  C22 UNL     1     -10.052  45.226 -27.107  1.00  0.00     0.049 C 
BRANCH  21  23
HETATM   23  O4  UNL     1      -9.551  47.140 -28.433  1.00  0.00    -0.387 OA
HETATM   24  H34 UNL     1      -9.492  48.107 -28.463  1.00  0.00     0.210 HD
ENDBRANCH  21  23
BRANCH  21  25
HETATM   25  C23 UNL     1     -11.729  47.163 -27.261  1.00  0.00     0.181 C 
BRANCH  25  26
HETATM   26  O5  UNL     1     -11.857  48.569 -27.014  1.00  0.00    -0.390 OA
HETATM   27  H36 UNL     1     -12.339  48.967 -27.760  1.00  0.00     0.210 HD
ENDBRANCH  25  26
BRANCH  25  28
HETATM   28  C24 UNL     1     -12.659  46.346 -26.328  1.00  0.00     0.158 C 
HETATM   29  O6  UNL     1     -13.331  47.186 -25.345  1.00  0.00    -0.373 OA
HETATM   30  C25 UNL     1     -14.545  46.502 -25.025  1.00  0.00     0.185 C 
HETATM   31  C26 UNL     1     -15.042  46.060 -26.379  1.00  0.00     0.028 C 
HETATM   32  C32 UNL     1     -15.616  47.335 -24.312  1.00  0.00     0.384 C 
HETATM   33  C27 UNL     1     -16.246  45.168 -26.183  1.00  0.00     0.053 C 
HETATM   34  C33 UNL     1     -13.774  45.459 -26.966  1.00  0.00     0.020 C 
HETATM   35  C28 UNL     1     -17.327  45.917 -25.368  1.00  0.00     0.309 C 
HETATM   36  N2  UNL     1     -16.836  46.566 -24.129  1.00  0.00     0.128 N 
HETATM   37  H47 UNL     1     -16.650  45.846 -23.432  1.00  0.00     0.320 HD
HETATM   38  C34 UNL     1     -13.818  45.319 -28.484  1.00  0.00     0.013 C 
BRANCH  35  39
HETATM   39  C29 UNL     1     -18.403  44.886 -24.979  1.00  0.00     0.233 C 
HETATM   40  O7  UNL     1     -18.508  43.793 -25.541  1.00  0.00    -0.277 OA
HETATM   41  N1  UNL     1     -19.281  45.364 -24.006  1.00  0.00    -0.249 NA
HETATM   42  C30 UNL     1     -20.697  45.167 -24.151  1.00  0.00     0.113 A 
HETATM   43  C31 UNL     1     -19.923  44.435 -23.115  1.00  0.00     0.113 A 
ENDBRANCH  35  39
BRANCH  32  44
HETATM   44  O8  UNL     1     -15.133  47.707 -23.033  1.00  0.00    -0.366 OA
HETATM   45  H49 UNL     1     -14.254  48.099 -23.202  1.00  0.00     0.212 HD
ENDBRANCH  32  44
ENDBRANCH  25  28
ENDBRANCH  21  25
ENDBRANCH  17  21
BRANCH  20  46
HETATM   46  O9  UNL     1      -8.228  49.651 -24.830  1.00  0.00    -0.384 OA
HETATM   47  H58 UNL     1      -8.040  50.205 -24.053  1.00  0.00     0.211 HD
ENDBRANCH  20  46
BRANCH   1  48
HETATM   48  O2  UNL     1      -1.063  50.314 -21.593  1.00  0.00    -0.386 OA
BRANCH  48  49
HETATM   49  C4  UNL     1      -1.073  51.338 -20.596  1.00  0.00     0.170 C 
BRANCH  49  50
HETATM   50  C3  UNL     1       0.288  52.022 -20.593  1.00  0.00     0.052 C 
BRANCH  50  51
HETATM   51  C2  UNL     1       0.262  53.298 -19.756  1.00  0.00     0.169 C 
BRANCH  51  52
HETATM   52  O1  UNL     1       1.051  54.314 -20.380  1.00  0.00    -0.396 OA
HETATM   53  C1  UNL     1       1.434  53.968 -21.707  1.00  0.00     0.201 C 
ENDBRANCH  51  52
ENDBRANCH  50  51
ENDBRANCH  49  50
ENDBRANCH  48  49
ENDBRANCH   1  48
TORSDOF 13
ENDMDL
