MODEL 1
REMARK minimizedAffinity -7.94785881
REMARK CNNscore 0.455475092
REMARK CNNaffinity 7.33631849
REMARK  9 active torsions:
REMARK  status: ('A' for Active; 'I' for Inactive)
REMARK    1  A    between atoms: C2_2  and  O2_4 
REMARK    2  A    between atoms: O2_4  and  C3_5 
REMARK    3  A    between atoms: C3_5  and  C4_6 
REMARK    4  A    between atoms: C4_6  and  C5_7 
REMARK    5  A    between atoms: C5_7  and  C6_8 
REMARK    6  A    between atoms: C20_22  and  C21_23 
REMARK    7  A    between atoms: C21_23  and  C23_25 
REMARK    8  A    between atoms: C23_25  and  C24_26 
REMARK    9  A    between atoms: C24_26  and  C25_27 
ROOT
HETATM    1  C6  UNL     1      -0.429   6.531  13.040  1.00  0.00     0.023 C 
HETATM    2  C7  UNL     1       0.366   7.827  12.726  1.00  0.00    -0.073 C 
HETATM    3  C8  UNL     1       1.691   8.086  12.891  1.00  0.00    -0.085 C 
HETATM    4  C9  UNL     1       2.348   9.355  12.389  1.00  0.00     0.043 C 
HETATM    5  C10 UNL     1       2.683   7.212  13.618  1.00  0.00     0.043 C 
HETATM    6  C11 UNL     1      -0.594   8.910  12.241  1.00  0.00     0.035 C 
HETATM    7  C12 UNL     1      -1.633   9.229  13.326  1.00  0.00     0.010 C 
HETATM    8  C13 UNL     1      -2.392   7.960  13.762  1.00  0.00     0.003 C 
HETATM    9  C14 UNL     1      -1.421   6.806  14.252  1.00  0.00    -0.032 C 
HETATM   10  C15 UNL     1      -0.577   7.163  15.502  1.00  0.00     0.016 C 
HETATM   11  C16 UNL     1      -2.265   5.546  14.614  1.00  0.00     0.011 C 
HETATM   12  C17 UNL     1      -3.551   5.795  15.445  1.00  0.00     0.011 C 
HETATM   13  C18 UNL     1      -4.463   6.870  14.815  1.00  0.00    -0.032 C 
HETATM   14  C19 UNL     1      -4.980   6.288  13.457  1.00  0.00     0.016 C 
HETATM   15  C20 UNL     1      -5.709   7.402  15.607  1.00  0.00    -0.002 C 
HETATM   16  C29 UNL     1      -5.962   8.780  14.900  1.00  0.00     0.006 C 
HETATM   17  C30 UNL     1      -4.677   9.167  14.142  1.00  0.00     0.011 C 
HETATM   18  C31 UNL     1      -3.613   8.205  14.692  1.00  0.00    -0.032 C 
HETATM   19  C32 UNL     1      -3.174   8.816  16.062  1.00  0.00     0.016 C 
ENDROOT
BRANCH  15  20
HETATM   20  C21 UNL     1      -7.028   6.561  15.696  1.00  0.00    -0.014 C 
HETATM   21  C22 UNL     1      -6.686   5.065  15.834  1.00  0.00     0.010 C 
BRANCH  20  22
HETATM   22  C23 UNL     1      -7.951   6.776  14.472  1.00  0.00     0.008 C 
BRANCH  22  23
HETATM   23  C24 UNL     1      -7.556   6.007  13.198  1.00  0.00     0.028 C 
BRANCH  23  24
HETATM   24  C25 UNL     1      -7.948   4.556  13.190  1.00  0.00    -0.025 C 
HETATM   25  C26 UNL     1      -7.276   3.516  12.657  1.00  0.00    -0.091 C 
HETATM   26  C27 UNL     1      -7.829   2.117  12.757  1.00  0.00     0.042 C 
HETATM   27  C28 UNL     1      -5.967   3.605  11.923  1.00  0.00     0.042 C 
ENDBRANCH  23  24
ENDBRANCH  22  23
ENDBRANCH  20  22
ENDBRANCH  15  20
BRANCH   1  28
HETATM   28  C5  UNL     1       0.328   5.179  13.094  1.00  0.00     0.012 C 
BRANCH  28  29
HETATM   29  C4  UNL     1       0.282   4.415  11.764  1.00  0.00     0.028 C 
BRANCH  29  30
HETATM   30  C3  UNL     1      -1.153   4.118  11.338  1.00  0.00     0.178 C 
BRANCH  30  31
HETATM   31  O2  UNL     1      -1.171   2.998  10.439  1.00  0.00    -0.322 OA
BRANCH  31  32
HETATM   32  C2  UNL     1      -1.348   1.780  11.018  1.00  0.00     0.254 C 
HETATM   33  C1  UNL     1      -2.750   1.661  11.537  1.00  0.00     0.126 C 
HETATM   34  O1  UNL     1      -0.503   0.901  11.111  1.00  0.00    -0.266 OA
ENDBRANCH  31  32
ENDBRANCH  30  31
ENDBRANCH  29  30
ENDBRANCH  28  29
ENDBRANCH   1  28
TORSDOF 9
ENDMDL
MODEL 2
REMARK minimizedAffinity -8.07559299
REMARK CNNscore 0.424945116
REMARK CNNaffinity 7.42674685
REMARK  9 active torsions:
REMARK  status: ('A' for Active; 'I' for Inactive)
REMARK    1  A    between atoms: C2_2  and  O2_4 
REMARK    2  A    between atoms: O2_4  and  C3_5 
REMARK    3  A    between atoms: C3_5  and  C4_6 
REMARK    4  A    between atoms: C4_6  and  C5_7 
REMARK    5  A    between atoms: C5_7  and  C6_8 
REMARK    6  A    between atoms: C20_22  and  C21_23 
REMARK    7  A    between atoms: C21_23  and  C23_25 
REMARK    8  A    between atoms: C23_25  and  C24_26 
REMARK    9  A    between atoms: C24_26  and  C25_27 
ROOT
HETATM    1  C6  UNL     1      -6.605   5.816  15.020  1.00  0.00     0.023 C 
HETATM    2  C7  UNL     1      -7.439   7.066  15.409  1.00  0.00    -0.073 C 
HETATM    3  C8  UNL     1      -8.726   7.374  15.095  1.00  0.00    -0.085 C 
HETATM    4  C9  UNL     1      -9.451   8.566  15.684  1.00  0.00     0.043 C 
HETATM    5  C10 UNL     1      -9.600   6.641  14.109  1.00  0.00     0.043 C 
HETATM    6  C11 UNL     1      -6.561   8.044  16.186  1.00  0.00     0.035 C 
HETATM    7  C12 UNL     1      -5.376   8.501  15.324  1.00  0.00     0.010 C 
HETATM    8  C13 UNL     1      -4.560   7.297  14.815  1.00  0.00     0.003 C 
HETATM    9  C14 UNL     1      -5.446   6.251  14.019  1.00  0.00    -0.032 C 
HETATM   10  C15 UNL     1      -6.099   6.808  12.730  1.00  0.00     0.016 C 
HETATM   11  C16 UNL     1      -4.556   5.041  13.596  1.00  0.00     0.011 C 
HETATM   12  C17 UNL     1      -3.164   5.386  13.008  1.00  0.00     0.011 C 
HETATM   13  C18 UNL     1      -2.356   6.335  13.919  1.00  0.00    -0.032 C 
HETATM   14  C19 UNL     1      -2.041   5.545  15.233  1.00  0.00     0.016 C 
HETATM   15  C20 UNL     1      -1.008   6.954  13.405  1.00  0.00    -0.002 C 
HETATM   16  C29 UNL     1      -0.862   8.205  14.342  1.00  0.00     0.006 C 
HETATM   17  C30 UNL     1      -2.245   8.500  14.957  1.00  0.00     0.011 C 
HETATM   18  C31 UNL     1      -3.216   7.653  14.119  1.00  0.00    -0.032 C 
HETATM   19  C32 UNL     1      -3.451   8.473  12.808  1.00  0.00     0.016 C 
ENDROOT
BRANCH  15  20
HETATM   20  C21 UNL     1       0.312   6.110  13.381  1.00  0.00    -0.014 C 
HETATM   21  C22 UNL     1       1.521   7.022  13.668  1.00  0.00     0.010 C 
BRANCH  20  22
HETATM   22  C23 UNL     1       0.519   5.375  12.035  1.00  0.00     0.008 C 
BRANCH  22  23
HETATM   23  C24 UNL     1       0.102   6.159  10.777  1.00  0.00     0.028 C 
BRANCH  23  24
HETATM   24  C25 UNL     1       1.245   6.692   9.959  1.00  0.00    -0.025 C 
HETATM   25  C26 UNL     1       1.214   7.655   9.016  1.00  0.00    -0.091 C 
HETATM   26  C27 UNL     1       2.476   8.065   8.301  1.00  0.00     0.042 C 
HETATM   27  C28 UNL     1      -0.013   8.398   8.565  1.00  0.00     0.042 C 
ENDBRANCH  23  24
ENDBRANCH  22  23
ENDBRANCH  20  22
ENDBRANCH  15  20
BRANCH   1  28
HETATM   28  C5  UNL     1      -7.343   4.504  14.652  1.00  0.00     0.012 C 
BRANCH  28  29
HETATM   29  C4  UNL     1      -7.724   4.428  13.167  1.00  0.00     0.028 C 
BRANCH  29  30
HETATM   30  C3  UNL     1      -7.201   3.149  12.520  1.00  0.00     0.178 C 
BRANCH  30  31
HETATM   31  O2  UNL     1      -6.432   3.475  11.351  1.00  0.00    -0.322 OA
BRANCH  31  32
HETATM   32  C2  UNL     1      -5.408   2.627  11.063  1.00  0.00     0.254 C 
HETATM   33  C1  UNL     1      -5.859   1.207  11.230  1.00  0.00     0.126 C 
HETATM   34  O1  UNL     1      -4.281   2.956  10.720  1.00  0.00    -0.266 OA
ENDBRANCH  31  32
ENDBRANCH  30  31
ENDBRANCH  29  30
ENDBRANCH  28  29
ENDBRANCH   1  28
TORSDOF 9
ENDMDL
MODEL 3
REMARK minimizedAffinity -6.23261499
REMARK CNNscore 0.383305281
REMARK CNNaffinity 6.57464361
REMARK  9 active torsions:
REMARK  status: ('A' for Active; 'I' for Inactive)
REMARK    1  A    between atoms: C2_2  and  O2_4 
REMARK    2  A    between atoms: O2_4  and  C3_5 
REMARK    3  A    between atoms: C3_5  and  C4_6 
REMARK    4  A    between atoms: C4_6  and  C5_7 
REMARK    5  A    between atoms: C5_7  and  C6_8 
REMARK    6  A    between atoms: C20_22  and  C21_23 
REMARK    7  A    between atoms: C21_23  and  C23_25 
REMARK    8  A    between atoms: C23_25  and  C24_26 
REMARK    9  A    between atoms: C24_26  and  C25_27 
ROOT
HETATM    1  C6  UNL     1      -2.596   9.840  14.036  1.00  0.00     0.023 C 
HETATM    2  C7  UNL     1      -3.963   9.313  14.549  1.00  0.00    -0.073 C 
HETATM    3  C8  UNL     1      -4.632   9.624  15.692  1.00  0.00    -0.085 C 
HETATM    4  C9  UNL     1      -6.037   9.138  15.978  1.00  0.00     0.043 C 
HETATM    5  C10 UNL     1      -4.090  10.430  16.846  1.00  0.00     0.043 C 
HETATM    6  C11 UNL     1      -4.494   8.250  13.590  1.00  0.00     0.035 C 
HETATM    7  C12 UNL     1      -3.517   7.068  13.507  1.00  0.00     0.010 C 
HETATM    8  C13 UNL     1      -2.106   7.537  13.101  1.00  0.00     0.003 C 
HETATM    9  C14 UNL     1      -1.533   8.656  14.066  1.00  0.00    -0.032 C 
HETATM   10  C15 UNL     1      -1.349   8.205  15.536  1.00  0.00     0.016 C 
HETATM   11  C16 UNL     1      -0.135   9.113  13.548  1.00  0.00     0.011 C 
HETATM   12  C17 UNL     1       0.836   7.988  13.109  1.00  0.00     0.011 C 
HETATM   13  C18 UNL     1       0.196   7.017  12.093  1.00  0.00    -0.032 C 
HETATM   14  C19 UNL     1      -0.071   7.836  10.787  1.00  0.00     0.016 C 
HETATM   15  C20 UNL     1       0.950   5.703  11.682  1.00  0.00    -0.002 C 
HETATM   16  C29 UNL     1      -0.231   4.819  11.148  1.00  0.00     0.006 C 
HETATM   17  C30 UNL     1      -1.548   5.415  11.683  1.00  0.00     0.011 C 
HETATM   18  C31 UNL     1      -1.098   6.399  12.774  1.00  0.00    -0.032 C 
HETATM   19  C32 UNL     1      -0.805   5.517  14.030  1.00  0.00     0.016 C 
ENDROOT
BRANCH  15  20
HETATM   20  C21 UNL     1       2.137   5.740  10.659  1.00  0.00    -0.014 C 
HETATM   21  C22 UNL     1       3.268   6.634  11.203  1.00  0.00     0.010 C 
BRANCH  20  22
HETATM   22  C23 UNL     1       1.699   6.242   9.262  1.00  0.00     0.008 C 
BRANCH  22  23
HETATM   23  C24 UNL     1       2.702   5.996   8.121  1.00  0.00     0.028 C 
BRANCH  23  24
HETATM   24  C25 UNL     1       3.607   4.812   8.322  1.00  0.00    -0.025 C 
HETATM   25  C26 UNL     1       4.016   3.913   7.404  1.00  0.00    -0.091 C 
HETATM   26  C27 UNL     1       4.939   2.788   7.796  1.00  0.00     0.042 C 
HETATM   27  C28 UNL     1       3.620   3.902   5.953  1.00  0.00     0.042 C 
ENDBRANCH  23  24
ENDBRANCH  22  23
ENDBRANCH  20  22
ENDBRANCH  15  20
BRANCH   1  28
HETATM   28  C5  UNL     1      -2.079  11.210  14.543  1.00  0.00     0.012 C 
BRANCH  28  29
HETATM   29  C4  UNL     1      -3.071  11.912  15.482  1.00  0.00     0.028 C 
BRANCH  29  30
HETATM   30  C3  UNL     1      -2.439  13.127  16.155  1.00  0.00     0.178 C 
BRANCH  30  31
HETATM   31  O2  UNL     1      -3.379  14.212  16.180  1.00  0.00    -0.322 OA
BRANCH  31  32
HETATM   32  C2  UNL     1      -3.635  14.798  14.979  1.00  0.00     0.254 C 
HETATM   33  C1  UNL     1      -2.750  15.994  14.795  1.00  0.00     0.126 C 
HETATM   34  O1  UNL     1      -4.460  14.421  14.160  1.00  0.00    -0.266 OA
ENDBRANCH  31  32
ENDBRANCH  30  31
ENDBRANCH  29  30
ENDBRANCH  28  29
ENDBRANCH   1  28
TORSDOF 9
ENDMDL
MODEL 4
REMARK minimizedAffinity -6.98770237
REMARK CNNscore 0.368401647
REMARK CNNaffinity 6.5175457
REMARK  9 active torsions:
REMARK  status: ('A' for Active; 'I' for Inactive)
REMARK    1  A    between atoms: C2_2  and  O2_4 
REMARK    2  A    between atoms: O2_4  and  C3_5 
REMARK    3  A    between atoms: C3_5  and  C4_6 
REMARK    4  A    between atoms: C4_6  and  C5_7 
REMARK    5  A    between atoms: C5_7  and  C6_8 
REMARK    6  A    between atoms: C20_22  and  C21_23 
REMARK    7  A    between atoms: C21_23  and  C23_25 
REMARK    8  A    between atoms: C23_25  and  C24_26 
REMARK    9  A    between atoms: C24_26  and  C25_27 
ROOT
HETATM    1  C6  UNL     1      -2.176  12.116  18.471  1.00  0.00     0.023 C 
HETATM    2  C7  UNL     1      -0.793  12.286  19.154  1.00  0.00    -0.073 C 
HETATM    3  C8  UNL     1      -0.193  13.416  19.615  1.00  0.00    -0.085 C 
HETATM    4  C9  UNL     1       1.101  13.396  20.403  1.00  0.00     0.043 C 
HETATM    5  C10 UNL     1      -0.666  14.830  19.386  1.00  0.00     0.043 C 
HETATM    6  C11 UNL     1      -0.072  10.940  19.190  1.00  0.00     0.035 C 
HETATM    7  C12 UNL     1       0.152  10.416  17.764  1.00  0.00     0.010 C 
HETATM    8  C13 UNL     1      -1.177  10.320  16.989  1.00  0.00     0.003 C 
HETATM    9  C14 UNL     1      -1.961  11.697  16.951  1.00  0.00    -0.032 C 
HETATM   10  C15 UNL     1      -1.211  12.846  16.231  1.00  0.00     0.016 C 
HETATM   11  C16 UNL     1      -3.315  11.495  16.203  1.00  0.00     0.011 C 
HETATM   12  C17 UNL     1      -3.259  10.672  14.891  1.00  0.00     0.011 C 
HETATM   13  C18 UNL     1      -2.558   9.309  15.077  1.00  0.00    -0.032 C 
HETATM   14  C19 UNL     1      -3.460   8.460  16.033  1.00  0.00     0.016 C 
HETATM   15  C20 UNL     1      -2.228   8.420  13.826  1.00  0.00    -0.002 C 
HETATM   16  C29 UNL     1      -1.088   7.501  14.389  1.00  0.00     0.006 C 
HETATM   17  C30 UNL     1      -0.523   8.169  15.659  1.00  0.00     0.011 C 
HETATM   18  C31 UNL     1      -1.093   9.595  15.616  1.00  0.00    -0.032 C 
HETATM   19  C32 UNL     1      -0.180  10.373  14.614  1.00  0.00     0.016 C 
ENDROOT
BRANCH  15  20
HETATM   20  C21 UNL     1      -3.341   7.573  13.122  1.00  0.00    -0.014 C 
HETATM   21  C22 UNL     1      -4.662   8.366  13.092  1.00  0.00     0.010 C 
BRANCH  20  22
HETATM   22  C23 UNL     1      -3.568   6.205  13.809  1.00  0.00     0.008 C 
BRANCH  22  23
HETATM   23  C24 UNL     1      -4.132   5.092  12.907  1.00  0.00     0.028 C 
BRANCH  23  24
HETATM   24  C25 UNL     1      -5.530   4.655  13.244  1.00  0.00    -0.025 C 
HETATM   25  C26 UNL     1      -6.231   3.629  12.719  1.00  0.00    -0.091 C 
HETATM   26  C27 UNL     1      -7.631   3.338  13.193  1.00  0.00     0.042 C 
HETATM   27  C28 UNL     1      -5.743   2.699  11.642  1.00  0.00     0.042 C 
ENDBRANCH  23  24
ENDBRANCH  22  23
ENDBRANCH  20  22
ENDBRANCH  15  20
BRANCH   1  28
HETATM   28  C5  UNL     1      -3.274  13.182  18.718  1.00  0.00     0.012 C 
BRANCH  28  29
HETATM   29  C4  UNL     1      -4.473  12.634  19.503  1.00  0.00     0.028 C 
BRANCH  29  30
HETATM   30  C3  UNL     1      -5.315  13.761  20.096  1.00  0.00     0.178 C 
BRANCH  30  31
HETATM   31  O2  UNL     1      -6.674  13.323  20.248  1.00  0.00    -0.322 OA
BRANCH  31  32
HETATM   32  C2  UNL     1      -7.264  13.631  21.435  1.00  0.00     0.254 C 
HETATM   33  C1  UNL     1      -6.409  13.149  22.569  1.00  0.00     0.126 C 
HETATM   34  O1  UNL     1      -8.331  14.212  21.575  1.00  0.00    -0.266 OA
ENDBRANCH  31  32
ENDBRANCH  30  31
ENDBRANCH  29  30
ENDBRANCH  28  29
ENDBRANCH   1  28
TORSDOF 9
ENDMDL
MODEL 5
REMARK minimizedAffinity -6.09811831
REMARK CNNscore 0.335426211
REMARK CNNaffinity 5.88571119
REMARK  9 active torsions:
REMARK  status: ('A' for Active; 'I' for Inactive)
REMARK    1  A    between atoms: C2_2  and  O2_4 
REMARK    2  A    between atoms: O2_4  and  C3_5 
REMARK    3  A    between atoms: C3_5  and  C4_6 
REMARK    4  A    between atoms: C4_6  and  C5_7 
REMARK    5  A    between atoms: C5_7  and  C6_8 
REMARK    6  A    between atoms: C20_22  and  C21_23 
REMARK    7  A    between atoms: C21_23  and  C23_25 
REMARK    8  A    between atoms: C23_25  and  C24_26 
REMARK    9  A    between atoms: C24_26  and  C25_27 
ROOT
HETATM    1  C6  UNL     1       3.027   6.701  10.943  1.00  0.00     0.023 C 
HETATM    2  C7  UNL     1       1.826   7.685  10.920  1.00  0.00    -0.073 C 
HETATM    3  C8  UNL     1       0.990   7.999   9.894  1.00  0.00    -0.085 C 
HETATM    4  C9  UNL     1      -0.238   8.867  10.073  1.00  0.00     0.043 C 
HETATM    5  C10 UNL     1       1.164   7.597   8.451  1.00  0.00     0.043 C 
HETATM    6  C11 UNL     1       1.716   8.389  12.271  1.00  0.00     0.035 C 
HETATM    7  C12 UNL     1       2.994   9.189  12.562  1.00  0.00     0.010 C 
HETATM    8  C13 UNL     1       4.243   8.289  12.498  1.00  0.00     0.003 C 
HETATM    9  C14 UNL     1       4.377   7.527  11.114  1.00  0.00    -0.032 C 
HETATM   10  C15 UNL     1       4.541   8.452   9.883  1.00  0.00     0.016 C 
HETATM   11  C16 UNL     1       5.628   6.598  11.159  1.00  0.00     0.011 C 
HETATM   12  C17 UNL     1       6.919   7.212  11.760  1.00  0.00     0.011 C 
HETATM   13  C18 UNL     1       6.683   7.838  13.152  1.00  0.00    -0.032 C 
HETATM   14  C19 UNL     1       6.320   6.666  14.122  1.00  0.00     0.016 C 
HETATM   15  C20 UNL     1       7.819   8.681  13.833  1.00  0.00    -0.002 C 
HETATM   16  C29 UNL     1       6.997   9.538  14.859  1.00  0.00     0.006 C 
HETATM   17  C30 UNL     1       5.519   9.515  14.420  1.00  0.00     0.011 C 
HETATM   18  C31 UNL     1       5.562   8.949  12.992  1.00  0.00    -0.032 C 
HETATM   19  C32 UNL     1       5.973  10.153  12.084  1.00  0.00     0.016 C 
ENDROOT
BRANCH  15  20
HETATM   20  C21 UNL     1       9.037   7.983  14.528  1.00  0.00    -0.014 C 
HETATM   21  C22 UNL     1       9.029   8.298  16.037  1.00  0.00     0.010 C 
BRANCH  20  22
HETATM   22  C23 UNL     1      10.392   8.407  13.913  1.00  0.00     0.008 C 
BRANCH  22  23
HETATM   23  C24 UNL     1      10.864   9.831  14.259  1.00  0.00     0.028 C 
BRANCH  23  24
HETATM   24  C25 UNL     1      11.155  10.705  13.072  1.00  0.00    -0.025 C 
HETATM   25  C26 UNL     1      12.357  11.094  12.600  1.00  0.00    -0.091 C 
HETATM   26  C27 UNL     1      12.451  11.973  11.380  1.00  0.00     0.042 C 
HETATM   27  C28 UNL     1      13.689  10.735  13.199  1.00  0.00     0.042 C 
ENDBRANCH  23  24
ENDBRANCH  22  23
ENDBRANCH  20  22
ENDBRANCH  15  20
BRANCH   1  28
HETATM   28  C5  UNL     1       3.079   5.552   9.904  1.00  0.00     0.012 C 
BRANCH  28  29
HETATM   29  C4  UNL     1       2.333   4.293  10.369  1.00  0.00     0.028 C 
BRANCH  29  30
HETATM   30  C3  UNL     1       1.279   4.624  11.421  1.00  0.00     0.178 C 
BRANCH  30  31
HETATM   31  O2  UNL     1      -0.014   4.714  10.803  1.00  0.00    -0.322 OA
BRANCH  31  32
HETATM   32  C2  UNL     1      -1.079   4.610  11.644  1.00  0.00     0.254 C 
HETATM   33  C1  UNL     1      -1.395   5.952  12.234  1.00  0.00     0.126 C 
HETATM   34  O1  UNL     1      -1.696   3.585  11.894  1.00  0.00    -0.266 OA
ENDBRANCH  31  32
ENDBRANCH  30  31
ENDBRANCH  29  30
ENDBRANCH  28  29
ENDBRANCH   1  28
TORSDOF 9
ENDMDL
MODEL 6
REMARK minimizedAffinity -8.45084572
REMARK CNNscore 0.295989454
REMARK CNNaffinity 6.9138279
REMARK  9 active torsions:
REMARK  status: ('A' for Active; 'I' for Inactive)
REMARK    1  A    between atoms: C2_2  and  O2_4 
REMARK    2  A    between atoms: O2_4  and  C3_5 
REMARK    3  A    between atoms: C3_5  and  C4_6 
REMARK    4  A    between atoms: C4_6  and  C5_7 
REMARK    5  A    between atoms: C5_7  and  C6_8 
REMARK    6  A    between atoms: C20_22  and  C21_23 
REMARK    7  A    between atoms: C21_23  and  C23_25 
REMARK    8  A    between atoms: C23_25  and  C24_26 
REMARK    9  A    between atoms: C24_26  and  C25_27 
ROOT
HETATM    1  C6  UNL     1      -0.833   7.697  12.373  1.00  0.00     0.023 C 
HETATM    2  C7  UNL     1       0.033   8.736  13.135  1.00  0.00    -0.073 C 
HETATM    3  C8  UNL     1       1.376   8.745  13.353  1.00  0.00    -0.085 C 
HETATM    4  C9  UNL     1       2.097   9.917  13.985  1.00  0.00     0.043 C 
HETATM    5  C10 UNL     1       2.330   7.614  13.061  1.00  0.00     0.043 C 
HETATM    6  C11 UNL     1      -0.870   9.809  13.739  1.00  0.00     0.035 C 
HETATM    7  C12 UNL     1      -1.858   9.179  14.731  1.00  0.00     0.010 C 
HETATM    8  C13 UNL     1      -2.683   8.061  14.065  1.00  0.00     0.003 C 
HETATM    9  C14 UNL     1      -1.774   6.940  13.409  1.00  0.00    -0.032 C 
HETATM   10  C15 UNL     1      -0.877   6.172  14.411  1.00  0.00     0.016 C 
HETATM   11  C16 UNL     1      -2.685   5.886  12.708  1.00  0.00     0.011 C 
HETATM   12  C17 UNL     1      -3.930   5.417  13.504  1.00  0.00     0.011 C 
HETATM   13  C18 UNL     1      -4.789   6.597  14.008  1.00  0.00    -0.032 C 
HETATM   14  C19 UNL     1      -5.378   7.304  12.742  1.00  0.00     0.016 C 
HETATM   15  C20 UNL     1      -5.979   6.333  14.997  1.00  0.00    -0.002 C 
HETATM   16  C29 UNL     1      -6.164   7.749  15.646  1.00  0.00     0.006 C 
HETATM   17  C30 UNL     1      -4.878   8.560  15.391  1.00  0.00     0.011 C 
HETATM   18  C31 UNL     1      -3.862   7.510  14.915  1.00  0.00    -0.032 C 
HETATM   19  C32 UNL     1      -3.349   6.813  16.217  1.00  0.00     0.016 C 
ENDROOT
BRANCH  15  20
HETATM   20  C21 UNL     1      -7.345   5.763  14.485  1.00  0.00    -0.014 C 
HETATM   21  C22 UNL     1      -8.505   6.387  15.285  1.00  0.00     0.010 C 
BRANCH  20  22
HETATM   22  C23 UNL     1      -7.415   4.220  14.579  1.00  0.00     0.008 C 
BRANCH  22  23
HETATM   23  C24 UNL     1      -7.621   3.480  13.244  1.00  0.00     0.028 C 
BRANCH  23  24
HETATM   24  C25 UNL     1      -6.556   3.730  12.214  1.00  0.00    -0.025 C 
HETATM   25  C26 UNL     1      -5.900   2.825  11.460  1.00  0.00    -0.091 C 
HETATM   26  C27 UNL     1      -4.860   3.270  10.465  1.00  0.00     0.042 C 
HETATM   27  C28 UNL     1      -6.095   1.334  11.516  1.00  0.00     0.042 C 
ENDBRANCH  23  24
ENDBRANCH  22  23
ENDBRANCH  20  22
ENDBRANCH  15  20
BRANCH   1  28
HETATM   28  C5  UNL     1      -0.161   6.797  11.305  1.00  0.00     0.012 C 
BRANCH  28  29
HETATM   29  C4  UNL     1       0.329   7.585  10.082  1.00  0.00     0.028 C 
BRANCH  29  30
HETATM   30  C3  UNL     1       1.442   6.843   9.348  1.00  0.00     0.178 C 
BRANCH  30  31
HETATM   31  O2  UNL     1       2.549   7.729   9.119  1.00  0.00    -0.322 OA
BRANCH  31  32
HETATM   32  C2  UNL     1       2.652   8.231   7.858  1.00  0.00     0.254 C 
HETATM   33  C1  UNL     1       1.915   7.347   6.896  1.00  0.00     0.126 C 
HETATM   34  O1  UNL     1       3.252   9.247   7.539  1.00  0.00    -0.266 OA
ENDBRANCH  31  32
ENDBRANCH  30  31
ENDBRANCH  29  30
ENDBRANCH  28  29
ENDBRANCH   1  28
TORSDOF 9
ENDMDL
MODEL 7
REMARK minimizedAffinity -7.51746893
REMARK CNNscore 0.268372387
REMARK CNNaffinity 6.91952133
REMARK  9 active torsions:
REMARK  status: ('A' for Active; 'I' for Inactive)
REMARK    1  A    between atoms: C2_2  and  O2_4 
REMARK    2  A    between atoms: O2_4  and  C3_5 
REMARK    3  A    between atoms: C3_5  and  C4_6 
REMARK    4  A    between atoms: C4_6  and  C5_7 
REMARK    5  A    between atoms: C5_7  and  C6_8 
REMARK    6  A    between atoms: C20_22  and  C21_23 
REMARK    7  A    between atoms: C21_23  and  C23_25 
REMARK    8  A    between atoms: C23_25  and  C24_26 
REMARK    9  A    between atoms: C24_26  and  C25_27 
ROOT
HETATM    1  C6  UNL     1      -0.495   6.566  13.108  1.00  0.00     0.023 C 
HETATM    2  C7  UNL     1       0.240   7.902  12.816  1.00  0.00    -0.073 C 
HETATM    3  C8  UNL     1       1.539   8.236  13.036  1.00  0.00    -0.085 C 
HETATM    4  C9  UNL     1       2.146   9.536  12.550  1.00  0.00     0.043 C 
HETATM    5  C10 UNL     1       2.545   7.426  13.814  1.00  0.00     0.043 C 
HETATM    6  C11 UNL     1      -0.757   8.926  12.278  1.00  0.00     0.035 C 
HETATM    7  C12 UNL     1      -1.860   9.194  13.313  1.00  0.00     0.010 C 
HETATM    8  C13 UNL     1      -2.565   7.888  13.728  1.00  0.00     0.003 C 
HETATM    9  C14 UNL     1      -1.554   6.795  14.273  1.00  0.00    -0.032 C 
HETATM   10  C15 UNL     1      -0.788   7.209  15.554  1.00  0.00     0.016 C 
HETATM   11  C16 UNL     1      -2.342   5.492  14.611  1.00  0.00     0.011 C 
HETATM   12  C17 UNL     1      -3.674   5.675  15.381  1.00  0.00     0.011 C 
HETATM   13  C18 UNL     1      -4.616   6.692  14.701  1.00  0.00    -0.032 C 
HETATM   14  C19 UNL     1      -5.040   6.072  13.328  1.00  0.00     0.016 C 
HETATM   15  C20 UNL     1      -5.924   7.159  15.432  1.00  0.00    -0.002 C 
HETATM   16  C29 UNL     1      -6.222   8.515  14.701  1.00  0.00     0.006 C 
HETATM   17  C30 UNL     1      -4.929   8.968  13.995  1.00  0.00     0.011 C 
HETATM   18  C31 UNL     1      -3.838   8.071  14.602  1.00  0.00    -0.032 C 
HETATM   19  C32 UNL     1      -3.495   8.717  15.983  1.00  0.00     0.016 C 
ENDROOT
BRANCH  15  20
HETATM   20  C21 UNL     1      -7.197   6.247  15.472  1.00  0.00    -0.014 C 
HETATM   21  C22 UNL     1      -7.043   5.090  14.465  1.00  0.00     0.010 C 
BRANCH  20  22
HETATM   22  C23 UNL     1      -8.497   7.031  15.173  1.00  0.00     0.008 C 
BRANCH  22  23
HETATM   23  C24 UNL     1      -9.252   6.609  13.899  1.00  0.00     0.028 C 
BRANCH  23  24
HETATM   24  C25 UNL     1     -10.742   6.497  14.057  1.00  0.00    -0.025 C 
HETATM   25  C26 UNL     1     -11.698   7.265  13.496  1.00  0.00    -0.091 C 
HETATM   26  C27 UNL     1     -13.155   6.992  13.768  1.00  0.00     0.042 C 
HETATM   27  C28 UNL     1     -11.455   8.439  12.588  1.00  0.00     0.042 C 
ENDBRANCH  23  24
ENDBRANCH  22  23
ENDBRANCH  20  22
ENDBRANCH  15  20
BRANCH   1  28
HETATM   28  C5  UNL     1       0.332   5.259  13.210  1.00  0.00     0.012 C 
BRANCH  28  29
HETATM   29  C4  UNL     1       0.556   4.586  11.848  1.00  0.00     0.028 C 
BRANCH  29  30
HETATM   30  C3  UNL     1       0.868   5.612  10.762  1.00  0.00     0.178 C 
BRANCH  30  31
HETATM   31  O2  UNL     1       2.006   5.182  10.000  1.00  0.00    -0.322 OA
BRANCH  31  32
HETATM   32  C2  UNL     1       2.463   6.066   9.071  1.00  0.00     0.254 C 
HETATM   33  C1  UNL     1       1.985   7.448   9.404  1.00  0.00     0.126 C 
HETATM   34  O1  UNL     1       3.158   5.792   8.104  1.00  0.00    -0.266 OA
ENDBRANCH  31  32
ENDBRANCH  30  31
ENDBRANCH  29  30
ENDBRANCH  28  29
ENDBRANCH   1  28
TORSDOF 9
ENDMDL
MODEL 8
REMARK minimizedAffinity -6.93344116
REMARK CNNscore 0.241002545
REMARK CNNaffinity 6.6935935
REMARK  9 active torsions:
REMARK  status: ('A' for Active; 'I' for Inactive)
REMARK    1  A    between atoms: C2_2  and  O2_4 
REMARK    2  A    between atoms: O2_4  and  C3_5 
REMARK    3  A    between atoms: C3_5  and  C4_6 
REMARK    4  A    between atoms: C4_6  and  C5_7 
REMARK    5  A    between atoms: C5_7  and  C6_8 
REMARK    6  A    between atoms: C20_22  and  C21_23 
REMARK    7  A    between atoms: C21_23  and  C23_25 
REMARK    8  A    between atoms: C23_25  and  C24_26 
REMARK    9  A    between atoms: C24_26  and  C25_27 
ROOT
HETATM    1  C6  UNL     1      -4.621   4.925  12.542  1.00  0.00     0.023 C 
HETATM    2  C7  UNL     1      -4.981   3.748  11.596  1.00  0.00    -0.073 C 
HETATM    3  C8  UNL     1      -5.850   2.720  11.792  1.00  0.00    -0.085 C 
HETATM    4  C9  UNL     1      -6.208   1.730  10.703  1.00  0.00     0.043 C 
HETATM    5  C10 UNL     1      -6.537   2.373  13.088  1.00  0.00     0.043 C 
HETATM    6  C11 UNL     1      -4.122   3.825  10.336  1.00  0.00     0.035 C 
HETATM    7  C12 UNL     1      -2.633   3.721  10.696  1.00  0.00     0.010 C 
HETATM    8  C13 UNL     1      -2.229   4.801  11.718  1.00  0.00     0.003 C 
HETATM    9  C14 UNL     1      -3.116   4.762  13.031  1.00  0.00    -0.032 C 
HETATM   10  C15 UNL     1      -3.007   3.447  13.842  1.00  0.00     0.016 C 
HETATM   11  C16 UNL     1      -2.681   5.922  13.979  1.00  0.00     0.011 C 
HETATM   12  C17 UNL     1      -1.155   6.127  14.158  1.00  0.00     0.011 C 
HETATM   13  C18 UNL     1      -0.413   6.249  12.809  1.00  0.00    -0.032 C 
HETATM   14  C19 UNL     1      -0.909   7.571  12.135  1.00  0.00     0.016 C 
HETATM   15  C20 UNL     1       1.157   6.263  12.777  1.00  0.00    -0.002 C 
HETATM   16  C29 UNL     1       1.442   5.832  11.295  1.00  0.00     0.006 C 
HETATM   17  C30 UNL     1       0.164   5.174  10.738  1.00  0.00     0.011 C 
HETATM   18  C31 UNL     1      -0.702   4.925  11.983  1.00  0.00    -0.032 C 
HETATM   19  C32 UNL     1      -0.127   3.624  12.632  1.00  0.00     0.016 C 
ENDROOT
BRANCH  15  20
HETATM   20  C21 UNL     1       1.961   7.553  13.156  1.00  0.00    -0.014 C 
HETATM   21  C22 UNL     1       1.205   8.803  12.666  1.00  0.00     0.010 C 
BRANCH  20  22
HETATM   22  C23 UNL     1       3.396   7.548  12.575  1.00  0.00     0.008 C 
BRANCH  22  23
HETATM   23  C24 UNL     1       3.544   6.924  11.175  1.00  0.00     0.028 C 
BRANCH  23  24
HETATM   24  C25 UNL     1       3.527   7.909  10.040  1.00  0.00    -0.025 C 
HETATM   25  C26 UNL     1       3.172   7.695   8.757  1.00  0.00    -0.091 C 
HETATM   26  C27 UNL     1       3.211   8.819   7.755  1.00  0.00     0.042 C 
HETATM   27  C28 UNL     1       2.728   6.378   8.182  1.00  0.00     0.042 C 
ENDBRANCH  23  24
ENDBRANCH  22  23
ENDBRANCH  20  22
ENDBRANCH  15  20
BRANCH   1  28
HETATM   28  C5  UNL     1      -5.634   5.346  13.637  1.00  0.00     0.012 C 
BRANCH  28  29
HETATM   29  C4  UNL     1      -6.470   6.570  13.239  1.00  0.00     0.028 C 
BRANCH  29  30
HETATM   30  C3  UNL     1      -7.541   6.880  14.282  1.00  0.00     0.178 C 
BRANCH  30  31
HETATM   31  O2  UNL     1      -8.838   6.862  13.666  1.00  0.00    -0.322 OA
BRANCH  31  32
HETATM   32  C2  UNL     1      -9.021   5.918  12.703  1.00  0.00     0.254 C 
HETATM   33  C1  UNL     1      -9.754   6.514  11.538  1.00  0.00     0.126 C 
HETATM   34  O1  UNL     1      -8.651   4.754  12.761  1.00  0.00    -0.266 OA
ENDBRANCH  31  32
ENDBRANCH  30  31
ENDBRANCH  29  30
ENDBRANCH  28  29
ENDBRANCH   1  28
TORSDOF 9
ENDMDL
MODEL 9
REMARK minimizedAffinity -8.21324635
REMARK CNNscore 0.240949258
REMARK CNNaffinity 6.7397275
REMARK  9 active torsions:
REMARK  status: ('A' for Active; 'I' for Inactive)
REMARK    1  A    between atoms: C2_2  and  O2_4 
REMARK    2  A    between atoms: O2_4  and  C3_5 
REMARK    3  A    between atoms: C3_5  and  C4_6 
REMARK    4  A    between atoms: C4_6  and  C5_7 
REMARK    5  A    between atoms: C5_7  and  C6_8 
REMARK    6  A    between atoms: C20_22  and  C21_23 
REMARK    7  A    between atoms: C21_23  and  C23_25 
REMARK    8  A    between atoms: C23_25  and  C24_26 
REMARK    9  A    between atoms: C24_26  and  C25_27 
ROOT
HETATM    1  C6  UNL     1      -3.594   5.692  13.589  1.00  0.00     0.023 C 
HETATM    2  C7  UNL     1      -4.485   6.181  14.762  1.00  0.00    -0.073 C 
HETATM    3  C8  UNL     1      -5.807   6.502  14.764  1.00  0.00    -0.085 C 
HETATM    4  C9  UNL     1      -6.573   6.817  16.032  1.00  0.00     0.043 C 
HETATM    5  C10 UNL     1      -6.688   6.643  13.548  1.00  0.00     0.043 C 
HETATM    6  C11 UNL     1      -3.629   6.359  16.014  1.00  0.00     0.035 C 
HETATM    7  C12 UNL     1      -2.532   7.405  15.768  1.00  0.00     0.010 C 
HETATM    8  C13 UNL     1      -1.669   7.032  14.547  1.00  0.00     0.003 C 
HETATM    9  C14 UNL     1      -2.530   6.821  13.233  1.00  0.00    -0.032 C 
HETATM   10  C15 UNL     1      -3.297   8.079  12.756  1.00  0.00     0.016 C 
HETATM   11  C16 UNL     1      -1.589   6.389  12.067  1.00  0.00     0.011 C 
HETATM   12  C17 UNL     1      -0.262   7.178  11.927  1.00  0.00     0.011 C 
HETATM   13  C18 UNL     1       0.536   7.232  13.249  1.00  0.00    -0.032 C 
HETATM   14  C19 UNL     1       0.983   5.767  13.570  1.00  0.00     0.016 C 
HETATM   15  C20 UNL     1       1.805   8.149  13.361  1.00  0.00    -0.002 C 
HETATM   16  C29 UNL     1       1.922   8.329  14.915  1.00  0.00     0.006 C 
HETATM   17  C30 UNL     1       0.563   7.956  15.541  1.00  0.00     0.011 C 
HETATM   18  C31 UNL     1      -0.398   7.903  14.343  1.00  0.00    -0.032 C 
HETATM   19  C32 UNL     1      -0.767   9.393  14.046  1.00  0.00     0.016 C 
ENDROOT
BRANCH  15  20
HETATM   20  C21 UNL     1       3.174   7.713  12.737  1.00  0.00    -0.014 C 
HETATM   21  C22 UNL     1       3.914   8.948  12.186  1.00  0.00     0.010 C 
BRANCH  20  22
HETATM   22  C23 UNL     1       3.005   6.661  11.615  1.00  0.00     0.008 C 
BRANCH  22  23
HETATM   23  C24 UNL     1       3.734   6.972  10.295  1.00  0.00     0.028 C 
BRANCH  23  24
HETATM   24  C25 UNL     1       2.956   6.644   9.052  1.00  0.00    -0.025 C 
HETATM   25  C26 UNL     1       2.679   7.450   8.007  1.00  0.00    -0.091 C 
HETATM   26  C27 UNL     1       1.884   6.936   6.835  1.00  0.00     0.042 C 
HETATM   27  C28 UNL     1       3.089   8.892   7.883  1.00  0.00     0.042 C 
ENDBRANCH  23  24
ENDBRANCH  22  23
ENDBRANCH  20  22
ENDBRANCH  15  20
BRANCH   1  28
HETATM   28  C5  UNL     1      -4.263   5.001  12.373  1.00  0.00     0.012 C 
BRANCH  28  29
HETATM   29  C4  UNL     1      -4.213   3.469  12.454  1.00  0.00     0.028 C 
BRANCH  29  30
HETATM   30  C3  UNL     1      -5.397   2.833  11.732  1.00  0.00     0.178 C 
BRANCH  30  31
HETATM   31  O2  UNL     1      -6.580   3.616  11.954  1.00  0.00    -0.322 OA
BRANCH  31  32
HETATM   32  C2  UNL     1      -7.607   2.972  12.572  1.00  0.00     0.254 C 
HETATM   33  C1  UNL     1      -7.312   1.504  12.655  1.00  0.00     0.126 C 
HETATM   34  O1  UNL     1      -8.626   3.494  13.000  1.00  0.00    -0.266 OA
ENDBRANCH  31  32
ENDBRANCH  30  31
ENDBRANCH  29  30
ENDBRANCH  28  29
ENDBRANCH   1  28
TORSDOF 9
ENDMDL
