MODEL 1
REMARK minimizedAffinity -8.05811977
REMARK CNNscore 0.827870369
REMARK CNNaffinity 7.11321974
REMARK  10 active torsions:
REMARK  status: ('A' for Active; 'I' for Inactive)
REMARK    1  A    between atoms: N1_6  and  O1_8 
REMARK    2  A    between atoms: O1_8  and  C6_9 
REMARK    3  A    between atoms: C6_9  and  C7_10 
REMARK       I    between atoms: C7_10  and  N2_12 
REMARK    4  A    between atoms: N2_12  and  C8_13 
REMARK    5  A    between atoms: C8_13  and  C9_14 
REMARK    6  A    between atoms: C20_27  and  O3_28 
REMARK    7  A    between atoms: C27_35  and  O4_36 
REMARK    8  A    between atoms: C27_35  and  C28_37 
REMARK    9  A    between atoms: C28_37  and  C29_39 
REMARK   10  A    between atoms: C29_39  and  O6_40 
ROOT
HETATM    1  C1  UNL     1      -2.312   5.820  12.262  1.00  0.00     0.020 C 
HETATM    2  C2  UNL     1      -0.930   6.521  12.381  1.00  0.00    -0.014 C 
HETATM    3  C3  UNL     1      -0.165   5.902  13.582  1.00  0.00     0.020 C 
HETATM    4  C4  UNL     1      -0.823   6.121  14.941  1.00  0.00     0.060 C 
HETATM    5  C5  UNL     1      -1.210   7.562  15.178  1.00  0.00     0.032 C 
HETATM    6  N1  UNL     1      -1.437   7.903  16.411  1.00  0.00    -0.271 N 
ATOM      7  H1  UNL     1      -1.319   7.275  17.206  1.00  0.00     0.194 HD
HETATM    8  C14 UNL     1      -1.340   8.446  13.987  1.00  0.00     0.030 C 
HETATM    9  C15 UNL     1      -1.224   7.991  12.721  1.00  0.00    -0.069 C 
HETATM   10  C16 UNL     1      -1.410   8.996  11.617  1.00  0.00     0.035 C 
HETATM   11  C17 UNL     1      -0.696   8.720  10.300  1.00  0.00     0.010 C 
HETATM   12  C18 UNL     1       0.349   7.608  10.305  1.00  0.00    -0.002 C 
HETATM   13  C19 UNL     1      -0.189   6.329  10.979  1.00  0.00     0.031 C 
HETATM   14  C20 UNL     1       0.863   5.210  10.798  1.00  0.00     0.124 C 
HETATM   15  C21 UNL     1       2.271   5.598  11.259  1.00  0.00     0.045 C 
HETATM   16  C22 UNL     1       2.828   6.895  10.591  1.00  0.00     0.001 C 
HETATM   17  C23 UNL     1       3.207   6.552   9.135  1.00  0.00     0.019 C 
HETATM   18  C24 UNL     1       1.785   8.035  10.682  1.00  0.00     0.002 C 
HETATM   19  C25 UNL     1       2.016   8.673  12.058  1.00  0.00     0.009 C 
HETATM   20  C26 UNL     1       3.413   8.255  12.531  1.00  0.00     0.047 C 
HETATM   21  C27 UNL     1       4.047   7.469  11.380  1.00  0.00     0.128 C 
ENDROOT
BRANCH   6  22
HETATM   22  O1  UNL     1      -1.863   9.237  16.523  1.00  0.00    -0.271 OA
BRANCH  22  23
HETATM   23  C6  UNL     1      -2.241   9.473  17.869  1.00  0.00     0.303 C 
BRANCH  23  24
HETATM   24  C7  UNL     1      -2.101  10.950  18.235  1.00  0.00     0.244 C 
HETATM   25  O2  UNL     1      -1.030  11.547  18.282  1.00  0.00    -0.271 OA
HETATM   26  N2  UNL     1      -3.311  11.558  18.512  1.00  0.00    -0.355 N 
HETATM   27  H10 UNL     1      -4.143  10.990  18.586  1.00  0.00     0.162 HD
BRANCH  26  28
HETATM   28  C8  UNL     1      -3.407  12.943  18.911  1.00  0.00     0.161 C 
BRANCH  28  29
HETATM   29  C9  UNL     1      -4.839  13.314  19.192  1.00  0.00    -0.038 A 
HETATM   30  C10 UNL     1      -5.664  13.785  18.166  1.00  0.00     0.025 A 
HETATM   31  C11 UNL     1      -6.969  14.139  18.472  1.00  0.00     0.088 A 
HETATM   32  N3  UNL     1      -7.497  14.061  19.712  1.00  0.00    -0.375 N 
HETATM   33  C12 UNL     1      -6.683  13.612  20.690  1.00  0.00     0.088 A 
ATOM     34  H3  UNL     1      -8.462  14.328  19.901  1.00  0.00     0.164 HD
HETATM   35  C13 UNL     1      -5.363  13.234  20.484  1.00  0.00     0.025 A 
ENDBRANCH  28  29
ENDBRANCH  26  28
ENDBRANCH  23  24
ENDBRANCH  22  23
ENDBRANCH   6  22
BRANCH  14  36
HETATM   36  O3  UNL     1       0.471   3.990  11.406  1.00  0.00    -0.395 OA
HETATM   37  H25 UNL     1      -0.328   3.677  10.950  1.00  0.00     0.210 HD
ENDBRANCH  14  36
BRANCH  21  38
HETATM   38  O4  UNL     1       4.807   6.387  11.945  1.00  0.00    -0.381 OA
HETATM   39  H36 UNL     1       5.720   6.454  11.590  1.00  0.00     0.211 HD
ENDBRANCH  21  38
BRANCH  21  40
HETATM   40  C28 UNL     1       5.066   8.341  10.596  1.00  0.00     0.184 C 
HETATM   41  O5  UNL     1       4.664   9.251   9.851  1.00  0.00    -0.292 OA
BRANCH  40  42
HETATM   42  C29 UNL     1       6.562   8.063  10.702  1.00  0.00     0.245 C 
BRANCH  42  43
HETATM   43  O6  UNL     1       7.303   9.280  10.805  1.00  0.00    -0.393 OA
HETATM   44  H39 UNL     1       6.646  10.008  10.755  1.00  0.00     0.209 HD
ENDBRANCH  42  43
ENDBRANCH  40  42
ENDBRANCH  21  40
TORSDOF 10
ENDMDL
MODEL 2
REMARK minimizedAffinity -8.05732727
REMARK CNNscore 0.636101305
REMARK CNNaffinity 6.84693003
REMARK  10 active torsions:
REMARK  status: ('A' for Active; 'I' for Inactive)
REMARK    1  A    between atoms: N1_6  and  O1_8 
REMARK    2  A    between atoms: O1_8  and  C6_9 
REMARK    3  A    between atoms: C6_9  and  C7_10 
REMARK       I    between atoms: C7_10  and  N2_12 
REMARK    4  A    between atoms: N2_12  and  C8_13 
REMARK    5  A    between atoms: C8_13  and  C9_14 
REMARK    6  A    between atoms: C20_27  and  O3_28 
REMARK    7  A    between atoms: C27_35  and  O4_36 
REMARK    8  A    between atoms: C27_35  and  C28_37 
REMARK    9  A    between atoms: C28_37  and  C29_39 
REMARK   10  A    between atoms: C29_39  and  O6_40 
ROOT
HETATM    1  C1  UNL     1      -1.980   5.463  12.472  1.00  0.00     0.020 C 
HETATM    2  C2  UNL     1      -1.602   6.571  13.495  1.00  0.00    -0.014 C 
HETATM    3  C3  UNL     1      -1.594   5.947  14.917  1.00  0.00     0.020 C 
HETATM    4  C4  UNL     1      -2.946   5.428  15.396  1.00  0.00     0.060 C 
HETATM    5  C5  UNL     1      -4.058   6.434  15.208  1.00  0.00     0.032 C 
HETATM    6  N1  UNL     1      -5.141   6.232  15.897  1.00  0.00    -0.271 N 
ATOM      7  H1  UNL     1      -5.251   5.478  16.576  1.00  0.00     0.194 HD
HETATM    8  C14 UNL     1      -3.836   7.533  14.228  1.00  0.00     0.030 C 
HETATM    9  C15 UNL     1      -2.739   7.604  13.444  1.00  0.00    -0.069 C 
HETATM   10  C16 UNL     1      -2.667   8.756  12.479  1.00  0.00     0.035 C 
HETATM   11  C17 UNL     1      -1.279   9.234  12.072  1.00  0.00     0.010 C 
HETATM   12  C18 UNL     1      -0.102   8.691  12.877  1.00  0.00    -0.002 C 
HETATM   13  C19 UNL     1      -0.188   7.159  13.043  1.00  0.00     0.031 C 
HETATM   14  C20 UNL     1       1.113   6.674  13.721  1.00  0.00     0.124 C 
HETATM   15  C21 UNL     1       1.451   7.411  15.021  1.00  0.00     0.045 C 
HETATM   16  C22 UNL     1       1.535   8.963  14.872  1.00  0.00     0.001 C 
HETATM   17  C23 UNL     1       2.848   9.297  14.134  1.00  0.00     0.019 C 
HETATM   18  C24 UNL     1       0.284   9.500  14.134  1.00  0.00     0.002 C 
HETATM   19  C25 UNL     1      -0.772   9.686  15.231  1.00  0.00     0.009 C 
HETATM   20  C26 UNL     1      -0.037   9.724  16.576  1.00  0.00     0.047 C 
HETATM   21  C27 UNL     1       1.460   9.678  16.258  1.00  0.00     0.128 C 
ENDROOT
BRANCH   6  22
HETATM   22  O1  UNL     1      -6.142   7.171  15.601  1.00  0.00    -0.271 OA
BRANCH  22  23
HETATM   23  C6  UNL     1      -7.361   6.719  16.167  1.00  0.00     0.303 C 
BRANCH  23  24
HETATM   24  C7  UNL     1      -8.415   6.469  15.090  1.00  0.00     0.244 C 
HETATM   25  O2  UNL     1      -8.163   6.030  13.971  1.00  0.00    -0.271 OA
HETATM   26  N2  UNL     1      -9.696   6.786  15.499  1.00  0.00    -0.355 N 
HETATM   27  H10 UNL     1      -9.828   7.265  16.379  1.00  0.00     0.162 HD
BRANCH  26  28
HETATM   28  C8  UNL     1     -10.841   6.657  14.628  1.00  0.00     0.161 C 
BRANCH  28  29
HETATM   29  C9  UNL     1     -11.251   8.002  14.092  1.00  0.00    -0.038 A 
HETATM   30  C10 UNL     1     -11.686   8.136  12.770  1.00  0.00     0.025 A 
HETATM   31  C11 UNL     1     -12.032   9.397  12.308  1.00  0.00     0.088 A 
HETATM   32  N3  UNL     1     -11.969  10.516  13.061  1.00  0.00    -0.375 N 
HETATM   33  C12 UNL     1     -11.539  10.368  14.331  1.00  0.00     0.088 A 
ATOM     34  H3  UNL     1     -12.233  11.427  12.688  1.00  0.00     0.164 HD
HETATM   35  C13 UNL     1     -11.170   9.149  14.885  1.00  0.00     0.025 A 
ENDBRANCH  28  29
ENDBRANCH  26  28
ENDBRANCH  23  24
ENDBRANCH  22  23
ENDBRANCH   6  22
BRANCH  14  36
HETATM   36  O3  UNL     1       1.125   5.273  13.940  1.00  0.00    -0.395 OA
HETATM   37  H25 UNL     1       1.103   4.839  13.071  1.00  0.00     0.210 HD
ENDBRANCH  14  36
BRANCH  21  38
HETATM   38  O4  UNL     1       2.102   8.864  17.254  1.00  0.00    -0.381 OA
HETATM   39  H36 UNL     1       2.826   9.399  17.646  1.00  0.00     0.211 HD
ENDBRANCH  21  38
BRANCH  21  40
HETATM   40  C28 UNL     1       2.105  11.086  16.378  1.00  0.00     0.184 C 
HETATM   41  O5  UNL     1       3.240  11.211  16.869  1.00  0.00    -0.292 OA
BRANCH  40  42
HETATM   42  C29 UNL     1       1.339  12.328  15.934  1.00  0.00     0.245 C 
BRANCH  42  43
HETATM   43  O6  UNL     1       0.943  13.114  17.058  1.00  0.00    -0.393 OA
HETATM   44  H39 UNL     1       1.249  12.631  17.856  1.00  0.00     0.209 HD
ENDBRANCH  42  43
ENDBRANCH  40  42
ENDBRANCH  21  40
TORSDOF 10
ENDMDL
MODEL 3
REMARK minimizedAffinity -7.49051237
REMARK CNNscore 0.613029897
REMARK CNNaffinity 6.23222733
REMARK  10 active torsions:
REMARK  status: ('A' for Active; 'I' for Inactive)
REMARK    1  A    between atoms: N1_6  and  O1_8 
REMARK    2  A    between atoms: O1_8  and  C6_9 
REMARK    3  A    between atoms: C6_9  and  C7_10 
REMARK       I    between atoms: C7_10  and  N2_12 
REMARK    4  A    between atoms: N2_12  and  C8_13 
REMARK    5  A    between atoms: C8_13  and  C9_14 
REMARK    6  A    between atoms: C20_27  and  O3_28 
REMARK    7  A    between atoms: C27_35  and  O4_36 
REMARK    8  A    between atoms: C27_35  and  C28_37 
REMARK    9  A    between atoms: C28_37  and  C29_39 
REMARK   10  A    between atoms: C29_39  and  O6_40 
ROOT
HETATM    1  C1  UNL     1     -15.865   3.674  23.257  1.00  0.00     0.020 C 
HETATM    2  C2  UNL     1     -15.119   3.907  24.601  1.00  0.00    -0.014 C 
HETATM    3  C3  UNL     1     -15.617   5.243  25.217  1.00  0.00     0.020 C 
HETATM    4  C4  UNL     1     -15.306   6.485  24.387  1.00  0.00     0.060 C 
HETATM    5  C5  UNL     1     -13.862   6.549  23.948  1.00  0.00     0.032 C 
HETATM    6  N1  UNL     1     -13.428   7.710  23.560  1.00  0.00    -0.271 N 
ATOM      7  H1  UNL     1     -13.986   8.564  23.586  1.00  0.00     0.194 HD
HETATM    8  C14 UNL     1     -13.081   5.280  23.957  1.00  0.00     0.030 C 
HETATM    9  C15 UNL     1     -13.634   4.082  24.241  1.00  0.00    -0.069 C 
HETATM   10  C16 UNL     1     -12.728   2.883  24.181  1.00  0.00     0.035 C 
HETATM   11  C17 UNL     1     -13.091   1.694  25.062  1.00  0.00     0.010 C 
HETATM   12  C18 UNL     1     -14.170   1.925  26.116  1.00  0.00    -0.002 C 
HETATM   13  C19 UNL     1     -15.404   2.631  25.518  1.00  0.00     0.031 C 
HETATM   14  C20 UNL     1     -16.504   2.678  26.603  1.00  0.00     0.124 C 
HETATM   15  C21 UNL     1     -16.042   3.279  27.934  1.00  0.00     0.045 C 
HETATM   16  C22 UNL     1     -14.789   2.579  28.550  1.00  0.00     0.001 C 
HETATM   17  C23 UNL     1     -15.239   1.217  29.117  1.00  0.00     0.019 C 
HETATM   18  C24 UNL     1     -13.674   2.442  27.485  1.00  0.00     0.002 C 
HETATM   19  C25 UNL     1     -12.920   3.777  27.527  1.00  0.00     0.009 C 
HETATM   20  C26 UNL     1     -13.260   4.455  28.860  1.00  0.00     0.047 C 
HETATM   21  C27 UNL     1     -14.119   3.464  29.648  1.00  0.00     0.128 C 
ENDROOT
BRANCH   6  22
HETATM   22  O1  UNL     1     -12.101   7.656  23.101  1.00  0.00    -0.271 OA
BRANCH  22  23
HETATM   23  C6  UNL     1     -11.247   8.081  24.150  1.00  0.00     0.303 C 
BRANCH  23  24
HETATM   24  C7  UNL     1     -11.399   9.577  24.420  1.00  0.00     0.244 C 
HETATM   25  O2  UNL     1     -12.247  10.057  25.165  1.00  0.00    -0.271 OA
HETATM   26  N2  UNL     1     -10.479  10.348  23.735  1.00  0.00    -0.355 N 
HETATM   27  H10 UNL     1      -9.892   9.912  23.037  1.00  0.00     0.162 HD
BRANCH  26  28
HETATM   28  C8  UNL     1     -10.463  11.789  23.819  1.00  0.00     0.161 C 
BRANCH  28  29
HETATM   29  C9  UNL     1      -9.440  12.363  22.876  1.00  0.00    -0.038 A 
HETATM   30  C10 UNL     1      -8.228  12.863  23.362  1.00  0.00     0.025 A 
HETATM   31  C11 UNL     1      -7.324  13.405  22.461  1.00  0.00     0.088 A 
HETATM   32  N3  UNL     1      -7.544  13.485  21.132  1.00  0.00    -0.375 N 
HETATM   33  C12 UNL     1      -8.722  13.005  20.683  1.00  0.00     0.088 A 
ATOM     34  H3  UNL     1      -6.855  13.888  20.498  1.00  0.00     0.164 HD
HETATM   35  C13 UNL     1      -9.691  12.444  21.504  1.00  0.00     0.025 A 
ENDBRANCH  28  29
ENDBRANCH  26  28
ENDBRANCH  23  24
ENDBRANCH  22  23
ENDBRANCH   6  22
BRANCH  14  36
HETATM   36  O3  UNL     1     -17.681   3.333  26.157  1.00  0.00    -0.395 OA
HETATM   37  H25 UNL     1     -18.052   2.807  25.428  1.00  0.00     0.210 HD
ENDBRANCH  14  36
BRANCH  21  38
HETATM   38  O4  UNL     1     -15.131   4.209  30.348  1.00  0.00    -0.381 OA
HETATM   39  H36 UNL     1     -15.068   3.968  31.297  1.00  0.00     0.211 HD
ENDBRANCH  21  38
BRANCH  21  40
HETATM   40  C28 UNL     1     -13.287   2.744  30.744  1.00  0.00     0.184 C 
HETATM   41  O5  UNL     1     -12.258   2.120  30.435  1.00  0.00    -0.292 OA
BRANCH  40  42
HETATM   42  C29 UNL     1     -13.745   2.762  32.199  1.00  0.00     0.245 C 
BRANCH  42  43
HETATM   43  O6  UNL     1     -12.693   2.351  33.073  1.00  0.00    -0.393 OA
HETATM   44  H39 UNL     1     -11.928   2.129  32.499  1.00  0.00     0.209 HD
ENDBRANCH  42  43
ENDBRANCH  40  42
ENDBRANCH  21  40
TORSDOF 10
ENDMDL
MODEL 4
REMARK minimizedAffinity -8.63483047
REMARK CNNscore 0.559779882
REMARK CNNaffinity 7.16539431
REMARK  10 active torsions:
REMARK  status: ('A' for Active; 'I' for Inactive)
REMARK    1  A    between atoms: N1_6  and  O1_8 
REMARK    2  A    between atoms: O1_8  and  C6_9 
REMARK    3  A    between atoms: C6_9  and  C7_10 
REMARK       I    between atoms: C7_10  and  N2_12 
REMARK    4  A    between atoms: N2_12  and  C8_13 
REMARK    5  A    between atoms: C8_13  and  C9_14 
REMARK    6  A    between atoms: C20_27  and  O3_28 
REMARK    7  A    between atoms: C27_35  and  O4_36 
REMARK    8  A    between atoms: C27_35  and  C28_37 
REMARK    9  A    between atoms: C28_37  and  C29_39 
REMARK   10  A    between atoms: C29_39  and  O6_40 
ROOT
HETATM    1  C1  UNL     1      -1.883   5.697  13.821  1.00  0.00     0.020 C 
HETATM    2  C2  UNL     1      -2.050   7.140  14.377  1.00  0.00    -0.014 C 
HETATM    3  C3  UNL     1      -2.604   7.049  15.825  1.00  0.00     0.020 C 
HETATM    4  C4  UNL     1      -3.994   6.432  15.940  1.00  0.00     0.060 C 
HETATM    5  C5  UNL     1      -4.985   7.039  14.974  1.00  0.00     0.032 C 
HETATM    6  N1  UNL     1      -6.242   6.842  15.238  1.00  0.00    -0.271 N 
ATOM      7  H1  UNL     1      -6.580   6.356  16.069  1.00  0.00     0.194 HD
HETATM    8  C14 UNL     1      -4.441   7.764  13.793  1.00  0.00     0.030 C 
HETATM    9  C15 UNL     1      -3.123   7.813  13.506  1.00  0.00    -0.069 C 
HETATM   10  C16 UNL     1      -2.724   8.557  12.262  1.00  0.00     0.035 C 
HETATM   11  C17 UNL     1      -1.330   9.170  12.236  1.00  0.00     0.010 C 
HETATM   12  C18 UNL     1      -0.572   9.208  13.561  1.00  0.00    -0.002 C 
HETATM   13  C19 UNL     1      -0.619   7.843  14.279  1.00  0.00     0.031 C 
HETATM   14  C20 UNL     1       0.300   7.920  15.520  1.00  0.00     0.124 C 
HETATM   15  C21 UNL     1       0.005   9.107  16.442  1.00  0.00     0.045 C 
HETATM   16  C22 UNL     1       0.042  10.495  15.728  1.00  0.00     0.001 C 
HETATM   17  C23 UNL     1       1.519  10.848  15.455  1.00  0.00     0.019 C 
HETATM   18  C24 UNL     1      -0.810  10.458  14.436  1.00  0.00     0.002 C 
HETATM   19  C25 UNL     1      -2.242  10.759  14.898  1.00  0.00     0.009 C 
HETATM   20  C26 UNL     1      -2.151  11.411  16.283  1.00  0.00     0.047 C 
HETATM   21  C27 UNL     1      -0.661  11.598  16.581  1.00  0.00     0.128 C 
ENDROOT
BRANCH   6  22
HETATM   22  O1  UNL     1      -7.083   7.377  14.248  1.00  0.00    -0.271 OA
BRANCH  22  23
HETATM   23  C6  UNL     1      -8.332   6.708  14.313  1.00  0.00     0.303 C 
BRANCH  23  24
HETATM   24  C7  UNL     1      -8.432   5.612  13.254  1.00  0.00     0.244 C 
HETATM   25  O2  UNL     1      -8.829   5.800  12.108  1.00  0.00    -0.271 OA
HETATM   26  N2  UNL     1      -8.027   4.374  13.714  1.00  0.00    -0.355 N 
HETATM   27  H10 UNL     1      -7.837   4.252  14.699  1.00  0.00     0.162 HD
BRANCH  26  28
HETATM   28  C8  UNL     1      -8.070   3.190  12.889  1.00  0.00     0.161 C 
BRANCH  28  29
HETATM   29  C9  UNL     1      -6.698   2.858  12.368  1.00  0.00    -0.038 A 
HETATM   30  C10 UNL     1      -6.462   1.646  11.711  1.00  0.00     0.025 A 
HETATM   31  C11 UNL     1      -5.177   1.370  11.269  1.00  0.00     0.088 A 
HETATM   32  N3  UNL     1      -4.128   2.202  11.439  1.00  0.00    -0.375 N 
HETATM   33  C12 UNL     1      -4.374   3.361  12.083  1.00  0.00     0.088 A 
ATOM     34  H3  UNL     1      -3.197   1.966  11.099  1.00  0.00     0.164 HD
HETATM   35  C13 UNL     1      -5.624   3.730  12.563  1.00  0.00     0.025 A 
ENDBRANCH  28  29
ENDBRANCH  26  28
ENDBRANCH  23  24
ENDBRANCH  22  23
ENDBRANCH   6  22
BRANCH  14  36
HETATM   36  O3  UNL     1       0.310   6.715  16.267  1.00  0.00    -0.395 OA
HETATM   37  H25 UNL     1       0.688   6.021  15.701  1.00  0.00     0.210 HD
ENDBRANCH  14  36
BRANCH  21  38
HETATM   38  O4  UNL     1      -0.449  11.333  17.978  1.00  0.00    -0.381 OA
HETATM   39  H36 UNL     1       0.003  12.116  18.360  1.00  0.00     0.211 HD
ENDBRANCH  21  38
BRANCH  21  40
HETATM   40  C28 UNL     1      -0.222  13.071  16.357  1.00  0.00     0.184 C 
HETATM   41  O5  UNL     1      -0.399  13.613  15.253  1.00  0.00    -0.292 OA
BRANCH  40  42
HETATM   42  C29 UNL     1       0.465  13.851  17.474  1.00  0.00     0.245 C 
BRANCH  42  43
HETATM   43  O6  UNL     1       1.583  13.129  17.991  1.00  0.00    -0.393 OA
HETATM   44  H39 UNL     1       1.612  12.278  17.502  1.00  0.00     0.209 HD
ENDBRANCH  42  43
ENDBRANCH  40  42
ENDBRANCH  21  40
TORSDOF 10
ENDMDL
MODEL 5
REMARK minimizedAffinity -9.23204231
REMARK CNNscore 0.527174771
REMARK CNNaffinity 7.27274561
REMARK  10 active torsions:
REMARK  status: ('A' for Active; 'I' for Inactive)
REMARK    1  A    between atoms: N1_6  and  O1_8 
REMARK    2  A    between atoms: O1_8  and  C6_9 
REMARK    3  A    between atoms: C6_9  and  C7_10 
REMARK       I    between atoms: C7_10  and  N2_12 
REMARK    4  A    between atoms: N2_12  and  C8_13 
REMARK    5  A    between atoms: C8_13  and  C9_14 
REMARK    6  A    between atoms: C20_27  and  O3_28 
REMARK    7  A    between atoms: C27_35  and  O4_36 
REMARK    8  A    between atoms: C27_35  and  C28_37 
REMARK    9  A    between atoms: C28_37  and  C29_39 
REMARK   10  A    between atoms: C29_39  and  O6_40 
ROOT
HETATM    1  C1  UNL     1      -2.425   5.501  12.442  1.00  0.00     0.020 C 
HETATM    2  C2  UNL     1      -1.876   6.583  13.414  1.00  0.00    -0.014 C 
HETATM    3  C3  UNL     1      -1.959   6.032  14.863  1.00  0.00     0.020 C 
HETATM    4  C4  UNL     1      -3.373   5.752  15.362  1.00  0.00     0.060 C 
HETATM    5  C5  UNL     1      -4.316   6.909  15.124  1.00  0.00     0.032 C 
HETATM    6  N1  UNL     1      -5.414   6.910  15.818  1.00  0.00    -0.271 N 
ATOM      7  H1  UNL     1      -5.638   6.214  16.530  1.00  0.00     0.194 HD
HETATM    8  C14 UNL     1      -3.930   7.913  14.094  1.00  0.00     0.030 C 
HETATM    9  C15 UNL     1      -2.839   7.777  13.312  1.00  0.00    -0.069 C 
HETATM   10  C16 UNL     1      -2.592   8.857  12.294  1.00  0.00     0.035 C 
HETATM   11  C17 UNL     1      -1.148   9.095  11.870  1.00  0.00     0.010 C 
HETATM   12  C18 UNL     1      -0.067   8.413  12.703  1.00  0.00    -0.002 C 
HETATM   13  C19 UNL     1      -0.389   6.923  12.939  1.00  0.00     0.031 C 
HETATM   14  C20 UNL     1       0.824   6.273  13.644  1.00  0.00     0.124 C 
HETATM   15  C21 UNL     1       1.277   7.008  14.910  1.00  0.00     0.045 C 
HETATM   16  C22 UNL     1       1.601   8.520  14.689  1.00  0.00     0.001 C 
HETATM   17  C23 UNL     1       2.947   8.611  13.941  1.00  0.00     0.019 C 
HETATM   18  C24 UNL     1       0.446   9.210  13.923  1.00  0.00     0.002 C 
HETATM   19  C25 UNL     1      -0.565   9.608  15.007  1.00  0.00     0.009 C 
HETATM   20  C26 UNL     1       0.173   9.594  16.351  1.00  0.00     0.047 C 
HETATM   21  C27 UNL     1       1.643   9.301  16.040  1.00  0.00     0.128 C 
ENDROOT
BRANCH   6  22
HETATM   22  O1  UNL     1      -6.259   7.978  15.475  1.00  0.00    -0.271 OA
BRANCH  22  23
HETATM   23  C6  UNL     1      -7.346   7.466  14.723  1.00  0.00     0.303 C 
BRANCH  23  24
HETATM   24  C7  UNL     1      -7.567   5.981  15.006  1.00  0.00     0.244 C 
HETATM   25  O2  UNL     1      -7.866   5.529  16.108  1.00  0.00    -0.271 OA
HETATM   26  N2  UNL     1      -7.397   5.184  13.890  1.00  0.00    -0.355 N 
HETATM   27  H10 UNL     1      -7.024   5.593  13.045  1.00  0.00     0.162 HD
BRANCH  26  28
HETATM   28  C8  UNL     1      -7.527   3.747  13.939  1.00  0.00     0.161 C 
BRANCH  28  29
HETATM   29  C9  UNL     1      -6.715   3.106  12.845  1.00  0.00    -0.038 A 
HETATM   30  C10 UNL     1      -5.649   3.793  12.256  1.00  0.00     0.025 A 
HETATM   31  C11 UNL     1      -4.943   3.175  11.236  1.00  0.00     0.088 A 
HETATM   32  N3  UNL     1      -5.226   1.942  10.766  1.00  0.00    -0.375 N 
HETATM   33  C12 UNL     1      -6.263   1.298  11.341  1.00  0.00     0.088 A 
ATOM     34  H3  UNL     1      -4.683   1.517  10.015  1.00  0.00     0.164 HD
HETATM   35  C13 UNL     1      -7.030   1.831  12.368  1.00  0.00     0.025 A 
ENDBRANCH  28  29
ENDBRANCH  26  28
ENDBRANCH  23  24
ENDBRANCH  22  23
ENDBRANCH   6  22
BRANCH  14  36
HETATM   36  O3  UNL     1       0.618   4.899  13.928  1.00  0.00    -0.395 OA
HETATM   37  H25 UNL     1       0.526   4.434  13.080  1.00  0.00     0.210 HD
ENDBRANCH  14  36
BRANCH  21  38
HETATM   38  O4  UNL     1       2.155   8.444  17.075  1.00  0.00    -0.381 OA
HETATM   39  H36 UNL     1       2.955   8.877  17.445  1.00  0.00     0.211 HD
ENDBRANCH  21  38
BRANCH  21  40
HETATM   40  C28 UNL     1       2.500  10.595  16.097  1.00  0.00     0.184 C 
HETATM   41  O5  UNL     1       2.903  11.122  15.046  1.00  0.00    -0.292 OA
BRANCH  40  42
HETATM   42  C29 UNL     1       2.886  11.208  17.440  1.00  0.00     0.245 C 
BRANCH  42  43
HETATM   43  O6  UNL     1       2.833  10.233  18.482  1.00  0.00    -0.393 OA
HETATM   44  H39 UNL     1       2.527   9.399  18.064  1.00  0.00     0.209 HD
ENDBRANCH  42  43
ENDBRANCH  40  42
ENDBRANCH  21  40
TORSDOF 10
ENDMDL
MODEL 6
REMARK minimizedAffinity -7.63554192
REMARK CNNscore 0.526186645
REMARK CNNaffinity 6.58994913
REMARK  10 active torsions:
REMARK  status: ('A' for Active; 'I' for Inactive)
REMARK    1  A    between atoms: N1_6  and  O1_8 
REMARK    2  A    between atoms: O1_8  and  C6_9 
REMARK    3  A    between atoms: C6_9  and  C7_10 
REMARK       I    between atoms: C7_10  and  N2_12 
REMARK    4  A    between atoms: N2_12  and  C8_13 
REMARK    5  A    between atoms: C8_13  and  C9_14 
REMARK    6  A    between atoms: C20_27  and  O3_28 
REMARK    7  A    between atoms: C27_35  and  O4_36 
REMARK    8  A    between atoms: C27_35  and  C28_37 
REMARK    9  A    between atoms: C28_37  and  C29_39 
REMARK   10  A    between atoms: C29_39  and  O6_40 
ROOT
HETATM    1  C1  UNL     1      -1.094   4.997  11.076  1.00  0.00     0.020 C 
HETATM    2  C2  UNL     1      -0.101   6.051  11.642  1.00  0.00    -0.014 C 
HETATM    3  C3  UNL     1       0.594   5.451  12.895  1.00  0.00     0.020 C 
HETATM    4  C4  UNL     1      -0.343   5.144  14.060  1.00  0.00     0.060 C 
HETATM    5  C5  UNL     1      -1.255   6.301  14.397  1.00  0.00     0.032 C 
HETATM    6  N1  UNL     1      -1.816   6.270  15.568  1.00  0.00    -0.271 N 
ATOM      7  H1  UNL     1      -1.634   5.549  16.267  1.00  0.00     0.194 HD
HETATM    8  C14 UNL     1      -1.464   7.342  13.353  1.00  0.00     0.030 C 
HETATM    9  C15 UNL     1      -0.957   7.240  12.106  1.00  0.00    -0.069 C 
HETATM   10  C16 UNL     1      -1.277   8.355  11.148  1.00  0.00     0.035 C 
HETATM   11  C17 UNL     1      -0.277   8.618  10.029  1.00  0.00     0.010 C 
HETATM   12  C18 UNL     1       1.074   7.917  10.137  1.00  0.00    -0.002 C 
HETATM   13  C19 UNL     1       0.910   6.418  10.461  1.00  0.00     0.031 C 
HETATM   14  C20 UNL     1       2.305   5.754  10.392  1.00  0.00     0.124 C 
HETATM   15  C21 UNL     1       3.369   6.451  11.245  1.00  0.00     0.045 C 
HETATM   16  C22 UNL     1       3.543   7.971  10.935  1.00  0.00     0.001 C 
HETATM   17  C23 UNL     1       4.286   8.098   9.589  1.00  0.00     0.019 C 
HETATM   18  C24 UNL     1       2.165   8.677  10.923  1.00  0.00     0.002 C 
HETATM   19  C25 UNL     1       1.890   9.032  12.391  1.00  0.00     0.009 C 
HETATM   20  C26 UNL     1       3.229   8.978  13.136  1.00  0.00     0.047 C 
HETATM   21  C27 UNL     1       4.306   8.707  12.081  1.00  0.00     0.128 C 
ENDROOT
BRANCH   6  22
HETATM   22  O1  UNL     1      -2.701   7.343  15.761  1.00  0.00    -0.271 OA
BRANCH  22  23
HETATM   23  C6  UNL     1      -2.098   8.266  16.653  1.00  0.00     0.303 C 
BRANCH  23  24
HETATM   24  C7  UNL     1      -2.200   9.696  16.126  1.00  0.00     0.244 C 
HETATM   25  O2  UNL     1      -1.241  10.350  15.725  1.00  0.00    -0.271 OA
HETATM   26  N2  UNL     1      -3.490  10.191  16.143  1.00  0.00    -0.355 N 
HETATM   27  H10 UNL     1      -4.216   9.660  16.604  1.00  0.00     0.162 HD
BRANCH  26  28
HETATM   28  C8  UNL     1      -3.809  11.534  15.719  1.00  0.00     0.161 C 
BRANCH  28  29
HETATM   29  C9  UNL     1      -3.891  12.458  16.904  1.00  0.00    -0.038 A 
HETATM   30  C10 UNL     1      -3.908  11.944  18.205  1.00  0.00     0.025 A 
HETATM   31  C11 UNL     1      -4.008  12.828  19.267  1.00  0.00     0.088 A 
HETATM   32  N3  UNL     1      -4.098  14.167  19.124  1.00  0.00    -0.375 N 
HETATM   33  C12 UNL     1      -4.089  14.643  17.862  1.00  0.00     0.088 A 
ATOM     34  H3  UNL     1      -4.169  14.789  19.930  1.00  0.00     0.164 HD
HETATM   35  C13 UNL     1      -3.992  13.841  16.734  1.00  0.00     0.025 A 
ENDBRANCH  28  29
ENDBRANCH  26  28
ENDBRANCH  23  24
ENDBRANCH  22  23
ENDBRANCH   6  22
BRANCH  14  36
HETATM   36  O3  UNL     1       2.266   4.370  10.697  1.00  0.00    -0.395 OA
HETATM   37  H25 UNL     1       1.732   3.933  10.013  1.00  0.00     0.210 HD
ENDBRANCH  14  36
BRANCH  21  38
HETATM   38  O4  UNL     1       5.280   7.821  12.657  1.00  0.00    -0.381 OA
HETATM   39  H36 UNL     1       6.159   8.247  12.559  1.00  0.00     0.211 HD
ENDBRANCH  21  38
BRANCH  21  40
HETATM   40  C28 UNL     1       5.076  10.006  11.716  1.00  0.00     0.184 C 
HETATM   41  O5  UNL     1       5.884  10.006  10.771  1.00  0.00    -0.292 OA
BRANCH  40  42
HETATM   42  C29 UNL     1       4.880  11.277  12.535  1.00  0.00     0.245 C 
BRANCH  42  43
HETATM   43  O6  UNL     1       5.329  12.425  11.815  1.00  0.00    -0.393 OA
HETATM   44  H39 UNL     1       5.685  12.094  10.961  1.00  0.00     0.209 HD
ENDBRANCH  42  43
ENDBRANCH  40  42
ENDBRANCH  21  40
TORSDOF 10
ENDMDL
MODEL 7
REMARK minimizedAffinity -8.191432
REMARK CNNscore 0.501970589
REMARK CNNaffinity 6.84086609
REMARK  10 active torsions:
REMARK  status: ('A' for Active; 'I' for Inactive)
REMARK    1  A    between atoms: N1_6  and  O1_8 
REMARK    2  A    between atoms: O1_8  and  C6_9 
REMARK    3  A    between atoms: C6_9  and  C7_10 
REMARK       I    between atoms: C7_10  and  N2_12 
REMARK    4  A    between atoms: N2_12  and  C8_13 
REMARK    5  A    between atoms: C8_13  and  C9_14 
REMARK    6  A    between atoms: C20_27  and  O3_28 
REMARK    7  A    between atoms: C27_35  and  O4_36 
REMARK    8  A    between atoms: C27_35  and  C28_37 
REMARK    9  A    between atoms: C28_37  and  C29_39 
REMARK   10  A    between atoms: C29_39  and  O6_40 
ROOT
HETATM    1  C1  UNL     1      -2.341   5.884  12.393  1.00  0.00     0.020 C 
HETATM    2  C2  UNL     1      -0.944   6.561  12.477  1.00  0.00    -0.014 C 
HETATM    3  C3  UNL     1      -0.157   5.923  13.654  1.00  0.00     0.020 C 
HETATM    4  C4  UNL     1      -0.774   6.146  15.031  1.00  0.00     0.060 C 
HETATM    5  C5  UNL     1      -1.131   7.592  15.285  1.00  0.00     0.032 C 
HETATM    6  N1  UNL     1      -1.318   7.931  16.525  1.00  0.00    -0.271 N 
ATOM      7  H1  UNL     1      -1.189   7.297  17.314  1.00  0.00     0.194 HD
HETATM    8  C14 UNL     1      -1.278   8.485  14.102  1.00  0.00     0.030 C 
HETATM    9  C15 UNL     1      -1.204   8.034  12.832  1.00  0.00    -0.069 C 
HETATM   10  C16 UNL     1      -1.403   9.048  11.738  1.00  0.00     0.035 C 
HETATM   11  C17 UNL     1      -0.730   8.767  10.400  1.00  0.00     0.010 C 
HETATM   12  C18 UNL     1       0.296   7.637  10.372  1.00  0.00    -0.002 C 
HETATM   13  C19 UNL     1      -0.245   6.364  11.055  1.00  0.00     0.031 C 
HETATM   14  C20 UNL     1       0.783   5.229  10.840  1.00  0.00     0.124 C 
HETATM   15  C21 UNL     1       2.210   5.590  11.264  1.00  0.00     0.045 C 
HETATM   16  C22 UNL     1       2.769   6.881  10.587  1.00  0.00     0.001 C 
HETATM   17  C23 UNL     1       3.103   6.540   9.120  1.00  0.00     0.019 C 
HETATM   18  C24 UNL     1       1.748   8.039  10.711  1.00  0.00     0.002 C 
HETATM   19  C25 UNL     1       2.027   8.666  12.084  1.00  0.00     0.009 C 
HETATM   20  C26 UNL     1       3.430   8.222  12.516  1.00  0.00     0.047 C 
HETATM   21  C27 UNL     1       4.019   7.432  11.344  1.00  0.00     0.128 C 
ENDROOT
BRANCH   6  22
HETATM   22  O1  UNL     1      -1.718   9.271  16.656  1.00  0.00    -0.271 OA
BRANCH  22  23
HETATM   23  C6  UNL     1      -2.715   9.344  17.661  1.00  0.00     0.303 C 
BRANCH  23  24
HETATM   24  C7  UNL     1      -3.275  10.760  17.788  1.00  0.00     0.244 C 
HETATM   25  O2  UNL     1      -3.168  11.453  18.796  1.00  0.00    -0.271 OA
HETATM   26  N2  UNL     1      -3.920  11.194  16.645  1.00  0.00    -0.355 N 
HETATM   27  H10 UNL     1      -4.092  10.537  15.897  1.00  0.00     0.162 HD
BRANCH  26  28
HETATM   28  C8  UNL     1      -4.551  12.490  16.557  1.00  0.00     0.161 C 
BRANCH  28  29
HETATM   29  C9  UNL     1      -3.911  13.317  15.476  1.00  0.00    -0.038 A 
HETATM   30  C10 UNL     1      -2.619  13.024  15.028  1.00  0.00     0.025 A 
HETATM   31  C11 UNL     1      -2.057  13.826  14.047  1.00  0.00     0.088 A 
HETATM   32  N3  UNL     1      -2.683  14.887  13.495  1.00  0.00    -0.375 N 
HETATM   33  C12 UNL     1      -3.925  15.159  13.946  1.00  0.00     0.088 A 
ATOM     34  H3  UNL     1      -2.240  15.455  12.774  1.00  0.00     0.164 HD
HETATM   35  C13 UNL     1      -4.573  14.417  14.923  1.00  0.00     0.025 A 
ENDBRANCH  28  29
ENDBRANCH  26  28
ENDBRANCH  23  24
ENDBRANCH  22  23
ENDBRANCH   6  22
BRANCH  14  36
HETATM   36  O3  UNL     1       0.387   4.012  11.452  1.00  0.00    -0.395 OA
HETATM   37  H25 UNL     1      -0.429   3.715  11.017  1.00  0.00     0.210 HD
ENDBRANCH  14  36
BRANCH  21  38
HETATM   38  O4  UNL     1       4.775   6.334  11.883  1.00  0.00    -0.381 OA
HETATM   39  H36 UNL     1       5.679   6.388  11.505  1.00  0.00     0.211 HD
ENDBRANCH  21  38
BRANCH  21  40
HETATM   40  C28 UNL     1       5.031   8.290  10.537  1.00  0.00     0.184 C 
HETATM   41  O5  UNL     1       4.638   8.982   9.583  1.00  0.00    -0.292 OA
BRANCH  40  42
HETATM   42  C29 UNL     1       6.516   8.261  10.881  1.00  0.00     0.245 C 
BRANCH  42  43
HETATM   43  O6  UNL     1       7.130   7.064  10.403  1.00  0.00    -0.393 OA
HETATM   44  H39 UNL     1       6.416   6.535   9.985  1.00  0.00     0.209 HD
ENDBRANCH  42  43
ENDBRANCH  40  42
ENDBRANCH  21  40
TORSDOF 10
ENDMDL
MODEL 8
REMARK minimizedAffinity -7.23456144
REMARK CNNscore 0.478029132
REMARK CNNaffinity 5.61974764
REMARK  10 active torsions:
REMARK  status: ('A' for Active; 'I' for Inactive)
REMARK    1  A    between atoms: N1_6  and  O1_8 
REMARK    2  A    between atoms: O1_8  and  C6_9 
REMARK    3  A    between atoms: C6_9  and  C7_10 
REMARK       I    between atoms: C7_10  and  N2_12 
REMARK    4  A    between atoms: N2_12  and  C8_13 
REMARK    5  A    between atoms: C8_13  and  C9_14 
REMARK    6  A    between atoms: C20_27  and  O3_28 
REMARK    7  A    between atoms: C27_35  and  O4_36 
REMARK    8  A    between atoms: C27_35  and  C28_37 
REMARK    9  A    between atoms: C28_37  and  C29_39 
REMARK   10  A    between atoms: C29_39  and  O6_40 
ROOT
HETATM    1  C1  UNL     1      -6.912 -12.170  -0.044  1.00  0.00     0.020 C 
HETATM    2  C2  UNL     1      -7.592 -10.809  -0.364  1.00  0.00    -0.014 C 
HETATM    3  C3  UNL     1      -6.654  -9.665   0.108  1.00  0.00     0.020 C 
HETATM    4  C4  UNL     1      -6.403  -9.624   1.613  1.00  0.00     0.060 C 
HETATM    5  C5  UNL     1      -7.677  -9.702   2.420  1.00  0.00     0.032 C 
HETATM    6  N1  UNL     1      -7.599  -9.318   3.659  1.00  0.00    -0.271 N 
ATOM      7  H1  UNL     1      -6.755  -8.931   4.083  1.00  0.00     0.194 HD
HETATM    8  C14 UNL     1      -8.888 -10.246   1.747  1.00  0.00     0.030 C 
HETATM    9  C15 UNL     1      -8.865 -10.755   0.497  1.00  0.00    -0.069 C 
HETATM   10  C16 UNL     1     -10.161 -11.298  -0.041  1.00  0.00     0.035 C 
HETATM   11  C17 UNL     1     -10.347 -11.278  -1.553  1.00  0.00     0.010 C 
HETATM   12  C18 UNL     1      -9.333 -10.471  -2.359  1.00  0.00    -0.002 C 
HETATM   13  C19 UNL     1      -7.885 -10.793  -1.933  1.00  0.00     0.031 C 
HETATM   14  C20 UNL     1      -6.925 -10.064  -2.900  1.00  0.00     0.124 C 
HETATM   15  C21 UNL     1      -7.201  -8.563  -3.040  1.00  0.00     0.045 C 
HETATM   16  C22 UNL     1      -8.664  -8.220  -3.463  1.00  0.00     0.001 C 
HETATM   17  C23 UNL     1      -8.817  -8.566  -4.959  1.00  0.00     0.019 C 
HETATM   18  C24 UNL     1      -9.674  -8.979  -2.569  1.00  0.00     0.002 C 
HETATM   19  C25 UNL     1      -9.850  -8.092  -1.330  1.00  0.00     0.009 C 
HETATM   20  C26 UNL     1      -9.358  -6.686  -1.696  1.00  0.00     0.047 C 
HETATM   21  C27 UNL     1      -9.005  -6.721  -3.185  1.00  0.00     0.128 C 
ENDROOT
BRANCH   6  22
HETATM   22  O1  UNL     1      -8.810  -9.497   4.349  1.00  0.00    -0.271 OA
BRANCH  22  23
HETATM   23  C6  UNL     1      -8.583  -9.243   5.725  1.00  0.00     0.303 C 
BRANCH  23  24
HETATM   24  C7  UNL     1      -7.487 -10.147   6.285  1.00  0.00     0.244 C 
HETATM   25  O2  UNL     1      -7.476 -11.369   6.162  1.00  0.00    -0.271 OA
HETATM   26  N2  UNL     1      -6.496  -9.452   6.952  1.00  0.00    -0.355 N 
HETATM   27  H10 UNL     1      -6.624  -8.467   7.136  1.00  0.00     0.162 HD
BRANCH  26  28
HETATM   28  C8  UNL     1      -5.381 -10.113   7.587  1.00  0.00     0.161 C 
BRANCH  28  29
HETATM   29  C9  UNL     1      -5.298  -9.731   9.041  1.00  0.00    -0.038 A 
HETATM   30  C10 UNL     1      -6.393  -9.147   9.685  1.00  0.00     0.025 A 
HETATM   31  C11 UNL     1      -6.266  -8.788  11.017  1.00  0.00     0.088 A 
HETATM   32  N3  UNL     1      -5.139  -8.964  11.739  1.00  0.00    -0.375 N 
HETATM   33  C12 UNL     1      -4.091  -9.521  11.098  1.00  0.00     0.088 A 
ATOM     34  H3  UNL     1      -5.082  -8.689  12.719  1.00  0.00     0.164 HD
HETATM   35  C13 UNL     1      -4.119  -9.914   9.767  1.00  0.00     0.025 A 
ENDBRANCH  28  29
ENDBRANCH  26  28
ENDBRANCH  23  24
ENDBRANCH  22  23
ENDBRANCH   6  22
BRANCH  14  36
HETATM   36  O3  UNL     1      -5.560 -10.279  -2.580  1.00  0.00    -0.395 OA
HETATM   37  H25 UNL     1      -5.378 -11.227  -2.692  1.00  0.00     0.210 HD
ENDBRANCH  14  36
BRANCH  21  38
HETATM   38  O4  UNL     1      -7.831  -5.916  -3.384  1.00  0.00    -0.381 OA
HETATM   39  H36 UNL     1      -8.043  -5.254  -4.076  1.00  0.00     0.211 HD
ENDBRANCH  21  38
BRANCH  21  40
HETATM   40  C28 UNL     1     -10.120  -6.065  -4.045  1.00  0.00     0.184 C 
HETATM   41  O5  UNL     1     -11.237  -6.604  -4.133  1.00  0.00    -0.292 OA
BRANCH  40  42
HETATM   42  C29 UNL     1      -9.844  -4.779  -4.818  1.00  0.00     0.245 C 
BRANCH  42  43
HETATM   43  O6  UNL     1     -10.982  -3.917  -4.801  1.00  0.00    -0.393 OA
HETATM   44  H39 UNL     1     -11.683  -4.394  -4.305  1.00  0.00     0.209 HD
ENDBRANCH  42  43
ENDBRANCH  40  42
ENDBRANCH  21  40
TORSDOF 10
ENDMDL
MODEL 9
REMARK minimizedAffinity -9.4803648
REMARK CNNscore 0.466302931
REMARK CNNaffinity 6.82309151
REMARK  10 active torsions:
REMARK  status: ('A' for Active; 'I' for Inactive)
REMARK    1  A    between atoms: N1_6  and  O1_8 
REMARK    2  A    between atoms: O1_8  and  C6_9 
REMARK    3  A    between atoms: C6_9  and  C7_10 
REMARK       I    between atoms: C7_10  and  N2_12 
REMARK    4  A    between atoms: N2_12  and  C8_13 
REMARK    5  A    between atoms: C8_13  and  C9_14 
REMARK    6  A    between atoms: C20_27  and  O3_28 
REMARK    7  A    between atoms: C27_35  and  O4_36 
REMARK    8  A    between atoms: C27_35  and  C28_37 
REMARK    9  A    between atoms: C28_37  and  C29_39 
REMARK   10  A    between atoms: C29_39  and  O6_40 
ROOT
HETATM    1  C1  UNL     1      -2.390   5.882  12.423  1.00  0.00     0.020 C 
HETATM    2  C2  UNL     1      -0.988   6.551  12.492  1.00  0.00    -0.014 C 
HETATM    3  C3  UNL     1      -0.203   5.930  13.679  1.00  0.00     0.020 C 
HETATM    4  C4  UNL     1      -0.816   6.182  15.054  1.00  0.00     0.060 C 
HETATM    5  C5  UNL     1      -1.163   7.635  15.281  1.00  0.00     0.032 C 
HETATM    6  N1  UNL     1      -1.346   7.998  16.516  1.00  0.00    -0.271 N 
ATOM      7  H1  UNL     1      -1.220   7.377  17.316  1.00  0.00     0.194 HD
HETATM    8  C14 UNL     1      -1.307   8.506  14.082  1.00  0.00     0.030 C 
HETATM    9  C15 UNL     1      -1.238   8.032  12.820  1.00  0.00    -0.069 C 
HETATM   10  C16 UNL     1      -1.433   9.027  11.708  1.00  0.00     0.035 C 
HETATM   11  C17 UNL     1      -0.764   8.717  10.375  1.00  0.00     0.010 C 
HETATM   12  C18 UNL     1       0.254   7.581  10.366  1.00  0.00    -0.002 C 
HETATM   13  C19 UNL     1      -0.293   6.324  11.073  1.00  0.00     0.031 C 
HETATM   14  C20 UNL     1       0.726   5.178  10.877  1.00  0.00     0.124 C 
HETATM   15  C21 UNL     1       2.156   5.538  11.291  1.00  0.00     0.045 C 
HETATM   16  C22 UNL     1       2.723   6.813  10.590  1.00  0.00     0.001 C 
HETATM   17  C23 UNL     1       3.051   6.442   9.129  1.00  0.00     0.019 C 
HETATM   18  C24 UNL     1       1.710   7.979  10.695  1.00  0.00     0.002 C 
HETATM   19  C25 UNL     1       1.996   8.629  12.055  1.00  0.00     0.009 C 
HETATM   20  C26 UNL     1       3.396   8.184  12.493  1.00  0.00     0.047 C 
HETATM   21  C27 UNL     1       3.978   7.369  11.335  1.00  0.00     0.128 C 
ENDROOT
BRANCH   6  22
HETATM   22  O1  UNL     1      -1.737   9.343  16.622  1.00  0.00    -0.271 OA
BRANCH  22  23
HETATM   23  C6  UNL     1      -3.040   9.387  17.180  1.00  0.00     0.303 C 
BRANCH  23  24
HETATM   24  C7  UNL     1      -4.099   9.609  16.101  1.00  0.00     0.244 C 
HETATM   25  O2  UNL     1      -4.278  10.678  15.525  1.00  0.00    -0.271 OA
HETATM   26  N2  UNL     1      -4.846   8.478  15.833  1.00  0.00    -0.355 N 
HETATM   27  H10 UNL     1      -4.745   7.667  16.427  1.00  0.00     0.162 HD
BRANCH  26  28
HETATM   28  C8  UNL     1      -5.923   8.473  14.871  1.00  0.00     0.161 C 
BRANCH  28  29
HETATM   29  C9  UNL     1      -6.577   7.118  14.816  1.00  0.00    -0.038 A 
HETATM   30  C10 UNL     1      -6.906   6.538  13.588  1.00  0.00     0.025 A 
HETATM   31  C11 UNL     1      -7.529   5.299  13.583  1.00  0.00     0.088 A 
HETATM   32  N3  UNL     1      -7.847   4.614  14.702  1.00  0.00    -0.375 N 
HETATM   33  C12 UNL     1      -7.530   5.195  15.878  1.00  0.00     0.088 A 
ATOM     34  H3  UNL     1      -8.304   3.704  14.661  1.00  0.00     0.164 HD
HETATM   35  C13 UNL     1      -6.905   6.429  15.987  1.00  0.00     0.025 A 
ENDBRANCH  28  29
ENDBRANCH  26  28
ENDBRANCH  23  24
ENDBRANCH  22  23
ENDBRANCH   6  22
BRANCH  14  36
HETATM   36  O3  UNL     1       0.324   3.976  11.512  1.00  0.00    -0.395 OA
HETATM   37  H25 UNL     1      -0.495   3.676  11.083  1.00  0.00     0.210 HD
ENDBRANCH  14  36
BRANCH  21  38
HETATM   38  O4  UNL     1       4.728   6.276  11.892  1.00  0.00    -0.381 OA
HETATM   39  H36 UNL     1       5.632   6.317  11.511  1.00  0.00     0.211 HD
ENDBRANCH  21  38
BRANCH  21  40
HETATM   40  C28 UNL     1       4.993   8.205  10.510  1.00  0.00     0.184 C 
HETATM   41  O5  UNL     1       4.599   8.905   9.562  1.00  0.00    -0.292 OA
BRANCH  40  42
HETATM   42  C29 UNL     1       6.484   8.145  10.829  1.00  0.00     0.245 C 
BRANCH  42  43
HETATM   43  O6  UNL     1       7.052   6.910  10.393  1.00  0.00    -0.393 OA
HETATM   44  H39 UNL     1       6.314   6.386  10.012  1.00  0.00     0.209 HD
ENDBRANCH  42  43
ENDBRANCH  40  42
ENDBRANCH  21  40
TORSDOF 10
ENDMDL
