MODEL 1
REMARK minimizedAffinity -8.13027191
REMARK CNNscore 0.49247396
REMARK CNNaffinity 6.11852646
REMARK  11 active torsions:
REMARK  status: ('A' for Active; 'I' for Inactive)
REMARK    1  A    between atoms: C2_2  and  C4_4 
REMARK    2  A    between atoms: C4_4  and  C6_6 
REMARK    3  A    between atoms: C7_7  and  C8_8 
REMARK    4  A    between atoms: C8_8  and  C10_10 
REMARK    5  A    between atoms: C24_24  and  O1_25 
REMARK    6  A    between atoms: O1_25  and  C25_26 
REMARK    7  A    between atoms: C26_28  and  C27_29 
REMARK    8  A    between atoms: C27_29  and  O3_30 
REMARK    9  A    between atoms: C28_31  and  O4_32 
REMARK   10  A    between atoms: C29_33  and  O5_34 
REMARK   11  A    between atoms: C30_35  and  O6_36 
ROOT
HETATM    1  C10 UNL     1      -6.439  47.320 -27.763  1.00  0.00     0.001 C 
HETATM    2  C11 UNL     1      -6.669  47.742 -26.277  1.00  0.00     0.006 C 
HETATM    3  C12 UNL     1      -8.145  47.486 -25.955  1.00  0.00     0.009 C 
HETATM    4  C13 UNL     1      -8.659  46.729 -27.172  1.00  0.00     0.036 C 
HETATM    5  C14 UNL     1      -7.887  47.363 -28.357  1.00  0.00    -0.033 C 
HETATM    6  C15 UNL     1      -8.287  48.821 -28.685  1.00  0.00     0.016 C 
HETATM    7  C16 UNL     1      -8.149  46.452 -29.571  1.00  0.00     0.010 C 
HETATM    8  C17 UNL     1      -9.652  46.353 -29.896  1.00  0.00     0.010 C 
HETATM    9  C18 UNL     1     -10.525  45.894 -28.702  1.00  0.00     0.039 C 
HETATM   10  C19 UNL     1     -10.177  46.602 -27.350  1.00  0.00     0.123 C 
HETATM   11  C20 UNL     1     -10.782  45.763 -26.242  1.00  0.00     0.014 C 
HETATM   12  C21 UNL     1     -12.104  45.601 -26.353  1.00  0.00     0.014 C 
HETATM   13  C22 UNL     1     -12.707  46.369 -27.515  1.00  0.00     0.124 C 
HETATM   14  C23 UNL     1     -14.227  46.228 -27.520  1.00  0.00     0.078 C 
HETATM   15  C24 UNL     1     -14.691  44.801 -27.861  1.00  0.00     0.128 C 
HETATM   16  C31 UNL     1     -13.603  43.922 -28.499  1.00  0.00     0.033 C 
HETATM   17  C32 UNL     1     -12.695  44.672 -29.475  1.00  0.00     0.015 C 
HETATM   18  C33 UNL     1     -12.097  45.998 -28.919  1.00  0.00     0.001 C 
HETATM   19  C34 UNL     1     -12.457  47.102 -29.957  1.00  0.00     0.019 C 
HETATM   20  O7  UNL     1     -12.331  47.739 -27.234  1.00  0.00    -0.223 OA
HETATM   21  O8  UNL     1     -10.833  47.890 -27.337  1.00  0.00    -0.224 OA
ENDROOT
BRANCH  15  22
HETATM   22  O1  UNL     1     -15.823  44.940 -28.731  1.00  0.00    -0.353 OA
BRANCH  22  23
HETATM   23  C25 UNL     1     -16.870  43.995 -28.477  1.00  0.00     0.292 C 
HETATM   24  O2  UNL     1     -17.508  43.603 -29.687  1.00  0.00    -0.348 OA
HETATM   25  C26 UNL     1     -18.565  42.658 -29.475  1.00  0.00     0.179 C 
HETATM   26  C28 UNL     1     -19.658  43.256 -28.570  1.00  0.00     0.180 C 
HETATM   27  C29 UNL     1     -19.033  43.732 -27.257  1.00  0.00     0.183 C 
HETATM   28  C30 UNL     1     -17.877  44.687 -27.542  1.00  0.00     0.204 C 
BRANCH  25  29
HETATM   29  C27 UNL     1     -19.151  42.251 -30.837  1.00  0.00     0.198 C 
BRANCH  29  30
HETATM   30  O3  UNL     1     -19.116  40.841 -31.045  1.00  0.00    -0.398 OA
HETATM   31  H41 UNL     1     -19.329  40.416 -30.185  1.00  0.00     0.209 HD
ENDBRANCH  29  30
ENDBRANCH  25  29
BRANCH  26  32
HETATM   32  O4  UNL     1     -20.682  42.293 -28.293  1.00  0.00    -0.390 OA
HETATM   33  H43 UNL     1     -21.167  42.660 -27.519  1.00  0.00     0.210 HD
ENDBRANCH  26  32
BRANCH  27  34
HETATM   34  O5  UNL     1     -20.044  44.376 -26.465  1.00  0.00    -0.390 OA
HETATM   35  H45 UNL     1     -19.551  44.870 -25.776  1.00  0.00     0.210 HD
ENDBRANCH  27  34
BRANCH  28  36
HETATM   36  O6  UNL     1     -17.271  45.057 -26.293  1.00  0.00    -0.388 OA
HETATM   37  H47 UNL     1     -16.497  45.609 -26.537  1.00  0.00     0.210 HD
ENDBRANCH  28  36
ENDBRANCH  22  23
ENDBRANCH  15  22
BRANCH   1  38
HETATM   38  C8  UNL     1      -5.301  48.139 -28.438  1.00  0.00     0.008 C 
HETATM   39  C9  UNL     1      -4.896  47.581 -29.806  1.00  0.00     0.014 C 
BRANCH  38  40
HETATM   40  C7  UNL     1      -4.117  48.279 -27.487  1.00  0.00    -0.026 C 
HETATM   41  C6  UNL     1      -3.675  49.387 -26.865  1.00  0.00    -0.026 C 
BRANCH  41  42
HETATM   42  C4  UNL     1      -2.486  49.486 -25.919  1.00  0.00     0.007 C 
HETATM   43  C5  UNL     1      -2.790  49.059 -24.476  1.00  0.00     0.014 C 
BRANCH  42  44
HETATM   44  C2  UNL     1      -1.811  50.886 -26.025  1.00  0.00    -0.015 C 
HETATM   45  C1  UNL     1      -1.197  51.168 -27.403  1.00  0.00     0.010 C 
HETATM   46  C3  UNL     1      -2.771  52.020 -25.652  1.00  0.00     0.010 C 
ENDBRANCH  42  44
ENDBRANCH  41  42
ENDBRANCH  38  40
ENDBRANCH   1  38
TORSDOF 11
ENDMDL
MODEL 2
REMARK minimizedAffinity -9.85406303
REMARK CNNscore 0.389970928
REMARK CNNaffinity 7.06749487
REMARK  11 active torsions:
REMARK  status: ('A' for Active; 'I' for Inactive)
REMARK    1  A    between atoms: C2_2  and  C4_4 
REMARK    2  A    between atoms: C4_4  and  C6_6 
REMARK    3  A    between atoms: C7_7  and  C8_8 
REMARK    4  A    between atoms: C8_8  and  C10_10 
REMARK    5  A    between atoms: C24_24  and  O1_25 
REMARK    6  A    between atoms: O1_25  and  C25_26 
REMARK    7  A    between atoms: C26_28  and  C27_29 
REMARK    8  A    between atoms: C27_29  and  O3_30 
REMARK    9  A    between atoms: C28_31  and  O4_32 
REMARK   10  A    between atoms: C29_33  and  O5_34 
REMARK   11  A    between atoms: C30_35  and  O6_36 
ROOT
HETATM    1  C10 UNL     1      -0.421  50.333 -21.546  1.00  0.00     0.001 C 
HETATM    2  C11 UNL     1      -0.504  49.457 -20.256  1.00  0.00     0.006 C 
HETATM    3  C12 UNL     1      -1.880  48.783 -20.252  1.00  0.00     0.009 C 
HETATM    4  C13 UNL     1      -2.452  49.109 -21.625  1.00  0.00     0.036 C 
HETATM    5  C14 UNL     1      -1.929  50.539 -21.915  1.00  0.00    -0.033 C 
HETATM    6  C15 UNL     1      -2.548  51.647 -21.032  1.00  0.00     0.016 C 
HETATM    7  C16 UNL     1      -2.232  50.809 -23.401  1.00  0.00     0.010 C 
HETATM    8  C17 UNL     1      -3.740  50.714 -23.701  1.00  0.00     0.010 C 
HETATM    9  C18 UNL     1      -4.383  49.372 -23.275  1.00  0.00     0.039 C 
HETATM   10  C19 UNL     1      -3.951  48.884 -21.851  1.00  0.00     0.123 C 
HETATM   11  C20 UNL     1      -4.294  47.409 -21.765  1.00  0.00     0.014 C 
HETATM   12  C21 UNL     1      -5.588  47.147 -21.971  1.00  0.00     0.014 C 
HETATM   13  C22 UNL     1      -6.431  48.396 -22.157  1.00  0.00     0.124 C 
HETATM   14  C23 UNL     1      -7.909  48.032 -22.280  1.00  0.00     0.078 C 
HETATM   15  C24 UNL     1      -8.230  47.284 -23.586  1.00  0.00     0.128 C 
HETATM   16  C31 UNL     1      -7.134  47.392 -24.659  1.00  0.00     0.033 C 
HETATM   17  C32 UNL     1      -6.465  48.766 -24.723  1.00  0.00     0.015 C 
HETATM   18  C33 UNL     1      -5.971  49.313 -23.351  1.00  0.00     0.001 C 
HETATM   19  C34 UNL     1      -6.601  50.730 -23.200  1.00  0.00     0.019 C 
HETATM   20  O7  UNL     1      -6.197  49.135 -20.934  1.00  0.00    -0.223 OA
HETATM   21  O8  UNL     1      -4.756  49.582 -20.874  1.00  0.00    -0.224 OA
ENDROOT
BRANCH  15  22
HETATM   22  O1  UNL     1      -9.476  47.814 -24.060  1.00  0.00    -0.353 OA
BRANCH  22  23
HETATM   23  C25 UNL     1      -9.762  47.493 -25.427  1.00  0.00     0.292 C 
HETATM   24  O2  UNL     1      -9.208  46.231 -25.782  1.00  0.00    -0.348 OA
HETATM   25  C26 UNL     1      -9.471  45.874 -27.144  1.00  0.00     0.179 C 
HETATM   26  C28 UNL     1      -8.865  46.912 -28.107  1.00  0.00     0.180 C 
HETATM   27  C29 UNL     1      -9.394  48.305 -27.760  1.00  0.00     0.183 C 
HETATM   28  C30 UNL     1      -9.142  48.609 -26.285  1.00  0.00     0.204 C 
BRANCH  25  29
HETATM   29  C27 UNL     1      -8.889  44.477 -27.416  1.00  0.00     0.198 C 
BRANCH  29  30
HETATM   30  O3  UNL     1      -9.838  43.439 -27.190  1.00  0.00    -0.398 OA
HETATM   31  H41 UNL     1     -10.707  43.764 -27.513  1.00  0.00     0.209 HD
ENDBRANCH  29  30
ENDBRANCH  25  29
BRANCH  26  32
HETATM   32  O4  UNL     1      -9.186  46.602 -29.468  1.00  0.00    -0.390 OA
HETATM   33  H43 UNL     1      -9.002  47.433 -29.964  1.00  0.00     0.210 HD
ENDBRANCH  26  32
BRANCH  27  34
HETATM   34  O5  UNL     1      -8.745  49.274 -28.599  1.00  0.00    -0.390 OA
HETATM   35  H45 UNL     1      -8.925  50.139 -28.174  1.00  0.00     0.210 HD
ENDBRANCH  27  34
BRANCH  28  36
HETATM   36  O6  UNL     1      -9.713  49.891 -25.979  1.00  0.00    -0.388 OA
HETATM   37  H47 UNL     1      -9.587  50.004 -25.012  1.00  0.00     0.210 HD
ENDBRANCH  28  36
ENDBRANCH  22  23
ENDBRANCH  15  22
BRANCH   1  38
HETATM   38  C8  UNL     1       0.506  51.570 -21.359  1.00  0.00     0.008 C 
HETATM   39  C9  UNL     1       0.147  52.402 -20.125  1.00  0.00     0.014 C 
BRANCH  38  40
HETATM   40  C7  UNL     1       0.541  52.400 -22.639  1.00  0.00    -0.026 C 
HETATM   41  C6  UNL     1       0.989  52.037 -23.854  1.00  0.00    -0.026 C 
BRANCH  41  42
HETATM   42  C4  UNL     1       1.006  52.897 -25.110  1.00  0.00     0.007 C 
HETATM   43  C5  UNL     1      -0.122  53.938 -25.179  1.00  0.00     0.014 C 
BRANCH  42  44
HETATM   44  C2  UNL     1       1.114  52.010 -26.385  1.00  0.00    -0.015 C 
HETATM   45  C1  UNL     1       2.526  51.465 -26.637  1.00  0.00     0.010 C 
HETATM   46  C3  UNL     1       0.114  50.849 -26.368  1.00  0.00     0.010 C 
ENDBRANCH  42  44
ENDBRANCH  41  42
ENDBRANCH  38  40
ENDBRANCH   1  38
TORSDOF 11
ENDMDL
MODEL 3
REMARK minimizedAffinity -9.63657761
REMARK CNNscore 0.337042958
REMARK CNNaffinity 6.70199966
REMARK  11 active torsions:
REMARK  status: ('A' for Active; 'I' for Inactive)
REMARK    1  A    between atoms: C2_2  and  C4_4 
REMARK    2  A    between atoms: C4_4  and  C6_6 
REMARK    3  A    between atoms: C7_7  and  C8_8 
REMARK    4  A    between atoms: C8_8  and  C10_10 
REMARK    5  A    between atoms: C24_24  and  O1_25 
REMARK    6  A    between atoms: O1_25  and  C25_26 
REMARK    7  A    between atoms: C26_28  and  C27_29 
REMARK    8  A    between atoms: C27_29  and  O3_30 
REMARK    9  A    between atoms: C28_31  and  O4_32 
REMARK   10  A    between atoms: C29_33  and  O5_34 
REMARK   11  A    between atoms: C30_35  and  O6_36 
ROOT
HETATM    1  C10 UNL     1       0.475  51.787 -21.793  1.00  0.00     0.001 C 
HETATM    2  C11 UNL     1       0.600  53.199 -21.137  1.00  0.00     0.006 C 
HETATM    3  C12 UNL     1       0.151  53.064 -19.679  1.00  0.00     0.009 C 
HETATM    4  C13 UNL     1      -0.003  51.562 -19.480  1.00  0.00     0.036 C 
HETATM    5  C14 UNL     1      -0.539  51.060 -20.846  1.00  0.00    -0.033 C 
HETATM    6  C15 UNL     1      -1.985  51.497 -21.176  1.00  0.00     0.016 C 
HETATM    7  C16 UNL     1      -0.442  49.524 -20.801  1.00  0.00     0.010 C 
HETATM    8  C17 UNL     1      -1.272  48.934 -19.646  1.00  0.00     0.010 C 
HETATM    9  C18 UNL     1      -0.921  49.518 -18.256  1.00  0.00     0.039 C 
HETATM   10  C19 UNL     1      -0.765  51.076 -18.242  1.00  0.00     0.123 C 
HETATM   11  C20 UNL     1      -0.015  51.434 -16.973  1.00  0.00     0.014 C 
HETATM   12  C21 UNL     1      -0.622  51.020 -15.856  1.00  0.00     0.014 C 
HETATM   13  C22 UNL     1      -1.966  50.362 -16.113  1.00  0.00     0.124 C 
HETATM   14  C23 UNL     1      -2.651  50.010 -14.795  1.00  0.00     0.078 C 
HETATM   15  C24 UNL     1      -1.932  48.883 -14.033  1.00  0.00     0.128 C 
HETATM   16  C31 UNL     1      -0.938  48.081 -14.888  1.00  0.00     0.033 C 
HETATM   17  C32 UNL     1      -1.411  47.838 -16.322  1.00  0.00     0.015 C 
HETATM   18  C33 UNL     1      -1.901  49.113 -17.070  1.00  0.00     0.001 C 
HETATM   19  C34 UNL     1      -3.328  48.782 -17.600  1.00  0.00     0.019 C 
HETATM   20  O7  UNL     1      -2.709  51.395 -16.806  1.00  0.00    -0.223 OA
HETATM   21  O8  UNL     1      -2.085  51.658 -18.154  1.00  0.00    -0.224 OA
ENDROOT
BRANCH  15  22
HETATM   22  O1  UNL     1      -2.960  48.037 -13.499  1.00  0.00    -0.353 OA
BRANCH  22  23
HETATM   23  C25 UNL     1      -3.884  48.717 -12.640  1.00  0.00     0.292 C 
HETATM   24  O2  UNL     1      -3.222  49.251 -11.498  1.00  0.00    -0.348 OA
HETATM   25  C26 UNL     1      -4.113  49.938 -10.612  1.00  0.00     0.179 C 
HETATM   26  C28 UNL     1      -5.203  48.986 -10.088  1.00  0.00     0.180 C 
HETATM   27  C29 UNL     1      -5.938  48.346 -11.268  1.00  0.00     0.183 C 
HETATM   28  C30 UNL     1      -4.937  47.681 -12.210  1.00  0.00     0.204 C 
BRANCH  25  29
HETATM   29  C27 UNL     1      -3.303  50.528  -9.446  1.00  0.00     0.198 C 
BRANCH  29  30
HETATM   30  O3  UNL     1      -3.268  49.661  -8.315  1.00  0.00    -0.398 OA
HETATM   31  H41 UNL     1      -3.186  48.743  -8.655  1.00  0.00     0.209 HD
ENDBRANCH  29  30
ENDBRANCH  25  29
BRANCH  26  32
HETATM   32  O4  UNL     1      -6.142  49.681  -9.259  1.00  0.00    -0.390 OA
HETATM   33  H43 UNL     1      -6.919  49.080  -9.201  1.00  0.00     0.210 HD
ENDBRANCH  26  32
BRANCH  27  34
HETATM   34  O5  UNL     1      -6.882  47.387 -10.767  1.00  0.00    -0.390 OA
HETATM   35  H45 UNL     1      -7.131  46.845 -11.545  1.00  0.00     0.210 HD
ENDBRANCH  27  34
BRANCH  28  36
HETATM   36  O6  UNL     1      -5.652  47.155 -13.339  1.00  0.00    -0.388 OA
HETATM   37  H47 UNL     1      -4.961  46.806 -13.941  1.00  0.00     0.210 HD
ENDBRANCH  28  36
ENDBRANCH  22  23
ENDBRANCH  15  22
BRANCH   1  38
HETATM   38  C8  UNL     1       0.184  51.871 -23.320  1.00  0.00     0.008 C 
HETATM   39  C9  UNL     1       0.114  53.312 -23.835  1.00  0.00     0.014 C 
BRANCH  38  40
HETATM   40  C7  UNL     1      -1.063  51.062 -23.663  1.00  0.00    -0.026 C 
HETATM   41  C6  UNL     1      -1.490  50.666 -24.876  1.00  0.00    -0.026 C 
BRANCH  41  42
HETATM   42  C4  UNL     1      -2.744  49.857 -25.178  1.00  0.00     0.007 C 
HETATM   43  C5  UNL     1      -3.025  48.729 -24.174  1.00  0.00     0.014 C 
BRANCH  42  44
HETATM   44  C2  UNL     1      -2.753  49.386 -26.663  1.00  0.00    -0.015 C 
HETATM   45  C1  UNL     1      -3.855  48.366 -26.977  1.00  0.00     0.010 C 
HETATM   46  C3  UNL     1      -2.849  50.561 -27.641  1.00  0.00     0.010 C 
ENDBRANCH  42  44
ENDBRANCH  41  42
ENDBRANCH  38  40
ENDBRANCH   1  38
TORSDOF 11
ENDMDL
MODEL 4
REMARK minimizedAffinity -8.95579433
REMARK CNNscore 0.32103914
REMARK CNNaffinity 5.87234831
REMARK  11 active torsions:
REMARK  status: ('A' for Active; 'I' for Inactive)
REMARK    1  A    between atoms: C2_2  and  C4_4 
REMARK    2  A    between atoms: C4_4  and  C6_6 
REMARK    3  A    between atoms: C7_7  and  C8_8 
REMARK    4  A    between atoms: C8_8  and  C10_10 
REMARK    5  A    between atoms: C24_24  and  O1_25 
REMARK    6  A    between atoms: O1_25  and  C25_26 
REMARK    7  A    between atoms: C26_28  and  C27_29 
REMARK    8  A    between atoms: C27_29  and  O3_30 
REMARK    9  A    between atoms: C28_31  and  O4_32 
REMARK   10  A    between atoms: C29_33  and  O5_34 
REMARK   11  A    between atoms: C30_35  and  O6_36 
ROOT
HETATM    1  C10 UNL     1      -6.857  47.242 -27.484  1.00  0.00     0.001 C 
HETATM    2  C11 UNL     1      -6.998  47.707 -26.001  1.00  0.00     0.006 C 
HETATM    3  C12 UNL     1      -8.459  47.487 -25.592  1.00  0.00     0.009 C 
HETATM    4  C13 UNL     1      -9.052  46.708 -26.759  1.00  0.00     0.036 C 
HETATM    5  C14 UNL     1      -8.335  47.297 -28.000  1.00  0.00    -0.033 C 
HETATM    6  C15 UNL     1      -8.726  48.752 -28.346  1.00  0.00     0.016 C 
HETATM    7  C16 UNL     1      -8.679  46.360 -29.173  1.00  0.00     0.010 C 
HETATM    8  C17 UNL     1     -10.198  46.280 -29.413  1.00  0.00     0.010 C 
HETATM    9  C18 UNL     1     -11.012  45.869 -28.163  1.00  0.00     0.039 C 
HETATM   10  C19 UNL     1     -10.578  46.606 -26.851  1.00  0.00     0.123 C 
HETATM   11  C20 UNL     1     -11.136  45.807 -25.689  1.00  0.00     0.014 C 
HETATM   12  C21 UNL     1     -12.466  45.667 -25.724  1.00  0.00     0.014 C 
HETATM   13  C22 UNL     1     -13.117  46.415 -26.872  1.00  0.00     0.124 C 
HETATM   14  C23 UNL     1     -14.638  46.303 -26.791  1.00  0.00     0.078 C 
HETATM   15  C24 UNL     1     -15.144  44.876 -27.068  1.00  0.00     0.128 C 
HETATM   16  C31 UNL     1     -14.108  43.961 -27.740  1.00  0.00     0.033 C 
HETATM   17  C32 UNL     1     -13.242  44.668 -28.784  1.00  0.00     0.015 C 
HETATM   18  C33 UNL     1     -12.592  45.996 -28.296  1.00  0.00     0.001 C 
HETATM   19  C34 UNL     1     -12.989  47.080 -29.343  1.00  0.00     0.019 C 
HETATM   20  O7  UNL     1     -12.703  47.785 -26.648  1.00  0.00    -0.223 OA
HETATM   21  O8  UNL     1     -11.210  47.906 -26.837  1.00  0.00    -0.224 OA
ENDROOT
BRANCH  15  22
HETATM   22  O1  UNL     1     -16.320  45.014 -27.878  1.00  0.00    -0.353 OA
BRANCH  22  23
HETATM   23  C25 UNL     1     -17.539  44.710 -27.189  1.00  0.00     0.292 C 
HETATM   24  O2  UNL     1     -17.751  45.607 -26.105  1.00  0.00    -0.348 OA
HETATM   25  C26 UNL     1     -18.961  45.334 -25.389  1.00  0.00     0.179 C 
HETATM   26  C28 UNL     1     -18.934  43.915 -24.792  1.00  0.00     0.180 C 
HETATM   27  C29 UNL     1     -18.675  42.896 -25.903  1.00  0.00     0.183 C 
HETATM   28  C30 UNL     1     -17.409  43.267 -26.671  1.00  0.00     0.204 C 
BRANCH  25  29
HETATM   29  C27 UNL     1     -19.134  46.385 -24.280  1.00  0.00     0.198 C 
BRANCH  29  30
HETATM   30  O3  UNL     1     -19.019  47.718 -24.771  1.00  0.00    -0.398 OA
HETATM   31  H41 UNL     1     -19.460  47.743 -25.649  1.00  0.00     0.209 HD
ENDBRANCH  29  30
ENDBRANCH  25  29
BRANCH  26  32
HETATM   32  O4  UNL     1     -20.170  43.607 -24.137  1.00  0.00    -0.390 OA
HETATM   33  H43 UNL     1     -20.162  42.627 -24.035  1.00  0.00     0.210 HD
ENDBRANCH  26  32
BRANCH  27  34
HETATM   34  O5  UNL     1     -18.553  41.589 -25.319  1.00  0.00    -0.390 OA
HETATM   35  H45 UNL     1     -18.148  41.034 -26.019  1.00  0.00     0.210 HD
ENDBRANCH  27  34
BRANCH  28  36
HETATM   36  O6  UNL     1     -17.237  42.332 -27.748  1.00  0.00    -0.388 OA
HETATM   37  H47 UNL     1     -16.457  42.657 -28.247  1.00  0.00     0.210 HD
ENDBRANCH  28  36
ENDBRANCH  22  23
ENDBRANCH  15  22
BRANCH   1  38
HETATM   38  C8  UNL     1      -5.744  48.022 -28.243  1.00  0.00     0.008 C 
HETATM   39  C9  UNL     1      -5.480  47.470 -29.647  1.00  0.00     0.014 C 
BRANCH  38  40
HETATM   40  C7  UNL     1      -4.479  48.094 -27.392  1.00  0.00    -0.026 C 
HETATM   41  C6  UNL     1      -3.729  49.174 -27.105  1.00  0.00    -0.026 C 
BRANCH  41  42
HETATM   42  C4  UNL     1      -2.470  49.205 -26.250  1.00  0.00     0.007 C 
HETATM   43  C5  UNL     1      -2.724  49.022 -24.746  1.00  0.00     0.014 C 
BRANCH  42  44
HETATM   44  C2  UNL     1      -1.603  50.453 -26.588  1.00  0.00    -0.015 C 
HETATM   45  C1  UNL     1      -2.353  51.520 -27.396  1.00  0.00     0.010 C 
HETATM   46  C3  UNL     1      -0.997  51.093 -25.335  1.00  0.00     0.010 C 
ENDBRANCH  42  44
ENDBRANCH  41  42
ENDBRANCH  38  40
ENDBRANCH   1  38
TORSDOF 11
ENDMDL
MODEL 5
REMARK minimizedAffinity -8.24815369
REMARK CNNscore 0.25750497
REMARK CNNaffinity 6.69050407
REMARK  11 active torsions:
REMARK  status: ('A' for Active; 'I' for Inactive)
REMARK    1  A    between atoms: C2_2  and  C4_4 
REMARK    2  A    between atoms: C4_4  and  C6_6 
REMARK    3  A    between atoms: C7_7  and  C8_8 
REMARK    4  A    between atoms: C8_8  and  C10_10 
REMARK    5  A    between atoms: C24_24  and  O1_25 
REMARK    6  A    between atoms: O1_25  and  C25_26 
REMARK    7  A    between atoms: C26_28  and  C27_29 
REMARK    8  A    between atoms: C27_29  and  O3_30 
REMARK    9  A    between atoms: C28_31  and  O4_32 
REMARK   10  A    between atoms: C29_33  and  O5_34 
REMARK   11  A    between atoms: C30_35  and  O6_36 
ROOT
HETATM    1  C10 UNL     1      -3.396  48.996 -20.737  1.00  0.00     0.001 C 
HETATM    2  C11 UNL     1      -4.806  48.963 -20.068  1.00  0.00     0.006 C 
HETATM    3  C12 UNL     1      -4.612  49.288 -18.583  1.00  0.00     0.009 C 
HETATM    4  C13 UNL     1      -3.153  49.710 -18.488  1.00  0.00     0.036 C 
HETATM    5  C14 UNL     1      -2.435  48.799 -19.516  1.00  0.00    -0.033 C 
HETATM    6  C15 UNL     1      -2.369  47.305 -19.124  1.00  0.00     0.016 C 
HETATM    7  C16 UNL     1      -1.014  49.373 -19.673  1.00  0.00     0.010 C 
HETATM    8  C17 UNL     1      -0.252  49.382 -18.334  1.00  0.00     0.010 C 
HETATM    9  C18 UNL     1      -0.991  50.125 -17.194  1.00  0.00     0.039 C 
HETATM   10  C19 UNL     1      -2.515  49.782 -17.095  1.00  0.00     0.123 C 
HETATM   11  C20 UNL     1      -3.161  50.873 -16.263  1.00  0.00     0.014 C 
HETATM   12  C21 UNL     1      -2.634  50.997 -15.040  1.00  0.00     0.014 C 
HETATM   13  C22 UNL     1      -1.569  49.958 -14.738  1.00  0.00     0.124 C 
HETATM   14  C23 UNL     1      -1.088  50.088 -13.295  1.00  0.00     0.078 C 
HETATM   15  C24 UNL     1      -0.291  51.382 -13.048  1.00  0.00     0.128 C 
HETATM   16  C31 UNL     1       0.196  52.074 -14.331  1.00  0.00     0.033 C 
HETATM   17  C32 UNL     1       0.653  51.105 -15.422  1.00  0.00     0.015 C 
HETATM   18  C33 UNL     1      -0.358  49.964 -15.743  1.00  0.00     0.001 C 
HETATM   19  C34 UNL     1       0.440  48.632 -15.615  1.00  0.00     0.019 C 
HETATM   20  O7  UNL     1      -2.272  48.705 -14.921  1.00  0.00    -0.223 OA
HETATM   21  O8  UNL     1      -2.650  48.538 -16.373  1.00  0.00    -0.224 OA
ENDROOT
BRANCH  15  22
HETATM   22  O1  UNL     1       0.809  51.023 -12.201  1.00  0.00    -0.353 OA
BRANCH  22  23
HETATM   23  C25 UNL     1       1.055  51.956 -11.141  1.00  0.00     0.292 C 
HETATM   24  O2  UNL     1       0.109  53.019 -11.167  1.00  0.00    -0.348 OA
HETATM   25  C26 UNL     1       0.322  53.976 -10.122  1.00  0.00     0.179 C 
HETATM   26  C28 UNL     1       1.716  54.619 -10.247  1.00  0.00     0.180 C 
HETATM   27  C29 UNL     1       2.786  53.525 -10.260  1.00  0.00     0.183 C 
HETATM   28  C30 UNL     1       2.478  52.502 -11.350  1.00  0.00     0.204 C 
BRANCH  25  29
HETATM   29  C27 UNL     1      -0.778  55.048 -10.194  1.00  0.00     0.198 C 
BRANCH  29  30
HETATM   30  O3  UNL     1      -0.775  55.907  -9.057  1.00  0.00    -0.398 OA
HETATM   31  H41 UNL     1       0.165  56.073  -8.821  1.00  0.00     0.209 HD
ENDBRANCH  29  30
ENDBRANCH  25  29
BRANCH  26  32
HETATM   32  O4  UNL     1       1.966  55.523  -9.165  1.00  0.00    -0.390 OA
HETATM   33  H43 UNL     1       2.940  55.665  -9.177  1.00  0.00     0.210 HD
ENDBRANCH  26  32
BRANCH  27  34
HETATM   34  O5  UNL     1       4.070  54.132 -10.477  1.00  0.00    -0.390 OA
HETATM   35  H45 UNL     1       4.663  53.390 -10.724  1.00  0.00     0.210 HD
ENDBRANCH  27  34
BRANCH  28  36
HETATM   36  O6  UNL     1       3.460  51.456 -11.287  1.00  0.00    -0.388 OA
HETATM   37  H47 UNL     1       3.176  50.796 -11.955  1.00  0.00     0.210 HD
ENDBRANCH  28  36
ENDBRANCH  22  23
ENDBRANCH  15  22
BRANCH   1  38
HETATM   38  C8  UNL     1      -3.301  48.037 -21.959  1.00  0.00     0.008 C 
HETATM   39  C9  UNL     1      -1.937  47.350 -22.073  1.00  0.00     0.014 C 
BRANCH  38  40
HETATM   40  C7  UNL     1      -3.700  48.769 -23.236  1.00  0.00    -0.026 C 
HETATM   41  C6  UNL     1      -3.237  48.577 -24.485  1.00  0.00    -0.026 C 
BRANCH  41  42
HETATM   42  C4  UNL     1      -3.662  49.331 -25.738  1.00  0.00     0.007 C 
HETATM   43  C5  UNL     1      -3.754  48.459 -26.998  1.00  0.00     0.014 C 
BRANCH  42  44
HETATM   44  C2  UNL     1      -2.801  50.614 -25.929  1.00  0.00    -0.015 C 
HETATM   45  C1  UNL     1      -2.248  50.776 -27.351  1.00  0.00     0.010 C 
HETATM   46  C3  UNL     1      -3.559  51.884 -25.527  1.00  0.00     0.010 C 
ENDBRANCH  42  44
ENDBRANCH  41  42
ENDBRANCH  38  40
ENDBRANCH   1  38
TORSDOF 11
ENDMDL
MODEL 6
REMARK minimizedAffinity -10.0713797
REMARK CNNscore 0.254093289
REMARK CNNaffinity 6.99922895
REMARK  11 active torsions:
REMARK  status: ('A' for Active; 'I' for Inactive)
REMARK    1  A    between atoms: C2_2  and  C4_4 
REMARK    2  A    between atoms: C4_4  and  C6_6 
REMARK    3  A    between atoms: C7_7  and  C8_8 
REMARK    4  A    between atoms: C8_8  and  C10_10 
REMARK    5  A    between atoms: C24_24  and  O1_25 
REMARK    6  A    between atoms: O1_25  and  C25_26 
REMARK    7  A    between atoms: C26_28  and  C27_29 
REMARK    8  A    between atoms: C27_29  and  O3_30 
REMARK    9  A    between atoms: C28_31  and  O4_32 
REMARK   10  A    between atoms: C29_33  and  O5_34 
REMARK   11  A    between atoms: C30_35  and  O6_36 
ROOT
HETATM    1  C10 UNL     1      -1.578  50.337 -23.951  1.00  0.00     0.001 C 
HETATM    2  C11 UNL     1      -1.075  51.805 -23.777  1.00  0.00     0.006 C 
HETATM    3  C12 UNL     1      -1.029  52.095 -22.273  1.00  0.00     0.009 C 
HETATM    4  C13 UNL     1      -1.289  50.739 -21.631  1.00  0.00     0.036 C 
HETATM    5  C14 UNL     1      -2.301  50.062 -22.589  1.00  0.00    -0.033 C 
HETATM    6  C15 UNL     1      -3.712  50.696 -22.596  1.00  0.00     0.016 C 
HETATM    7  C16 UNL     1      -2.381  48.588 -22.150  1.00  0.00     0.010 C 
HETATM    8  C17 UNL     1      -2.847  48.453 -20.688  1.00  0.00     0.010 C 
HETATM    9  C18 UNL     1      -1.989  49.252 -19.677  1.00  0.00     0.039 C 
HETATM   10  C19 UNL     1      -1.650  50.708 -20.141  1.00  0.00     0.123 C 
HETATM   11  C20 UNL     1      -0.486  51.184 -19.294  1.00  0.00     0.014 C 
HETATM   12  C21 UNL     1      -0.735  51.163 -17.981  1.00  0.00     0.014 C 
HETATM   13  C22 UNL     1      -2.157  50.749 -17.647  1.00  0.00     0.124 C 
HETATM   14  C23 UNL     1      -2.405  50.849 -16.143  1.00  0.00     0.078 C 
HETATM   15  C24 UNL     1      -1.616  49.801 -15.339  1.00  0.00     0.128 C 
HETATM   16  C31 UNL     1      -1.065  48.643 -16.187  1.00  0.00     0.033 C 
HETATM   17  C32 UNL     1      -2.011  48.184 -17.298  1.00  0.00     0.015 C 
HETATM   18  C33 UNL     1      -2.563  49.331 -18.196  1.00  0.00     0.001 C 
HETATM   19  C34 UNL     1      -4.114  49.183 -18.179  1.00  0.00     0.019 C 
HETATM   20  O7  UNL     1      -2.958  51.728 -18.354  1.00  0.00    -0.223 OA
HETATM   21  O8  UNL     1      -2.787  51.550 -19.842  1.00  0.00    -0.224 OA
ENDROOT
BRANCH  15  22
HETATM   22  O1  UNL     1      -2.504  49.322 -14.319  1.00  0.00    -0.353 OA
BRANCH  22  23
HETATM   23  C25 UNL     1      -2.405  50.037 -13.081  1.00  0.00     0.292 C 
HETATM   24  O2  UNL     1      -3.203  51.216 -13.107  1.00  0.00    -0.348 OA
HETATM   25  C26 UNL     1      -3.130  51.961 -11.886  1.00  0.00     0.179 C 
HETATM   26  C28 UNL     1      -1.684  52.410 -11.606  1.00  0.00     0.180 C 
HETATM   27  C29 UNL     1      -0.760  51.190 -11.597  1.00  0.00     0.183 C 
HETATM   28  C30 UNL     1      -0.922  50.400 -12.894  1.00  0.00     0.204 C 
BRANCH  25  29
HETATM   29  C27 UNL     1      -4.065  53.177 -11.986  1.00  0.00     0.198 C 
BRANCH  29  30
HETATM   30  O3  UNL     1      -4.131  53.705 -13.309  1.00  0.00    -0.398 OA
HETATM   31  H41 UNL     1      -4.126  52.941 -13.927  1.00  0.00     0.209 HD
ENDBRANCH  29  30
ENDBRANCH  25  29
BRANCH  26  32
HETATM   32  O4  UNL     1      -1.589  53.093 -10.351  1.00  0.00    -0.390 OA
HETATM   33  H43 UNL     1      -0.628  53.094 -10.139  1.00  0.00     0.210 HD
ENDBRANCH  26  32
BRANCH  27  34
HETATM   34  O5  UNL     1       0.597  51.633 -11.435  1.00  0.00    -0.390 OA
HETATM   35  H45 UNL     1       1.147  50.861 -11.685  1.00  0.00     0.210 HD
ENDBRANCH  27  34
BRANCH  28  36
HETATM   36  O6  UNL     1      -0.096  49.227 -12.821  1.00  0.00    -0.388 OA
HETATM   37  H47 UNL     1      -0.291  48.725 -13.640  1.00  0.00     0.210 HD
ENDBRANCH  28  36
ENDBRANCH  22  23
ENDBRANCH  15  22
BRANCH   1  38
HETATM   38  C8  UNL     1      -2.345  50.132 -25.290  1.00  0.00     0.008 C 
HETATM   39  C9  UNL     1      -2.606  48.657 -25.607  1.00  0.00     0.014 C 
BRANCH  38  40
HETATM   40  C7  UNL     1      -1.630  50.860 -26.424  1.00  0.00    -0.026 C 
HETATM   41  C6  UNL     1      -0.307  51.042 -26.592  1.00  0.00    -0.026 C 
BRANCH  41  42
HETATM   42  C4  UNL     1       0.370  51.776 -27.742  1.00  0.00     0.007 C 
HETATM   43  C5  UNL     1       1.863  51.453 -27.905  1.00  0.00     0.014 C 
BRANCH  42  44
HETATM   44  C2  UNL     1       0.065  53.301 -27.678  1.00  0.00    -0.015 C 
HETATM   45  C1  UNL     1      -1.311  53.677 -28.243  1.00  0.00     0.010 C 
HETATM   46  C3  UNL     1       0.205  53.860 -26.258  1.00  0.00     0.010 C 
ENDBRANCH  42  44
ENDBRANCH  41  42
ENDBRANCH  38  40
ENDBRANCH   1  38
TORSDOF 11
ENDMDL
MODEL 7
REMARK minimizedAffinity -9.44776726
REMARK CNNscore 0.241725892
REMARK CNNaffinity 6.59040499
REMARK  11 active torsions:
REMARK  status: ('A' for Active; 'I' for Inactive)
REMARK    1  A    between atoms: C2_2  and  C4_4 
REMARK    2  A    between atoms: C4_4  and  C6_6 
REMARK    3  A    between atoms: C7_7  and  C8_8 
REMARK    4  A    between atoms: C8_8  and  C10_10 
REMARK    5  A    between atoms: C24_24  and  O1_25 
REMARK    6  A    between atoms: O1_25  and  C25_26 
REMARK    7  A    between atoms: C26_28  and  C27_29 
REMARK    8  A    between atoms: C27_29  and  O3_30 
REMARK    9  A    between atoms: C28_31  and  O4_32 
REMARK   10  A    between atoms: C29_33  and  O5_34 
REMARK   11  A    between atoms: C30_35  and  O6_36 
ROOT
HETATM    1  C10 UNL     1      -0.322  51.150 -23.433  1.00  0.00     0.001 C 
HETATM    2  C11 UNL     1       0.241  52.522 -22.945  1.00  0.00     0.006 C 
HETATM    3  C12 UNL     1       0.032  52.586 -21.428  1.00  0.00     0.009 C 
HETATM    4  C13 UNL     1      -0.433  51.183 -21.063  1.00  0.00     0.036 C 
HETATM    5  C14 UNL     1      -1.299  50.752 -22.275  1.00  0.00    -0.033 C 
HETATM    6  C15 UNL     1      -2.637  51.513 -22.419  1.00  0.00     0.016 C 
HETATM    7  C16 UNL     1      -1.559  49.244 -22.095  1.00  0.00     0.010 C 
HETATM    8  C17 UNL     1      -2.292  48.946 -20.774  1.00  0.00     0.010 C 
HETATM    9  C18 UNL     1      -1.578  49.503 -19.519  1.00  0.00     0.039 C 
HETATM   10  C19 UNL     1      -1.061  50.972 -19.681  1.00  0.00     0.123 C 
HETATM   11  C20 UNL     1      -0.041  51.206 -18.584  1.00  0.00     0.014 C 
HETATM   12  C21 UNL     1      -0.526  51.019 -17.352  1.00  0.00     0.014 C 
HETATM   13  C22 UNL     1      -2.010  50.701 -17.333  1.00  0.00     0.124 C 
HETATM   14  C23 UNL     1      -2.520  50.606 -15.897  1.00  0.00     0.078 C 
HETATM   15  C24 UNL     1      -1.965  49.382 -15.149  1.00  0.00     0.128 C 
HETATM   16  C31 UNL     1      -1.350  48.311 -16.064  1.00  0.00     0.033 C 
HETATM   17  C32 UNL     1      -2.108  48.111 -17.378  1.00  0.00     0.015 C 
HETATM   18  C33 UNL     1      -2.406  49.423 -18.162  1.00  0.00     0.001 C 
HETATM   19  C34 UNL     1      -3.941  49.425 -18.431  1.00  0.00     0.019 C 
HETATM   20  O7  UNL     1      -2.599  51.844 -18.001  1.00  0.00    -0.223 OA
HETATM   21  O8  UNL     1      -2.172  51.867 -19.448  1.00  0.00    -0.224 OA
ENDROOT
BRANCH  15  22
HETATM   22  O1  UNL     1      -3.054  48.849 -14.383  1.00  0.00    -0.353 OA
BRANCH  22  23
HETATM   23  C25 UNL     1      -3.142  49.375 -13.053  1.00  0.00     0.292 C 
HETATM   24  O2  UNL     1      -3.394  50.776 -13.074  1.00  0.00    -0.348 OA
HETATM   25  C26 UNL     1      -3.486  51.342 -11.761  1.00  0.00     0.179 C 
HETATM   26  C28 UNL     1      -2.172  51.138 -10.984  1.00  0.00     0.180 C 
HETATM   27  C29 UNL     1      -1.821  49.648 -10.951  1.00  0.00     0.183 C 
HETATM   28  C30 UNL     1      -1.795  49.084 -12.370  1.00  0.00     0.204 C 
BRANCH  25  29
HETATM   29  C27 UNL     1      -3.816  52.838 -11.883  1.00  0.00     0.198 C 
BRANCH  29  30
HETATM   30  O3  UNL     1      -4.560  53.324 -10.769  1.00  0.00    -0.398 OA
HETATM   31  H41 UNL     1      -4.199  52.887  -9.966  1.00  0.00     0.209 HD
ENDBRANCH  29  30
ENDBRANCH  25  29
BRANCH  26  32
HETATM   32  O4  UNL     1      -2.281  51.635  -9.646  1.00  0.00    -0.390 OA
HETATM   33  H43 UNL     1      -1.524  51.228  -9.165  1.00  0.00     0.210 HD
ENDBRANCH  26  32
BRANCH  27  34
HETATM   34  O5  UNL     1      -0.545  49.483 -10.312  1.00  0.00    -0.390 OA
HETATM   35  H45 UNL     1      -0.263  48.572 -10.540  1.00  0.00     0.210 HD
ENDBRANCH  27  34
BRANCH  28  36
HETATM   36  O6  UNL     1      -1.533  47.674 -12.296  1.00  0.00    -0.388 OA
HETATM   37  H47 UNL     1      -1.598  47.352 -13.220  1.00  0.00     0.210 HD
ENDBRANCH  28  36
ENDBRANCH  22  23
ENDBRANCH  15  22
BRANCH   1  38
HETATM   38  C8  UNL     1      -0.845  51.215 -24.897  1.00  0.00     0.008 C 
HETATM   39  C9  UNL     1      -1.078  52.649 -25.383  1.00  0.00     0.014 C 
BRANCH  38  40
HETATM   40  C7  UNL     1      -2.079  50.333 -25.056  1.00  0.00    -0.026 C 
HETATM   41  C6  UNL     1      -2.286  49.343 -25.944  1.00  0.00    -0.026 C 
BRANCH  41  42
HETATM   42  C4  UNL     1      -3.536  48.482 -26.070  1.00  0.00     0.007 C 
HETATM   43  C5  UNL     1      -4.154  48.468 -27.476  1.00  0.00     0.014 C 
BRANCH  42  44
HETATM   44  C2  UNL     1      -4.556  48.821 -24.944  1.00  0.00    -0.015 C 
HETATM   45  C1  UNL     1      -4.815  50.325 -24.782  1.00  0.00     0.010 C 
HETATM   46  C3  UNL     1      -5.890  48.091 -25.133  1.00  0.00     0.010 C 
ENDBRANCH  42  44
ENDBRANCH  41  42
ENDBRANCH  38  40
ENDBRANCH   1  38
TORSDOF 11
ENDMDL
MODEL 8
REMARK minimizedAffinity -9.82674408
REMARK CNNscore 0.231690794
REMARK CNNaffinity 6.70928192
REMARK  11 active torsions:
REMARK  status: ('A' for Active; 'I' for Inactive)
REMARK    1  A    between atoms: C2_2  and  C4_4 
REMARK    2  A    between atoms: C4_4  and  C6_6 
REMARK    3  A    between atoms: C7_7  and  C8_8 
REMARK    4  A    between atoms: C8_8  and  C10_10 
REMARK    5  A    between atoms: C24_24  and  O1_25 
REMARK    6  A    between atoms: O1_25  and  C25_26 
REMARK    7  A    between atoms: C26_28  and  C27_29 
REMARK    8  A    between atoms: C27_29  and  O3_30 
REMARK    9  A    between atoms: C28_31  and  O4_32 
REMARK   10  A    between atoms: C29_33  and  O5_34 
REMARK   11  A    between atoms: C30_35  and  O6_36 
ROOT
HETATM    1  C10 UNL     1      -0.134  51.278 -19.549  1.00  0.00     0.001 C 
HETATM    2  C11 UNL     1      -0.514  50.127 -18.566  1.00  0.00     0.006 C 
HETATM    3  C12 UNL     1      -1.633  49.315 -19.226  1.00  0.00     0.009 C 
HETATM    4  C13 UNL     1      -1.708  49.878 -20.639  1.00  0.00     0.036 C 
HETATM    5  C14 UNL     1      -1.408  51.387 -20.454  1.00  0.00    -0.033 C 
HETATM    6  C15 UNL     1      -2.514  52.184 -19.725  1.00  0.00     0.016 C 
HETATM    7  C16 UNL     1      -1.187  51.953 -21.869  1.00  0.00     0.010 C 
HETATM    8  C17 UNL     1      -2.426  51.754 -22.762  1.00  0.00     0.010 C 
HETATM    9  C18 UNL     1      -2.904  50.285 -22.858  1.00  0.00     0.039 C 
HETATM   10  C19 UNL     1      -2.942  49.538 -21.483  1.00  0.00     0.123 C 
HETATM   11  C20 UNL     1      -2.996  48.053 -21.786  1.00  0.00     0.014 C 
HETATM   12  C21 UNL     1      -4.044  47.697 -22.536  1.00  0.00     0.014 C 
HETATM   13  C22 UNL     1      -4.985  48.848 -22.837  1.00  0.00     0.124 C 
HETATM   14  C23 UNL     1      -6.210  48.353 -23.602  1.00  0.00     0.078 C 
HETATM   15  C24 UNL     1      -5.873  47.892 -25.031  1.00  0.00     0.128 C 
HETATM   16  C31 UNL     1      -4.502  48.369 -25.538  1.00  0.00     0.033 C 
HETATM   17  C32 UNL     1      -4.141  49.789 -25.100  1.00  0.00     0.015 C 
HETATM   18  C33 UNL     1      -4.306  50.061 -23.576  1.00  0.00     0.001 C 
HETATM   19  C34 UNL     1      -5.213  51.323 -23.459  1.00  0.00     0.019 C 
HETATM   20  O7  UNL     1      -5.370  49.310 -21.519  1.00  0.00    -0.223 OA
HETATM   21  O8  UNL     1      -4.172  49.895 -20.812  1.00  0.00    -0.224 OA
ENDROOT
BRANCH  15  22
HETATM   22  O1  UNL     1      -6.933  48.369 -25.871  1.00  0.00    -0.353 OA
BRANCH  22  23
HETATM   23  C25 UNL     1      -8.199  47.746 -25.618  1.00  0.00     0.292 C 
HETATM   24  O2  UNL     1      -8.263  46.457 -26.219  1.00  0.00    -0.348 OA
HETATM   25  C26 UNL     1      -9.516  45.801 -25.991  1.00  0.00     0.179 C 
HETATM   26  C28 UNL     1     -10.678  46.624 -26.577  1.00  0.00     0.180 C 
HETATM   27  C29 UNL     1     -10.650  48.040 -25.997  1.00  0.00     0.183 C 
HETATM   28  C30 UNL     1      -9.276  48.668 -26.215  1.00  0.00     0.204 C 
BRANCH  25  29
HETATM   29  C27 UNL     1      -9.470  44.401 -26.624  1.00  0.00     0.198 C 
BRANCH  29  30
HETATM   30  O3  UNL     1     -10.261  44.313 -27.807  1.00  0.00    -0.398 OA
HETATM   31  H41 UNL     1     -10.150  45.159 -28.294  1.00  0.00     0.209 HD
ENDBRANCH  29  30
ENDBRANCH  25  29
BRANCH  26  32
HETATM   32  O4  UNL     1     -11.941  46.013 -26.289  1.00  0.00    -0.390 OA
HETATM   33  H43 UNL     1     -12.605  46.721 -26.453  1.00  0.00     0.210 HD
ENDBRANCH  26  32
BRANCH  27  34
HETATM   34  O5  UNL     1     -11.676  48.824 -26.626  1.00  0.00    -0.390 OA
HETATM   35  H45 UNL     1     -11.452  49.754 -26.411  1.00  0.00     0.210 HD
ENDBRANCH  27  34
BRANCH  28  36
HETATM   36  O6  UNL     1      -9.263  49.965 -25.596  1.00  0.00    -0.388 OA
HETATM   37  H47 UNL     1      -8.344  50.291 -25.703  1.00  0.00     0.210 HD
ENDBRANCH  28  36
ENDBRANCH  22  23
ENDBRANCH  15  22
BRANCH   1  38
HETATM   38  C8  UNL     1       0.395  52.538 -18.804  1.00  0.00     0.008 C 
HETATM   39  C9  UNL     1       1.131  53.512 -19.729  1.00  0.00     0.014 C 
BRANCH  38  40
HETATM   40  C7  UNL     1       1.235  52.124 -17.600  1.00  0.00    -0.026 C 
HETATM   41  C6  UNL     1       2.179  52.836 -16.958  1.00  0.00    -0.026 C 
BRANCH  41  42
HETATM   42  C4  UNL     1       2.997  52.386 -15.756  1.00  0.00     0.007 C 
HETATM   43  C5  UNL     1       4.458  52.041 -16.079  1.00  0.00     0.014 C 
BRANCH  42  44
HETATM   44  C2  UNL     1       2.252  51.268 -14.969  1.00  0.00    -0.015 C 
HETATM   45  C1  UNL     1       3.160  50.482 -14.013  1.00  0.00     0.010 C 
HETATM   46  C3  UNL     1       1.045  51.810 -14.197  1.00  0.00     0.010 C 
ENDBRANCH  42  44
ENDBRANCH  41  42
ENDBRANCH  38  40
ENDBRANCH   1  38
TORSDOF 11
ENDMDL
MODEL 9
REMARK minimizedAffinity -8.22890949
REMARK CNNscore 0.228596151
REMARK CNNaffinity 6.21418619
REMARK  11 active torsions:
REMARK  status: ('A' for Active; 'I' for Inactive)
REMARK    1  A    between atoms: C2_2  and  C4_4 
REMARK    2  A    between atoms: C4_4  and  C6_6 
REMARK    3  A    between atoms: C7_7  and  C8_8 
REMARK    4  A    between atoms: C8_8  and  C10_10 
REMARK    5  A    between atoms: C24_24  and  O1_25 
REMARK    6  A    between atoms: O1_25  and  C25_26 
REMARK    7  A    between atoms: C26_28  and  C27_29 
REMARK    8  A    between atoms: C27_29  and  O3_30 
REMARK    9  A    between atoms: C28_31  and  O4_32 
REMARK   10  A    between atoms: C29_33  and  O5_34 
REMARK   11  A    between atoms: C30_35  and  O6_36 
ROOT
HETATM    1  C10 UNL     1      -0.843  50.646 -21.312  1.00  0.00     0.001 C 
HETATM    2  C11 UNL     1      -0.595  49.482 -20.300  1.00  0.00     0.006 C 
HETATM    3  C12 UNL     1      -1.832  48.579 -20.334  1.00  0.00     0.009 C 
HETATM    4  C13 UNL     1      -2.645  49.115 -21.504  1.00  0.00     0.036 C 
HETATM    5  C14 UNL     1      -2.403  50.645 -21.455  1.00  0.00    -0.033 C 
HETATM    6  C15 UNL     1      -3.050  51.366 -20.250  1.00  0.00     0.016 C 
HETATM    7  C16 UNL     1      -2.962  51.207 -22.776  1.00  0.00     0.010 C 
HETATM    8  C17 UNL     1      -4.464  50.902 -22.934  1.00  0.00     0.010 C 
HETATM    9  C18 UNL     1      -4.818  49.400 -22.816  1.00  0.00     0.039 C 
HETATM   10  C19 UNL     1      -4.108  48.671 -21.626  1.00  0.00     0.123 C 
HETATM   11  C20 UNL     1      -4.198  47.182 -21.901  1.00  0.00     0.014 C 
HETATM   12  C21 UNL     1      -5.451  46.737 -22.035  1.00  0.00     0.014 C 
HETATM   13  C22 UNL     1      -6.498  47.810 -21.794  1.00  0.00     0.124 C 
HETATM   14  C23 UNL     1      -7.902  47.213 -21.857  1.00  0.00     0.078 C 
HETATM   15  C24 UNL     1      -8.292  46.759 -23.274  1.00  0.00     0.128 C 
HETATM   16  C31 UNL     1      -7.399  47.332 -24.386  1.00  0.00     0.033 C 
HETATM   17  C32 UNL     1      -6.971  48.781 -24.151  1.00  0.00     0.015 C 
HETATM   18  C33 UNL     1      -6.370  49.061 -22.742  1.00  0.00     0.001 C 
HETATM   19  C34 UNL     1      -7.185  50.252 -22.154  1.00  0.00     0.019 C 
HETATM   20  O7  UNL     1      -6.203  48.259 -20.449  1.00  0.00    -0.223 OA
HETATM   21  O8  UNL     1      -4.858  48.943 -20.421  1.00  0.00    -0.224 OA
ENDROOT
BRANCH  15  22
HETATM   22  O1  UNL     1      -9.662  47.142 -23.458  1.00  0.00    -0.353 OA
BRANCH  22  23
HETATM   23  C25 UNL     1     -10.270  46.580 -24.628  1.00  0.00     0.292 C 
HETATM   24  O2  UNL     1     -10.990  47.569 -25.355  1.00  0.00    -0.348 OA
HETATM   25  C26 UNL     1     -11.615  47.045 -26.533  1.00  0.00     0.179 C 
HETATM   26  C28 UNL     1     -12.624  45.940 -26.170  1.00  0.00     0.180 C 
HETATM   27  C29 UNL     1     -11.922  44.853 -25.353  1.00  0.00     0.183 C 
HETATM   28  C30 UNL     1     -11.224  45.473 -24.145  1.00  0.00     0.204 C 
BRANCH  25  29
HETATM   29  C27 UNL     1     -12.315  48.193 -27.280  1.00  0.00     0.198 C 
BRANCH  29  30
HETATM   30  O3  UNL     1     -11.742  48.436 -28.562  1.00  0.00    -0.398 OA
HETATM   31  H41 UNL     1     -11.515  47.562 -28.950  1.00  0.00     0.209 HD
ENDBRANCH  29  30
ENDBRANCH  25  29
BRANCH  26  32
HETATM   32  O4  UNL     1     -13.200  45.360 -27.345  1.00  0.00    -0.390 OA
HETATM   33  H43 UNL     1     -13.602  44.516 -27.037  1.00  0.00     0.210 HD
ENDBRANCH  26  32
BRANCH  27  34
HETATM   34  O5  UNL     1     -12.895  43.881 -24.936  1.00  0.00    -0.390 OA
HETATM   35  H45 UNL     1     -12.452  43.366 -24.228  1.00  0.00     0.210 HD
ENDBRANCH  27  34
BRANCH  28  36
HETATM   36  O6  UNL     1     -10.519  44.437 -23.443  1.00  0.00    -0.388 OA
HETATM   37  H47 UNL     1     -10.034  44.897 -22.725  1.00  0.00     0.210 HD
ENDBRANCH  28  36
ENDBRANCH  22  23
ENDBRANCH  15  22
BRANCH   1  38
HETATM   38  C8  UNL     1      -0.105  51.952 -20.899  1.00  0.00     0.008 C 
HETATM   39  C9  UNL     1       0.876  52.445 -21.967  1.00  0.00     0.014 C 
BRANCH  38  40
HETATM   40  C7  UNL     1       0.553  51.777 -19.533  1.00  0.00    -0.026 C 
HETATM   41  C6  UNL     1       0.275  52.424 -18.387  1.00  0.00    -0.026 C 
BRANCH  41  42
HETATM   42  C4  UNL     1       0.955  52.220 -17.040  1.00  0.00     0.007 C 
HETATM   43  C5  UNL     1       2.418  52.686 -16.994  1.00  0.00     0.014 C 
BRANCH  42  44
HETATM   44  C2  UNL     1       0.750  50.761 -16.534  1.00  0.00    -0.015 C 
HETATM   45  C1  UNL     1       1.328  50.510 -15.135  1.00  0.00     0.010 C 
HETATM   46  C3  UNL     1      -0.723  50.342 -16.561  1.00  0.00     0.010 C 
ENDBRANCH  42  44
ENDBRANCH  41  42
ENDBRANCH  38  40
ENDBRANCH   1  38
TORSDOF 11
ENDMDL
