MODEL 1
REMARK minimizedAffinity -10.2948761
REMARK CNNscore 0.513668597
REMARK CNNaffinity 6.44732141
REMARK  5 active torsions:
REMARK  status: ('A' for Active; 'I' for Inactive)
REMARK    1  A    between atoms: C5_5  and  C6_6 
REMARK    2  A    between atoms: C6_6  and  C7_8 
REMARK    3  A    between atoms: C7_8  and  O2_9 
REMARK    4  A    between atoms: O2_9  and  C8_10 
REMARK    5  A    between atoms: C14_17  and  C15_18 
ROOT
HETATM    1  C8  UNL     1      -1.955   4.695  12.844  1.00  0.00     0.093 A 
HETATM    2  C9  UNL     1      -2.552   3.627  12.175  1.00  0.00     0.076 A 
HETATM    3  C10 UNL     1      -3.941   3.477  12.227  1.00  0.00     0.093 A 
HETATM    4  C11 UNL     1      -4.762   4.365  12.920  1.00  0.00     0.011 A 
HETATM    5  C12 UNL     1      -4.159   5.440  13.580  1.00  0.00     0.042 A 
HETATM    6  C13 UNL     1      -2.769   5.605  13.537  1.00  0.00     0.068 A 
HETATM    7 CL1  UNL     1      -2.082   6.946  14.388  1.00  0.00    -0.081 Cl
HETATM    8  C14 UNL     1      -6.215   4.142  12.928  1.00  0.00    -0.007 A 
HETATM    9  C21 UNL     1      -6.694   3.081  12.259  1.00  0.00     0.095 A 
HETATM   10  C22 UNL     1      -5.843   2.136  11.522  1.00  0.00     0.289 A 
HETATM   11  O3  UNL     1      -6.333   1.182  10.930  1.00  0.00    -0.260 OA
HETATM   12  O4  UNL     1      -4.479   2.377  11.534  1.00  0.00    -0.275 OA
ENDROOT
BRANCH   1  13
HETATM   13  O2  UNL     1      -0.608   4.940  12.832  1.00  0.00    -0.342 OA
BRANCH  13  14
HETATM   14  C7  UNL     1      -0.185   6.120  12.163  1.00  0.00     0.254 C 
BRANCH  14  15
HETATM   15  C6  UNL     1       0.940   5.799  11.184  1.00  0.00     0.155 C 
HETATM   16  O1  UNL     1       1.356   4.643  11.075  1.00  0.00    -0.295 OA
BRANCH  15  17
HETATM   17  C5  UNL     1       1.593   6.968  10.438  1.00  0.00     0.062 C 
HETATM   18  C4  UNL     1       1.810   6.561   8.975  1.00  0.00     0.049 C 
HETATM   19  C2  UNL     1       1.945   7.766   8.028  1.00  0.00     0.054 C 
HETATM   20  C1  UNL     1       1.902   7.283   6.573  1.00  0.00     0.045 C 
HETATM   21  C3  UNL     1       3.267   8.509   8.261  1.00  0.00     0.045 C 
HETATM   22  O5  UNL     1       0.884   8.720   8.172  1.00  0.00    -0.381 OA
HETATM   23  C24 UNL     1      -0.004   8.518   9.270  1.00  0.00     0.169 C 
HETATM   24  C23 UNL     1       0.764   8.256  10.553  1.00  0.00     0.038 C 
ENDBRANCH  15  17
ENDBRANCH  14  15
ENDBRANCH  13  14
ENDBRANCH   1  13
BRANCH   8  25
HETATM   25  C15 UNL     1      -7.213   4.988  13.610  1.00  0.00    -0.025 A 
HETATM   26  C16 UNL     1      -8.237   5.599  12.876  1.00  0.00     0.012 A 
HETATM   27  C17 UNL     1      -9.179   6.403  13.521  1.00  0.00     0.001 A 
HETATM   28  C18 UNL     1      -9.101   6.599  14.901  1.00  0.00     0.000 A 
HETATM   29  C19 UNL     1      -8.084   5.992  15.637  1.00  0.00     0.001 A 
HETATM   30  C20 UNL     1      -7.140   5.188  14.994  1.00  0.00     0.012 A 
ENDBRANCH   8  25
TORSDOF 5
ENDMDL
MODEL 2
REMARK minimizedAffinity -9.31923199
REMARK CNNscore 0.49321425
REMARK CNNaffinity 6.16226006
REMARK  5 active torsions:
REMARK  status: ('A' for Active; 'I' for Inactive)
REMARK    1  A    between atoms: C5_5  and  C6_6 
REMARK    2  A    between atoms: C6_6  and  C7_8 
REMARK    3  A    between atoms: C7_8  and  O2_9 
REMARK    4  A    between atoms: O2_9  and  C8_10 
REMARK    5  A    between atoms: C14_17  and  C15_18 
ROOT
HETATM    1  C8  UNL     1      -3.150   6.076  12.923  1.00  0.00     0.093 A 
HETATM    2  C9  UNL     1      -3.622   4.806  12.595  1.00  0.00     0.076 A 
HETATM    3  C10 UNL     1      -4.976   4.511  12.771  1.00  0.00     0.093 A 
HETATM    4  C11 UNL     1      -5.887   5.447  13.260  1.00  0.00     0.011 A 
HETATM    5  C12 UNL     1      -5.410   6.723  13.578  1.00  0.00     0.042 A 
HETATM    6  C13 UNL     1      -4.056   7.035  13.406  1.00  0.00     0.068 A 
HETATM    7 CL1  UNL     1      -3.527   8.626  13.833  1.00  0.00    -0.081 Cl
HETATM    8  C14 UNL     1      -7.297   5.063  13.417  1.00  0.00    -0.007 A 
HETATM    9  C21 UNL     1      -7.652   3.813  13.080  1.00  0.00     0.095 A 
HETATM   10  C22 UNL     1      -6.706   2.814  12.562  1.00  0.00     0.289 A 
HETATM   11  O3  UNL     1      -7.083   1.686  12.271  1.00  0.00    -0.260 OA
HETATM   12  O4  UNL     1      -5.386   3.210  12.425  1.00  0.00    -0.275 OA
ENDROOT
BRANCH   1  13
HETATM   13  O2  UNL     1      -1.848   6.467  12.763  1.00  0.00    -0.342 OA
BRANCH  13  14
HETATM   14  C7  UNL     1      -0.857   5.474  12.983  1.00  0.00     0.254 C 
BRANCH  14  15
HETATM   15  C6  UNL     1      -0.072   5.215  11.700  1.00  0.00     0.155 C 
HETATM   16  O1  UNL     1      -0.583   4.568  10.782  1.00  0.00    -0.295 OA
BRANCH  15  17
HETATM   17  C5  UNL     1       1.385   5.686  11.647  1.00  0.00     0.062 C 
HETATM   18  C4  UNL     1       1.716   6.104  10.207  1.00  0.00     0.049 C 
HETATM   19  C2  UNL     1       2.913   7.067  10.120  1.00  0.00     0.054 C 
HETATM   20  C1  UNL     1       3.015   7.630   8.698  1.00  0.00     0.045 C 
HETATM   21  C3  UNL     1       4.226   6.351  10.462  1.00  0.00     0.045 C 
HETATM   22  O5  UNL     1       2.796   8.195  10.998  1.00  0.00    -0.381 OA
HETATM   23  C24 UNL     1       1.721   8.160  11.934  1.00  0.00     0.169 C 
HETATM   24  C23 UNL     1       1.658   6.821  12.646  1.00  0.00     0.038 C 
ENDBRANCH  15  17
ENDBRANCH  14  15
ENDBRANCH  13  14
ENDBRANCH   1  13
BRANCH   8  25
HETATM   25  C15 UNL     1      -8.376   5.935  13.917  1.00  0.00    -0.025 A 
HETATM   26  C16 UNL     1      -8.318   6.454  15.216  1.00  0.00     0.012 A 
HETATM   27  C17 UNL     1      -9.342   7.276  15.690  1.00  0.00     0.001 A 
HETATM   28  C18 UNL     1     -10.427   7.583  14.868  1.00  0.00     0.000 A 
HETATM   29  C19 UNL     1     -10.490   7.071  13.573  1.00  0.00     0.001 A 
HETATM   30  C20 UNL     1      -9.468   6.248  13.097  1.00  0.00     0.012 A 
ENDBRANCH   8  25
TORSDOF 5
ENDMDL
MODEL 3
REMARK minimizedAffinity -9.73932362
REMARK CNNscore 0.487723053
REMARK CNNaffinity 6.48377037
REMARK  5 active torsions:
REMARK  status: ('A' for Active; 'I' for Inactive)
REMARK    1  A    between atoms: C5_5  and  C6_6 
REMARK    2  A    between atoms: C6_6  and  C7_8 
REMARK    3  A    between atoms: C7_8  and  O2_9 
REMARK    4  A    between atoms: O2_9  and  C8_10 
REMARK    5  A    between atoms: C14_17  and  C15_18 
ROOT
HETATM    1  C8  UNL     1       0.003   5.920  12.267  1.00  0.00     0.093 A 
HETATM    2  C9  UNL     1       0.383   4.676  11.766  1.00  0.00     0.076 A 
HETATM    3  C10 UNL     1      -0.584   3.679  11.604  1.00  0.00     0.093 A 
HETATM    4  C11 UNL     1      -1.927   3.883  11.917  1.00  0.00     0.011 A 
HETATM    5  C12 UNL     1      -2.304   5.138  12.409  1.00  0.00     0.042 A 
HETATM    6  C13 UNL     1      -1.348   6.147  12.577  1.00  0.00     0.068 A 
HETATM    7 CL1  UNL     1      -1.875   7.671  13.204  1.00  0.00    -0.081 Cl
HETATM    8  C14 UNL     1      -2.885   2.787  11.718  1.00  0.00    -0.007 A 
HETATM    9  C21 UNL     1      -2.422   1.623  11.237  1.00  0.00     0.095 A 
HETATM   10  C22 UNL     1      -1.009   1.391  10.900  1.00  0.00     0.289 A 
HETATM   11  O3  UNL     1      -0.639   0.307  10.467  1.00  0.00    -0.260 OA
HETATM   12  O4  UNL     1      -0.134   2.445  11.099  1.00  0.00    -0.275 OA
ENDROOT
BRANCH   1  13
HETATM   13  O2  UNL     1       0.870   6.966  12.438  1.00  0.00    -0.342 OA
BRANCH  13  14
HETATM   14  C7  UNL     1       0.660   8.104  11.615  1.00  0.00     0.254 C 
BRANCH  14  15
HETATM   15  C6  UNL     1       1.131   7.824  10.191  1.00  0.00     0.155 C 
HETATM   16  O1  UNL     1       0.319   7.478   9.328  1.00  0.00    -0.295 OA
BRANCH  15  17
HETATM   17  C5  UNL     1       2.636   7.881   9.912  1.00  0.00     0.062 C 
HETATM   18  C4  UNL     1       3.383   7.974  11.249  1.00  0.00     0.049 C 
HETATM   19  C2  UNL     1       4.846   7.508  11.155  1.00  0.00     0.054 C 
HETATM   20  C1  UNL     1       5.438   7.391  12.565  1.00  0.00     0.045 C 
HETATM   21  C3  UNL     1       5.693   8.498  10.346  1.00  0.00     0.045 C 
HETATM   22  O5  UNL     1       4.990   6.218  10.544  1.00  0.00    -0.381 OA
HETATM   23  C24 UNL     1       3.816   5.663   9.955  1.00  0.00     0.169 C 
HETATM   24  C23 UNL     1       3.110   6.681   9.078  1.00  0.00     0.038 C 
ENDBRANCH  15  17
ENDBRANCH  14  15
ENDBRANCH  13  14
ENDBRANCH   1  13
BRANCH   8  25
HETATM   25  C15 UNL     1      -4.332   2.847  11.999  1.00  0.00    -0.025 A 
HETATM   26  C16 UNL     1      -5.192   1.875  11.473  1.00  0.00     0.012 A 
HETATM   27  C17 UNL     1      -6.562   1.934  11.736  1.00  0.00     0.001 A 
HETATM   28  C18 UNL     1      -7.078   2.963  12.524  1.00  0.00     0.000 A 
HETATM   29  C19 UNL     1      -6.226   3.933  13.052  1.00  0.00     0.001 A 
HETATM   30  C20 UNL     1      -4.856   3.877  12.791  1.00  0.00     0.012 A 
ENDBRANCH   8  25
TORSDOF 5
ENDMDL
MODEL 4
REMARK minimizedAffinity -7.12969685
REMARK CNNscore 0.446503431
REMARK CNNaffinity 5.97221422
REMARK  5 active torsions:
REMARK  status: ('A' for Active; 'I' for Inactive)
REMARK    1  A    between atoms: C5_5  and  C6_6 
REMARK    2  A    between atoms: C6_6  and  C7_8 
REMARK    3  A    between atoms: C7_8  and  O2_9 
REMARK    4  A    between atoms: O2_9  and  C8_10 
REMARK    5  A    between atoms: C14_17  and  C15_18 
ROOT
HETATM    1  C8  UNL     1     -12.688 -11.003  27.258  1.00  0.00     0.093 A 
HETATM    2  C9  UNL     1     -12.189 -10.314  28.363  1.00  0.00     0.076 A 
HETATM    3  C10 UNL     1     -12.687  -9.042  28.658  1.00  0.00     0.093 A 
HETATM    4  C11 UNL     1     -13.677  -8.431  27.890  1.00  0.00     0.011 A 
HETATM    5  C12 UNL     1     -14.181  -9.131  26.789  1.00  0.00     0.042 A 
HETATM    6  C13 UNL     1     -13.694 -10.407  26.480  1.00  0.00     0.068 A 
HETATM    7 CL1  UNL     1     -14.347 -11.214  25.096  1.00  0.00    -0.081 Cl
HETATM    8  C14 UNL     1     -14.151  -7.091  28.264  1.00  0.00    -0.007 A 
HETATM    9  C21 UNL     1     -13.605  -6.506  29.341  1.00  0.00     0.095 A 
HETATM   10  C22 UNL     1     -12.561  -7.136  30.163  1.00  0.00     0.289 A 
HETATM   11  O3  UNL     1     -12.094  -6.556  31.135  1.00  0.00    -0.260 OA
HETATM   12  O4  UNL     1     -12.138  -8.399  29.783  1.00  0.00    -0.275 OA
ENDROOT
BRANCH   1  13
HETATM   13  O2  UNL     1     -12.282 -12.261  26.902  1.00  0.00    -0.342 OA
BRANCH  13  14
HETATM   14  C7  UNL     1     -10.893 -12.536  27.020  1.00  0.00     0.254 C 
BRANCH  14  15
HETATM   15  C6  UNL     1     -10.423 -13.399  25.853  1.00  0.00     0.155 C 
HETATM   16  O1  UNL     1     -10.215 -14.604  26.018  1.00  0.00    -0.295 OA
BRANCH  15  17
HETATM   17  C5  UNL     1     -10.119 -12.700  24.524  1.00  0.00     0.062 C 
HETATM   18  C4  UNL     1      -8.793 -11.938  24.658  1.00  0.00     0.049 C 
HETATM   19  C2  UNL     1      -8.121 -11.655  23.304  1.00  0.00     0.054 C 
HETATM   20  C1  UNL     1      -6.700 -11.127  23.537  1.00  0.00     0.045 C 
HETATM   21  C3  UNL     1      -8.908 -10.612  22.501  1.00  0.00     0.045 C 
HETATM   22  O5  UNL     1      -7.991 -12.824  22.482  1.00  0.00    -0.381 OA
HETATM   23  C24 UNL     1      -8.659 -13.997  22.942  1.00  0.00     0.169 C 
HETATM   24  C23 UNL     1     -10.089 -13.690  23.349  1.00  0.00     0.038 C 
ENDBRANCH  15  17
ENDBRANCH  14  15
ENDBRANCH  13  14
ENDBRANCH   1  13
BRANCH   8  25
HETATM   25  C15 UNL     1     -15.189  -6.316  27.558  1.00  0.00    -0.025 A 
HETATM   26  C16 UNL     1     -16.289  -6.968  26.988  1.00  0.00     0.012 A 
HETATM   27  C17 UNL     1     -17.269  -6.235  26.316  1.00  0.00     0.001 A 
HETATM   28  C18 UNL     1     -17.154  -4.848  26.211  1.00  0.00     0.000 A 
HETATM   29  C19 UNL     1     -16.062  -4.193  26.778  1.00  0.00     0.001 A 
HETATM   30  C20 UNL     1     -15.080  -4.924  27.450  1.00  0.00     0.012 A 
ENDBRANCH   8  25
TORSDOF 5
ENDMDL
MODEL 5
REMARK minimizedAffinity -6.72123528
REMARK CNNscore 0.406563699
REMARK CNNaffinity 5.35944223
REMARK  5 active torsions:
REMARK  status: ('A' for Active; 'I' for Inactive)
REMARK    1  A    between atoms: C5_5  and  C6_6 
REMARK    2  A    between atoms: C6_6  and  C7_8 
REMARK    3  A    between atoms: C7_8  and  O2_9 
REMARK    4  A    between atoms: O2_9  and  C8_10 
REMARK    5  A    between atoms: C14_17  and  C15_18 
ROOT
HETATM    1  C8  UNL     1     -12.746   9.145  23.255  1.00  0.00     0.093 A 
HETATM    2  C9  UNL     1     -13.617   8.629  22.297  1.00  0.00     0.076 A 
HETATM    3  C10 UNL     1     -13.932   7.267  22.320  1.00  0.00     0.093 A 
HETATM    4  C11 UNL     1     -13.413   6.397  23.277  1.00  0.00     0.011 A 
HETATM    5  C12 UNL     1     -12.548   6.922  24.243  1.00  0.00     0.042 A 
HETATM    6  C13 UNL     1     -12.223   8.284  24.234  1.00  0.00     0.068 A 
HETATM    7 CL1  UNL     1     -11.135   8.869  25.445  1.00  0.00    -0.081 Cl
HETATM    8  C14 UNL     1     -13.792   4.977  23.238  1.00  0.00    -0.007 A 
HETATM    9  C21 UNL     1     -14.632   4.575  22.272  1.00  0.00     0.095 A 
HETATM   10  C22 UNL     1     -15.190   5.479  21.255  1.00  0.00     0.289 A 
HETATM   11  O3  UNL     1     -15.951   5.058  20.393  1.00  0.00    -0.260 OA
HETATM   12  O4  UNL     1     -14.813   6.810  21.323  1.00  0.00    -0.275 OA
ENDROOT
BRANCH   1  13
HETATM   13  O2  UNL     1     -12.396  10.466  23.330  1.00  0.00    -0.342 OA
BRANCH  13  14
HETATM   14  C7  UNL     1     -11.061  10.789  22.970  1.00  0.00     0.254 C 
BRANCH  14  15
HETATM   15  C6  UNL     1     -10.513  11.879  23.887  1.00  0.00     0.155 C 
HETATM   16  O1  UNL     1     -11.183  12.279  24.842  1.00  0.00    -0.295 OA
BRANCH  15  17
HETATM   17  C5  UNL     1      -9.172  12.520  23.513  1.00  0.00     0.062 C 
HETATM   18  C4  UNL     1      -9.047  12.548  21.984  1.00  0.00     0.049 C 
HETATM   19  C2  UNL     1      -8.051  13.607  21.480  1.00  0.00     0.054 C 
HETATM   20  C1  UNL     1      -8.175  13.744  19.958  1.00  0.00     0.045 C 
HETATM   21  C3  UNL     1      -6.608  13.218  21.824  1.00  0.00     0.045 C 
HETATM   22  O5  UNL     1      -8.288  14.911  22.027  1.00  0.00    -0.381 OA
HETATM   23  C24 UNL     1      -9.255  14.993  23.073  1.00  0.00     0.169 C 
HETATM   24  C23 UNL     1      -9.018  13.922  24.122  1.00  0.00     0.038 C 
ENDBRANCH  15  17
ENDBRANCH  14  15
ENDBRANCH  13  14
ENDBRANCH   1  13
BRANCH   8  25
HETATM   25  C15 UNL     1     -13.331   3.937  24.176  1.00  0.00    -0.025 A 
HETATM   26  C16 UNL     1     -13.945   3.794  25.427  1.00  0.00     0.012 A 
HETATM   27  C17 UNL     1     -13.505   2.812  26.317  1.00  0.00     0.001 A 
HETATM   28  C18 UNL     1     -12.453   1.968  25.960  1.00  0.00     0.000 A 
HETATM   29  C19 UNL     1     -11.838   2.104  24.716  1.00  0.00     0.001 A 
HETATM   30  C20 UNL     1     -12.275   3.086  23.825  1.00  0.00     0.012 A 
ENDBRANCH   8  25
TORSDOF 5
ENDMDL
MODEL 6
REMARK minimizedAffinity -7.33067751
REMARK CNNscore 0.260549217
REMARK CNNaffinity 5.23006582
REMARK  5 active torsions:
REMARK  status: ('A' for Active; 'I' for Inactive)
REMARK    1  A    between atoms: C5_5  and  C6_6 
REMARK    2  A    between atoms: C6_6  and  C7_8 
REMARK    3  A    between atoms: C7_8  and  O2_9 
REMARK    4  A    between atoms: O2_9  and  C8_10 
REMARK    5  A    between atoms: C14_17  and  C15_18 
ROOT
HETATM    1  C8  UNL     1       1.138  11.773  19.123  1.00  0.00     0.093 A 
HETATM    2  C9  UNL     1       1.061  10.688  19.994  1.00  0.00     0.076 A 
HETATM    3  C10 UNL     1       2.007  10.560  21.015  1.00  0.00     0.093 A 
HETATM    4  C11 UNL     1       3.030  11.488  21.205  1.00  0.00     0.011 A 
HETATM    5  C12 UNL     1       3.095  12.582  20.335  1.00  0.00     0.042 A 
HETATM    6  C13 UNL     1       2.155  12.724  19.308  1.00  0.00     0.068 A 
HETATM    7 CL1  UNL     1       2.300  14.090  18.255  1.00  0.00    -0.081 Cl
HETATM    8  C14 UNL     1       3.987  11.287  22.302  1.00  0.00    -0.007 A 
HETATM    9  C21 UNL     1       3.834  10.207  23.083  1.00  0.00     0.095 A 
HETATM   10  C22 UNL     1       2.760   9.218  22.898  1.00  0.00     0.289 A 
HETATM   11  O3  UNL     1       2.668   8.248  23.639  1.00  0.00    -0.260 OA
HETATM   12  O4  UNL     1       1.876   9.440  21.856  1.00  0.00    -0.275 OA
ENDROOT
BRANCH   1  13
HETATM   13  O2  UNL     1       0.245  11.998  18.110  1.00  0.00    -0.342 OA
BRANCH  13  14
HETATM   14  C7  UNL     1       0.439  11.249  16.918  1.00  0.00     0.254 C 
BRANCH  14  15
HETATM   15  C6  UNL     1      -0.838  10.501  16.548  1.00  0.00     0.155 C 
HETATM   16  O1  UNL     1      -1.922  10.856  17.019  1.00  0.00    -0.295 OA
BRANCH  15  17
HETATM   17  C5  UNL     1      -0.706   9.249  15.675  1.00  0.00     0.062 C 
HETATM   18  C4  UNL     1      -1.748   8.218  16.130  1.00  0.00     0.049 C 
HETATM   19  C2  UNL     1      -2.082   7.181  15.043  1.00  0.00     0.054 C 
HETATM   20  C1  UNL     1      -3.299   6.356  15.479  1.00  0.00     0.045 C 
HETATM   21  C3  UNL     1      -0.903   6.229  14.803  1.00  0.00     0.045 C 
HETATM   22  O5  UNL     1      -2.422   7.773  13.782  1.00  0.00    -0.381 OA
HETATM   23  C24 UNL     1      -2.216   9.180  13.668  1.00  0.00     0.169 C 
HETATM   24  C23 UNL     1      -0.843   9.575  14.180  1.00  0.00     0.038 C 
ENDBRANCH  15  17
ENDBRANCH  14  15
ENDBRANCH  13  14
ENDBRANCH   1  13
BRANCH   8  25
HETATM   25  C15 UNL     1       5.117  12.176  22.633  1.00  0.00    -0.025 A 
HETATM   26  C16 UNL     1       6.400  11.646  22.815  1.00  0.00     0.012 A 
HETATM   27  C17 UNL     1       7.468  12.487  23.133  1.00  0.00     0.001 A 
HETATM   28  C18 UNL     1       7.259  13.860  23.269  1.00  0.00     0.000 A 
HETATM   29  C19 UNL     1       5.984  14.394  23.087  1.00  0.00     0.001 A 
HETATM   30  C20 UNL     1       4.914  13.555  22.770  1.00  0.00     0.012 A 
ENDBRANCH   8  25
TORSDOF 5
ENDMDL
MODEL 7
REMARK minimizedAffinity -7.17615318
REMARK CNNscore 0.248219803
REMARK CNNaffinity 5.18170929
REMARK  5 active torsions:
REMARK  status: ('A' for Active; 'I' for Inactive)
REMARK    1  A    between atoms: C5_5  and  C6_6 
REMARK    2  A    between atoms: C6_6  and  C7_8 
REMARK    3  A    between atoms: C7_8  and  O2_9 
REMARK    4  A    between atoms: O2_9  and  C8_10 
REMARK    5  A    between atoms: C14_17  and  C15_18 
ROOT
HETATM    1  C8  UNL     1       2.647  11.036  18.588  1.00  0.00     0.093 A 
HETATM    2  C9  UNL     1       2.247  10.276  19.685  1.00  0.00     0.076 A 
HETATM    3  C10 UNL     1       2.921  10.421  20.901  1.00  0.00     0.093 A 
HETATM    4  C11 UNL     1       3.983  11.308  21.065  1.00  0.00     0.011 A 
HETATM    5  C12 UNL     1       4.374  12.077  19.963  1.00  0.00     0.042 A 
HETATM    6  C13 UNL     1       3.708  11.944  18.738  1.00  0.00     0.068 A 
HETATM    7 CL1  UNL     1       4.250  12.911  17.409  1.00  0.00    -0.081 Cl
HETATM    8  C14 UNL     1       4.642  11.405  22.375  1.00  0.00    -0.007 A 
HETATM    9  C21 UNL     1       4.188  10.627  23.369  1.00  0.00     0.095 A 
HETATM   10  C22 UNL     1       3.068   9.686  23.215  1.00  0.00     0.289 A 
HETATM   11  O3  UNL     1       2.696   8.996  24.155  1.00  0.00    -0.260 OA
HETATM   12  O4  UNL     1       2.470   9.621  21.967  1.00  0.00    -0.275 OA
ENDROOT
BRANCH   1  13
HETATM   13  O2  UNL     1       2.035  10.984  17.364  1.00  0.00    -0.342 OA
BRANCH  13  14
HETATM   14  C7  UNL     1       0.702  11.470  17.302  1.00  0.00     0.254 C 
BRANCH  14  15
HETATM   15  C6  UNL     1      -0.288  10.310  17.351  1.00  0.00     0.155 C 
HETATM   16  O1  UNL     1       0.026   9.208  16.892  1.00  0.00    -0.295 OA
BRANCH  15  17
HETATM   17  C5  UNL     1      -1.697  10.595  17.881  1.00  0.00     0.062 C 
HETATM   18  C4  UNL     1      -1.948  12.108  17.829  1.00  0.00     0.049 C 
HETATM   19  C2  UNL     1      -3.443  12.471  17.815  1.00  0.00     0.054 C 
HETATM   20  C1  UNL     1      -3.605  13.964  17.507  1.00  0.00     0.045 C 
HETATM   21  C3  UNL     1      -4.098  12.173  19.169  1.00  0.00     0.045 C 
HETATM   22  O5  UNL     1      -4.186  11.765  16.812  1.00  0.00    -0.381 OA
HETATM   23  C24 UNL     1      -3.494  10.721  16.129  1.00  0.00     0.169 C 
HETATM   24  C23 UNL     1      -2.770   9.814  17.107  1.00  0.00     0.038 C 
ENDBRANCH  15  17
ENDBRANCH  14  15
ENDBRANCH  13  14
ENDBRANCH   1  13
BRANCH   8  25
HETATM   25  C15 UNL     1       5.772  12.294  22.707  1.00  0.00    -0.025 A 
HETATM   26  C16 UNL     1       5.569  13.673  22.838  1.00  0.00     0.012 A 
HETATM   27  C17 UNL     1       6.639  14.514  23.148  1.00  0.00     0.001 A 
HETATM   28  C18 UNL     1       7.916  13.980  23.329  1.00  0.00     0.000 A 
HETATM   29  C19 UNL     1       8.124  12.608  23.201  1.00  0.00     0.001 A 
HETATM   30  C20 UNL     1       7.056  11.764  22.891  1.00  0.00     0.012 A 
ENDBRANCH   8  25
TORSDOF 5
ENDMDL
MODEL 8
REMARK minimizedAffinity -9.8603487
REMARK CNNscore 0.235802367
REMARK CNNaffinity 6.04937696
REMARK  5 active torsions:
REMARK  status: ('A' for Active; 'I' for Inactive)
REMARK    1  A    between atoms: C5_5  and  C6_6 
REMARK    2  A    between atoms: C6_6  and  C7_8 
REMARK    3  A    between atoms: C7_8  and  O2_9 
REMARK    4  A    between atoms: O2_9  and  C8_10 
REMARK    5  A    between atoms: C14_17  and  C15_18 
ROOT
HETATM    1  C8  UNL     1      -2.112   5.463  13.430  1.00  0.00     0.093 A 
HETATM    2  C9  UNL     1      -2.584   4.377  12.695  1.00  0.00     0.076 A 
HETATM    3  C10 UNL     1      -3.958   4.125  12.650  1.00  0.00     0.093 A 
HETATM    4  C11 UNL     1      -4.886   4.929  13.311  1.00  0.00     0.011 A 
HETATM    5  C12 UNL     1      -4.408   6.024  14.038  1.00  0.00     0.042 A 
HETATM    6  C13 UNL     1      -3.034   6.290  14.092  1.00  0.00     0.068 A 
HETATM    7 CL1  UNL     1      -2.505   7.650  15.022  1.00  0.00    -0.081 Cl
HETATM    8  C14 UNL     1      -6.316   4.601  13.216  1.00  0.00    -0.007 A 
HETATM    9  C21 UNL     1      -6.671   3.531  12.489  1.00  0.00     0.095 A 
HETATM   10  C22 UNL     1      -5.706   2.673  11.785  1.00  0.00     0.289 A 
HETATM   11  O3  UNL     1      -6.085   1.705  11.137  1.00  0.00    -0.260 OA
HETATM   12  O4  UNL     1      -4.368   3.011  11.895  1.00  0.00    -0.275 OA
ENDROOT
BRANCH   1  13
HETATM   13  O2  UNL     1      -0.789   5.805  13.515  1.00  0.00    -0.342 OA
BRANCH  13  14
HETATM   14  C7  UNL     1       0.054   5.338  12.471  1.00  0.00     0.254 C 
BRANCH  14  15
HETATM   15  C6  UNL     1       0.319   6.452  11.464  1.00  0.00     0.155 C 
HETATM   16  O1  UNL     1      -0.184   7.567  11.628  1.00  0.00    -0.295 OA
BRANCH  15  17
HETATM   17  C5  UNL     1       1.127   6.105  10.209  1.00  0.00     0.062 C 
HETATM   18  C4  UNL     1       1.468   7.403   9.466  1.00  0.00     0.049 C 
HETATM   19  C2  UNL     1       2.682   7.262   8.532  1.00  0.00     0.054 C 
HETATM   20  C1  UNL     1       3.108   8.647   8.031  1.00  0.00     0.045 C 
HETATM   21  C3  UNL     1       2.350   6.381   7.320  1.00  0.00     0.045 C 
HETATM   22  O5  UNL     1       3.829   6.692   9.178  1.00  0.00    -0.381 OA
HETATM   23  C24 UNL     1       3.623   6.175  10.491  1.00  0.00     0.169 C 
HETATM   24  C23 UNL     1       2.388   5.295  10.546  1.00  0.00     0.038 C 
ENDBRANCH  15  17
ENDBRANCH  14  15
ENDBRANCH  13  14
ENDBRANCH   1  13
BRANCH   8  25
HETATM   25  C15 UNL     1      -7.415   5.351  13.852  1.00  0.00    -0.025 A 
HETATM   26  C16 UNL     1      -7.419   5.557  15.237  1.00  0.00     0.012 A 
HETATM   27  C17 UNL     1      -8.462   6.263  15.839  1.00  0.00     0.001 A 
HETATM   28  C18 UNL     1      -9.504   6.767  15.061  1.00  0.00     0.000 A 
HETATM   29  C19 UNL     1      -9.506   6.567  13.681  1.00  0.00     0.001 A 
HETATM   30  C20 UNL     1      -8.464   5.860  13.076  1.00  0.00     0.012 A 
ENDBRANCH   8  25
TORSDOF 5
ENDMDL
MODEL 9
REMARK minimizedAffinity -10.0502939
REMARK CNNscore 0.195890546
REMARK CNNaffinity 5.86682749
REMARK  5 active torsions:
REMARK  status: ('A' for Active; 'I' for Inactive)
REMARK    1  A    between atoms: C5_5  and  C6_6 
REMARK    2  A    between atoms: C6_6  and  C7_8 
REMARK    3  A    between atoms: C7_8  and  O2_9 
REMARK    4  A    between atoms: O2_9  and  C8_10 
REMARK    5  A    between atoms: C14_17  and  C15_18 
ROOT
HETATM    1  C8  UNL     1      -1.107   6.635  12.594  1.00  0.00     0.093 A 
HETATM    2  C9  UNL     1      -1.895   7.566  13.269  1.00  0.00     0.076 A 
HETATM    3  C10 UNL     1      -3.228   7.258  13.553  1.00  0.00     0.093 A 
HETATM    4  C11 UNL     1      -3.806   6.042  13.194  1.00  0.00     0.011 A 
HETATM    5  C12 UNL     1      -3.008   5.107  12.526  1.00  0.00     0.042 A 
HETATM    6  C13 UNL     1      -1.671   5.400  12.234  1.00  0.00     0.068 A 
HETATM    7 CL1  UNL     1      -0.741   4.208  11.392  1.00  0.00    -0.081 Cl
HETATM    8  C14 UNL     1      -5.215   5.790  13.529  1.00  0.00    -0.007 A 
HETATM    9  C21 UNL     1      -5.892   6.752  14.174  1.00  0.00     0.095 A 
HETATM   10  C22 UNL     1      -5.298   8.040  14.563  1.00  0.00     0.289 A 
HETATM   11  O3  UNL     1      -5.963   8.884  15.149  1.00  0.00    -0.260 OA
HETATM   12  O4  UNL     1      -3.968   8.243  14.233  1.00  0.00    -0.275 OA
ENDROOT
BRANCH   1  13
HETATM   13  O2  UNL     1       0.213   6.834  12.292  1.00  0.00    -0.342 OA
BRANCH  13  14
HETATM   14  C7  UNL     1       1.050   5.686  12.323  1.00  0.00     0.254 C 
BRANCH  14  15
HETATM   15  C6  UNL     1       1.817   5.554  11.011  1.00  0.00     0.155 C 
HETATM   16  O1  UNL     1       2.235   4.451  10.647  1.00  0.00    -0.295 OA
BRANCH  15  17
HETATM   17  C5  UNL     1       2.137   6.836  10.237  1.00  0.00     0.062 C 
HETATM   18  C4  UNL     1       2.258   6.496   8.745  1.00  0.00     0.049 C 
HETATM   19  C2  UNL     1       2.043   7.714   7.830  1.00  0.00     0.054 C 
HETATM   20  C1  UNL     1       1.926   7.248   6.374  1.00  0.00     0.045 C 
HETATM   21  C3  UNL     1       3.212   8.702   7.939  1.00  0.00     0.045 C 
HETATM   22  O5  UNL     1       0.839   8.437   8.125  1.00  0.00    -0.381 OA
HETATM   23  C24 UNL     1       0.143   8.051   9.308  1.00  0.00     0.169 C 
HETATM   24  C23 UNL     1       1.091   7.933  10.487  1.00  0.00     0.038 C 
ENDBRANCH  15  17
ENDBRANCH  14  15
ENDBRANCH  13  14
ENDBRANCH   1  13
BRANCH   8  25
HETATM   25  C15 UNL     1      -5.966   4.558  13.220  1.00  0.00    -0.025 A 
HETATM   26  C16 UNL     1      -7.054   4.179  14.016  1.00  0.00     0.012 A 
HETATM   27  C17 UNL     1      -7.763   3.011  13.725  1.00  0.00     0.001 A 
HETATM   28  C18 UNL     1      -7.388   2.219  12.639  1.00  0.00     0.000 A 
HETATM   29  C19 UNL     1      -6.306   2.593  11.842  1.00  0.00     0.001 A 
HETATM   30  C20 UNL     1      -5.596   3.760  12.131  1.00  0.00     0.012 A 
ENDBRANCH   8  25
TORSDOF 5
ENDMDL
