MODEL 1
REMARK minimizedAffinity -8.35894966
REMARK CNNscore 0.344287008
REMARK CNNaffinity 6.1653161
REMARK  2 active torsions:
REMARK  status: ('A' for Active; 'I' for Inactive)
REMARK    1  A    between atoms: C21_27  and  C22_28 
REMARK    2  A    between atoms: C22_28  and  O7_30 
ROOT
HETATM    1  C1  UNL     1       0.008   8.481   8.208  1.00  0.00     0.043 C 
HETATM    2  C2  UNL     1       0.656   8.470   9.570  1.00  0.00    -0.076 C 
HETATM    3  C3  UNL     1      -0.102   8.783  10.641  1.00  0.00     0.084 C 
HETATM    4  C4  UNL     1       0.317   8.914  12.061  1.00  0.00     0.283 C 
HETATM    5  O1  UNL     1       1.445   8.847  12.509  1.00  0.00    -0.260 OA
HETATM    6  O2  UNL     1      -0.818   9.143  12.768  1.00  0.00    -0.317 OA
HETATM    7  C5  UNL     1      -0.690   9.250  14.194  1.00  0.00     0.195 C 
HETATM    8  C6  UNL     1      -2.129   9.237  14.856  1.00  0.00     0.053 C 
HETATM    9  C7  UNL     1      -1.894   8.956  16.404  1.00  0.00     0.159 C 
HETATM   10  C8  UNL     1      -2.541   9.869  17.408  1.00  0.00     0.011 C 
HETATM   11  C9  UNL     1      -3.126  11.035  17.090  1.00  0.00    -0.054 C 
HETATM   12  C10 UNL     1      -3.780  11.889  18.140  1.00  0.00     0.046 C 
HETATM   13  C11 UNL     1      -3.205  11.529  15.713  1.00  0.00     0.180 A 
HETATM   14  O3  UNL     1      -4.064  10.903  14.757  1.00  0.00    -0.370 OA
HETATM   15  C12 UNL     1      -2.663  10.662  14.595  1.00  0.00     0.170 A 
HETATM   16  O4  UNL     1      -2.152   7.604  16.836  1.00  0.00    -0.372 OA
HETATM   17  C13 UNL     1      -3.293   6.910  16.305  1.00  0.00     0.162 C 
HETATM   18  C14 UNL     1      -2.756   5.852  15.345  1.00  0.00     0.068 C 
HETATM   19  C15 UNL     1      -2.257   6.713  14.166  1.00  0.00     0.147 C 
HETATM   20  O5  UNL     1      -2.389   6.074  12.890  1.00  0.00    -0.312 OA
HETATM   21  C16 UNL     1      -1.465   5.102  12.663  1.00  0.00     0.283 C 
HETATM   22  O6  UNL     1      -0.878   4.463  13.519  1.00  0.00    -0.260 OA
HETATM   23  C17 UNL     1      -1.203   5.061  11.209  1.00  0.00     0.082 C 
HETATM   24  C18 UNL     1       0.006   4.860  10.657  1.00  0.00     0.006 C 
HETATM   25  C19 UNL     1       1.233   4.561  11.360  1.00  0.00    -0.001 C 
HETATM   26  C20 UNL     1       2.492   4.604  10.897  1.00  0.00     0.007 C 
HETATM   27  C21 UNL     1       3.104   5.042   9.589  1.00  0.00     0.172 C 
HETATM   28  O8  UNL     1       2.195   5.826   8.804  1.00  0.00    -0.379 OA
HETATM   29  C24 UNL     1       2.655   7.159   8.563  1.00  0.00     0.173 C 
HETATM   30  C25 UNL     1       2.142   8.148   9.624  1.00  0.00     0.060 C 
HETATM   31  C26 UNL     1      -3.076   8.097  14.249  1.00  0.00     0.034 C 
HETATM   32  C27 UNL     1      -3.754   8.432  12.913  1.00  0.00     0.022 C 
HETATM   33  C28 UNL     1      -4.060   7.727  15.343  1.00  0.00     0.119 A 
HETATM   34  C29 UNL     1      -5.555   7.523  15.153  1.00  0.00     0.210 A 
HETATM   35  O9  UNL     1      -5.008   8.655  15.847  1.00  0.00    -0.371 OA
ENDROOT
BRANCH  27  36
HETATM   36  C22 UNL     1       3.550   3.821   8.742  1.00  0.00     0.146 C 
HETATM   37  C23 UNL     1       4.987   3.412   9.046  1.00  0.00     0.042 C 
BRANCH  36  38
HETATM   38  O7  UNL     1       3.487   4.128   7.342  1.00  0.00    -0.393 OA
HETATM   39  H27 UNL     1       3.738   5.070   7.275  1.00  0.00     0.210 HD
ENDBRANCH  36  38
ENDBRANCH  27  36
TORSDOF 2
ENDMDL
MODEL 2
REMARK minimizedAffinity -5.97395802
REMARK CNNscore 0.177994996
REMARK CNNaffinity 4.69836473
REMARK  2 active torsions:
REMARK  status: ('A' for Active; 'I' for Inactive)
REMARK    1  A    between atoms: C21_27  and  C22_28 
REMARK    2  A    between atoms: C22_28  and  O7_30 
ROOT
HETATM    1  C1  UNL     1       4.578  17.842  20.292  1.00  0.00     0.043 C 
HETATM    2  C2  UNL     1       3.853  16.733  21.014  1.00  0.00    -0.076 C 
HETATM    3  C3  UNL     1       2.933  16.021  20.333  1.00  0.00     0.084 C 
HETATM    4  C4  UNL     1       2.044  14.942  20.836  1.00  0.00     0.283 C 
HETATM    5  O1  UNL     1       1.921  14.559  21.984  1.00  0.00    -0.260 OA
HETATM    6  O2  UNL     1       1.373  14.472  19.755  1.00  0.00    -0.317 OA
HETATM    7  C5  UNL     1       0.480  13.368  19.967  1.00  0.00     0.195 C 
HETATM    8  C6  UNL     1       0.012  12.790  18.569  1.00  0.00     0.053 C 
HETATM    9  C7  UNL     1      -0.626  11.366  18.877  1.00  0.00     0.159 C 
HETATM   10  C8  UNL     1      -1.992  11.056  18.331  1.00  0.00     0.011 C 
HETATM   11  C9  UNL     1      -2.805  11.973  17.782  1.00  0.00    -0.054 C 
HETATM   12  C10 UNL     1      -4.149  11.591  17.229  1.00  0.00     0.046 C 
HETATM   13  C11 UNL     1      -2.427  13.383  17.650  1.00  0.00     0.180 A 
HETATM   14  O3  UNL     1      -1.429  13.789  16.710  1.00  0.00    -0.370 OA
HETATM   15  C12 UNL     1      -1.041  13.811  18.087  1.00  0.00     0.170 A 
HETATM   16  O4  UNL     1       0.214  10.232  18.582  1.00  0.00    -0.372 OA
HETATM   17  C13 UNL     1       1.005  10.246  17.383  1.00  0.00     0.162 C 
HETATM   18  C14 UNL     1       2.456  10.435  17.816  1.00  0.00     0.068 C 
HETATM   19  C15 UNL     1       2.460  11.905  18.287  1.00  0.00     0.147 C 
HETATM   20  O5  UNL     1       3.703  12.580  18.054  1.00  0.00    -0.312 OA
HETATM   21  C16 UNL     1       4.692  12.226  18.918  1.00  0.00     0.283 C 
HETATM   22  O6  UNL     1       4.767  11.171  19.523  1.00  0.00    -0.260 OA
HETATM   23  C17 UNL     1       5.575  13.399  19.096  1.00  0.00     0.082 C 
HETATM   24  C18 UNL     1       6.139  13.760  20.262  1.00  0.00     0.006 C 
HETATM   25  C19 UNL     1       6.067  13.036  21.511  1.00  0.00    -0.001 C 
HETATM   26  C20 UNL     1       6.385  13.465  22.743  1.00  0.00     0.007 C 
HETATM   27  C21 UNL     1       6.816  14.799  23.300  1.00  0.00     0.172 C 
HETATM   28  O8  UNL     1       6.561  15.874  22.385  1.00  0.00    -0.379 OA
HETATM   29  C24 UNL     1       5.640  16.845  22.892  1.00  0.00     0.173 C 
HETATM   30  C25 UNL     1       4.189  16.534  22.485  1.00  0.00     0.060 C 
HETATM   31  C26 UNL     1       1.224  12.615  17.539  1.00  0.00     0.034 C 
HETATM   32  C27 UNL     1       1.667  13.888  16.802  1.00  0.00     0.022 C 
HETATM   33  C28 UNL     1       0.833  11.488  16.601  1.00  0.00     0.119 A 
HETATM   34  C29 UNL     1       1.004  11.496  15.090  1.00  0.00     0.210 A 
HETATM   35  O9  UNL     1      -0.280  11.588  15.727  1.00  0.00    -0.371 OA
ENDROOT
BRANCH  27  36
HETATM   36  C22 UNL     1       8.331  14.801  23.640  1.00  0.00     0.146 C 
HETATM   37  C23 UNL     1       9.144  15.576  22.609  1.00  0.00     0.042 C 
BRANCH  36  38
HETATM   38  O7  UNL     1       8.845  13.463  23.663  1.00  0.00    -0.393 OA
HETATM   39  H27 UNL     1       8.355  12.988  22.963  1.00  0.00     0.210 HD
ENDBRANCH  36  38
ENDBRANCH  27  36
TORSDOF 2
ENDMDL
MODEL 3
REMARK minimizedAffinity -7.11213017
REMARK CNNscore 0.172966838
REMARK CNNaffinity 5.01026297
REMARK  2 active torsions:
REMARK  status: ('A' for Active; 'I' for Inactive)
REMARK    1  A    between atoms: C21_27  and  C22_28 
REMARK    2  A    between atoms: C22_28  and  O7_30 
ROOT
HETATM    1  C1  UNL     1     -18.207   7.831  23.974  1.00  0.00     0.043 C 
HETATM    2  C2  UNL     1     -16.801   7.874  24.519  1.00  0.00    -0.076 C 
HETATM    3  C3  UNL     1     -16.468   7.011  25.501  1.00  0.00     0.084 C 
HETATM    4  C4  UNL     1     -15.185   6.909  26.244  1.00  0.00     0.283 C 
HETATM    5  O1  UNL     1     -14.222   7.647  26.163  1.00  0.00    -0.260 OA
HETATM    6  O2  UNL     1     -15.306   5.829  27.056  1.00  0.00    -0.317 OA
HETATM    7  C5  UNL     1     -14.162   5.475  27.848  1.00  0.00     0.195 C 
HETATM    8  C6  UNL     1     -14.394   4.053  28.505  1.00  0.00     0.053 C 
HETATM    9  C7  UNL     1     -12.967   3.571  29.015  1.00  0.00     0.159 C 
HETATM   10  C8  UNL     1     -12.834   3.092  30.434  1.00  0.00     0.011 C 
HETATM   11  C9  UNL     1     -13.786   3.244  31.368  1.00  0.00    -0.054 C 
HETATM   12  C10 UNL     1     -13.600   2.717  32.763  1.00  0.00     0.046 C 
HETATM   13  C11 UNL     1     -15.071   3.890  31.085  1.00  0.00     0.180 A 
HETATM   14  O3  UNL     1     -16.053   3.244  30.272  1.00  0.00    -0.370 OA
HETATM   15  C12 UNL     1     -15.364   4.344  29.670  1.00  0.00     0.170 A 
HETATM   16  O4  UNL     1     -12.303   2.601  28.179  1.00  0.00    -0.372 OA
HETATM   17  C13 UNL     1     -13.077   1.543  27.591  1.00  0.00     0.162 C 
HETATM   18  C14 UNL     1     -13.184   1.852  26.100  1.00  0.00     0.068 C 
HETATM   19  C15 UNL     1     -14.138   3.066  26.093  1.00  0.00     0.147 C 
HETATM   20  O5  UNL     1     -14.985   3.124  24.938  1.00  0.00    -0.312 OA
HETATM   21  C16 UNL     1     -14.346   3.529  23.807  1.00  0.00     0.283 C 
HETATM   22  O6  UNL     1     -13.153   3.422  23.585  1.00  0.00    -0.260 OA
HETATM   23  C17 UNL     1     -15.331   4.242  22.966  1.00  0.00     0.082 C 
HETATM   24  C18 UNL     1     -15.060   5.342  22.241  1.00  0.00     0.006 C 
HETATM   25  C19 UNL     1     -13.767   5.966  22.076  1.00  0.00    -0.001 C 
HETATM   26  C20 UNL     1     -13.484   7.184  21.587  1.00  0.00     0.007 C 
HETATM   27  C21 UNL     1     -14.334   8.345  21.137  1.00  0.00     0.172 C 
HETATM   28  O8  UNL     1     -15.690   8.229  21.588  1.00  0.00    -0.379 OA
HETATM   29  C24 UNL     1     -16.093   9.288  22.462  1.00  0.00     0.173 C 
HETATM   30  C25 UNL     1     -15.871   8.931  23.942  1.00  0.00     0.060 C 
HETATM   31  C26 UNL     1     -14.974   2.982  27.466  1.00  0.00     0.034 C 
HETATM   32  C27 UNL     1     -16.487   3.049  27.210  1.00  0.00     0.022 C 
HETATM   33  C28 UNL     1     -14.509   1.620  27.947  1.00  0.00     0.119 A 
HETATM   34  C29 UNL     1     -15.370   0.369  28.021  1.00  0.00     0.210 A 
HETATM   35  O9  UNL     1     -14.928   1.077  29.189  1.00  0.00    -0.371 OA
ENDROOT
BRANCH  27  36
HETATM   36  C22 UNL     1     -14.345   8.467  19.590  1.00  0.00     0.146 C 
HETATM   37  C23 UNL     1     -15.140   7.341  18.938  1.00  0.00     0.042 C 
BRANCH  36  38
HETATM   38  O7  UNL     1     -13.011   8.398  19.068  1.00  0.00    -0.393 OA
HETATM   39  H27 UNL     1     -12.541   7.768  19.650  1.00  0.00     0.210 HD
ENDBRANCH  36  38
ENDBRANCH  27  36
TORSDOF 2
ENDMDL
MODEL 4
REMARK minimizedAffinity -6.70825243
REMARK CNNscore 0.159044266
REMARK CNNaffinity 4.88392115
REMARK  2 active torsions:
REMARK  status: ('A' for Active; 'I' for Inactive)
REMARK    1  A    between atoms: C21_27  and  C22_28 
REMARK    2  A    between atoms: C22_28  and  O7_30 
ROOT
HETATM    1  C1  UNL     1      12.877  -5.830   8.128  1.00  0.00     0.043 C 
HETATM    2  C2  UNL     1      14.013  -6.595   7.493  1.00  0.00    -0.076 C 
HETATM    3  C3  UNL     1      13.728  -7.749   6.856  1.00  0.00     0.084 C 
HETATM    4  C4  UNL     1      14.670  -8.709   6.223  1.00  0.00     0.283 C 
HETATM    5  O1  UNL     1      15.886  -8.674   6.240  1.00  0.00    -0.260 OA
HETATM    6  O2  UNL     1      13.901  -9.656   5.631  1.00  0.00    -0.317 OA
HETATM    7  C5  UNL     1      14.579 -10.682   4.891  1.00  0.00     0.195 C 
HETATM    8  C6  UNL     1      13.523 -11.516   4.055  1.00  0.00     0.053 C 
HETATM    9  C7  UNL     1      14.367 -12.339   2.986  1.00  0.00     0.159 C 
HETATM   10  C8  UNL     1      14.131 -13.819   2.868  1.00  0.00     0.011 C 
HETATM   11  C9  UNL     1      13.415 -14.535   3.749  1.00  0.00    -0.054 C 
HETATM   12  C10 UNL     1      13.194 -16.009   3.557  1.00  0.00     0.046 C 
HETATM   13  C11 UNL     1      12.774 -13.931   4.920  1.00  0.00     0.180 A 
HETATM   14  O3  UNL     1      11.635 -13.080   4.775  1.00  0.00    -0.370 OA
HETATM   15  C12 UNL     1      12.866 -12.431   5.111  1.00  0.00     0.170 A 
HETATM   16  O4  UNL     1      14.363 -11.803   1.647  1.00  0.00    -0.372 OA
HETATM   17  C13 UNL     1      13.138 -11.275   1.112  1.00  0.00     0.162 C 
HETATM   18  C14 UNL     1      13.297  -9.758   1.064  1.00  0.00     0.068 C 
HETATM   19  C15 UNL     1      13.248  -9.383   2.561  1.00  0.00     0.147 C 
HETATM   20  O5  UNL     1      12.649  -8.106   2.815  1.00  0.00    -0.312 OA
HETATM   21  C16 UNL     1      13.450  -7.051   2.505  1.00  0.00     0.283 C 
HETATM   22  O6  UNL     1      14.357  -7.060   1.691  1.00  0.00    -0.260 OA
HETATM   23  C17 UNL     1      13.114  -5.946   3.427  1.00  0.00     0.082 C 
HETATM   24  C18 UNL     1      14.012  -5.106   3.969  1.00  0.00     0.006 C 
HETATM   25  C19 UNL     1      15.430  -5.065   3.689  1.00  0.00    -0.001 C 
HETATM   26  C20 UNL     1      16.399  -4.436   4.375  1.00  0.00     0.007 C 
HETATM   27  C21 UNL     1      16.420  -3.660   5.667  1.00  0.00     0.172 C 
HETATM   28  O8  UNL     1      15.240  -3.882   6.451  1.00  0.00    -0.379 OA
HETATM   29  C24 UNL     1      15.505  -4.485   7.721  1.00  0.00     0.173 C 
HETATM   30  C25 UNL     1      15.411  -6.020   7.664  1.00  0.00     0.060 C 
HETATM   31  C26 UNL     1      12.467 -10.586   3.294  1.00  0.00     0.034 C 
HETATM   32  C27 UNL     1      11.299 -10.064   4.144  1.00  0.00     0.022 C 
HETATM   33  C28 UNL     1      12.015 -11.360   2.069  1.00  0.00     0.119 A 
HETATM   34  C29 UNL     1      10.579 -11.491   1.587  1.00  0.00     0.210 A 
HETATM   35  O9  UNL     1      11.305 -12.583   2.172  1.00  0.00    -0.371 OA
ENDROOT
BRANCH  27  36
HETATM   36  C22 UNL     1      16.547  -2.135   5.403  1.00  0.00     0.146 C 
HETATM   37  C23 UNL     1      17.260  -1.419   6.546  1.00  0.00     0.042 C 
BRANCH  36  38
HETATM   38  O7  UNL     1      15.251  -1.535   5.273  1.00  0.00    -0.393 OA
HETATM   39  H27 UNL     1      14.679  -2.024   5.898  1.00  0.00     0.210 HD
ENDBRANCH  36  38
ENDBRANCH  27  36
TORSDOF 2
ENDMDL
MODEL 5
REMARK minimizedAffinity -6.4876399
REMARK CNNscore 0.157661468
REMARK CNNaffinity 5.04453135
REMARK  2 active torsions:
REMARK  status: ('A' for Active; 'I' for Inactive)
REMARK    1  A    between atoms: C21_27  and  C22_28 
REMARK    2  A    between atoms: C22_28  and  O7_30 
ROOT
HETATM    1  C1  UNL     1       4.740  16.233  18.986  1.00  0.00     0.043 C 
HETATM    2  C2  UNL     1       3.739  15.509  19.853  1.00  0.00    -0.076 C 
HETATM    3  C3  UNL     1       2.559  15.153  19.306  1.00  0.00     0.084 C 
HETATM    4  C4  UNL     1       1.395  14.506  19.966  1.00  0.00     0.283 C 
HETATM    5  O1  UNL     1       1.258  14.256  21.148  1.00  0.00    -0.260 OA
HETATM    6  O2  UNL     1       0.493  14.263  18.983  1.00  0.00    -0.317 OA
HETATM    7  C5  UNL     1      -0.714  13.580  19.356  1.00  0.00     0.195 C 
HETATM    8  C6  UNL     1      -1.499  13.144  18.051  1.00  0.00     0.053 C 
HETATM    9  C7  UNL     1      -2.576  12.075  18.527  1.00  0.00     0.159 C 
HETATM   10  C8  UNL     1      -4.009  12.264  18.114  1.00  0.00     0.011 C 
HETATM   11  C9  UNL     1      -4.484  13.386  17.552  1.00  0.00    -0.054 C 
HETATM   12  C10 UNL     1      -5.924  13.500  17.137  1.00  0.00     0.046 C 
HETATM   13  C11 UNL     1      -3.636  14.548  17.271  1.00  0.00     0.180 A 
HETATM   14  O3  UNL     1      -2.660  14.507  16.228  1.00  0.00    -0.370 OA
HETATM   15  C12 UNL     1      -2.153  14.456  17.565  1.00  0.00     0.170 A 
HETATM   16  O4  UNL     1      -2.240  10.696  18.267  1.00  0.00    -0.372 OA
HETATM   17  C13 UNL     1      -1.624  10.355  17.015  1.00  0.00     0.162 C 
HETATM   18  C14 UNL     1      -0.167  10.017  17.319  1.00  0.00     0.068 C 
HETATM   19  C15 UNL     1       0.418  11.403  17.662  1.00  0.00     0.147 C 
HETATM   20  O5  UNL     1       1.791  11.559  17.279  1.00  0.00    -0.312 OA
HETATM   21  C16 UNL     1       2.666  10.909  18.092  1.00  0.00     0.283 C 
HETATM   22  O6  UNL     1       2.413   9.934  18.778  1.00  0.00    -0.260 OA
HETATM   23  C17 UNL     1       3.927  11.680  18.102  1.00  0.00     0.082 C 
HETATM   24  C18 UNL     1       4.699  11.867  19.187  1.00  0.00     0.006 C 
HETATM   25  C19 UNL     1       4.497  11.287  20.495  1.00  0.00    -0.001 C 
HETATM   26  C20 UNL     1       5.073  11.631  21.659  1.00  0.00     0.007 C 
HETATM   27  C21 UNL     1       6.013  12.737  22.065  1.00  0.00     0.172 C 
HETATM   28  O8  UNL     1       6.074  13.782  21.084  1.00  0.00    -0.379 OA
HETATM   29  C24 UNL     1       5.626  15.050  21.574  1.00  0.00     0.173 C 
HETATM   30  C25 UNL     1       4.128  15.276  21.306  1.00  0.00     0.060 C 
HETATM   31  C26 UNL     1      -0.545  12.480  16.951  1.00  0.00     0.034 C 
HETATM   32  C27 UNL     1       0.253  13.459  16.077  1.00  0.00     0.022 C 
HETATM   33  C28 UNL     1      -1.412  11.531  16.145  1.00  0.00     0.119 A 
HETATM   34  C29 UNL     1      -1.404  11.397  14.630  1.00  0.00     0.210 A 
HETATM   35  O9  UNL     1      -2.495  11.990  15.352  1.00  0.00    -0.371 OA
ENDROOT
BRANCH  27  36
HETATM   36  C22 UNL     1       7.451  12.197  22.289  1.00  0.00     0.146 C 
HETATM   37  C23 UNL     1       8.248  13.081  23.242  1.00  0.00     0.042 C 
BRANCH  36  38
HETATM   38  O7  UNL     1       8.173  12.156  21.051  1.00  0.00    -0.393 OA
HETATM   39  H27 UNL     1       7.861  12.932  20.545  1.00  0.00     0.210 HD
ENDBRANCH  36  38
ENDBRANCH  27  36
TORSDOF 2
ENDMDL
MODEL 6
REMARK minimizedAffinity -6.48334265
REMARK CNNscore 0.148964122
REMARK CNNaffinity 4.44105577
REMARK  2 active torsions:
REMARK  status: ('A' for Active; 'I' for Inactive)
REMARK    1  A    between atoms: C21_27  and  C22_28 
REMARK    2  A    between atoms: C22_28  and  O7_30 
ROOT
HETATM    1  C1  UNL     1      -0.697  15.345  16.000  1.00  0.00     0.043 C 
HETATM    2  C2  UNL     1       0.174  14.123  15.839  1.00  0.00    -0.076 C 
HETATM    3  C3  UNL     1       1.311  14.049  16.560  1.00  0.00     0.084 C 
HETATM    4  C4  UNL     1       2.359  12.996  16.523  1.00  0.00     0.283 C 
HETATM    5  O1  UNL     1       2.428  12.045  15.768  1.00  0.00    -0.260 OA
HETATM    6  O2  UNL     1       3.249  13.316  17.496  1.00  0.00    -0.317 OA
HETATM    7  C5  UNL     1       4.342  12.410  17.708  1.00  0.00     0.195 C 
HETATM    8  C6  UNL     1       5.099  12.799  19.044  1.00  0.00     0.053 C 
HETATM    9  C7  UNL     1       6.010  11.547  19.408  1.00  0.00     0.159 C 
HETATM   10  C8  UNL     1       7.467  11.777  19.700  1.00  0.00     0.011 C 
HETATM   11  C9  UNL     1       8.103  12.935  19.464  1.00  0.00    -0.054 C 
HETATM   12  C10 UNL     1       9.557  13.109  19.806  1.00  0.00     0.046 C 
HETATM   13  C11 UNL     1       7.425  14.108  18.905  1.00  0.00     0.180 A 
HETATM   14  O3  UNL     1       6.483  14.850  19.682  1.00  0.00    -0.370 OA
HETATM   15  C12 UNL     1       5.935  14.033  18.642  1.00  0.00     0.170 A 
HETATM   16  O4  UNL     1       5.501  10.690  20.451  1.00  0.00    -0.372 OA
HETATM   17  C13 UNL     1       4.881  11.288  21.601  1.00  0.00     0.162 C 
HETATM   18  C14 UNL     1       3.384  11.015  21.486  1.00  0.00     0.068 C 
HETATM   19  C15 UNL     1       2.979  11.937  20.317  1.00  0.00     0.147 C 
HETATM   20  O5  UNL     1       1.651  12.464  20.433  1.00  0.00    -0.312 OA
HETATM   21  C16 UNL     1       0.674  11.560  20.151  1.00  0.00     0.283 C 
HETATM   22  O6  UNL     1       0.775  10.349  20.243  1.00  0.00    -0.260 OA
HETATM   23  C17 UNL     1      -0.473  12.300  19.584  1.00  0.00     0.082 C 
HETATM   24  C18 UNL     1      -1.244  11.856  18.576  1.00  0.00     0.006 C 
HETATM   25  C19 UNL     1      -1.159  10.565  17.933  1.00  0.00    -0.001 C 
HETATM   26  C20 UNL     1      -1.715  10.169  16.776  1.00  0.00     0.007 C 
HETATM   27  C21 UNL     1      -2.512  10.880  15.711  1.00  0.00     0.172 C 
HETATM   28  O8  UNL     1      -2.405  12.306  15.817  1.00  0.00    -0.379 OA
HETATM   29  C24 UNL     1      -1.806  12.919  14.671  1.00  0.00     0.173 C 
HETATM   30  C25 UNL     1      -0.284  13.079  14.831  1.00  0.00     0.060 C 
HETATM   31  C26 UNL     1       4.097  13.094  20.256  1.00  0.00     0.034 C 
HETATM   32  C27 UNL     1       3.462  14.493  20.275  1.00  0.00     0.022 C 
HETATM   33  C28 UNL     1       4.852  12.764  21.530  1.00  0.00     0.119 A 
HETATM   34  C29 UNL     1       4.870  13.613  22.791  1.00  0.00     0.210 A 
HETATM   35  O9  UNL     1       6.009  13.483  21.927  1.00  0.00    -0.371 OA
ENDROOT
BRANCH  27  36
HETATM   36  C22 UNL     1      -4.014  10.499  15.785  1.00  0.00     0.146 C 
HETATM   37  C23 UNL     1      -4.395   9.477  14.719  1.00  0.00     0.042 C 
BRANCH  36  38
HETATM   38  O7  UNL     1      -4.839  11.653  15.576  1.00  0.00    -0.393 OA
HETATM   39  H27 UNL     1      -4.356  12.198  14.923  1.00  0.00     0.210 HD
ENDBRANCH  36  38
ENDBRANCH  27  36
TORSDOF 2
ENDMDL
MODEL 7
REMARK minimizedAffinity -6.58031654
REMARK CNNscore 0.144627407
REMARK CNNaffinity 4.557127
REMARK  2 active torsions:
REMARK  status: ('A' for Active; 'I' for Inactive)
REMARK    1  A    between atoms: C21_27  and  C22_28 
REMARK    2  A    between atoms: C22_28  and  O7_30 
ROOT
HETATM    1  C1  UNL     1     -16.864  -7.672  11.120  1.00  0.00     0.043 C 
HETATM    2  C2  UNL     1     -15.367  -7.508  11.026  1.00  0.00    -0.076 C 
HETATM    3  C3  UNL     1     -14.714  -8.153  10.038  1.00  0.00     0.084 C 
HETATM    4  C4  UNL     1     -13.251  -8.210   9.783  1.00  0.00     0.283 C 
HETATM    5  O1  UNL     1     -12.361  -7.753  10.474  1.00  0.00    -0.260 OA
HETATM    6  O2  UNL     1     -13.097  -8.896   8.623  1.00  0.00    -0.317 OA
HETATM    7  C5  UNL     1     -11.761  -9.041   8.120  1.00  0.00     0.195 C 
HETATM    8  C6  UNL     1     -11.811  -9.615   6.644  1.00  0.00     0.053 C 
HETATM    9  C7  UNL     1     -10.364  -9.368   6.032  1.00  0.00     0.159 C 
HETATM   10  C8  UNL     1      -9.650 -10.523   5.384  1.00  0.00     0.011 C 
HETATM   11  C9  UNL     1     -10.055 -11.799   5.476  1.00  0.00    -0.054 C 
HETATM   12  C10 UNL     1      -9.311 -12.904   4.780  1.00  0.00     0.046 C 
HETATM   13  C11 UNL     1     -11.257 -12.194   6.216  1.00  0.00     0.180 A 
HETATM   14  O3  UNL     1     -12.560 -11.877   5.722  1.00  0.00    -0.370 OA
HETATM   15  C12 UNL     1     -12.112 -11.115   6.848  1.00  0.00     0.170 A 
HETATM   16  O4  UNL     1     -10.252  -8.246   5.134  1.00  0.00    -0.372 OA
HETATM   17  C13 UNL     1     -11.310  -7.999   4.193  1.00  0.00     0.162 C 
HETATM   18  C14 UNL     1     -12.050  -6.756   4.679  1.00  0.00     0.068 C 
HETATM   19  C15 UNL     1     -12.776  -7.286   5.934  1.00  0.00     0.147 C 
HETATM   20  O5  UNL     1     -14.044  -6.661   6.172  1.00  0.00    -0.312 OA
HETATM   21  C16 UNL     1     -13.951  -5.400   6.672  1.00  0.00     0.283 C 
HETATM   22  O6  UNL     1     -13.005  -4.645   6.529  1.00  0.00    -0.260 OA
HETATM   23  C17 UNL     1     -15.133  -5.168   7.529  1.00  0.00     0.082 C 
HETATM   24  C18 UNL     1     -15.112  -4.490   8.690  1.00  0.00     0.006 C 
HETATM   25  C19 UNL     1     -13.978  -3.797   9.260  1.00  0.00    -0.001 C 
HETATM   26  C20 UNL     1     -13.828  -3.332  10.511  1.00  0.00     0.007 C 
HETATM   27  C21 UNL     1     -14.668  -3.419  11.760  1.00  0.00     0.172 C 
HETATM   28  O8  UNL     1     -15.677  -4.434  11.663  1.00  0.00    -0.379 OA
HETATM   29  C24 UNL     1     -15.531  -5.477  12.632  1.00  0.00     0.173 C 
HETATM   30  C25 UNL     1     -14.699  -6.654  12.093  1.00  0.00     0.060 C 
HETATM   31  C26 UNL     1     -12.903  -8.879   5.734  1.00  0.00     0.034 C 
HETATM   32  C27 UNL     1     -14.352  -9.355   5.910  1.00  0.00     0.022 C 
HETATM   33  C28 UNL     1     -12.410  -8.980   4.303  1.00  0.00     0.119 A 
HETATM   34  C29 UNL     1     -13.264  -9.343   3.098  1.00  0.00     0.210 A 
HETATM   35  O9  UNL     1     -12.272 -10.228   3.641  1.00  0.00    -0.371 OA
ENDROOT
BRANCH  27  36
HETATM   36  C22 UNL     1     -15.368  -2.067  12.062  1.00  0.00     0.146 C 
HETATM   37  C23 UNL     1     -16.704  -1.945  11.338  1.00  0.00     0.042 C 
BRANCH  36  38
HETATM   38  O7  UNL     1     -14.552  -0.969  11.629  1.00  0.00    -0.393 OA
HETATM   39  H27 UNL     1     -14.108  -1.284  10.817  1.00  0.00     0.210 HD
ENDBRANCH  36  38
ENDBRANCH  27  36
TORSDOF 2
ENDMDL
MODEL 8
REMARK minimizedAffinity -5.92568064
REMARK CNNscore 0.139869198
REMARK CNNaffinity 4.72734451
REMARK  2 active torsions:
REMARK  status: ('A' for Active; 'I' for Inactive)
REMARK    1  A    between atoms: C21_27  and  C22_28 
REMARK    2  A    between atoms: C22_28  and  O7_30 
ROOT
HETATM    1  C1  UNL     1     -20.592  -2.772  19.250  1.00  0.00     0.043 C 
HETATM    2  C2  UNL     1     -20.329  -2.755  17.765  1.00  0.00    -0.076 C 
HETATM    3  C3  UNL     1     -20.262  -1.561  17.141  1.00  0.00     0.084 C 
HETATM    4  C4  UNL     1     -20.090  -1.287  15.691  1.00  0.00     0.283 C 
HETATM    5  O1  UNL     1     -20.065  -2.094  14.782  1.00  0.00    -0.260 OA
HETATM    6  O2  UNL     1     -19.985   0.061  15.573  1.00  0.00    -0.317 OA
HETATM    7  C5  UNL     1     -19.749   0.586  14.257  1.00  0.00     0.195 C 
HETATM    8  C6  UNL     1     -19.382   2.124  14.361  1.00  0.00     0.053 C 
HETATM    9  C7  UNL     1     -18.759   2.518  12.952  1.00  0.00     0.159 C 
HETATM   10  C8  UNL     1     -19.300   3.725  12.237  1.00  0.00     0.011 C 
HETATM   11  C9  UNL     1     -20.420   4.370  12.602  1.00  0.00    -0.054 C 
HETATM   12  C10 UNL     1     -20.893   5.589  11.860  1.00  0.00     0.046 C 
HETATM   13  C11 UNL     1     -21.226   3.961  13.756  1.00  0.00     0.180 A 
HETATM   14  O3  UNL     1     -20.748   4.156  15.089  1.00  0.00    -0.370 OA
HETATM   15  C12 UNL     1     -20.743   2.807  14.610  1.00  0.00     0.170 A 
HETATM   16  O4  UNL     1     -17.320   2.616  12.914  1.00  0.00    -0.372 OA
HETATM   17  C13 UNL     1     -16.635   3.222  14.021  1.00  0.00     0.162 C 
HETATM   18  C14 UNL     1     -15.929   2.097  14.772  1.00  0.00     0.068 C 
HETATM   19  C15 UNL     1     -17.115   1.354  15.423  1.00  0.00     0.147 C 
HETATM   20  O5  UNL     1     -16.801   0.773  16.696  1.00  0.00    -0.312 OA
HETATM   21  C16 UNL     1     -16.047  -0.356  16.614  1.00  0.00     0.283 C 
HETATM   22  O6  UNL     1     -15.300  -0.649  15.698  1.00  0.00    -0.260 OA
HETATM   23  C17 UNL     1     -16.404  -1.218  17.761  1.00  0.00     0.082 C 
HETATM   24  C18 UNL     1     -16.509  -2.558  17.704  1.00  0.00     0.006 C 
HETATM   25  C19 UNL     1     -16.209  -3.396  16.565  1.00  0.00    -0.001 C 
HETATM   26  C20 UNL     1     -16.533  -4.684  16.369  1.00  0.00     0.007 C 
HETATM   27  C21 UNL     1     -17.359  -5.678  17.147  1.00  0.00     0.172 C 
HETATM   28  O8  UNL     1     -18.186  -5.041  18.130  1.00  0.00    -0.379 OA
HETATM   29  C24 UNL     1     -19.586  -5.236  17.910  1.00  0.00     0.173 C 
HETATM   30  C25 UNL     1     -20.203  -4.103  17.071  1.00  0.00     0.060 C 
HETATM   31  C26 UNL     1     -18.314   2.425  15.515  1.00  0.00     0.034 C 
HETATM   32  C27 UNL     1     -18.877   2.521  16.940  1.00  0.00     0.022 C 
HETATM   33  C28 UNL     1     -17.557   3.669  15.087  1.00  0.00     0.119 A 
HETATM   34  C29 UNL     1     -17.210   4.845  15.986  1.00  0.00     0.210 A 
HETATM   35  O9  UNL     1     -18.196   4.927  14.945  1.00  0.00    -0.371 OA
ENDROOT
BRANCH  27  36
HETATM   36  C22 UNL     1     -16.456  -6.714  17.869  1.00  0.00     0.146 C 
HETATM   37  C23 UNL     1     -17.116  -7.260  19.131  1.00  0.00     0.042 C 
BRANCH  36  38
HETATM   38  O7  UNL     1     -15.217  -6.113  18.268  1.00  0.00    -0.393 OA
HETATM   39  H27 UNL     1     -15.445  -5.193  18.512  1.00  0.00     0.210 HD
ENDBRANCH  36  38
ENDBRANCH  27  36
TORSDOF 2
ENDMDL
MODEL 9
REMARK minimizedAffinity -7.40145588
REMARK CNNscore 0.133577332
REMARK CNNaffinity 3.69814301
REMARK  2 active torsions:
REMARK  status: ('A' for Active; 'I' for Inactive)
REMARK    1  A    between atoms: C21_27  and  C22_28 
REMARK    2  A    between atoms: C22_28  and  O7_30 
ROOT
HETATM    1  C1  UNL     1      15.757   9.776   9.418  1.00  0.00     0.043 C 
HETATM    2  C2  UNL     1      17.189   9.326   9.570  1.00  0.00    -0.076 C 
HETATM    3  C3  UNL     1      17.457   8.326  10.435  1.00  0.00     0.084 C 
HETATM    4  C4  UNL     1      18.780   7.763  10.813  1.00  0.00     0.283 C 
HETATM    5  O1  UNL     1      19.878   8.161  10.474  1.00  0.00    -0.260 OA
HETATM    6  O2  UNL     1      18.521   6.716  11.635  1.00  0.00    -0.317 OA
HETATM    7  C5  UNL     1      19.647   5.955  12.099  1.00  0.00     0.195 C 
HETATM    8  C6  UNL     1      19.135   4.632  12.804  1.00  0.00     0.053 C 
HETATM    9  C7  UNL     1      20.406   3.682  12.922  1.00  0.00     0.159 C 
HETATM   10  C8  UNL     1      20.729   3.074  14.258  1.00  0.00     0.011 C 
HETATM   11  C9  UNL     1      20.147   3.445  15.409  1.00  0.00    -0.054 C 
HETATM   12  C10 UNL     1      20.495   2.776  16.709  1.00  0.00     0.046 C 
HETATM   13  C11 UNL     1      19.117   4.486  15.473  1.00  0.00     0.180 A 
HETATM   14  O3  UNL     1      17.806   4.252  14.953  1.00  0.00    -0.370 OA
HETATM   15  C12 UNL     1      18.642   5.122  14.182  1.00  0.00     0.170 A 
HETATM   16  O4  UNL     1      20.482   2.622  11.946  1.00  0.00    -0.372 OA
HETATM   17  C13 UNL     1      19.283   1.916  11.592  1.00  0.00     0.162 C 
HETATM   18  C14 UNL     1      18.910   2.361  10.181  1.00  0.00     0.068 C 
HETATM   19  C15 UNL     1      18.437   3.811  10.417  1.00  0.00     0.147 C 
HETATM   20  O5  UNL     1      17.394   4.228   9.527  1.00  0.00    -0.312 OA
HETATM   21  C16 UNL     1      17.822   4.499   8.265  1.00  0.00     0.283 C 
HETATM   22  O6  UNL     1      18.818   4.037   7.736  1.00  0.00    -0.260 OA
HETATM   23  C17 UNL     1      16.947   5.552   7.709  1.00  0.00     0.082 C 
HETATM   24  C18 UNL     1      17.371   6.563   6.930  1.00  0.00     0.006 C 
HETATM   25  C19 UNL     1      18.711   6.756   6.425  1.00  0.00    -0.001 C 
HETATM   26  C20 UNL     1      19.244   7.856   5.869  1.00  0.00     0.007 C 
HETATM   27  C21 UNL     1      18.737   9.260   5.653  1.00  0.00     0.172 C 
HETATM   28  O8  UNL     1      17.577   9.544   6.448  1.00  0.00    -0.379 OA
HETATM   29  C24 UNL     1      17.778  10.602   7.389  1.00  0.00     0.173 C 
HETATM   30  C25 UNL     1      18.237  10.076   8.761  1.00  0.00     0.060 C 
HETATM   31  C26 UNL     1      17.995   3.888  11.963  1.00  0.00     0.034 C 
HETATM   32  C27 UNL     1      16.574   4.452  12.116  1.00  0.00     0.022 C 
HETATM   33  C28 UNL     1      18.093   2.415  12.314  1.00  0.00     0.119 A 
HETATM   34  C29 UNL     1      16.919   1.500  12.622  1.00  0.00     0.210 A 
HETATM   35  O9  UNL     1      17.848   1.935  13.626  1.00  0.00    -0.371 OA
ENDROOT
BRANCH  27  36
HETATM   36  C22 UNL     1      18.376   9.502   4.163  1.00  0.00     0.146 C 
HETATM   37  C23 UNL     1      18.579  10.958   3.759  1.00  0.00     0.042 C 
BRANCH  36  38
HETATM   38  O7  UNL     1      16.998   9.186   3.919  1.00  0.00    -0.393 OA
HETATM   39  H27 UNL     1      16.527   9.448   4.735  1.00  0.00     0.210 HD
ENDBRANCH  36  38
ENDBRANCH  27  36
TORSDOF 2
ENDMDL
