MODEL 1
REMARK minimizedAffinity -8.94112396
REMARK  12 active torsions:
REMARK  status: ('A' for Active; 'I' for Inactive)
REMARK    1  A    between atoms: C2_2  and  C23_27 
REMARK    2  A    between atoms: C3_3  and  C4_4 
REMARK    3  A    between atoms: C4_4  and  C5_5 
REMARK    4  A    between atoms: C13_13  and  C14_14 
REMARK    5  A    between atoms: C14_14  and  C16_16 
REMARK    6  A    between atoms: C17_17  and  C18_18 
REMARK    7  A    between atoms: C18_18  and  O1_19 
REMARK    8  A    between atoms: C18_18  and  C19_20 
REMARK    9  A    between atoms: C20_21  and  C21_23 
REMARK   10  A    between atoms: C21_23  and  C22_24 
REMARK   11  A    between atoms: C22_24  and  O2_25 
REMARK   12  A    between atoms: C23_27  and  O4_29 
ROOT
HETATM    1  C5  UNL     1      -2.326  50.845 -22.421  1.00  0.00     0.225 C 
HETATM    2  C6  UNL     1      -2.646  52.327 -22.704  1.00  0.00     0.036 C 
HETATM    3  C7  UNL     1      -3.031  52.557 -24.157  1.00  0.00     0.005 C 
HETATM    4  C8  UNL     1      -4.263  51.728 -24.523  1.00  0.00     0.042 C 
HETATM    5  C9  UNL     1      -4.285  50.326 -23.864  1.00  0.00     0.162 C 
HETATM    6  C10 UNL     1      -5.321  50.288 -22.711  1.00  0.00     0.042 C 
HETATM    7  C11 UNL     1      -5.576  48.814 -22.448  1.00  0.00     0.003 C 
HETATM    8  C12 UNL     1      -5.360  48.122 -23.788  1.00  0.00     0.008 C 
HETATM    9  C13 UNL     1      -4.886  49.209 -24.786  1.00  0.00     0.031 C 
HETATM   10  N1  UNL     1      -2.952  49.922 -23.388  1.00  0.00     0.098 N 
HETATM   11  H35 UNL     1      -2.331  49.810 -24.187  1.00  0.00     0.317 HD
ENDROOT
BRANCH   9  12
HETATM   12  C14 UNL     1      -4.002  48.590 -25.914  1.00  0.00     0.010 C 
HETATM   13  C15 UNL     1      -4.874  48.042 -27.059  1.00  0.00     0.015 C 
BRANCH  12  14
HETATM   14  C16 UNL     1      -2.922  49.529 -26.415  1.00  0.00    -0.023 C 
HETATM   15  C17 UNL     1      -3.026  50.430 -27.407  1.00  0.00     0.005 C 
BRANCH  15  16
HETATM   16  C18 UNL     1      -1.917  51.341 -27.848  1.00  0.00     0.165 C 
BRANCH  16  17
HETATM   17  O1  UNL     1      -2.398  52.671 -27.915  1.00  0.00    -0.388 OA
HETATM   18  H28 UNL     1      -3.310  52.627 -28.248  1.00  0.00     0.210 HD
ENDBRANCH  16  17
BRANCH  16  19
HETATM   19  C19 UNL     1      -0.725  51.254 -26.938  1.00  0.00     0.028 C 
HETATM   20  C20 UNL     1       0.205  52.181 -26.641  1.00  0.00     0.013 C 
HETATM   21 CL1  UNL     1       0.129  53.803 -27.248  1.00  0.00    -0.089 Cl
BRANCH  20  22
HETATM   22  C21 UNL     1       1.352  51.920 -25.694  1.00  0.00     0.077 C 
BRANCH  22  23
HETATM   23  C22 UNL     1       2.525  51.206 -26.368  1.00  0.00     0.169 C 
BRANCH  23  24
HETATM   24  O2  UNL     1       3.200  52.056 -27.290  1.00  0.00    -0.401 OA
HETATM   25  H34 UNL     1       2.546  52.332 -27.958  1.00  0.00     0.209 HD
ENDBRANCH  23  24
ENDBRANCH  22  23
ENDBRANCH  20  22
ENDBRANCH  16  19
ENDBRANCH  15  16
ENDBRANCH  12  14
ENDBRANCH   9  12
BRANCH   1  26
HETATM   26  C4  UNL     1      -0.793  50.625 -22.377  1.00  0.00     0.063 C 
BRANCH  26  27
HETATM   27  C3  UNL     1      -0.009  51.895 -22.168  1.00  0.00    -0.011 C 
HETATM   28  C2  UNL     1       0.350  52.451 -20.993  1.00  0.00     0.008 C 
HETATM   29  C1  UNL     1       0.080  51.882 -19.634  1.00  0.00     0.055 C 
BRANCH  28  30
HETATM   30  C23 UNL     1       1.097  53.735 -21.068  1.00  0.00     0.171 C 
HETATM   31  O3  UNL     1       1.389  54.355 -22.075  1.00  0.00    -0.646 OA
BRANCH  30  32
HETATM   32  O4  UNL     1       1.436  54.199 -19.855  1.00  0.00    -0.773 OA
HETATM   33  H36 UNL     1       1.901  55.037 -20.055  1.00  0.00     0.167 HD
ENDBRANCH  30  32
ENDBRANCH  28  30
ENDBRANCH  26  27
ENDBRANCH   1  26
TORSDOF 12
ENDMDL
MODEL 2
REMARK minimizedAffinity -8.59728813
REMARK  12 active torsions:
REMARK  status: ('A' for Active; 'I' for Inactive)
REMARK    1  A    between atoms: C2_2  and  C23_27 
REMARK    2  A    between atoms: C3_3  and  C4_4 
REMARK    3  A    between atoms: C4_4  and  C5_5 
REMARK    4  A    between atoms: C13_13  and  C14_14 
REMARK    5  A    between atoms: C14_14  and  C16_16 
REMARK    6  A    between atoms: C17_17  and  C18_18 
REMARK    7  A    between atoms: C18_18  and  O1_19 
REMARK    8  A    between atoms: C18_18  and  C19_20 
REMARK    9  A    between atoms: C20_21  and  C21_23 
REMARK   10  A    between atoms: C21_23  and  C22_24 
REMARK   11  A    between atoms: C22_24  and  O2_25 
REMARK   12  A    between atoms: C23_27  and  O4_29 
ROOT
HETATM    1  C5  UNL     1      -3.498  50.701 -26.476  1.00  0.00     0.225 C 
HETATM    2  C6  UNL     1      -3.746  49.186 -26.626  1.00  0.00     0.036 C 
HETATM    3  C7  UNL     1      -2.844  48.372 -25.712  1.00  0.00     0.005 C 
HETATM    4  C8  UNL     1      -3.082  48.749 -24.249  1.00  0.00     0.042 C 
HETATM    5  C9  UNL     1      -3.345  50.261 -24.033  1.00  0.00     0.162 C 
HETATM    6  C10 UNL     1      -4.846  50.510 -23.736  1.00  0.00     0.042 C 
HETATM    7  C11 UNL     1      -4.909  51.898 -23.120  1.00  0.00     0.003 C 
HETATM    8  C12 UNL     1      -3.575  52.081 -22.405  1.00  0.00     0.008 C 
HETATM    9  C13 UNL     1      -2.724  50.823 -22.707  1.00  0.00     0.031 C 
HETATM   10  N1  UNL     1      -2.894  51.066 -25.180  1.00  0.00     0.098 N 
HETATM   11  H35 UNL     1      -1.880  50.999 -25.258  1.00  0.00     0.317 HD
ENDROOT
BRANCH   9  12
HETATM   12  C14 UNL     1      -1.198  51.150 -22.655  1.00  0.00     0.010 C 
HETATM   13  C15 UNL     1      -0.813  52.160 -23.751  1.00  0.00     0.015 C 
BRANCH  12  14
HETATM   14  C16 UNL     1      -0.723  51.584 -21.282  1.00  0.00    -0.023 C 
HETATM   15  C17 UNL     1       0.181  52.539 -21.001  1.00  0.00     0.005 C 
BRANCH  15  16
HETATM   16  C18 UNL     1       0.601  52.931 -19.614  1.00  0.00     0.165 C 
BRANCH  16  17
HETATM   17  O1  UNL     1       0.065  54.203 -19.301  1.00  0.00    -0.388 OA
HETATM   18  H28 UNL     1       0.100  54.735 -20.114  1.00  0.00     0.210 HD
ENDBRANCH  16  17
BRANCH  16  19
HETATM   19  C19 UNL     1       0.180  51.913 -18.593  1.00  0.00     0.028 C 
HETATM   20  C20 UNL     1       0.707  51.629 -17.387  1.00  0.00     0.013 C 
HETATM   21 CL1  UNL     1       2.026  52.530 -16.713  1.00  0.00    -0.089 Cl
BRANCH  20  22
HETATM   22  C21 UNL     1       0.152  50.558 -16.479  1.00  0.00     0.077 C 
BRANCH  22  23
HETATM   23  C22 UNL     1      -0.395  49.354 -17.249  1.00  0.00     0.169 C 
BRANCH  23  24
HETATM   24  O2  UNL     1      -0.419  48.180 -16.444  1.00  0.00    -0.401 OA
HETATM   25  H34 UNL     1       0.498  48.009 -16.159  1.00  0.00     0.209 HD
ENDBRANCH  23  24
ENDBRANCH  22  23
ENDBRANCH  20  22
ENDBRANCH  16  19
ENDBRANCH  15  16
ENDBRANCH  12  14
ENDBRANCH   9  12
BRANCH   1  26
HETATM   26  C4  UNL     1      -2.624  51.221 -27.646  1.00  0.00     0.063 C 
BRANCH  26  27
HETATM   27  C3  UNL     1      -1.872  52.486 -27.319  1.00  0.00    -0.011 C 
HETATM   28  C2  UNL     1      -0.562  52.735 -27.524  1.00  0.00     0.008 C 
HETATM   29  C1  UNL     1       0.415  51.807 -28.176  1.00  0.00     0.055 C 
BRANCH  28  30
HETATM   30  C23 UNL     1      -0.062  54.061 -27.074  1.00  0.00     0.171 C 
HETATM   31  O3  UNL     1      -0.343  55.149 -27.545  1.00  0.00    -0.646 OA
BRANCH  30  32
HETATM   32  O4  UNL     1       0.771  53.962 -26.026  1.00  0.00    -0.773 OA
HETATM   33  H36 UNL     1       1.007  54.893 -25.835  1.00  0.00     0.167 HD
ENDBRANCH  30  32
ENDBRANCH  28  30
ENDBRANCH  26  27
ENDBRANCH   1  26
TORSDOF 12
ENDMDL
MODEL 3
REMARK minimizedAffinity -8.51422977
REMARK  12 active torsions:
REMARK  status: ('A' for Active; 'I' for Inactive)
REMARK    1  A    between atoms: C2_2  and  C23_27 
REMARK    2  A    between atoms: C3_3  and  C4_4 
REMARK    3  A    between atoms: C4_4  and  C5_5 
REMARK    4  A    between atoms: C13_13  and  C14_14 
REMARK    5  A    between atoms: C14_14  and  C16_16 
REMARK    6  A    between atoms: C17_17  and  C18_18 
REMARK    7  A    between atoms: C18_18  and  O1_19 
REMARK    8  A    between atoms: C18_18  and  C19_20 
REMARK    9  A    between atoms: C20_21  and  C21_23 
REMARK   10  A    between atoms: C21_23  and  C22_24 
REMARK   11  A    between atoms: C22_24  and  O2_25 
REMARK   12  A    between atoms: C23_27  and  O4_29 
ROOT
HETATM    1  C5  UNL     1      -1.933  49.523 -20.703  1.00  0.00     0.225 C 
HETATM    2  C6  UNL     1      -2.525  50.133 -19.416  1.00  0.00     0.036 C 
HETATM    3  C7  UNL     1      -3.381  51.355 -19.709  1.00  0.00     0.005 C 
HETATM    4  C8  UNL     1      -4.540  50.988 -20.637  1.00  0.00     0.042 C 
HETATM    5  C9  UNL     1      -4.161  49.952 -21.725  1.00  0.00     0.162 C 
HETATM    6  C10 UNL     1      -4.759  48.565 -21.381  1.00  0.00     0.042 C 
HETATM    7  C11 UNL     1      -4.714  47.774 -22.678  1.00  0.00     0.003 C 
HETATM    8  C12 UNL     1      -4.845  48.812 -23.786  1.00  0.00     0.008 C 
HETATM    9  C13 UNL     1      -4.866  50.203 -23.103  1.00  0.00     0.031 C 
HETATM   10  N1  UNL     1      -2.703  49.866 -21.915  1.00  0.00     0.098 N 
HETATM   11  H35 UNL     1      -2.361  50.751 -22.284  1.00  0.00     0.317 HD
ENDROOT
BRANCH   9  12
HETATM   12  C14 UNL     1      -4.314  51.308 -24.057  1.00  0.00     0.010 C 
HETATM   13  C15 UNL     1      -3.501  52.355 -23.274  1.00  0.00     0.015 C 
BRANCH  12  14
HETATM   14  C16 UNL     1      -3.545  50.751 -25.239  1.00  0.00    -0.023 C 
HETATM   15  C17 UNL     1      -3.343  51.346 -26.428  1.00  0.00     0.005 C 
BRANCH  15  16
HETATM   16  C18 UNL     1      -2.559  50.744 -27.558  1.00  0.00     0.165 C 
BRANCH  16  17
HETATM   17  O1  UNL     1      -3.314  50.827 -28.753  1.00  0.00    -0.388 OA
HETATM   18  H28 UNL     1      -4.243  50.671 -28.513  1.00  0.00     0.210 HD
ENDBRANCH  16  17
BRANCH  16  19
HETATM   19  C19 UNL     1      -1.222  51.407 -27.729  1.00  0.00     0.028 C 
HETATM   20  C20 UNL     1      -0.207  51.543 -26.855  1.00  0.00     0.013 C 
HETATM   21 CL1  UNL     1      -0.241  50.837 -25.272  1.00  0.00    -0.089 Cl
BRANCH  20  22
HETATM   22  C21 UNL     1       1.082  52.251 -27.197  1.00  0.00     0.077 C 
BRANCH  22  23
HETATM   23  C22 UNL     1       2.302  51.613 -26.530  1.00  0.00     0.169 C 
BRANCH  23  24
HETATM   24  O2  UNL     1       3.391  51.482 -27.438  1.00  0.00    -0.401 OA
HETATM   25  H34 UNL     1       3.084  50.926 -28.177  1.00  0.00     0.209 HD
ENDBRANCH  23  24
ENDBRANCH  22  23
ENDBRANCH  20  22
ENDBRANCH  16  19
ENDBRANCH  15  16
ENDBRANCH  12  14
ENDBRANCH   9  12
BRANCH   1  26
HETATM   26  C4  UNL     1      -0.451  49.945 -20.867  1.00  0.00     0.063 C 
BRANCH  26  27
HETATM   27  C3  UNL     1      -0.129  51.270 -20.225  1.00  0.00    -0.011 C 
HETATM   28  C2  UNL     1       0.169  52.430 -20.846  1.00  0.00     0.008 C 
HETATM   29  C1  UNL     1       0.192  52.651 -22.327  1.00  0.00     0.055 C 
BRANCH  28  30
HETATM   30  C23 UNL     1       0.484  53.590 -19.970  1.00  0.00     0.171 C 
HETATM   31  O3  UNL     1      -0.108  53.927 -18.960  1.00  0.00    -0.646 OA
BRANCH  30  32
HETATM   32  O4  UNL     1       1.553  54.277 -20.399  1.00  0.00    -0.773 OA
HETATM   33  H36 UNL     1       1.647  54.989 -19.734  1.00  0.00     0.167 HD
ENDBRANCH  30  32
ENDBRANCH  28  30
ENDBRANCH  26  27
ENDBRANCH   1  26
TORSDOF 12
ENDMDL
MODEL 4
REMARK minimizedAffinity -8.40796566
REMARK  12 active torsions:
REMARK  status: ('A' for Active; 'I' for Inactive)
REMARK    1  A    between atoms: C2_2  and  C23_27 
REMARK    2  A    between atoms: C3_3  and  C4_4 
REMARK    3  A    between atoms: C4_4  and  C5_5 
REMARK    4  A    between atoms: C13_13  and  C14_14 
REMARK    5  A    between atoms: C14_14  and  C16_16 
REMARK    6  A    between atoms: C17_17  and  C18_18 
REMARK    7  A    between atoms: C18_18  and  O1_19 
REMARK    8  A    between atoms: C18_18  and  C19_20 
REMARK    9  A    between atoms: C20_21  and  C21_23 
REMARK   10  A    between atoms: C21_23  and  C22_24 
REMARK   11  A    between atoms: C22_24  and  O2_25 
REMARK   12  A    between atoms: C23_27  and  O4_29 
ROOT
HETATM    1  C5  UNL     1      -1.414  51.380 -24.571  1.00  0.00     0.225 C 
HETATM    2  C6  UNL     1      -2.490  52.484 -24.529  1.00  0.00     0.036 C 
HETATM    3  C7  UNL     1      -3.738  52.032 -23.788  1.00  0.00     0.005 C 
HETATM    4  C8  UNL     1      -3.396  51.648 -22.347  1.00  0.00     0.042 C 
HETATM    5  C9  UNL     1      -2.031  50.928 -22.204  1.00  0.00     0.162 C 
HETATM    6  C10 UNL     1      -0.980  51.884 -21.585  1.00  0.00     0.042 C 
HETATM    7  C11 UNL     1       0.140  50.984 -21.090  1.00  0.00     0.003 C 
HETATM    8  C12 UNL     1      -0.534  49.666 -20.728  1.00  0.00     0.008 C 
HETATM    9  C13 UNL     1      -2.028  49.801 -21.114  1.00  0.00     0.031 C 
HETATM   10  N1  UNL     1      -1.559  50.387 -23.489  1.00  0.00     0.098 N 
HETATM   11  H35 UNL     1      -2.196  49.654 -23.797  1.00  0.00     0.317 HD
ENDROOT
BRANCH   9  12
HETATM   12  C14 UNL     1      -2.650  48.409 -21.450  1.00  0.00     0.010 C 
HETATM   13  C15 UNL     1      -3.442  47.856 -20.251  1.00  0.00     0.015 C 
BRANCH  12  14
HETATM   14  C16 UNL     1      -3.468  48.408 -22.727  1.00  0.00    -0.023 C 
HETATM   15  C17 UNL     1      -4.807  48.470 -22.833  1.00  0.00     0.005 C 
BRANCH  15  16
HETATM   16  C18 UNL     1      -5.557  48.477 -24.133  1.00  0.00     0.165 C 
BRANCH  16  17
HETATM   17  O1  UNL     1      -6.476  49.554 -24.142  1.00  0.00    -0.388 OA
HETATM   18  H28 UNL     1      -6.831  49.632 -23.240  1.00  0.00     0.210 HD
ENDBRANCH  16  17
BRANCH  16  19
HETATM   19  C19 UNL     1      -4.632  48.560 -25.314  1.00  0.00     0.028 C 
HETATM   20  C20 UNL     1      -4.831  48.198 -26.595  1.00  0.00     0.013 C 
HETATM   21 CL1  UNL     1      -6.354  47.601 -27.167  1.00  0.00    -0.089 Cl
BRANCH  20  22
HETATM   22  C21 UNL     1      -3.777  48.352 -27.665  1.00  0.00     0.077 C 
BRANCH  22  23
HETATM   23  C22 UNL     1      -4.295  49.084 -28.905  1.00  0.00     0.169 C 
BRANCH  23  24
HETATM   24  O2  UNL     1      -3.636  50.331 -29.096  1.00  0.00    -0.401 OA
HETATM   25  H34 UNL     1      -3.798  50.866 -28.297  1.00  0.00     0.209 HD
ENDBRANCH  23  24
ENDBRANCH  22  23
ENDBRANCH  20  22
ENDBRANCH  16  19
ENDBRANCH  15  16
ENDBRANCH  12  14
ENDBRANCH   9  12
BRANCH   1  26
HETATM   26  C4  UNL     1      -1.417  50.678 -25.953  1.00  0.00     0.063 C 
BRANCH  26  27
HETATM   27  C3  UNL     1      -0.141  50.878 -26.731  1.00  0.00    -0.011 C 
HETATM   28  C2  UNL     1       0.966  51.538 -26.333  1.00  0.00     0.008 C 
HETATM   29  C1  UNL     1       1.173  52.173 -24.993  1.00  0.00     0.055 C 
BRANCH  28  30
HETATM   30  C23 UNL     1       2.079  51.617 -27.315  1.00  0.00     0.171 C 
HETATM   31  O3  UNL     1       1.998  51.920 -28.492  1.00  0.00    -0.646 OA
BRANCH  30  32
HETATM   32  O4  UNL     1       3.267  51.322 -26.764  1.00  0.00    -0.773 OA
HETATM   33  H36 UNL     1       3.894  51.425 -27.508  1.00  0.00     0.167 HD
ENDBRANCH  30  32
ENDBRANCH  28  30
ENDBRANCH  26  27
ENDBRANCH   1  26
TORSDOF 12
ENDMDL
MODEL 5
REMARK minimizedAffinity -8.3193779
REMARK  12 active torsions:
REMARK  status: ('A' for Active; 'I' for Inactive)
REMARK    1  A    between atoms: C2_2  and  C23_27 
REMARK    2  A    between atoms: C3_3  and  C4_4 
REMARK    3  A    between atoms: C4_4  and  C5_5 
REMARK    4  A    between atoms: C13_13  and  C14_14 
REMARK    5  A    between atoms: C14_14  and  C16_16 
REMARK    6  A    between atoms: C17_17  and  C18_18 
REMARK    7  A    between atoms: C18_18  and  O1_19 
REMARK    8  A    between atoms: C18_18  and  C19_20 
REMARK    9  A    between atoms: C20_21  and  C21_23 
REMARK   10  A    between atoms: C21_23  and  C22_24 
REMARK   11  A    between atoms: C22_24  and  O2_25 
REMARK   12  A    between atoms: C23_27  and  O4_29 
ROOT
HETATM    1  C5  UNL     1      -0.694  51.213 -23.805  1.00  0.00     0.225 C 
HETATM    2  C6  UNL     1      -1.404  52.535 -23.449  1.00  0.00     0.036 C 
HETATM    3  C7  UNL     1      -2.911  52.360 -23.349  1.00  0.00     0.005 C 
HETATM    4  C8  UNL     1      -3.261  51.329 -22.274  1.00  0.00     0.042 C 
HETATM    5  C9  UNL     1      -2.274  50.136 -22.214  1.00  0.00     0.162 C 
HETATM    6  C10 UNL     1      -1.353  50.260 -20.973  1.00  0.00     0.042 C 
HETATM    7  C11 UNL     1      -0.764  48.874 -20.770  1.00  0.00     0.003 C 
HETATM    8  C12 UNL     1      -1.819  47.908 -21.296  1.00  0.00     0.008 C 
HETATM    9  C13 UNL     1      -2.964  48.767 -21.887  1.00  0.00     0.031 C 
HETATM   10  N1  UNL     1      -1.481  50.017 -23.449  1.00  0.00     0.098 N 
HETATM   11  H35 UNL     1      -2.101  49.788 -24.224  1.00  0.00     0.317 HD
ENDROOT
BRANCH   9  12
HETATM   12  C14 UNL     1      -3.718  48.000 -23.018  1.00  0.00     0.010 C 
HETATM   13  C15 UNL     1      -5.062  47.448 -22.508  1.00  0.00     0.015 C 
BRANCH  12  14
HETATM   14  C16 UNL     1      -3.875  48.808 -24.291  1.00  0.00    -0.023 C 
HETATM   15  C17 UNL     1      -3.662  48.388 -25.550  1.00  0.00     0.005 C 
BRANCH  15  16
HETATM   16  C18 UNL     1      -3.848  49.239 -26.774  1.00  0.00     0.165 C 
BRANCH  16  17
HETATM   17  O1  UNL     1      -2.590  49.727 -27.204  1.00  0.00    -0.388 OA
HETATM   18  H28 UNL     1      -2.074  49.925 -26.405  1.00  0.00     0.210 HD
ENDBRANCH  16  17
BRANCH  16  19
HETATM   19  C19 UNL     1      -4.531  48.487 -27.880  1.00  0.00     0.028 C 
HETATM   20  C20 UNL     1      -5.690  47.801 -27.872  1.00  0.00     0.013 C 
HETATM   21 CL1  UNL     1      -6.723  47.737 -26.480  1.00  0.00    -0.089 Cl
BRANCH  20  22
HETATM   22  C21 UNL     1      -6.235  47.095 -29.089  1.00  0.00     0.077 C 
BRANCH  22  23
HETATM   23  C22 UNL     1      -5.870  47.801 -30.396  1.00  0.00     0.169 C 
BRANCH  23  24
HETATM   24  O2  UNL     1      -6.644  48.980 -30.592  1.00  0.00    -0.401 OA
HETATM   25  H34 UNL     1      -7.580  48.711 -30.606  1.00  0.00     0.209 HD
ENDBRANCH  23  24
ENDBRANCH  22  23
ENDBRANCH  20  22
ENDBRANCH  16  19
ENDBRANCH  15  16
ENDBRANCH  12  14
ENDBRANCH   9  12
BRANCH   1  26
HETATM   26  C4  UNL     1      -0.323  51.189 -25.309  1.00  0.00     0.063 C 
BRANCH  26  27
HETATM   27  C3  UNL     1      -0.656  52.470 -26.031  1.00  0.00    -0.011 C 
HETATM   28  C2  UNL     1      -0.317  52.812 -27.291  1.00  0.00     0.008 C 
HETATM   29  C1  UNL     1       0.431  51.951 -28.262  1.00  0.00     0.055 C 
BRANCH  28  30
HETATM   30  C23 UNL     1      -0.745  54.160 -27.750  1.00  0.00     0.171 C 
HETATM   31  O3  UNL     1      -0.203  55.224 -27.506  1.00  0.00    -0.646 OA
BRANCH  30  32
HETATM   32  O4  UNL     1      -1.844  54.111 -28.519  1.00  0.00    -0.773 OA
HETATM   33  H36 UNL     1      -1.999  55.049 -28.753  1.00  0.00     0.167 HD
ENDBRANCH  30  32
ENDBRANCH  28  30
ENDBRANCH  26  27
ENDBRANCH   1  26
TORSDOF 12
ENDMDL
MODEL 6
REMARK minimizedAffinity -8.22670364
REMARK  12 active torsions:
REMARK  status: ('A' for Active; 'I' for Inactive)
REMARK    1  A    between atoms: C2_2  and  C23_27 
REMARK    2  A    between atoms: C3_3  and  C4_4 
REMARK    3  A    between atoms: C4_4  and  C5_5 
REMARK    4  A    between atoms: C13_13  and  C14_14 
REMARK    5  A    between atoms: C14_14  and  C16_16 
REMARK    6  A    between atoms: C17_17  and  C18_18 
REMARK    7  A    between atoms: C18_18  and  O1_19 
REMARK    8  A    between atoms: C18_18  and  C19_20 
REMARK    9  A    between atoms: C20_21  and  C21_23 
REMARK   10  A    between atoms: C21_23  and  C22_24 
REMARK   11  A    between atoms: C22_24  and  O2_25 
REMARK   12  A    between atoms: C23_27  and  O4_29 
ROOT
HETATM    1  C5  UNL     1      -0.496  51.892 -23.222  1.00  0.00     0.225 C 
HETATM    2  C6  UNL     1      -1.680  52.874 -23.345  1.00  0.00     0.036 C 
HETATM    3  C7  UNL     1      -3.016  52.149 -23.379  1.00  0.00     0.005 C 
HETATM    4  C8  UNL     1      -3.212  51.326 -22.104  1.00  0.00     0.042 C 
HETATM    5  C9  UNL     1      -1.912  50.660 -21.590  1.00  0.00     0.162 C 
HETATM    6  C10 UNL     1      -1.384  51.402 -20.336  1.00  0.00     0.042 C 
HETATM    7  C11 UNL     1      -0.411  50.439 -19.677  1.00  0.00     0.003 C 
HETATM    8  C12 UNL     1      -0.924  49.047 -20.028  1.00  0.00     0.008 C 
HETATM    9  C13 UNL     1      -2.139  49.237 -20.970  1.00  0.00     0.031 C 
HETATM   10  N1  UNL     1      -0.878  50.593 -22.636  1.00  0.00     0.098 N 
HETATM   11  H35 UNL     1      -1.196  49.976 -23.381  1.00  0.00     0.317 HD
ENDROOT
BRANCH   9  12
HETATM   12  C14 UNL     1      -2.314  48.008 -21.917  1.00  0.00     0.010 C 
HETATM   13  C15 UNL     1      -2.673  46.743 -21.116  1.00  0.00     0.015 C 
BRANCH  12  14
HETATM   14  C16 UNL     1      -3.283  48.261 -23.056  1.00  0.00    -0.023 C 
HETATM   15  C17 UNL     1      -4.609  48.044 -23.056  1.00  0.00     0.005 C 
BRANCH  15  16
HETATM   16  C18 UNL     1      -5.518  48.327 -24.217  1.00  0.00     0.165 C 
BRANCH  16  17
HETATM   17  O1  UNL     1      -6.329  49.448 -23.920  1.00  0.00    -0.388 OA
HETATM   18  H28 UNL     1      -6.557  49.391 -22.976  1.00  0.00     0.210 HD
ENDBRANCH  16  17
BRANCH  16  19
HETATM   19  C19 UNL     1      -4.748  48.552 -25.488  1.00  0.00     0.028 C 
HETATM   20  C20 UNL     1      -5.061  48.229 -26.757  1.00  0.00     0.013 C 
HETATM   21 CL1  UNL     1      -6.580  47.512 -27.186  1.00  0.00    -0.089 Cl
BRANCH  20  22
HETATM   22  C21 UNL     1      -4.158  48.533 -27.928  1.00  0.00     0.077 C 
BRANCH  22  23
HETATM   23  C22 UNL     1      -3.376  49.835 -27.750  1.00  0.00     0.169 C 
BRANCH  23  24
HETATM   24  O2  UNL     1      -3.419  50.641 -28.923  1.00  0.00    -0.401 OA
HETATM   25  H34 UNL     1      -3.035  50.114 -29.648  1.00  0.00     0.209 HD
ENDBRANCH  23  24
ENDBRANCH  22  23
ENDBRANCH  20  22
ENDBRANCH  16  19
ENDBRANCH  15  16
ENDBRANCH  12  14
ENDBRANCH   9  12
BRANCH   1  26
HETATM   26  C4  UNL     1       0.177  51.687 -24.603  1.00  0.00     0.063 C 
BRANCH  26  27
HETATM   27  C3  UNL     1      -0.121  52.788 -25.587  1.00  0.00    -0.011 C 
HETATM   28  C2  UNL     1      -0.048  52.725 -26.933  1.00  0.00     0.008 C 
HETATM   29  C1  UNL     1       0.304  51.511 -27.736  1.00  0.00     0.055 C 
BRANCH  28  30
HETATM   30  C23 UNL     1      -0.364  53.976 -27.673  1.00  0.00     0.171 C 
HETATM   31  O3  UNL     1      -0.162  55.118 -27.302  1.00  0.00    -0.646 OA
BRANCH  30  32
HETATM   32  O4  UNL     1      -0.916  53.732 -28.872  1.00  0.00    -0.773 OA
HETATM   33  H36 UNL     1      -1.057  54.627 -29.242  1.00  0.00     0.167 HD
ENDBRANCH  30  32
ENDBRANCH  28  30
ENDBRANCH  26  27
ENDBRANCH   1  26
TORSDOF 12
ENDMDL
MODEL 7
REMARK minimizedAffinity -8.21276188
REMARK  12 active torsions:
REMARK  status: ('A' for Active; 'I' for Inactive)
REMARK    1  A    between atoms: C2_2  and  C23_27 
REMARK    2  A    between atoms: C3_3  and  C4_4 
REMARK    3  A    between atoms: C4_4  and  C5_5 
REMARK    4  A    between atoms: C13_13  and  C14_14 
REMARK    5  A    between atoms: C14_14  and  C16_16 
REMARK    6  A    between atoms: C17_17  and  C18_18 
REMARK    7  A    between atoms: C18_18  and  O1_19 
REMARK    8  A    between atoms: C18_18  and  C19_20 
REMARK    9  A    between atoms: C20_21  and  C21_23 
REMARK   10  A    between atoms: C21_23  and  C22_24 
REMARK   11  A    between atoms: C22_24  and  O2_25 
REMARK   12  A    between atoms: C23_27  and  O4_29 
ROOT
HETATM    1  C5  UNL     1      -3.341  50.402 -19.986  1.00  0.00     0.225 C 
HETATM    2  C6  UNL     1      -3.155  49.018 -20.642  1.00  0.00     0.036 C 
HETATM    3  C7  UNL     1      -2.194  49.073 -21.819  1.00  0.00     0.005 C 
HETATM    4  C8  UNL     1      -0.820  49.571 -21.367  1.00  0.00     0.042 C 
HETATM    5  C9  UNL     1      -0.888  50.682 -20.290  1.00  0.00     0.162 C 
HETATM    6  C10 UNL     1      -0.494  50.114 -18.903  1.00  0.00     0.042 C 
HETATM    7  C11 UNL     1      -0.166  51.327 -18.048  1.00  0.00     0.003 C 
HETATM    8  C12 UNL     1       0.355  52.376 -19.023  1.00  0.00     0.008 C 
HETATM    9  C13 UNL     1       0.227  51.775 -20.445  1.00  0.00     0.031 C 
HETATM   10  N1  UNL     1      -2.214  51.320 -20.241  1.00  0.00     0.098 N 
HETATM   11  H35 UNL     1      -2.380  51.813 -21.117  1.00  0.00     0.317 HD
ENDROOT
BRANCH   9  12
HETATM   12  C14 UNL     1       0.054  52.897 -21.517  1.00  0.00     0.010 C 
HETATM   13  C15 UNL     1       1.274  53.837 -21.531  1.00  0.00     0.015 C 
BRANCH  12  14
HETATM   14  C16 UNL     1      -0.275  52.364 -22.898  1.00  0.00    -0.023 C 
HETATM   15  C17 UNL     1      -1.453  52.448 -23.540  1.00  0.00     0.005 C 
BRANCH  15  16
HETATM   16  C18 UNL     1      -1.712  51.907 -24.917  1.00  0.00     0.165 C 
BRANCH  16  17
HETATM   17  O1  UNL     1      -2.634  52.746 -25.587  1.00  0.00    -0.388 OA
HETATM   18  H28 UNL     1      -3.281  53.044 -24.925  1.00  0.00     0.210 HD
ENDBRANCH  16  17
BRANCH  16  19
HETATM   19  C19 UNL     1      -0.445  51.770 -25.712  1.00  0.00     0.028 C 
HETATM   20  C20 UNL     1      -0.118  52.284 -26.912  1.00  0.00     0.013 C 
HETATM   21 CL1  UNL     1      -1.166  53.356 -27.782  1.00  0.00    -0.089 Cl
BRANCH  20  22
HETATM   22  C21 UNL     1       1.217  52.040 -27.574  1.00  0.00     0.077 C 
BRANCH  22  23
HETATM   23  C22 UNL     1       2.278  51.529 -26.597  1.00  0.00     0.169 C 
BRANCH  23  24
HETATM   24  O2  UNL     1       3.548  51.390 -27.223  1.00  0.00    -0.401 OA
HETATM   25  H34 UNL     1       3.438  50.760 -27.959  1.00  0.00     0.209 HD
ENDBRANCH  23  24
ENDBRANCH  22  23
ENDBRANCH  20  22
ENDBRANCH  16  19
ENDBRANCH  15  16
ENDBRANCH  12  14
ENDBRANCH   9  12
BRANCH   1  26
HETATM   26  C4  UNL     1      -4.675  51.041 -20.448  1.00  0.00     0.063 C 
BRANCH  26  27
HETATM   27  C3  UNL     1      -5.472  50.164 -21.378  1.00  0.00    -0.011 C 
HETATM   28  C2  UNL     1      -5.741  50.384 -22.681  1.00  0.00     0.008 C 
HETATM   29  C1  UNL     1      -5.251  51.541 -23.495  1.00  0.00     0.055 C 
BRANCH  28  30
HETATM   30  C23 UNL     1      -6.587  49.369 -23.364  1.00  0.00     0.171 C 
HETATM   31  O3  UNL     1      -6.776  48.217 -23.014  1.00  0.00    -0.646 OA
BRANCH  30  32
HETATM   32  O4  UNL     1      -7.180  49.857 -24.464  1.00  0.00    -0.773 OA
HETATM   33  H36 UNL     1      -7.702  49.098 -24.796  1.00  0.00     0.167 HD
ENDBRANCH  30  32
ENDBRANCH  28  30
ENDBRANCH  26  27
ENDBRANCH   1  26
TORSDOF 12
ENDMDL
MODEL 8
REMARK minimizedAffinity -8.18557835
REMARK  12 active torsions:
REMARK  status: ('A' for Active; 'I' for Inactive)
REMARK    1  A    between atoms: C2_2  and  C23_27 
REMARK    2  A    between atoms: C3_3  and  C4_4 
REMARK    3  A    between atoms: C4_4  and  C5_5 
REMARK    4  A    between atoms: C13_13  and  C14_14 
REMARK    5  A    between atoms: C14_14  and  C16_16 
REMARK    6  A    between atoms: C17_17  and  C18_18 
REMARK    7  A    between atoms: C18_18  and  O1_19 
REMARK    8  A    between atoms: C18_18  and  C19_20 
REMARK    9  A    between atoms: C20_21  and  C21_23 
REMARK   10  A    between atoms: C21_23  and  C22_24 
REMARK   11  A    between atoms: C22_24  and  O2_25 
REMARK   12  A    between atoms: C23_27  and  O4_29 
ROOT
HETATM    1  C5  UNL     1      -2.357  51.711 -22.524  1.00  0.00     0.225 C 
HETATM    2  C6  UNL     1      -2.792  52.838 -23.483  1.00  0.00     0.036 C 
HETATM    3  C7  UNL     1      -3.623  52.308 -24.641  1.00  0.00     0.005 C 
HETATM    4  C8  UNL     1      -4.883  51.613 -24.123  1.00  0.00     0.042 C 
HETATM    5  C9  UNL     1      -4.656  50.808 -22.819  1.00  0.00     0.162 C 
HETATM    6  C10 UNL     1      -5.273  51.555 -21.609  1.00  0.00     0.042 C 
HETATM    7  C11 UNL     1      -5.389  50.513 -20.509  1.00  0.00     0.003 C 
HETATM    8  C12 UNL     1      -5.588  49.186 -21.232  1.00  0.00     0.008 C 
HETATM    9  C13 UNL     1      -5.485  49.478 -22.750  1.00  0.00     0.031 C 
HETATM   10  N1  UNL     1      -3.229  50.523 -22.591  1.00  0.00     0.098 N 
HETATM   11  H35 UNL     1      -2.890  49.905 -23.327  1.00  0.00     0.317 HD
ENDROOT
BRANCH   9  12
HETATM   12  C14 UNL     1      -4.986  48.223 -23.532  1.00  0.00     0.010 C 
HETATM   13  C15 UNL     1      -6.172  47.378 -24.032  1.00  0.00     0.015 C 
BRANCH  12  14
HETATM   14  C16 UNL     1      -4.010  48.556 -24.644  1.00  0.00    -0.023 C 
HETATM   15  C17 UNL     1      -4.194  48.384 -25.964  1.00  0.00     0.005 C 
BRANCH  15  16
HETATM   16  C18 UNL     1      -3.188  48.746 -27.018  1.00  0.00     0.165 C 
BRANCH  16  17
HETATM   17  O1  UNL     1      -3.521  48.098 -28.231  1.00  0.00    -0.388 OA
HETATM   18  H28 UNL     1      -3.859  47.216 -27.999  1.00  0.00     0.210 HD
ENDBRANCH  16  17
BRANCH  16  19
HETATM   19  C19 UNL     1      -3.098  50.232 -27.219  1.00  0.00     0.028 C 
HETATM   20  C20 UNL     1      -2.041  51.058 -27.103  1.00  0.00     0.013 C 
HETATM   21 CL1  UNL     1      -0.444  50.480 -26.756  1.00  0.00    -0.089 Cl
BRANCH  20  22
HETATM   22  C21 UNL     1      -2.131  52.546 -27.343  1.00  0.00     0.077 C 
BRANCH  22  23
HETATM   23  C22 UNL     1      -0.759  53.222 -27.385  1.00  0.00     0.169 C 
BRANCH  23  24
HETATM   24  O2  UNL     1      -0.245  53.288 -28.711  1.00  0.00    -0.401 OA
HETATM   25  H34 UNL     1      -0.178  52.372 -29.039  1.00  0.00     0.209 HD
ENDBRANCH  23  24
ENDBRANCH  22  23
ENDBRANCH  20  22
ENDBRANCH  16  19
ENDBRANCH  15  16
ENDBRANCH  12  14
ENDBRANCH   9  12
BRANCH   1  26
HETATM   26  C4  UNL     1      -0.883  51.316 -22.792  1.00  0.00     0.063 C 
BRANCH  26  27
HETATM   27  C3  UNL     1       0.108  52.375 -22.380  1.00  0.00    -0.011 C 
HETATM   28  C2  UNL     1       0.378  52.800 -21.129  1.00  0.00     0.008 C 
HETATM   29  C1  UNL     1      -0.227  52.262 -19.869  1.00  0.00     0.055 C 
BRANCH  28  30
HETATM   30  C23 UNL     1       1.382  53.890 -21.002  1.00  0.00     0.171 C 
HETATM   31  O3  UNL     1       1.881  54.536 -21.907  1.00  0.00    -0.646 OA
BRANCH  30  32
HETATM   32  O4  UNL     1       1.710  54.134 -19.724  1.00  0.00    -0.773 OA
HETATM   33  H36 UNL     1       2.357  54.866 -19.791  1.00  0.00     0.167 HD
ENDBRANCH  30  32
ENDBRANCH  28  30
ENDBRANCH  26  27
ENDBRANCH   1  26
TORSDOF 12
ENDMDL
MODEL 9
REMARK minimizedAffinity -8.16404915
REMARK  12 active torsions:
REMARK  status: ('A' for Active; 'I' for Inactive)
REMARK    1  A    between atoms: C2_2  and  C23_27 
REMARK    2  A    between atoms: C3_3  and  C4_4 
REMARK    3  A    between atoms: C4_4  and  C5_5 
REMARK    4  A    between atoms: C13_13  and  C14_14 
REMARK    5  A    between atoms: C14_14  and  C16_16 
REMARK    6  A    between atoms: C17_17  and  C18_18 
REMARK    7  A    between atoms: C18_18  and  O1_19 
REMARK    8  A    between atoms: C18_18  and  C19_20 
REMARK    9  A    between atoms: C20_21  and  C21_23 
REMARK   10  A    between atoms: C21_23  and  C22_24 
REMARK   11  A    between atoms: C22_24  and  O2_25 
REMARK   12  A    between atoms: C23_27  and  O4_29 
ROOT
HETATM    1  C5  UNL     1      -2.149  50.363 -25.604  1.00  0.00     0.225 C 
HETATM    2  C6  UNL     1      -3.374  51.236 -25.943  1.00  0.00     0.036 C 
HETATM    3  C7  UNL     1      -4.194  51.567 -24.706  1.00  0.00     0.005 C 
HETATM    4  C8  UNL     1      -3.341  52.322 -23.685  1.00  0.00     0.042 C 
HETATM    5  C9  UNL     1      -1.877  51.823 -23.609  1.00  0.00     0.162 C 
HETATM    6  C10 UNL     1      -0.924  52.839 -24.289  1.00  0.00     0.042 C 
HETATM    7  C11 UNL     1       0.465  52.491 -23.780  1.00  0.00     0.003 C 
HETATM    8  C12 UNL     1       0.249  51.909 -22.388  1.00  0.00     0.008 C 
HETATM    9  C13 UNL     1      -1.281  51.843 -22.158  1.00  0.00     0.031 C 
HETATM   10  N1  UNL     1      -1.723  50.482 -24.197  1.00  0.00     0.098 N 
HETATM   11  H35 UNL     1      -2.244  49.809 -23.636  1.00  0.00     0.317 HD
ENDROOT
BRANCH   9  12
HETATM   12  C14 UNL     1      -1.652  50.700 -21.162  1.00  0.00     0.010 C 
HETATM   13  C15 UNL     1      -1.166  49.335 -21.684  1.00  0.00     0.015 C 
BRANCH  12  14
HETATM   14  C16 UNL     1      -1.193  50.967 -19.742  1.00  0.00    -0.023 C 
HETATM   15  C17 UNL     1      -0.821  50.057 -18.825  1.00  0.00     0.005 C 
BRANCH  15  16
HETATM   16  C18 UNL     1      -0.364  50.390 -17.434  1.00  0.00     0.165 C 
BRANCH  16  17
HETATM   17  O1  UNL     1      -0.065  49.194 -16.737  1.00  0.00    -0.388 OA
HETATM   18  H28 UNL     1      -0.722  48.533 -17.014  1.00  0.00     0.210 HD
ENDBRANCH  16  17
BRANCH  16  19
HETATM   19  C19 UNL     1       0.823  51.310 -17.440  1.00  0.00     0.028 C 
HETATM   20  C20 UNL     1       1.329  52.075 -16.454  1.00  0.00     0.013 C 
HETATM   21 CL1  UNL     1       0.687  52.061 -14.843  1.00  0.00    -0.089 Cl
BRANCH  20  22
HETATM   22  C21 UNL     1       2.544  52.953 -16.636  1.00  0.00     0.077 C 
BRANCH  22  23
HETATM   23  C22 UNL     1       3.773  52.423 -15.894  1.00  0.00     0.169 C 
BRANCH  23  24
HETATM   24  O2  UNL     1       3.640  52.567 -14.484  1.00  0.00    -0.401 OA
HETATM   25  H34 UNL     1       3.522  53.518 -14.302  1.00  0.00     0.209 HD
ENDBRANCH  23  24
ENDBRANCH  22  23
ENDBRANCH  20  22
ENDBRANCH  16  19
ENDBRANCH  15  16
ENDBRANCH  12  14
ENDBRANCH   9  12
BRANCH   1  26
HETATM   26  C4  UNL     1      -2.428  48.881 -25.962  1.00  0.00     0.063 C 
BRANCH  26  27
HETATM   27  C3  UNL     1      -3.305  48.711 -27.176  1.00  0.00    -0.011 C 
HETATM   28  C2  UNL     1      -4.605  48.354 -27.203  1.00  0.00     0.008 C 
HETATM   29  C1  UNL     1      -5.469  48.098 -26.007  1.00  0.00     0.055 C 
BRANCH  28  30
HETATM   30  C23 UNL     1      -5.230  48.223 -28.547  1.00  0.00     0.171 C 
HETATM   31  O3  UNL     1      -4.674  47.916 -29.586  1.00  0.00    -0.646 OA
BRANCH  30  32
HETATM   32  O4  UNL     1      -6.548  48.474 -28.522  1.00  0.00    -0.773 OA
HETATM   33  H36 UNL     1      -6.821  48.342 -29.453  1.00  0.00     0.167 HD
ENDBRANCH  30  32
ENDBRANCH  28  30
ENDBRANCH  26  27
ENDBRANCH   1  26
TORSDOF 12
ENDMDL
