MODEL 1
REMARK minimizedAffinity -6.77704
REMARK CNNscore 0.283249944
REMARK CNNaffinity 5.66035509
REMARK  12 active torsions:
REMARK  status: ('A' for Active; 'I' for Inactive)
REMARK    1  A    between atoms: O1_2  and  C2_3 
REMARK    2  A    between atoms: C3_6  and  C4_7 
REMARK    3  A    between atoms: C4_7  and  C5_8 
REMARK    4  A    between atoms: C6_9  and  C8_11 
REMARK    5  A    between atoms: C8_11  and  C9_12 
REMARK    6  A    between atoms: C10_13  and  C11_14 
REMARK    7  A    between atoms: C13_16  and  C14_17 
REMARK    8  A    between atoms: C14_17  and  C16_19 
REMARK    9  A    between atoms: C16_19  and  O2_20 
REMARK   10  A    between atoms: C16_19  and  C18_22 
REMARK   11  A    between atoms: C24_29  and  O4_30 
REMARK   12  A    between atoms: C25_31  and  O5_32 
ROOT
HETATM    1  C5  UNL     1      -2.487  50.152 -24.608  1.00  0.00    -0.018 C 
HETATM    2  C6  UNL     1      -3.183  49.128 -25.145  1.00  0.00    -0.084 C 
HETATM    3  C7  UNL     1      -2.938  48.559 -26.518  1.00  0.00     0.043 C 
ENDROOT
BRANCH   2   4
HETATM    4  C8  UNL     1      -4.338  48.499 -24.388  1.00  0.00     0.060 C 
BRANCH   4   5
HETATM    5  C9  UNL     1      -5.445  48.061 -25.310  1.00  0.00    -0.022 C 
HETATM    6  C10 UNL     1      -6.709  47.858 -24.903  1.00  0.00     0.003 C 
BRANCH   6   7
HETATM    7  C11 UNL     1      -7.844  47.448 -25.734  1.00  0.00    -0.066 C 
HETATM    8  C12 UNL     1      -9.066  48.326 -25.715  1.00  0.00     0.048 C 
HETATM    9  C13 UNL     1      -7.717  46.321 -26.469  1.00  0.00    -0.013 C 
BRANCH   9  10
HETATM   10  C14 UNL     1      -8.702  45.620 -27.400  1.00  0.00     0.037 C 
HETATM   11  C15 UNL     1     -10.157  45.922 -27.024  1.00  0.00     0.017 C 
BRANCH  10  12
HETATM   12  C16 UNL     1      -8.352  45.847 -28.899  1.00  0.00     0.165 C 
BRANCH  12  13
HETATM   13  O2  UNL     1      -8.442  44.569 -29.563  1.00  0.00    -0.387 OA
HETATM   14  C17 UNL     1      -7.175  44.070 -29.971  1.00  0.00     0.202 C 
ENDBRANCH  12  13
BRANCH  12  15
HETATM   15  C18 UNL     1      -9.290  46.806 -29.618  1.00  0.00     0.110 A 
HETATM   16  C19 UNL     1      -9.168  48.269 -29.310  1.00  0.00     0.051 C 
HETATM   17  O3  UNL     1      -9.508  46.504 -31.009  1.00  0.00    -0.367 OA
HETATM   18  C20 UNL     1     -10.611  46.243 -30.137  1.00  0.00     0.155 A 
HETATM   19  C21 UNL     1     -11.815  47.074 -30.395  1.00  0.00     0.042 C 
ENDBRANCH  12  15
ENDBRANCH  10  12
ENDBRANCH   9  10
ENDBRANCH   6   7
ENDBRANCH   4   5
ENDBRANCH   2   4
BRANCH   1  20
HETATM   20  C4  UNL     1      -1.316  50.901 -25.200  1.00  0.00     0.085 C 
BRANCH  20  21
HETATM   21  C3  UNL     1      -0.492  51.689 -24.191  1.00  0.00     0.023 A 
HETATM   22  N1  UNL     1      -0.381  51.153 -22.943  1.00  0.00    -0.337 N 
HETATM   23  C2  UNL     1       0.331  51.823 -22.008  1.00  0.00     0.179 A 
ATOM     24  H1  UNL     1      -0.826  50.263 -22.718  1.00  0.00     0.168 HD
HETATM   25  C25 UNL     1       0.992  53.014 -22.270  1.00  0.00     0.153 A 
HETATM   26  C24 UNL     1       0.866  53.544 -23.552  1.00  0.00     0.111 A 
HETATM   27  C22 UNL     1       0.154  52.881 -24.555  1.00  0.00    -0.003 A 
HETATM   28  C23 UNL     1       0.039  53.473 -25.931  1.00  0.00     0.053 C 
BRANCH  23  29
HETATM   29  O1  UNL     1       0.383  51.315 -20.726  1.00  0.00    -0.339 OA
HETATM   30  C1  UNL     1      -0.135  49.995 -20.620  1.00  0.00     0.211 C 
ENDBRANCH  23  29
BRANCH  25  31
HETATM   31  O5  UNL     1       1.711  53.752 -21.364  1.00  0.00    -0.349 OA
HETATM   32  C26 UNL     1       0.894  54.234 -20.296  1.00  0.00     0.210 C 
ENDBRANCH  25  31
BRANCH  26  33
HETATM   33  O4  UNL     1       1.468  54.747 -23.833  1.00  0.00    -0.357 OA
HETATM   34  H36 UNL     1       1.791  55.085 -22.973  1.00  0.00     0.217 HD
ENDBRANCH  26  33
ENDBRANCH  20  21
ENDBRANCH   1  20
TORSDOF 12
ENDMDL
MODEL 2
REMARK minimizedAffinity -7.0681181
REMARK CNNscore 0.277550936
REMARK CNNaffinity 6.05385828
REMARK  12 active torsions:
REMARK  status: ('A' for Active; 'I' for Inactive)
REMARK    1  A    between atoms: O1_2  and  C2_3 
REMARK    2  A    between atoms: C3_6  and  C4_7 
REMARK    3  A    between atoms: C4_7  and  C5_8 
REMARK    4  A    between atoms: C6_9  and  C8_11 
REMARK    5  A    between atoms: C8_11  and  C9_12 
REMARK    6  A    between atoms: C10_13  and  C11_14 
REMARK    7  A    between atoms: C13_16  and  C14_17 
REMARK    8  A    between atoms: C14_17  and  C16_19 
REMARK    9  A    between atoms: C16_19  and  O2_20 
REMARK   10  A    between atoms: C16_19  and  C18_22 
REMARK   11  A    between atoms: C24_29  and  O4_30 
REMARK   12  A    between atoms: C25_31  and  O5_32 
ROOT
HETATM    1  C5  UNL     1      -2.044  49.915 -23.018  1.00  0.00    -0.018 C 
HETATM    2  C6  UNL     1      -3.377  49.955 -23.227  1.00  0.00    -0.084 C 
HETATM    3  C7  UNL     1      -4.162  51.216 -23.477  1.00  0.00     0.043 C 
ENDROOT
BRANCH   2   4
HETATM    4  C8  UNL     1      -4.205  48.685 -23.167  1.00  0.00     0.060 C 
BRANCH   4   5
HETATM    5  C9  UNL     1      -4.965  48.446 -24.445  1.00  0.00    -0.022 C 
HETATM    6  C10 UNL     1      -4.386  48.433 -25.657  1.00  0.00     0.003 C 
BRANCH   6   7
HETATM    7  C11 UNL     1      -5.047  48.194 -26.943  1.00  0.00    -0.066 C 
HETATM    8  C12 UNL     1      -4.328  48.650 -28.184  1.00  0.00     0.048 C 
HETATM    9  C13 UNL     1      -6.247  47.573 -26.933  1.00  0.00    -0.013 C 
BRANCH   9  10
HETATM   10  C14 UNL     1      -7.190  47.205 -28.075  1.00  0.00     0.037 C 
HETATM   11  C15 UNL     1      -8.049  48.396 -28.511  1.00  0.00     0.017 C 
BRANCH  10  12
HETATM   12  C16 UNL     1      -6.452  46.471 -29.231  1.00  0.00     0.165 C 
BRANCH  12  13
HETATM   13  O2  UNL     1      -6.883  45.094 -29.215  1.00  0.00    -0.387 OA
HETATM   14  C17 UNL     1      -7.787  44.812 -28.155  1.00  0.00     0.202 C 
ENDBRANCH  12  13
BRANCH  12  15
HETATM   15  C18 UNL     1      -6.751  47.031 -30.614  1.00  0.00     0.110 A 
HETATM   16  C19 UNL     1      -8.060  46.666 -31.249  1.00  0.00     0.051 C 
HETATM   17  O3  UNL     1      -6.354  48.402 -30.806  1.00  0.00    -0.367 OA
HETATM   18  C20 UNL     1      -5.563  47.424 -31.487  1.00  0.00     0.155 A 
HETATM   19  C21 UNL     1      -5.621  47.503 -32.970  1.00  0.00     0.042 C 
ENDBRANCH  12  15
ENDBRANCH  10  12
ENDBRANCH   9  10
ENDBRANCH   6   7
ENDBRANCH   4   5
ENDBRANCH   2   4
BRANCH   1  20
HETATM   20  C4  UNL     1      -1.058  51.060 -23.037  1.00  0.00     0.085 C 
BRANCH  20  21
HETATM   21  C3  UNL     1      -0.624  51.546 -21.661  1.00  0.00     0.023 A 
HETATM   22  N1  UNL     1      -1.088  50.841 -20.590  1.00  0.00    -0.337 N 
HETATM   23  C2  UNL     1      -0.740  51.242 -19.347  1.00  0.00     0.179 A 
ATOM     24  H1  UNL     1      -1.687  50.026 -20.725  1.00  0.00     0.168 HD
HETATM   25  C25 UNL     1       0.105  52.316 -19.107  1.00  0.00     0.153 A 
HETATM   26  C24 UNL     1       0.570  53.022 -20.215  1.00  0.00     0.111 A 
HETATM   27  C22 UNL     1       0.249  52.637 -21.519  1.00  0.00    -0.003 A 
HETATM   28  C23 UNL     1       0.768  53.413 -22.696  1.00  0.00     0.053 C 
BRANCH  23  29
HETATM   29  O1  UNL     1      -1.267  50.572 -18.263  1.00  0.00    -0.339 OA
HETATM   30  C1  UNL     1      -1.320  49.161 -18.441  1.00  0.00     0.211 C 
ENDBRANCH  23  29
BRANCH  25  31
HETATM   31  O5  UNL     1       0.480  52.786 -17.874  1.00  0.00    -0.349 OA
HETATM   32  C26 UNL     1       1.191  51.804 -17.119  1.00  0.00     0.210 C 
ENDBRANCH  25  31
BRANCH  26  33
HETATM   33  O4  UNL     1       1.370  54.120 -20.012  1.00  0.00    -0.357 OA
HETATM   34  H36 UNL     1       1.356  54.279 -19.046  1.00  0.00     0.217 HD
ENDBRANCH  26  33
ENDBRANCH  20  21
ENDBRANCH   1  20
TORSDOF 12
ENDMDL
MODEL 3
REMARK minimizedAffinity -7.90852165
REMARK CNNscore 0.238675386
REMARK CNNaffinity 6.39949036
REMARK  12 active torsions:
REMARK  status: ('A' for Active; 'I' for Inactive)
REMARK    1  A    between atoms: O1_2  and  C2_3 
REMARK    2  A    between atoms: C3_6  and  C4_7 
REMARK    3  A    between atoms: C4_7  and  C5_8 
REMARK    4  A    between atoms: C6_9  and  C8_11 
REMARK    5  A    between atoms: C8_11  and  C9_12 
REMARK    6  A    between atoms: C10_13  and  C11_14 
REMARK    7  A    between atoms: C13_16  and  C14_17 
REMARK    8  A    between atoms: C14_17  and  C16_19 
REMARK    9  A    between atoms: C16_19  and  O2_20 
REMARK   10  A    between atoms: C16_19  and  C18_22 
REMARK   11  A    between atoms: C24_29  and  O4_30 
REMARK   12  A    between atoms: C25_31  and  O5_32 
ROOT
HETATM    1  C5  UNL     1      -0.381  52.622 -25.096  1.00  0.00    -0.018 C 
HETATM    2  C6  UNL     1      -0.350  51.758 -26.133  1.00  0.00    -0.084 C 
HETATM    3  C7  UNL     1       0.825  50.880 -26.475  1.00  0.00     0.043 C 
ENDROOT
BRANCH   2   4
HETATM    4  C8  UNL     1      -1.526  51.655 -27.086  1.00  0.00     0.060 C 
BRANCH   4   5
HETATM    5  C9  UNL     1      -2.429  50.499 -26.746  1.00  0.00    -0.022 C 
HETATM    6  C10 UNL     1      -3.293  49.955 -27.620  1.00  0.00     0.003 C 
BRANCH   6   7
HETATM    7  C11 UNL     1      -4.191  48.824 -27.376  1.00  0.00    -0.066 C 
HETATM    8  C12 UNL     1      -4.206  48.240 -25.988  1.00  0.00     0.048 C 
HETATM    9  C13 UNL     1      -4.954  48.387 -28.402  1.00  0.00    -0.013 C 
BRANCH   9  10
HETATM   10  C14 UNL     1      -5.955  47.238 -28.484  1.00  0.00     0.037 C 
HETATM   11  C15 UNL     1      -7.142  47.446 -27.538  1.00  0.00     0.017 C 
BRANCH  10  12
HETATM   12  C16 UNL     1      -6.339  46.902 -29.954  1.00  0.00     0.165 C 
BRANCH  12  13
HETATM   13  O2  UNL     1      -7.605  47.539 -30.227  1.00  0.00    -0.387 OA
HETATM   14  C17 UNL     1      -7.948  48.520 -29.258  1.00  0.00     0.202 C 
ENDBRANCH  12  13
BRANCH  12  15
HETATM   15  C18 UNL     1      -5.341  47.401 -30.987  1.00  0.00     0.110 A 
HETATM   16  C19 UNL     1      -5.292  48.876 -31.259  1.00  0.00     0.051 C 
HETATM   17  O3  UNL     1      -4.053  46.760 -30.938  1.00  0.00    -0.367 OA
HETATM   18  C20 UNL     1      -4.877  46.414 -32.055  1.00  0.00     0.155 A 
HETATM   19  C21 UNL     1      -4.335  46.823 -33.376  1.00  0.00     0.042 C 
ENDBRANCH  12  15
ENDBRANCH  10  12
ENDBRANCH   9  10
ENDBRANCH   6   7
ENDBRANCH   4   5
ENDBRANCH   2   4
BRANCH   1  20
HETATM   20  C4  UNL     1       0.680  52.865 -24.048  1.00  0.00     0.085 C 
BRANCH  20  21
HETATM   21  C3  UNL     1       0.254  52.532 -22.625  1.00  0.00     0.023 A 
HETATM   22  N1  UNL     1      -0.526  51.425 -22.465  1.00  0.00    -0.337 N 
HETATM   23  C2  UNL     1      -0.940  51.095 -21.221  1.00  0.00     0.179 A 
ATOM     24  H1  UNL     1      -0.791  50.856 -23.269  1.00  0.00     0.168 HD
HETATM   25  C25 UNL     1      -0.575  51.807 -20.088  1.00  0.00     0.153 A 
HETATM   26  C24 UNL     1       0.223  52.934 -20.273  1.00  0.00     0.111 A 
HETATM   27  C22 UNL     1       0.687  53.307 -21.537  1.00  0.00    -0.003 A 
HETATM   28  C23 UNL     1       1.551  54.524 -21.708  1.00  0.00     0.053 C 
BRANCH  23  29
HETATM   29  O1  UNL     1      -1.787  50.016 -21.069  1.00  0.00    -0.339 OA
HETATM   30  C1  UNL     1      -1.115  48.762 -21.096  1.00  0.00     0.211 C 
ENDBRANCH  23  29
BRANCH  25  31
HETATM   31  O5  UNL     1      -0.977  51.539 -18.804  1.00  0.00    -0.349 OA
HETATM   32  C26 UNL     1      -0.063  50.676 -18.125  1.00  0.00     0.210 C 
ENDBRANCH  25  31
BRANCH  26  33
HETATM   33  O4  UNL     1       0.564  53.691 -19.178  1.00  0.00    -0.357 OA
HETATM   34  H36 UNL     1       0.035  53.331 -18.437  1.00  0.00     0.217 HD
ENDBRANCH  26  33
ENDBRANCH  20  21
ENDBRANCH   1  20
TORSDOF 12
ENDMDL
MODEL 4
REMARK minimizedAffinity -6.96858931
REMARK CNNscore 0.230509773
REMARK CNNaffinity 5.91278791
REMARK  12 active torsions:
REMARK  status: ('A' for Active; 'I' for Inactive)
REMARK    1  A    between atoms: O1_2  and  C2_3 
REMARK    2  A    between atoms: C3_6  and  C4_7 
REMARK    3  A    between atoms: C4_7  and  C5_8 
REMARK    4  A    between atoms: C6_9  and  C8_11 
REMARK    5  A    between atoms: C8_11  and  C9_12 
REMARK    6  A    between atoms: C10_13  and  C11_14 
REMARK    7  A    between atoms: C13_16  and  C14_17 
REMARK    8  A    between atoms: C14_17  and  C16_19 
REMARK    9  A    between atoms: C16_19  and  O2_20 
REMARK   10  A    between atoms: C16_19  and  C18_22 
REMARK   11  A    between atoms: C24_29  and  O4_30 
REMARK   12  A    between atoms: C25_31  and  O5_32 
ROOT
HETATM    1  C5  UNL     1      -0.326  51.595 -20.794  1.00  0.00    -0.018 C 
HETATM    2  C6  UNL     1      -0.234  51.330 -19.473  1.00  0.00    -0.084 C 
HETATM    3  C7  UNL     1      -0.533  49.992 -18.850  1.00  0.00     0.043 C 
ENDROOT
BRANCH   2   4
HETATM    4  C8  UNL     1       0.140  52.425 -18.492  1.00  0.00     0.060 C 
BRANCH   4   5
HETATM    5  C9  UNL     1       0.832  51.877 -17.272  1.00  0.00    -0.022 C 
HETATM    6  C10 UNL     1       1.920  52.443 -16.723  1.00  0.00     0.003 C 
BRANCH   6   7
HETATM    7  C11 UNL     1       2.641  51.985 -15.533  1.00  0.00    -0.066 C 
HETATM    8  C12 UNL     1       4.146  52.019 -15.581  1.00  0.00     0.048 C 
HETATM    9  C13 UNL     1       1.915  51.574 -14.470  1.00  0.00    -0.013 C 
BRANCH   9  10
HETATM   10  C14 UNL     1       2.351  51.024 -13.115  1.00  0.00     0.037 C 
HETATM   11  C15 UNL     1       2.298  52.096 -12.021  1.00  0.00     0.017 C 
BRANCH  10  12
HETATM   12  C16 UNL     1       1.626  49.694 -12.763  1.00  0.00     0.165 C 
BRANCH  12  13
HETATM   13  O2  UNL     1       0.214  49.898 -12.985  1.00  0.00    -0.387 OA
HETATM   14  C17 UNL     1      -0.118  51.263 -13.198  1.00  0.00     0.202 C 
ENDBRANCH  12  13
BRANCH  12  15
HETATM   15  C18 UNL     1       2.057  48.507 -13.612  1.00  0.00     0.110 A 
HETATM   16  C19 UNL     1       1.312  48.251 -14.890  1.00  0.00     0.051 C 
HETATM   17  O3  UNL     1       3.482  48.321 -13.704  1.00  0.00    -0.367 OA
HETATM   18  C20 UNL     1       2.780  47.362 -12.908  1.00  0.00     0.155 A 
HETATM   19  C21 UNL     1       2.824  45.971 -13.430  1.00  0.00     0.042 C 
ENDBRANCH  12  15
ENDBRANCH  10  12
ENDBRANCH   9  10
ENDBRANCH   6   7
ENDBRANCH   4   5
ENDBRANCH   2   4
BRANCH   1  20
HETATM   20  C4  UNL     1      -0.680  50.647 -21.916  1.00  0.00     0.085 C 
BRANCH  20  21
HETATM   21  C3  UNL     1      -0.776  51.298 -23.289  1.00  0.00     0.023 A 
HETATM   22  N1  UNL     1      -1.617  50.708 -24.186  1.00  0.00    -0.337 N 
HETATM   23  C2  UNL     1      -1.727  51.242 -25.424  1.00  0.00     0.179 A 
ATOM     24  H1  UNL     1      -2.153  49.879 -23.928  1.00  0.00     0.168 HD
HETATM   25  C25 UNL     1      -1.054  52.391 -25.814  1.00  0.00     0.153 A 
HETATM   26  C24 UNL     1      -0.202  52.979 -24.882  1.00  0.00     0.111 A 
HETATM   27  C22 UNL     1      -0.067  52.472 -23.587  1.00  0.00    -0.003 A 
HETATM   28  C23 UNL     1       0.856  53.129 -22.601  1.00  0.00     0.053 C 
BRANCH  23  29
HETATM   29  O1  UNL     1      -2.522  50.603 -26.352  1.00  0.00    -0.339 OA
HETATM   30  C1  UNL     1      -3.708  50.049 -25.795  1.00  0.00     0.211 C 
ENDBRANCH  23  29
BRANCH  25  31
HETATM   31  O5  UNL     1      -1.105  52.971 -27.056  1.00  0.00    -0.349 OA
HETATM   32  C26 UNL     1      -0.049  53.912 -27.253  1.00  0.00     0.210 C 
ENDBRANCH  25  31
BRANCH  26  33
HETATM   33  O4  UNL     1       0.516  54.091 -25.251  1.00  0.00    -0.357 OA
HETATM   34  H36 UNL     1       0.370  54.189 -26.215  1.00  0.00     0.217 HD
ENDBRANCH  26  33
ENDBRANCH  20  21
ENDBRANCH   1  20
TORSDOF 12
ENDMDL
MODEL 5
REMARK minimizedAffinity -7.55297184
REMARK CNNscore 0.230505154
REMARK CNNaffinity 5.65728998
REMARK  12 active torsions:
REMARK  status: ('A' for Active; 'I' for Inactive)
REMARK    1  A    between atoms: O1_2  and  C2_3 
REMARK    2  A    between atoms: C3_6  and  C4_7 
REMARK    3  A    between atoms: C4_7  and  C5_8 
REMARK    4  A    between atoms: C6_9  and  C8_11 
REMARK    5  A    between atoms: C8_11  and  C9_12 
REMARK    6  A    between atoms: C10_13  and  C11_14 
REMARK    7  A    between atoms: C13_16  and  C14_17 
REMARK    8  A    between atoms: C14_17  and  C16_19 
REMARK    9  A    between atoms: C16_19  and  O2_20 
REMARK   10  A    between atoms: C16_19  and  C18_22 
REMARK   11  A    between atoms: C24_29  and  O4_30 
REMARK   12  A    between atoms: C25_31  and  O5_32 
ROOT
HETATM    1  C5  UNL     1      -0.436  52.079 -21.121  1.00  0.00    -0.018 C 
HETATM    2  C6  UNL     1      -0.192  51.791 -19.824  1.00  0.00    -0.084 C 
HETATM    3  C7  UNL     1      -0.458  50.454 -19.185  1.00  0.00     0.043 C 
ENDROOT
BRANCH   2   4
HETATM    4  C8  UNL     1       0.334  52.859 -18.883  1.00  0.00     0.060 C 
BRANCH   4   5
HETATM    5  C9  UNL     1       1.010  52.263 -17.677  1.00  0.00    -0.022 C 
HETATM    6  C10 UNL     1       2.201  52.682 -17.216  1.00  0.00     0.003 C 
BRANCH   6   7
HETATM    7  C11 UNL     1       2.918  52.170 -16.046  1.00  0.00    -0.066 C 
HETATM    8  C12 UNL     1       4.411  52.359 -16.013  1.00  0.00     0.048 C 
HETATM    9  C13 UNL     1       2.197  51.575 -15.070  1.00  0.00    -0.013 C 
BRANCH   9  10
HETATM   10  C14 UNL     1       2.633  50.925 -13.760  1.00  0.00     0.037 C 
HETATM   11  C15 UNL     1       2.780  51.955 -12.634  1.00  0.00     0.017 C 
BRANCH  10  12
HETATM   12  C16 UNL     1       1.763  49.686 -13.404  1.00  0.00     0.165 C 
BRANCH  12  13
HETATM   13  O2  UNL     1       0.950  49.381 -14.557  1.00  0.00    -0.387 OA
HETATM   14  C17 UNL     1      -0.413  49.155 -14.227  1.00  0.00     0.202 C 
ENDBRANCH  12  13
BRANCH  12  15
HETATM   15  C18 UNL     1       2.566  48.439 -13.065  1.00  0.00     0.110 A 
HETATM   16  C19 UNL     1       2.796  47.435 -14.156  1.00  0.00     0.051 C 
HETATM   17  O3  UNL     1       3.705  48.670 -12.215  1.00  0.00    -0.367 OA
HETATM   18  C20 UNL     1       2.601  47.999 -11.604  1.00  0.00     0.155 A 
HETATM   19  C21 UNL     1       2.886  46.606 -11.170  1.00  0.00     0.042 C 
ENDBRANCH  12  15
ENDBRANCH  10  12
ENDBRANCH   9  10
ENDBRANCH   6   7
ENDBRANCH   4   5
ENDBRANCH   2   4
BRANCH   1  20
HETATM   20  C4  UNL     1      -0.955  51.160 -22.202  1.00  0.00     0.085 C 
BRANCH  20  21
HETATM   21  C3  UNL     1      -0.840  51.716 -23.615  1.00  0.00     0.023 A 
HETATM   22  N1  UNL     1       0.421  51.850 -24.117  1.00  0.00    -0.337 N 
HETATM   23  C2  UNL     1       0.575  52.351 -25.364  1.00  0.00     0.179 A 
ATOM     24  H1  UNL     1       1.233  51.577 -23.563  1.00  0.00     0.168 HD
HETATM   25  C25 UNL     1      -0.494  52.699 -26.177  1.00  0.00     0.153 A 
HETATM   26  C24 UNL     1      -1.773  52.553 -25.645  1.00  0.00     0.111 A 
HETATM   27  C22 UNL     1      -1.983  52.026 -24.368  1.00  0.00    -0.003 A 
HETATM   28  C23 UNL     1      -3.374  51.875 -23.822  1.00  0.00     0.053 C 
BRANCH  23  29
HETATM   29  O1  UNL     1       1.853  52.553 -25.843  1.00  0.00    -0.339 OA
HETATM   30  C1  UNL     1       2.421  51.395 -26.443  1.00  0.00     0.211 C 
ENDBRANCH  23  29
BRANCH  25  31
HETATM   31  O5  UNL     1      -0.406  53.230 -27.438  1.00  0.00    -0.349 OA
HETATM   32  C26 UNL     1      -0.164  54.638 -27.412  1.00  0.00     0.210 C 
ENDBRANCH  25  31
BRANCH  26  33
HETATM   33  O4  UNL     1      -2.853  52.932 -26.406  1.00  0.00    -0.357 OA
HETATM   34  H36 UNL     1      -2.476  53.383 -27.189  1.00  0.00     0.217 HD
ENDBRANCH  26  33
ENDBRANCH  20  21
ENDBRANCH   1  20
TORSDOF 12
ENDMDL
MODEL 6
REMARK minimizedAffinity -7.38749123
REMARK CNNscore 0.22183691
REMARK CNNaffinity 6.16150141
REMARK  12 active torsions:
REMARK  status: ('A' for Active; 'I' for Inactive)
REMARK    1  A    between atoms: O1_2  and  C2_3 
REMARK    2  A    between atoms: C3_6  and  C4_7 
REMARK    3  A    between atoms: C4_7  and  C5_8 
REMARK    4  A    between atoms: C6_9  and  C8_11 
REMARK    5  A    between atoms: C8_11  and  C9_12 
REMARK    6  A    between atoms: C10_13  and  C11_14 
REMARK    7  A    between atoms: C13_16  and  C14_17 
REMARK    8  A    between atoms: C14_17  and  C16_19 
REMARK    9  A    between atoms: C16_19  and  O2_20 
REMARK   10  A    between atoms: C16_19  and  C18_22 
REMARK   11  A    between atoms: C24_29  and  O4_30 
REMARK   12  A    between atoms: C25_31  and  O5_32 
ROOT
HETATM    1  C5  UNL     1       0.005  52.180 -22.207  1.00  0.00    -0.018 C 
HETATM    2  C6  UNL     1       0.191  52.799 -21.021  1.00  0.00    -0.084 C 
HETATM    3  C7  UNL     1       1.108  53.974 -20.809  1.00  0.00     0.043 C 
ENDROOT
BRANCH   2   4
HETATM    4  C8  UNL     1      -0.500  52.291 -19.770  1.00  0.00     0.060 C 
BRANCH   4   5
HETATM    5  C9  UNL     1       0.371  52.428 -18.549  1.00  0.00    -0.022 C 
HETATM    6  C10 UNL     1       0.508  51.461 -17.626  1.00  0.00     0.003 C 
BRANCH   6   7
HETATM    7  C11 UNL     1       1.344  51.508 -16.424  1.00  0.00    -0.066 C 
HETATM    8  C12 UNL     1       2.389  52.589 -16.351  1.00  0.00     0.048 C 
HETATM    9  C13 UNL     1       1.116  50.592 -15.458  1.00  0.00    -0.013 C 
BRANCH   9  10
HETATM   10  C14 UNL     1       1.813  50.355 -14.121  1.00  0.00     0.037 C 
HETATM   11  C15 UNL     1       2.979  51.327 -13.905  1.00  0.00     0.017 C 
BRANCH  10  12
HETATM   12  C16 UNL     1       0.802  50.273 -12.941  1.00  0.00     0.165 C 
BRANCH  12  13
HETATM   13  O2  UNL     1       1.558  50.374 -11.716  1.00  0.00    -0.387 OA
HETATM   14  C17 UNL     1       1.808  49.110 -11.117  1.00  0.00     0.202 C 
ENDBRANCH  12  13
BRANCH  12  15
HETATM   15  C18 UNL     1      -0.236  51.385 -12.934  1.00  0.00     0.110 A 
HETATM   16  C19 UNL     1       0.232  52.780 -12.634  1.00  0.00     0.051 C 
HETATM   17  O3  UNL     1      -1.219  51.298 -13.982  1.00  0.00    -0.367 OA
HETATM   18  C20 UNL     1      -1.686  50.994 -12.665  1.00  0.00     0.155 A 
HETATM   19  C21 UNL     1      -2.710  51.934 -12.138  1.00  0.00     0.042 C 
ENDBRANCH  12  15
ENDBRANCH  10  12
ENDBRANCH   9  10
ENDBRANCH   6   7
ENDBRANCH   4   5
ENDBRANCH   2   4
BRANCH   1  20
HETATM   20  C4  UNL     1       0.598  52.534 -23.551  1.00  0.00     0.085 C 
BRANCH  20  21
HETATM   21  C3  UNL     1      -0.333  52.307 -24.734  1.00  0.00     0.023 A 
HETATM   22  N1  UNL     1      -1.669  52.423 -24.490  1.00  0.00    -0.337 N 
HETATM   23  C2  UNL     1      -2.537  52.218 -25.507  1.00  0.00     0.179 A 
ATOM     24  H1  UNL     1      -2.008  52.659 -23.557  1.00  0.00     0.168 HD
HETATM   25  C25 UNL     1      -2.130  51.936 -26.803  1.00  0.00     0.153 A 
HETATM   26  C24 UNL     1      -0.761  51.824 -27.031  1.00  0.00     0.111 A 
HETATM   27  C22 UNL     1       0.174  52.040 -26.016  1.00  0.00    -0.003 A 
HETATM   28  C23 UNL     1       1.645  51.918 -26.291  1.00  0.00     0.053 C 
BRANCH  23  29
HETATM   29  O1  UNL     1      -3.890  52.265 -25.242  1.00  0.00    -0.339 OA
HETATM   30  C1  UNL     1      -4.277  51.463 -24.133  1.00  0.00     0.211 C 
ENDBRANCH  23  29
BRANCH  25  31
HETATM   31  O5  UNL     1      -2.957  51.698 -27.871  1.00  0.00    -0.349 OA
HETATM   32  C26 UNL     1      -3.311  50.318 -27.979  1.00  0.00     0.210 C 
ENDBRANCH  25  31
BRANCH  26  33
HETATM   33  O4  UNL     1      -0.325  51.498 -28.293  1.00  0.00    -0.357 OA
HETATM   34  H36 UNL     1      -1.132  51.268 -28.797  1.00  0.00     0.217 HD
ENDBRANCH  26  33
ENDBRANCH  20  21
ENDBRANCH   1  20
TORSDOF 12
ENDMDL
MODEL 7
REMARK minimizedAffinity -7.61297369
REMARK CNNscore 0.219115824
REMARK CNNaffinity 6.25472116
REMARK  12 active torsions:
REMARK  status: ('A' for Active; 'I' for Inactive)
REMARK    1  A    between atoms: O1_2  and  C2_3 
REMARK    2  A    between atoms: C3_6  and  C4_7 
REMARK    3  A    between atoms: C4_7  and  C5_8 
REMARK    4  A    between atoms: C6_9  and  C8_11 
REMARK    5  A    between atoms: C8_11  and  C9_12 
REMARK    6  A    between atoms: C10_13  and  C11_14 
REMARK    7  A    between atoms: C13_16  and  C14_17 
REMARK    8  A    between atoms: C14_17  and  C16_19 
REMARK    9  A    between atoms: C16_19  and  O2_20 
REMARK   10  A    between atoms: C16_19  and  C18_22 
REMARK   11  A    between atoms: C24_29  and  O4_30 
REMARK   12  A    between atoms: C25_31  and  O5_32 
ROOT
HETATM    1  C5  UNL     1      -0.122  52.086 -24.795  1.00  0.00    -0.018 C 
HETATM    2  C6  UNL     1       0.347  51.415 -25.868  1.00  0.00    -0.084 C 
HETATM    3  C7  UNL     1       1.794  51.385 -26.287  1.00  0.00     0.043 C 
ENDROOT
BRANCH   2   4
HETATM    4  C8  UNL     1      -0.602  50.666 -26.785  1.00  0.00     0.060 C 
BRANCH   4   5
HETATM    5  C9  UNL     1      -1.842  50.211 -26.063  1.00  0.00    -0.022 C 
HETATM    6  C10 UNL     1      -2.532  49.109 -26.402  1.00  0.00     0.003 C 
BRANCH   6   7
HETATM    7  C11 UNL     1      -3.734  48.589 -25.745  1.00  0.00    -0.066 C 
HETATM    8  C12 UNL     1      -3.700  48.459 -24.246  1.00  0.00     0.048 C 
HETATM    9  C13 UNL     1      -4.794  48.273 -26.521  1.00  0.00    -0.013 C 
BRANCH   9  10
HETATM   10  C14 UNL     1      -6.160  47.696 -26.160  1.00  0.00     0.037 C 
HETATM   11  C15 UNL     1      -6.782  48.413 -24.957  1.00  0.00     0.017 C 
BRANCH  10  12
HETATM   12  C16 UNL     1      -7.089  47.572 -27.401  1.00  0.00     0.165 C 
BRANCH  12  13
HETATM   13  O2  UNL     1      -6.272  47.150 -28.513  1.00  0.00    -0.387 OA
HETATM   14  C17 UNL     1      -6.391  48.006 -29.641  1.00  0.00     0.202 C 
ENDBRANCH  12  13
BRANCH  12  15
HETATM   15  C18 UNL     1      -8.209  46.555 -27.241  1.00  0.00     0.110 A 
HETATM   16  C19 UNL     1      -9.356  46.911 -26.340  1.00  0.00     0.051 C 
HETATM   17  O3  UNL     1      -8.590  45.883 -28.456  1.00  0.00    -0.367 OA
HETATM   18  C20 UNL     1      -7.874  45.090 -27.506  1.00  0.00     0.155 A 
HETATM   19  C21 UNL     1      -8.646  43.953 -26.940  1.00  0.00     0.042 C 
ENDBRANCH  12  15
ENDBRANCH  10  12
ENDBRANCH   9  10
ENDBRANCH   6   7
ENDBRANCH   4   5
ENDBRANCH   2   4
BRANCH   1  20
HETATM   20  C4  UNL     1       0.656  52.882 -23.774  1.00  0.00     0.085 C 
BRANCH  20  21
HETATM   21  C3  UNL     1       0.282  52.595 -22.326  1.00  0.00     0.023 A 
HETATM   22  N1  UNL     1      -0.619  51.594 -22.116  1.00  0.00    -0.337 N 
HETATM   23  C2  UNL     1      -0.993  51.310 -20.848  1.00  0.00     0.179 A 
ATOM     24  H1  UNL     1      -1.003  51.067 -22.901  1.00  0.00     0.168 HD
HETATM   25  C25 UNL     1      -0.471  51.964 -19.741  1.00  0.00     0.153 A 
HETATM   26  C24 UNL     1       0.448  52.983 -19.978  1.00  0.00     0.111 A 
HETATM   27  C22 UNL     1       0.876  53.302 -21.269  1.00  0.00    -0.003 A 
HETATM   28  C23 UNL     1       1.873  54.403 -21.495  1.00  0.00     0.053 C 
BRANCH  23  29
HETATM   29  O1  UNL     1      -1.957  50.345 -20.642  1.00  0.00    -0.339 OA
HETATM   30  C1  UNL     1      -3.222  50.682 -21.199  1.00  0.00     0.211 C 
ENDBRANCH  23  29
BRANCH  25  31
HETATM   31  O5  UNL     1      -0.822  51.740 -18.434  1.00  0.00    -0.349 OA
HETATM   32  C26 UNL     1      -0.099  50.647 -17.864  1.00  0.00     0.210 C 
ENDBRANCH  25  31
BRANCH  26  33
HETATM   33  O4  UNL     1       0.949  53.684 -18.907  1.00  0.00    -0.357 OA
HETATM   34  H36 UNL     1       0.427  53.389 -18.133  1.00  0.00     0.217 HD
ENDBRANCH  26  33
ENDBRANCH  20  21
ENDBRANCH   1  20
TORSDOF 12
ENDMDL
MODEL 8
REMARK minimizedAffinity -6.83301878
REMARK CNNscore 0.213743031
REMARK CNNaffinity 5.86296082
REMARK  12 active torsions:
REMARK  status: ('A' for Active; 'I' for Inactive)
REMARK    1  A    between atoms: O1_2  and  C2_3 
REMARK    2  A    between atoms: C3_6  and  C4_7 
REMARK    3  A    between atoms: C4_7  and  C5_8 
REMARK    4  A    between atoms: C6_9  and  C8_11 
REMARK    5  A    between atoms: C8_11  and  C9_12 
REMARK    6  A    between atoms: C10_13  and  C11_14 
REMARK    7  A    between atoms: C13_16  and  C14_17 
REMARK    8  A    between atoms: C14_17  and  C16_19 
REMARK    9  A    between atoms: C16_19  and  O2_20 
REMARK   10  A    between atoms: C16_19  and  C18_22 
REMARK   11  A    between atoms: C24_29  and  O4_30 
REMARK   12  A    between atoms: C25_31  and  O5_32 
ROOT
HETATM    1  C5  UNL     1      -3.293  50.380 -25.242  1.00  0.00    -0.018 C 
HETATM    2  C6  UNL     1      -3.834  49.187 -25.565  1.00  0.00    -0.084 C 
HETATM    3  C7  UNL     1      -4.854  48.460 -24.729  1.00  0.00     0.043 C 
ENDROOT
BRANCH   2   4
HETATM    4  C8  UNL     1      -3.388  48.451 -26.815  1.00  0.00     0.060 C 
BRANCH   4   5
HETATM    5  C9  UNL     1      -4.508  48.297 -27.810  1.00  0.00    -0.022 C 
HETATM    6  C10 UNL     1      -5.659  47.663 -27.533  1.00  0.00     0.003 C 
BRANCH   6   7
HETATM    7  C11 UNL     1      -6.800  47.483 -28.434  1.00  0.00    -0.066 C 
HETATM    8  C12 UNL     1      -7.879  46.527 -28.000  1.00  0.00     0.048 C 
HETATM    9  C13 UNL     1      -6.818  48.192 -29.584  1.00  0.00    -0.013 C 
BRANCH   9  10
HETATM   10  C14 UNL     1      -7.827  48.215 -30.729  1.00  0.00     0.037 C 
HETATM   11  C15 UNL     1      -8.670  49.495 -30.720  1.00  0.00     0.017 C 
BRANCH  10  12
HETATM   12  C16 UNL     1      -7.169  47.874 -32.096  1.00  0.00     0.165 C 
BRANCH  12  13
HETATM   13  O2  UNL     1      -5.824  47.426 -31.829  1.00  0.00    -0.387 OA
HETATM   14  C17 UNL     1      -4.872  47.970 -32.733  1.00  0.00     0.202 C 
ENDBRANCH  12  13
BRANCH  12  15
HETATM   15  C18 UNL     1      -7.877  46.770 -32.868  1.00  0.00     0.110 A 
HETATM   16  C19 UNL     1      -7.421  45.357 -32.649  1.00  0.00     0.051 C 
HETATM   17  O3  UNL     1      -9.305  46.928 -32.970  1.00  0.00    -0.367 OA
HETATM   18  C20 UNL     1      -8.567  47.154 -34.174  1.00  0.00     0.155 A 
HETATM   19  C21 UNL     1      -8.855  46.190 -35.268  1.00  0.00     0.042 C 
ENDBRANCH  12  15
ENDBRANCH  10  12
ENDBRANCH   9  10
ENDBRANCH   6   7
ENDBRANCH   4   5
ENDBRANCH   2   4
BRANCH   1  20
HETATM   20  C4  UNL     1      -3.605  51.258 -24.052  1.00  0.00     0.085 C 
BRANCH  20  21
HETATM   21  C3  UNL     1      -2.437  51.471 -23.098  1.00  0.00     0.023 A 
HETATM   22  N1  UNL     1      -2.529  50.869 -21.878  1.00  0.00    -0.337 N 
HETATM   23  C2  UNL     1      -1.522  51.040 -20.991  1.00  0.00     0.179 A 
ATOM     24  H1  UNL     1      -3.342  50.301 -21.639  1.00  0.00     0.168 HD
HETATM   25  C25 UNL     1      -0.376  51.766 -21.278  1.00  0.00     0.153 A 
HETATM   26  C24 UNL     1      -0.302  52.372 -22.531  1.00  0.00     0.111 A 
HETATM   27  C22 UNL     1      -1.310  52.212 -23.485  1.00  0.00    -0.003 A 
HETATM   28  C23 UNL     1      -1.201  52.872 -24.830  1.00  0.00     0.053 C 
BRANCH  23  29
HETATM   29  O1  UNL     1      -1.649  50.490 -19.732  1.00  0.00    -0.339 OA
HETATM   30  C1  UNL     1      -1.290  49.114 -19.678  1.00  0.00     0.211 C 
ENDBRANCH  23  29
BRANCH  25  31
HETATM   31  O5  UNL     1       0.669  51.994 -20.419  1.00  0.00    -0.349 OA
HETATM   32  C26 UNL     1       0.409  53.088 -19.537  1.00  0.00     0.210 C 
ENDBRANCH  25  31
BRANCH  26  33
HETATM   33  O4  UNL     1       0.798  53.138 -22.831  1.00  0.00    -0.357 OA
HETATM   34  H36 UNL     1       1.299  53.217 -21.993  1.00  0.00     0.217 HD
ENDBRANCH  26  33
ENDBRANCH  20  21
ENDBRANCH   1  20
TORSDOF 12
ENDMDL
MODEL 9
REMARK minimizedAffinity -7.402565
REMARK CNNscore 0.202213749
REMARK CNNaffinity 5.82489347
REMARK  12 active torsions:
REMARK  status: ('A' for Active; 'I' for Inactive)
REMARK    1  A    between atoms: O1_2  and  C2_3 
REMARK    2  A    between atoms: C3_6  and  C4_7 
REMARK    3  A    between atoms: C4_7  and  C5_8 
REMARK    4  A    between atoms: C6_9  and  C8_11 
REMARK    5  A    between atoms: C8_11  and  C9_12 
REMARK    6  A    between atoms: C10_13  and  C11_14 
REMARK    7  A    between atoms: C13_16  and  C14_17 
REMARK    8  A    between atoms: C14_17  and  C16_19 
REMARK    9  A    between atoms: C16_19  and  O2_20 
REMARK   10  A    between atoms: C16_19  and  C18_22 
REMARK   11  A    between atoms: C24_29  and  O4_30 
REMARK   12  A    between atoms: C25_31  and  O5_32 
ROOT
HETATM    1  C5  UNL     1      -3.597  50.678 -25.243  1.00  0.00    -0.018 C 
HETATM    2  C6  UNL     1      -3.531  49.908 -26.350  1.00  0.00    -0.084 C 
HETATM    3  C7  UNL     1      -3.096  50.401 -27.705  1.00  0.00     0.043 C 
ENDROOT
BRANCH   2   4
HETATM    4  C8  UNL     1      -3.963  48.454 -26.304  1.00  0.00     0.060 C 
BRANCH   4   5
HETATM    5  C9  UNL     1      -4.897  48.107 -27.433  1.00  0.00    -0.022 C 
HETATM    6  C10 UNL     1      -6.097  47.532 -27.248  1.00  0.00     0.003 C 
BRANCH   6   7
HETATM    7  C11 UNL     1      -7.069  47.178 -28.285  1.00  0.00    -0.066 C 
HETATM    8  C12 UNL     1      -8.487  46.928 -27.846  1.00  0.00     0.048 C 
HETATM    9  C13 UNL     1      -6.636  47.110 -29.564  1.00  0.00    -0.013 C 
BRANCH   9  10
HETATM   10  C14 UNL     1      -7.374  46.750 -30.850  1.00  0.00     0.037 C 
HETATM   11  C15 UNL     1      -8.345  47.855 -31.279  1.00  0.00     0.017 C 
BRANCH  10  12
HETATM   12  C16 UNL     1      -6.403  46.263 -31.964  1.00  0.00     0.165 C 
BRANCH  12  13
HETATM   13  O2  UNL     1      -7.134  46.267 -33.208  1.00  0.00    -0.387 OA
HETATM   14  C17 UNL     1      -7.290  47.570 -33.752  1.00  0.00     0.202 C 
ENDBRANCH  12  13
BRANCH  12  15
HETATM   15  C18 UNL     1      -5.177  47.145 -32.149  1.00  0.00     0.110 A 
HETATM   16  C19 UNL     1      -5.241  48.553 -31.633  1.00  0.00     0.051 C 
HETATM   17  O3  UNL     1      -3.919  46.482 -31.920  1.00  0.00    -0.367 OA
HETATM   18  C20 UNL     1      -4.219  46.791 -33.283  1.00  0.00     0.155 A 
HETATM   19  C21 UNL     1      -3.294  47.768 -33.915  1.00  0.00     0.042 C 
ENDBRANCH  12  15
ENDBRANCH  10  12
ENDBRANCH   9  10
ENDBRANCH   6   7
ENDBRANCH   4   5
ENDBRANCH   2   4
BRANCH   1  20
HETATM   20  C4  UNL     1      -3.215  52.132 -25.090  1.00  0.00     0.085 C 
BRANCH  20  21
HETATM   21  C3  UNL     1      -1.962  52.375 -24.261  1.00  0.00     0.023 A 
HETATM   22  N1  UNL     1      -2.006  51.979 -22.957  1.00  0.00    -0.337 N 
HETATM   23  C2  UNL     1      -0.921  52.185 -22.177  1.00  0.00     0.179 A 
ATOM     24  H1  UNL     1      -2.843  51.535 -22.577  1.00  0.00     0.168 HD
HETATM   25  C25 UNL     1       0.256  52.745 -22.651  1.00  0.00     0.153 A 
HETATM   26  C24 UNL     1       0.281  53.142 -23.986  1.00  0.00     0.111 A 
HETATM   27  C22 UNL     1      -0.810  52.936 -24.835  1.00  0.00    -0.003 A 
HETATM   28  C23 UNL     1      -0.754  53.369 -26.272  1.00  0.00     0.053 C 
BRANCH  23  29
HETATM   29  O1  UNL     1      -0.993  51.849 -20.841  1.00  0.00    -0.339 OA
HETATM   30  C1  UNL     1      -0.357  50.614 -20.534  1.00  0.00     0.211 C 
ENDBRANCH  23  29
BRANCH  25  31
HETATM   31  O5  UNL     1       1.382  53.000 -21.910  1.00  0.00    -0.349 OA
HETATM   32  C26 UNL     1       1.263  54.205 -21.151  1.00  0.00     0.210 C 
ENDBRANCH  25  31
BRANCH  26  33
HETATM   33  O4  UNL     1       1.415  53.744 -24.477  1.00  0.00    -0.357 OA
HETATM   34  H36 UNL     1       1.986  53.901 -23.697  1.00  0.00     0.217 HD
ENDBRANCH  26  33
ENDBRANCH  20  21
ENDBRANCH   1  20
TORSDOF 12
ENDMDL
