MODEL 1
REMARK minimizedAffinity -9.58803749
REMARK CNNscore 0.573559344
REMARK CNNaffinity 7.75928831
REMARK  13 active torsions:
REMARK  status: ('A' for Active; 'I' for Inactive)
REMARK    1  A    between atoms: C19_21  and  O3_22 
REMARK    2  A    between atoms: C19_21  and  C20_23 
REMARK    3  A    between atoms: C20_23  and  C21_25 
REMARK    4  A    between atoms: C21_25  and  O5_26 
REMARK    5  A    between atoms: O5_26  and  C22_27 
REMARK    6  A    between atoms: C22_27  and  C23_29 
REMARK    7  A    between atoms: C23_29  and  C24_30 
REMARK    8  A    between atoms: C24_30  and  C25_31 
REMARK       I    between atoms: C25_31  and  N1_33 
REMARK    9  A    between atoms: N1_33  and  C26_34 
REMARK   10  A    between atoms: C26_34  and  C27_35 
REMARK   11  A    between atoms: C27_35  and  C28_36 
REMARK   12  A    between atoms: C27_35  and  C29_39 
REMARK   13  A    between atoms: C28_36  and  O9_38 
ROOT
HETATM    1  C20 UNL     1      -3.487  49.555 -20.040  1.00  0.00     0.185 C 
HETATM    2  O4  UNL     1      -4.501  50.050 -19.543  1.00  0.00    -0.292 OA
ENDROOT
BRANCH   1   3
HETATM    3  C19 UNL     1      -2.072  50.062 -19.676  1.00  0.00     0.128 C 
HETATM    4  C14 UNL     1      -1.702  50.124 -18.154  1.00  0.00     0.005 C 
HETATM    5  C13 UNL     1      -1.314  48.793 -17.498  1.00  0.00     0.091 C 
HETATM    6  C15 UNL     1      -2.822  50.798 -17.310  1.00  0.00     0.019 C 
HETATM    7  C16 UNL     1      -0.421  50.999 -18.237  1.00  0.00     0.002 C 
HETATM    8  C12 UNL     1      -0.656  49.052 -16.148  1.00  0.00     0.133 C 
HETATM    9  C11 UNL     1       0.565  49.993 -16.151  1.00  0.00     0.072 C 
HETATM   10  O2  UNL     1      -1.060  48.463 -15.148  1.00  0.00    -0.297 OA
HETATM   11  C2  UNL     1       1.267  50.202 -14.761  1.00  0.00    -0.009 C 
HETATM   12  C10 UNL     1       0.201  51.325 -16.869  1.00  0.00     0.003 C 
HETATM   13  C1  UNL     1       0.313  50.786 -13.694  1.00  0.00     0.021 C 
HETATM   14  C3  UNL     1       1.820  48.828 -14.272  1.00  0.00     0.022 C 
HETATM   15  C7  UNL     1       2.428  51.197 -14.943  1.00  0.00    -0.067 C 
HETATM   16  C4  UNL     1       2.875  48.936 -13.182  1.00  0.00     0.084 C 
HETATM   17  C5  UNL     1       4.008  49.811 -13.647  1.00  0.00     0.149 C 
HETATM   18  O1  UNL     1       5.175  49.614 -13.321  1.00  0.00    -0.293 OA
HETATM   19  C6  UNL     1       3.672  50.992 -14.474  1.00  0.00     0.053 C 
HETATM   20  C8  UNL     1       2.116  52.475 -15.684  1.00  0.00     0.035 C 
HETATM   21  C9  UNL     1       1.450  52.203 -17.028  1.00  0.00     0.010 C 
HETATM   22  C17 UNL     1      -0.851  52.159 -19.125  1.00  0.00     0.009 C 
HETATM   23  C18 UNL     1      -1.819  51.521 -20.139  1.00  0.00     0.047 C 
BRANCH   3  24
HETATM   24  O3  UNL     1      -1.132  49.228 -20.373  1.00  0.00    -0.381 OA
HETATM   25  H25 UNL     1      -1.298  48.301 -20.120  1.00  0.00     0.211 HD
ENDBRANCH   3  24
ENDBRANCH   1   3
BRANCH   1  26
HETATM   26  C21 UNL     1      -3.613  48.293 -20.894  1.00  0.00     0.260 C 
BRANCH  26  27
HETATM   27  O5  UNL     1      -4.822  48.230 -21.642  1.00  0.00    -0.314 OA
BRANCH  27  28
HETATM   28  C22 UNL     1      -4.675  48.171 -22.994  1.00  0.00     0.259 C 
HETATM   29  O6  UNL     1      -5.590  48.079 -23.800  1.00  0.00    -0.265 OA
BRANCH  28  30
HETATM   30  C23 UNL     1      -3.205  48.175 -23.344  1.00  0.00     0.120 C 
BRANCH  30  31
HETATM   31  C24 UNL     1      -2.914  49.158 -24.470  1.00  0.00     0.112 C 
BRANCH  31  32
HETATM   32  C25 UNL     1      -2.025  50.292 -23.999  1.00  0.00     0.218 C 
HETATM   33  O7  UNL     1      -1.249  50.191 -23.056  1.00  0.00    -0.274 OA
HETATM   34  N1  UNL     1      -2.147  51.430 -24.766  1.00  0.00    -0.360 N 
HETATM   35  H32 UNL     1      -3.009  51.550 -25.286  1.00  0.00     0.162 HD
BRANCH  34  36
HETATM   36  C26 UNL     1      -1.429  52.647 -24.417  1.00  0.00     0.142 C 
BRANCH  36  37
HETATM   37  C27 UNL     1       0.099  52.469 -24.342  1.00  0.00     0.134 C 
BRANCH  37  38
HETATM   38  C28 UNL     1       0.753  53.594 -23.549  1.00  0.00     0.150 C 
HETATM   39  O8  UNL     1       1.305  54.594 -23.980  1.00  0.00    -0.649 OA
BRANCH  38  40
HETATM   40  O9  UNL     1       0.750  53.385 -22.211  1.00  0.00    -0.776 OA
HETATM   41  H36 UNL     1       1.281  54.139 -21.871  1.00  0.00     0.167 HD
ENDBRANCH  38  40
ENDBRANCH  37  38
BRANCH  37  42
HETATM   42  C29 UNL     1       0.649  52.324 -25.758  1.00  0.00    -0.042 A 
HETATM   43  C30 UNL     1       1.850  51.622 -25.960  1.00  0.00     0.008 A 
HETATM   44  C31 UNL     1       2.355  51.432 -27.247  1.00  0.00     0.001 A 
HETATM   45  C32 UNL     1       1.666  51.934 -28.349  1.00  0.00     0.000 A 
HETATM   46  C33 UNL     1       0.471  52.623 -28.165  1.00  0.00     0.001 A 
HETATM   47  C34 UNL     1      -0.040  52.812 -26.879  1.00  0.00     0.008 A 
ENDBRANCH  37  42
ENDBRANCH  36  37
ENDBRANCH  34  36
ENDBRANCH  31  32
ENDBRANCH  30  31
ENDBRANCH  28  30
ENDBRANCH  27  28
ENDBRANCH  26  27
ENDBRANCH   1  26
TORSDOF 13
ENDMDL
MODEL 2
REMARK minimizedAffinity -8.34658718
REMARK CNNscore 0.502711892
REMARK CNNaffinity 6.17783403
REMARK  13 active torsions:
REMARK  status: ('A' for Active; 'I' for Inactive)
REMARK    1  A    between atoms: C19_21  and  O3_22 
REMARK    2  A    between atoms: C19_21  and  C20_23 
REMARK    3  A    between atoms: C20_23  and  C21_25 
REMARK    4  A    between atoms: C21_25  and  O5_26 
REMARK    5  A    between atoms: O5_26  and  C22_27 
REMARK    6  A    between atoms: C22_27  and  C23_29 
REMARK    7  A    between atoms: C23_29  and  C24_30 
REMARK    8  A    between atoms: C24_30  and  C25_31 
REMARK       I    between atoms: C25_31  and  N1_33 
REMARK    9  A    between atoms: N1_33  and  C26_34 
REMARK   10  A    between atoms: C26_34  and  C27_35 
REMARK   11  A    between atoms: C27_35  and  C28_36 
REMARK   12  A    between atoms: C27_35  and  C29_39 
REMARK   13  A    between atoms: C28_36  and  O9_38 
ROOT
HETATM    1  C20 UNL     1      -9.507  45.987 -29.292  1.00  0.00     0.185 C 
HETATM    2  O4  UNL     1      -9.935  46.581 -30.285  1.00  0.00    -0.292 OA
ENDROOT
BRANCH   1   3
HETATM    3  C19 UNL     1      -8.054  46.169 -28.798  1.00  0.00     0.128 C 
HETATM    4  C14 UNL     1      -7.833  47.077 -27.539  1.00  0.00     0.005 C 
HETATM    5  C13 UNL     1      -8.137  46.433 -26.180  1.00  0.00     0.091 C 
HETATM    6  C15 UNL     1      -8.608  48.422 -27.648  1.00  0.00     0.019 C 
HETATM    7  C16 UNL     1      -6.295  47.275 -27.632  1.00  0.00     0.002 C 
HETATM    8  C12 UNL     1      -7.557  47.287 -25.060  1.00  0.00     0.133 C 
HETATM    9  C11 UNL     1      -6.050  47.601 -25.148  1.00  0.00     0.072 C 
HETATM   10  O2  UNL     1      -8.268  47.622 -24.115  1.00  0.00    -0.297 OA
HETATM   11  C2  UNL     1      -5.457  48.433 -23.954  1.00  0.00    -0.009 C 
HETATM   12  C10 UNL     1      -5.719  48.199 -26.546  1.00  0.00     0.003 C 
HETATM   13  C1  UNL     1      -6.144  49.807 -23.786  1.00  0.00     0.021 C 
HETATM   14  C3  UNL     1      -5.618  47.603 -22.642  1.00  0.00     0.022 C 
HETATM   15  C7  UNL     1      -3.963  48.688 -24.229  1.00  0.00    -0.067 C 
HETATM   16  C4  UNL     1      -4.727  48.069 -21.501  1.00  0.00     0.084 C 
HETATM   17  C5  UNL     1      -3.287  48.066 -21.938  1.00  0.00     0.149 C 
HETATM   18  O1  UNL     1      -2.363  47.794 -21.176  1.00  0.00    -0.293 OA
HETATM   19  C6  UNL     1      -2.988  48.480 -23.327  1.00  0.00     0.053 C 
HETATM   20  C8  UNL     1      -3.608  49.218 -25.598  1.00  0.00     0.035 C 
HETATM   21  C9  UNL     1      -4.201  48.361 -26.710  1.00  0.00     0.010 C 
HETATM   22  C17 UNL     1      -6.083  47.661 -29.089  1.00  0.00     0.009 C 
HETATM   23  C18 UNL     1      -7.139  46.841 -29.856  1.00  0.00     0.047 C 
BRANCH   3  24
HETATM   24  O3  UNL     1      -7.523  44.857 -28.553  1.00  0.00    -0.381 OA
HETATM   25  H25 UNL     1      -8.105  44.405 -27.914  1.00  0.00     0.211 HD
ENDBRANCH   3  24
ENDBRANCH   1   3
BRANCH   1  26
HETATM   26  C21 UNL     1     -10.481  45.193 -28.421  1.00  0.00     0.260 C 
BRANCH  26  27
HETATM   27  O5  UNL     1     -11.812  45.695 -28.449  1.00  0.00    -0.314 OA
BRANCH  27  28
HETATM   28  C22 UNL     1     -12.263  46.233 -27.283  1.00  0.00     0.259 C 
HETATM   29  O6  UNL     1     -11.729  46.098 -26.190  1.00  0.00    -0.265 OA
BRANCH  28  30
HETATM   30  C23 UNL     1     -13.556  46.973 -27.534  1.00  0.00     0.120 C 
BRANCH  30  31
HETATM   31  C24 UNL     1     -14.757  46.123 -27.141  1.00  0.00     0.112 C 
BRANCH  31  32
HETATM   32  C25 UNL     1     -15.192  46.405 -25.718  1.00  0.00     0.218 C 
HETATM   33  O7  UNL     1     -14.725  47.312 -25.038  1.00  0.00    -0.274 OA
HETATM   34  N1  UNL     1     -16.195  45.567 -25.281  1.00  0.00    -0.360 N 
HETATM   35  H32 UNL     1     -16.287  44.670 -25.746  1.00  0.00     0.162 HD
BRANCH  34  36
HETATM   36  C26 UNL     1     -16.686  45.637 -23.912  1.00  0.00     0.142 C 
BRANCH  36  37
HETATM   37  C27 UNL     1     -18.214  45.493 -23.792  1.00  0.00     0.134 C 
BRANCH  37  38
HETATM   38  C28 UNL     1     -18.940  46.523 -24.648  1.00  0.00     0.150 C 
HETATM   39  O8  UNL     1     -19.991  46.389 -25.256  1.00  0.00    -0.649 OA
BRANCH  38  40
HETATM   40  O9  UNL     1     -18.271  47.694 -24.771  1.00  0.00    -0.776 OA
HETATM   41  H36 UNL     1     -18.820  48.193 -25.415  1.00  0.00     0.167 HD
ENDBRANCH  38  40
ENDBRANCH  37  38
BRANCH  37  42
HETATM   42  C29 UNL     1     -18.601  45.549 -22.317  1.00  0.00    -0.042 A 
HETATM   43  C30 UNL     1     -19.061  44.382 -21.682  1.00  0.00     0.008 A 
HETATM   44  C31 UNL     1     -19.379  44.389 -20.323  1.00  0.00     0.001 A 
HETATM   45  C32 UNL     1     -19.235  45.557 -19.578  1.00  0.00     0.000 A 
HETATM   46  C33 UNL     1     -18.771  46.718 -20.191  1.00  0.00     0.001 A 
HETATM   47  C34 UNL     1     -18.449  46.714 -21.550  1.00  0.00     0.008 A 
ENDBRANCH  37  42
ENDBRANCH  36  37
ENDBRANCH  34  36
ENDBRANCH  31  32
ENDBRANCH  30  31
ENDBRANCH  28  30
ENDBRANCH  27  28
ENDBRANCH  26  27
ENDBRANCH   1  26
TORSDOF 13
ENDMDL
MODEL 3
REMARK minimizedAffinity -8.79352474
REMARK CNNscore 0.495046228
REMARK CNNaffinity 6.45966101
REMARK  13 active torsions:
REMARK  status: ('A' for Active; 'I' for Inactive)
REMARK    1  A    between atoms: C19_21  and  O3_22 
REMARK    2  A    between atoms: C19_21  and  C20_23 
REMARK    3  A    between atoms: C20_23  and  C21_25 
REMARK    4  A    between atoms: C21_25  and  O5_26 
REMARK    5  A    between atoms: O5_26  and  C22_27 
REMARK    6  A    between atoms: C22_27  and  C23_29 
REMARK    7  A    between atoms: C23_29  and  C24_30 
REMARK    8  A    between atoms: C24_30  and  C25_31 
REMARK       I    between atoms: C25_31  and  N1_33 
REMARK    9  A    between atoms: N1_33  and  C26_34 
REMARK   10  A    between atoms: C26_34  and  C27_35 
REMARK   11  A    between atoms: C27_35  and  C28_36 
REMARK   12  A    between atoms: C27_35  and  C29_39 
REMARK   13  A    between atoms: C28_36  and  O9_38 
ROOT
HETATM    1  C20 UNL     1       0.590  50.427 -14.464  1.00  0.00     0.185 C 
HETATM    2  O4  UNL     1       1.378  49.551 -14.099  1.00  0.00    -0.292 OA
ENDROOT
BRANCH   1   3
HETATM    3  C19 UNL     1       0.455  51.767 -13.706  1.00  0.00     0.128 C 
HETATM    4  C14 UNL     1       1.167  51.878 -12.313  1.00  0.00     0.005 C 
HETATM    5  C13 UNL     1       2.679  52.133 -12.345  1.00  0.00     0.091 C 
HETATM    6  C15 UNL     1       0.879  50.641 -11.413  1.00  0.00     0.019 C 
HETATM    7  C16 UNL     1       0.485  53.166 -11.777  1.00  0.00     0.002 C 
HETATM    8  C12 UNL     1       3.163  52.558 -10.965  1.00  0.00     0.133 C 
HETATM    9  C11 UNL     1       2.456  53.775 -10.336  1.00  0.00     0.072 C 
HETATM   10  O2  UNL     1       4.120  51.984 -10.448  1.00  0.00    -0.297 OA
HETATM   11  C2  UNL     1       3.008  54.236  -8.939  1.00  0.00    -0.009 C 
HETATM   12  C10 UNL     1       0.916  53.555 -10.353  1.00  0.00     0.003 C 
HETATM   13  C1  UNL     1       2.921  53.126  -7.868  1.00  0.00     0.021 C 
HETATM   14  C3  UNL     1       4.493  54.681  -9.114  1.00  0.00     0.022 C 
HETATM   15  C7  UNL     1       2.161  55.426  -8.447  1.00  0.00    -0.067 C 
HETATM   16  C4  UNL     1       5.021  55.540  -7.975  1.00  0.00     0.084 C 
HETATM   17  C5  UNL     1       4.141  56.747  -7.789  1.00  0.00     0.149 C 
HETATM   18  O1  UNL     1       4.578  57.840  -7.442  1.00  0.00    -0.293 OA
HETATM   19  C6  UNL     1       2.682  56.570  -7.970  1.00  0.00     0.053 C 
HETATM   20  C8  UNL     1       0.661  55.260  -8.503  1.00  0.00     0.035 C 
HETATM   21  C9  UNL     1       0.191  54.825  -9.886  1.00  0.00     0.010 C 
HETATM   22  C17 UNL     1      -0.994  52.908 -12.034  1.00  0.00     0.009 C 
HETATM   23  C18 UNL     1      -1.016  52.114 -13.355  1.00  0.00     0.047 C 
BRANCH   3  24
HETATM   24  O3  UNL     1       0.935  52.799 -14.582  1.00  0.00    -0.381 OA
HETATM   25  H25 UNL     1       1.850  52.581 -14.841  1.00  0.00     0.211 HD
ENDBRANCH   3  24
ENDBRANCH   1   3
BRANCH   1  26
HETATM   26  C21 UNL     1      -0.141  50.265 -15.797  1.00  0.00     0.260 C 
BRANCH  26  27
HETATM   27  O5  UNL     1       0.698  50.444 -16.932  1.00  0.00    -0.314 OA
BRANCH  27  28
HETATM   28  C22 UNL     1       0.522  51.608 -17.616  1.00  0.00     0.259 C 
HETATM   29  O6  UNL     1       1.197  52.618 -17.475  1.00  0.00    -0.265 OA
BRANCH  28  30
HETATM   30  C23 UNL     1      -0.671  51.481 -18.533  1.00  0.00     0.120 C 
BRANCH  30  31
HETATM   31  C24 UNL     1      -0.611  52.508 -19.655  1.00  0.00     0.112 C 
BRANCH  31  32
HETATM   32  C25 UNL     1      -0.090  51.896 -20.939  1.00  0.00     0.218 C 
HETATM   33  O7  UNL     1       0.190  50.707 -21.053  1.00  0.00    -0.274 OA
HETATM   34  N1  UNL     1      -0.007  52.799 -21.976  1.00  0.00    -0.360 N 
HETATM   35  H32 UNL     1       0.069  53.781 -21.733  1.00  0.00     0.162 HD
BRANCH  34  36
HETATM   36  C26 UNL     1       0.546  52.409 -23.265  1.00  0.00     0.142 C 
BRANCH  36  37
HETATM   37  C27 UNL     1      -0.421  52.616 -24.446  1.00  0.00     0.134 C 
BRANCH  37  38
HETATM   38  C28 UNL     1      -1.676  51.766 -24.292  1.00  0.00     0.150 C 
HETATM   39  O8  UNL     1      -2.827  52.070 -24.567  1.00  0.00    -0.649 OA
BRANCH  38  40
HETATM   40  O9  UNL     1      -1.447  50.559 -23.722  1.00  0.00    -0.776 OA
HETATM   41  H36 UNL     1      -2.353  50.193 -23.616  1.00  0.00     0.167 HD
ENDBRANCH  38  40
ENDBRANCH  37  38
BRANCH  37  42
HETATM   42  C29 UNL     1       0.330  52.362 -25.750  1.00  0.00    -0.042 A 
HETATM   43  C30 UNL     1       1.639  51.855 -25.703  1.00  0.00     0.008 A 
HETATM   44  C31 UNL     1       2.334  51.568 -26.878  1.00  0.00     0.001 A 
HETATM   45  C32 UNL     1       1.731  51.777 -28.116  1.00  0.00     0.000 A 
HETATM   46  C33 UNL     1       0.430  52.269 -28.178  1.00  0.00     0.001 A 
HETATM   47  C34 UNL     1      -0.271  52.553 -27.004  1.00  0.00     0.008 A 
ENDBRANCH  37  42
ENDBRANCH  36  37
ENDBRANCH  34  36
ENDBRANCH  31  32
ENDBRANCH  30  31
ENDBRANCH  28  30
ENDBRANCH  27  28
ENDBRANCH  26  27
ENDBRANCH   1  26
TORSDOF 13
ENDMDL
MODEL 4
REMARK minimizedAffinity -9.50912285
REMARK CNNscore 0.435326636
REMARK CNNaffinity 7.19707298
REMARK  13 active torsions:
REMARK  status: ('A' for Active; 'I' for Inactive)
REMARK    1  A    between atoms: C19_21  and  O3_22 
REMARK    2  A    between atoms: C19_21  and  C20_23 
REMARK    3  A    between atoms: C20_23  and  C21_25 
REMARK    4  A    between atoms: C21_25  and  O5_26 
REMARK    5  A    between atoms: O5_26  and  C22_27 
REMARK    6  A    between atoms: C22_27  and  C23_29 
REMARK    7  A    between atoms: C23_29  and  C24_30 
REMARK    8  A    between atoms: C24_30  and  C25_31 
REMARK       I    between atoms: C25_31  and  N1_33 
REMARK    9  A    between atoms: N1_33  and  C26_34 
REMARK   10  A    between atoms: C26_34  and  C27_35 
REMARK   11  A    between atoms: C27_35  and  C28_36 
REMARK   12  A    between atoms: C27_35  and  C29_39 
REMARK   13  A    between atoms: C28_36  and  O9_38 
ROOT
HETATM    1  C20 UNL     1      -7.227  47.907 -22.276  1.00  0.00     0.185 C 
HETATM    2  O4  UNL     1      -7.039  46.705 -22.074  1.00  0.00    -0.292 OA
ENDROOT
BRANCH   1   3
HETATM    3  C19 UNL     1      -6.520  48.994 -21.435  1.00  0.00     0.128 C 
HETATM    4  C14 UNL     1      -4.953  48.993 -21.433  1.00  0.00     0.005 C 
HETATM    5  C13 UNL     1      -4.274  49.607 -22.664  1.00  0.00     0.091 C 
HETATM    6  C15 UNL     1      -4.373  47.569 -21.192  1.00  0.00     0.019 C 
HETATM    7  C16 UNL     1      -4.696  49.943 -20.232  1.00  0.00     0.002 C 
HETATM    8  C12 UNL     1      -2.798  49.851 -22.376  1.00  0.00     0.133 C 
HETATM    9  C11 UNL     1      -2.475  50.709 -21.137  1.00  0.00     0.072 C 
HETATM   10  O2  UNL     1      -1.945  49.434 -23.156  1.00  0.00    -0.297 OA
HETATM   11  C2  UNL     1      -0.952  51.000 -20.888  1.00  0.00    -0.009 C 
HETATM   12  C10 UNL     1      -3.208  50.131 -19.892  1.00  0.00     0.003 C 
HETATM   13  C1  UNL     1      -0.120  49.710 -20.709  1.00  0.00     0.021 C 
HETATM   14  C3  UNL     1      -0.398  51.817 -22.097  1.00  0.00     0.022 C 
HETATM   15  C7  UNL     1      -0.815  51.826 -19.595  1.00  0.00    -0.067 C 
HETATM   16  C4  UNL     1       0.914  52.532 -21.813  1.00  0.00     0.084 C 
HETATM   17  C5  UNL     1       0.764  53.427 -20.613  1.00  0.00     0.149 C 
HETATM   18  O1  UNL     1       1.349  54.502 -20.509  1.00  0.00    -0.293 OA
HETATM   19  C6  UNL     1      -0.073  52.943 -19.493  1.00  0.00     0.053 C 
HETATM   20  C8  UNL     1      -1.561  51.317 -18.384  1.00  0.00     0.035 C 
HETATM   21  C9  UNL     1      -3.033  51.068 -18.688  1.00  0.00     0.010 C 
HETATM   22  C17 UNL     1      -5.616  49.392 -19.151  1.00  0.00     0.009 C 
HETATM   23  C18 UNL     1      -6.855  48.898 -19.923  1.00  0.00     0.047 C 
BRANCH   3  24
HETATM   24  O3  UNL     1      -7.006  50.266 -21.895  1.00  0.00    -0.381 OA
HETATM   25  H25 UNL     1      -6.834  50.332 -22.852  1.00  0.00     0.211 HD
ENDBRANCH   3  24
ENDBRANCH   1   3
BRANCH   1  26
HETATM   26  C21 UNL     1      -8.036  48.340 -23.500  1.00  0.00     0.260 C 
BRANCH  26  27
HETATM   27  O5  UNL     1      -7.259  48.998 -24.493  1.00  0.00    -0.314 OA
BRANCH  27  28
HETATM   28  C22 UNL     1      -6.410  48.202 -25.200  1.00  0.00     0.259 C 
HETATM   29  O6  UNL     1      -5.404  47.670 -24.752  1.00  0.00    -0.265 OA
BRANCH  28  30
HETATM   30  C23 UNL     1      -6.868  48.126 -26.637  1.00  0.00     0.120 C 
BRANCH  30  31
HETATM   31  C24 UNL     1      -5.831  47.425 -27.505  1.00  0.00     0.112 C 
BRANCH  31  32
HETATM   32  C25 UNL     1      -4.825  48.408 -28.067  1.00  0.00     0.218 C 
HETATM   33  O7  UNL     1      -4.756  48.694 -29.257  1.00  0.00    -0.274 OA
HETATM   34  N1  UNL     1      -4.026  48.978 -27.099  1.00  0.00    -0.360 N 
HETATM   35  H32 UNL     1      -3.912  48.468 -26.230  1.00  0.00     0.162 HD
BRANCH  34  36
HETATM   36  C26 UNL     1      -2.948  49.888 -27.460  1.00  0.00     0.142 C 
BRANCH  36  37
HETATM   37  C27 UNL     1      -2.362  50.662 -26.265  1.00  0.00     0.134 C 
BRANCH  37  38
HETATM   38  C28 UNL     1      -3.273  51.807 -25.842  1.00  0.00     0.150 C 
HETATM   39  O8  UNL     1      -4.328  51.742 -25.230  1.00  0.00    -0.649 OA
BRANCH  38  40
HETATM   40  O9  UNL     1      -2.852  53.021 -26.271  1.00  0.00    -0.776 OA
HETATM   41  H36 UNL     1      -3.586  53.615 -25.999  1.00  0.00     0.167 HD
ENDBRANCH  38  40
ENDBRANCH  37  38
BRANCH  37  42
HETATM   42  C29 UNL     1      -0.945  51.109 -26.612  1.00  0.00    -0.042 A 
HETATM   43  C30 UNL     1       0.030  51.154 -25.601  1.00  0.00     0.008 A 
HETATM   44  C31 UNL     1       1.345  51.514 -25.896  1.00  0.00     0.001 A 
HETATM   45  C32 UNL     1       1.707  51.827 -27.204  1.00  0.00     0.000 A 
HETATM   46  C33 UNL     1       0.755  51.777 -28.218  1.00  0.00     0.001 A 
HETATM   47  C34 UNL     1      -0.562  51.413 -27.928  1.00  0.00     0.008 A 
ENDBRANCH  37  42
ENDBRANCH  36  37
ENDBRANCH  34  36
ENDBRANCH  31  32
ENDBRANCH  30  31
ENDBRANCH  28  30
ENDBRANCH  27  28
ENDBRANCH  26  27
ENDBRANCH   1  26
TORSDOF 13
ENDMDL
MODEL 5
REMARK minimizedAffinity -9.1831522
REMARK CNNscore 0.393060982
REMARK CNNaffinity 6.93113899
REMARK  13 active torsions:
REMARK  status: ('A' for Active; 'I' for Inactive)
REMARK    1  A    between atoms: C19_21  and  O3_22 
REMARK    2  A    between atoms: C19_21  and  C20_23 
REMARK    3  A    between atoms: C20_23  and  C21_25 
REMARK    4  A    between atoms: C21_25  and  O5_26 
REMARK    5  A    between atoms: O5_26  and  C22_27 
REMARK    6  A    between atoms: C22_27  and  C23_29 
REMARK    7  A    between atoms: C23_29  and  C24_30 
REMARK    8  A    between atoms: C24_30  and  C25_31 
REMARK       I    between atoms: C25_31  and  N1_33 
REMARK    9  A    between atoms: N1_33  and  C26_34 
REMARK   10  A    between atoms: C26_34  and  C27_35 
REMARK   11  A    between atoms: C27_35  and  C28_36 
REMARK   12  A    between atoms: C27_35  and  C29_39 
REMARK   13  A    between atoms: C28_36  and  O9_38 
ROOT
HETATM    1  C20 UNL     1      -2.414  48.822 -17.990  1.00  0.00     0.185 C 
HETATM    2  O4  UNL     1      -3.443  49.322 -17.530  1.00  0.00    -0.292 OA
ENDROOT
BRANCH   1   3
HETATM    3  C19 UNL     1      -2.279  48.473 -19.490  1.00  0.00     0.128 C 
HETATM    4  C14 UNL     1      -2.254  49.668 -20.504  1.00  0.00     0.005 C 
HETATM    5  C13 UNL     1      -0.922  50.418 -20.633  1.00  0.00     0.091 C 
HETATM    6  C15 UNL     1      -3.389  50.695 -20.221  1.00  0.00     0.019 C 
HETATM    7  C16 UNL     1      -2.484  48.888 -21.827  1.00  0.00     0.002 C 
HETATM    8  C12 UNL     1      -0.941  51.301 -21.874  1.00  0.00     0.133 C 
HETATM    9  C11 UNL     1      -1.260  50.599 -23.209  1.00  0.00     0.072 C 
HETATM   10  O2  UNL     1      -0.637  52.489 -21.786  1.00  0.00    -0.297 OA
HETATM   11  C2  UNL     1      -1.217  51.513 -24.486  1.00  0.00    -0.009 C 
HETATM   12  C10 UNL     1      -2.579  49.785 -23.072  1.00  0.00     0.003 C 
HETATM   13  C1  UNL     1      -2.211  52.694 -24.407  1.00  0.00     0.021 C 
HETATM   14  C3  UNL     1       0.233  52.060 -24.658  1.00  0.00     0.022 C 
HETATM   15  C7  UNL     1      -1.602  50.662 -25.711  1.00  0.00    -0.067 C 
HETATM   16  C4  UNL     1       0.535  52.593 -26.050  1.00  0.00     0.084 C 
HETATM   17  C5  UNL     1       0.261  51.529 -27.079  1.00  0.00     0.149 C 
HETATM   18  O1  UNL     1       0.925  51.411 -28.105  1.00  0.00    -0.293 OA
HETATM   19  C6  UNL     1      -0.905  50.643 -26.861  1.00  0.00     0.053 C 
HETATM   20  C8  UNL     1      -2.850  49.819 -25.586  1.00  0.00     0.035 C 
HETATM   21  C9  UNL     1      -2.822  48.948 -24.336  1.00  0.00     0.010 C 
HETATM   22  C17 UNL     1      -3.668  47.989 -21.497  1.00  0.00     0.009 C 
HETATM   23  C18 UNL     1      -3.459  47.615 -20.017  1.00  0.00     0.047 C 
BRANCH   3  24
HETATM   24  O3  UNL     1      -1.086  47.686 -19.635  1.00  0.00    -0.381 OA
HETATM   25  H25 UNL     1      -0.336  48.196 -19.278  1.00  0.00     0.211 HD
ENDBRANCH   3  24
ENDBRANCH   1   3
BRANCH   1  26
HETATM   26  C21 UNL     1      -1.177  48.709 -17.099  1.00  0.00     0.260 C 
BRANCH  26  27
HETATM   27  O5  UNL     1      -0.049  49.420 -17.596  1.00  0.00    -0.314 OA
BRANCH  27  28
HETATM   28  C22 UNL     1       0.123  50.674 -17.095  1.00  0.00     0.259 C 
HETATM   29  O6  UNL     1      -0.160  51.712 -17.677  1.00  0.00    -0.265 OA
BRANCH  28  30
HETATM   30  C23 UNL     1       0.774  50.589 -15.734  1.00  0.00     0.120 C 
BRANCH  30  31
HETATM   31  C24 UNL     1       0.845  51.961 -15.075  1.00  0.00     0.112 C 
BRANCH  31  32
HETATM   32  C25 UNL     1       0.857  51.848 -13.564  1.00  0.00     0.218 C 
HETATM   33  O7  UNL     1       0.994  50.785 -12.970  1.00  0.00    -0.274 OA
HETATM   34  N1  UNL     1       0.743  53.066 -12.929  1.00  0.00    -0.360 N 
HETATM   35  H32 UNL     1       0.311  53.823 -13.449  1.00  0.00     0.162 HD
BRANCH  34  36
HETATM   36  C26 UNL     1       0.657  53.148 -11.478  1.00  0.00     0.142 C 
BRANCH  36  37
HETATM   37  C27 UNL     1      -0.411  54.136 -10.974  1.00  0.00     0.134 C 
BRANCH  37  38
HETATM   38  C28 UNL     1       0.067  54.889  -9.739  1.00  0.00     0.150 C 
HETATM   39  O8  UNL     1      -0.595  55.256  -8.780  1.00  0.00    -0.649 OA
BRANCH  38  40
HETATM   40  O9  UNL     1       1.378  55.226  -9.783  1.00  0.00    -0.776 OA
HETATM   41  H36 UNL     1       1.490  55.773  -8.975  1.00  0.00     0.167 HD
ENDBRANCH  38  40
ENDBRANCH  37  38
BRANCH  37  42
HETATM   42  C29 UNL     1      -1.719  53.381 -10.757  1.00  0.00    -0.042 A 
HETATM   43  C30 UNL     1      -2.938  54.074 -10.853  1.00  0.00     0.008 A 
HETATM   44  C31 UNL     1      -4.152  53.403 -10.706  1.00  0.00     0.001 A 
HETATM   45  C32 UNL     1      -4.168  52.031 -10.467  1.00  0.00     0.000 A 
HETATM   46  C33 UNL     1      -2.969  51.329 -10.379  1.00  0.00     0.001 A 
HETATM   47  C34 UNL     1      -1.752  51.996 -10.530  1.00  0.00     0.008 A 
ENDBRANCH  37  42
ENDBRANCH  36  37
ENDBRANCH  34  36
ENDBRANCH  31  32
ENDBRANCH  30  31
ENDBRANCH  28  30
ENDBRANCH  27  28
ENDBRANCH  26  27
ENDBRANCH   1  26
TORSDOF 13
ENDMDL
MODEL 6
REMARK minimizedAffinity -9.2845459
REMARK CNNscore 0.379206151
REMARK CNNaffinity 6.74247122
REMARK  13 active torsions:
REMARK  status: ('A' for Active; 'I' for Inactive)
REMARK    1  A    between atoms: C19_21  and  O3_22 
REMARK    2  A    between atoms: C19_21  and  C20_23 
REMARK    3  A    between atoms: C20_23  and  C21_25 
REMARK    4  A    between atoms: C21_25  and  O5_26 
REMARK    5  A    between atoms: O5_26  and  C22_27 
REMARK    6  A    between atoms: C22_27  and  C23_29 
REMARK    7  A    between atoms: C23_29  and  C24_30 
REMARK    8  A    between atoms: C24_30  and  C25_31 
REMARK       I    between atoms: C25_31  and  N1_33 
REMARK    9  A    between atoms: N1_33  and  C26_34 
REMARK   10  A    between atoms: C26_34  and  C27_35 
REMARK   11  A    between atoms: C27_35  and  C28_36 
REMARK   12  A    between atoms: C27_35  and  C29_39 
REMARK   13  A    between atoms: C28_36  and  O9_38 
ROOT
HETATM    1  C20 UNL     1      -1.975  48.930 -18.190  1.00  0.00     0.185 C 
HETATM    2  O4  UNL     1      -3.000  48.847 -17.510  1.00  0.00    -0.292 OA
ENDROOT
BRANCH   1   3
HETATM    3  C19 UNL     1      -1.973  48.612 -19.703  1.00  0.00     0.128 C 
HETATM    4  C14 UNL     1      -1.910  49.828 -20.691  1.00  0.00     0.005 C 
HETATM    5  C13 UNL     1      -0.528  50.462 -20.896  1.00  0.00     0.091 C 
HETATM    6  C15 UNL     1      -2.927  50.942 -20.307  1.00  0.00     0.019 C 
HETATM    7  C16 UNL     1      -2.298  49.108 -22.011  1.00  0.00     0.002 C 
HETATM    8  C12 UNL     1      -0.553  51.377 -22.114  1.00  0.00     0.133 C 
HETATM    9  C11 UNL     1      -1.023  50.743 -23.438  1.00  0.00     0.072 C 
HETATM   10  O2  UNL     1      -0.138  52.531 -22.021  1.00  0.00    -0.297 OA
HETATM   11  C2  UNL     1      -0.985  51.685 -24.695  1.00  0.00    -0.009 C 
HETATM   12  C10 UNL     1      -2.397  50.044 -23.227  1.00  0.00     0.003 C 
HETATM   13  C1  UNL     1      -1.862  52.946 -24.521  1.00  0.00     0.021 C 
HETATM   14  C3  UNL     1       0.493  52.107 -24.955  1.00  0.00     0.022 C 
HETATM   15  C7  UNL     1      -1.527  50.904 -25.908  1.00  0.00    -0.067 C 
HETATM   16  C4  UNL     1       0.746  52.649 -26.354  1.00  0.00     0.084 C 
HETATM   17  C5  UNL     1       0.309  51.643 -27.384  1.00  0.00     0.149 C 
HETATM   18  O1  UNL     1       0.889  51.496 -28.456  1.00  0.00    -0.293 OA
HETATM   19  C6  UNL     1      -0.914  50.857 -27.104  1.00  0.00     0.053 C 
HETATM   20  C8  UNL     1      -2.833  50.172 -25.714  1.00  0.00     0.035 C 
HETATM   21  C9  UNL     1      -2.799  49.267 -24.488  1.00  0.00     0.010 C 
HETATM   22  C17 UNL     1      -3.532  48.307 -21.618  1.00  0.00     0.009 C 
HETATM   23  C18 UNL     1      -3.258  47.876 -20.165  1.00  0.00     0.047 C 
BRANCH   3  24
HETATM   24  O3  UNL     1      -0.868  47.727 -19.948  1.00  0.00    -0.381 OA
HETATM   25  H25 UNL     1      -0.053  48.160 -19.633  1.00  0.00     0.211 HD
ENDBRANCH   3  24
ENDBRANCH   1   3
BRANCH   1  26
HETATM   26  C21 UNL     1      -0.714  49.533 -17.569  1.00  0.00     0.260 C 
BRANCH  26  27
HETATM   27  O5  UNL     1      -0.834  50.918 -17.267  1.00  0.00    -0.314 OA
BRANCH  27  28
HETATM   28  C22 UNL     1       0.306  51.650 -17.401  1.00  0.00     0.259 C 
HETATM   29  O6  UNL     1       0.587  52.349 -18.365  1.00  0.00    -0.265 OA
BRANCH  28  30
HETATM   30  C23 UNL     1       1.198  51.419 -16.204  1.00  0.00     0.120 C 
BRANCH  30  31
HETATM   31  C24 UNL     1       0.443  51.664 -14.904  1.00  0.00     0.112 C 
BRANCH  31  32
HETATM   32  C25 UNL     1       1.379  51.665 -13.713  1.00  0.00     0.218 C 
HETATM   33  O7  UNL     1       2.324  50.892 -13.598  1.00  0.00    -0.274 OA
HETATM   34  N1  UNL     1       1.087  52.650 -12.794  1.00  0.00    -0.360 N 
HETATM   35  H32 UNL     1       0.139  53.010 -12.784  1.00  0.00     0.162 HD
BRANCH  34  36
HETATM   36  C26 UNL     1       1.831  52.754 -11.547  1.00  0.00     0.142 C 
BRANCH  36  37
HETATM   37  C27 UNL     1       1.067  53.485 -10.427  1.00  0.00     0.134 C 
BRANCH  37  38
HETATM   38  C28 UNL     1      -0.350  53.840 -10.859  1.00  0.00     0.150 C 
HETATM   39  O8  UNL     1      -1.234  53.084 -11.230  1.00  0.00    -0.649 OA
BRANCH  38  40
HETATM   40  O9  UNL     1      -0.593  55.172 -10.875  1.00  0.00    -0.776 OA
HETATM   41  H36 UNL     1      -1.497  55.224 -11.258  1.00  0.00     0.167 HD
ENDBRANCH  38  40
ENDBRANCH  37  38
BRANCH  37  42
HETATM   42  C29 UNL     1       1.885  54.691  -9.976  1.00  0.00    -0.042 A 
HETATM   43  C30 UNL     1       1.779  55.136  -8.647  1.00  0.00     0.008 A 
HETATM   44  C31 UNL     1       2.549  56.207  -8.192  1.00  0.00     0.001 A 
HETATM   45  C32 UNL     1       3.439  56.844  -9.053  1.00  0.00     0.000 A 
HETATM   46  C33 UNL     1       3.562  56.408 -10.370  1.00  0.00     0.001 A 
HETATM   47  C34 UNL     1       2.796  55.334 -10.828  1.00  0.00     0.008 A 
ENDBRANCH  37  42
ENDBRANCH  36  37
ENDBRANCH  34  36
ENDBRANCH  31  32
ENDBRANCH  30  31
ENDBRANCH  28  30
ENDBRANCH  27  28
ENDBRANCH  26  27
ENDBRANCH   1  26
TORSDOF 13
ENDMDL
MODEL 7
REMARK minimizedAffinity -9.01783848
REMARK CNNscore 0.365005463
REMARK CNNaffinity 6.28206778
REMARK  13 active torsions:
REMARK  status: ('A' for Active; 'I' for Inactive)
REMARK    1  A    between atoms: C19_21  and  O3_22 
REMARK    2  A    between atoms: C19_21  and  C20_23 
REMARK    3  A    between atoms: C20_23  and  C21_25 
REMARK    4  A    between atoms: C21_25  and  O5_26 
REMARK    5  A    between atoms: O5_26  and  C22_27 
REMARK    6  A    between atoms: C22_27  and  C23_29 
REMARK    7  A    between atoms: C23_29  and  C24_30 
REMARK    8  A    between atoms: C24_30  and  C25_31 
REMARK       I    between atoms: C25_31  and  N1_33 
REMARK    9  A    between atoms: N1_33  and  C26_34 
REMARK   10  A    between atoms: C26_34  and  C27_35 
REMARK   11  A    between atoms: C27_35  and  C28_36 
REMARK   12  A    between atoms: C27_35  and  C29_39 
REMARK   13  A    between atoms: C28_36  and  O9_38 
ROOT
HETATM    1  C20 UNL     1      -7.327  48.625 -23.246  1.00  0.00     0.185 C 
HETATM    2  O4  UNL     1      -8.289  47.958 -22.857  1.00  0.00    -0.292 OA
ENDROOT
BRANCH   1   3
HETATM    3  C19 UNL     1      -6.623  49.649 -22.327  1.00  0.00     0.128 C 
HETATM    4  C14 UNL     1      -5.074  49.496 -22.137  1.00  0.00     0.005 C 
HETATM    5  C13 UNL     1      -4.197  50.026 -23.278  1.00  0.00     0.091 C 
HETATM    6  C15 UNL     1      -4.669  48.025 -21.827  1.00  0.00     0.019 C 
HETATM    7  C16 UNL     1      -4.871  50.431 -20.914  1.00  0.00     0.002 C 
HETATM    8  C12 UNL     1      -2.749  50.130 -22.815  1.00  0.00     0.133 C 
HETATM    9  C11 UNL     1      -2.494  50.968 -21.547  1.00  0.00     0.072 C 
HETATM   10  O2  UNL     1      -1.854  49.623 -23.488  1.00  0.00    -0.297 OA
HETATM   11  C2  UNL     1      -0.990  51.114 -21.118  1.00  0.00    -0.009 C 
HETATM   12  C10 UNL     1      -3.423  50.478 -20.398  1.00  0.00     0.003 C 
HETATM   13  C1  UNL     1      -0.315  49.751 -20.840  1.00  0.00     0.021 C 
HETATM   14  C3  UNL     1      -0.220  51.858 -22.252  1.00  0.00     0.022 C 
HETATM   15  C7  UNL     1      -0.929  51.938 -19.818  1.00  0.00    -0.067 C 
HETATM   16  C4  UNL     1       1.113  52.446 -21.814  1.00  0.00     0.084 C 
HETATM   17  C5  UNL     1       0.909  53.366 -20.641  1.00  0.00     0.149 C 
HETATM   18  O1  UNL     1       1.580  54.380 -20.468  1.00  0.00    -0.293 OA
HETATM   19  C6  UNL     1      -0.099  52.979 -19.628  1.00  0.00     0.053 C 
HETATM   20  C8  UNL     1      -1.859  51.517 -18.705  1.00  0.00     0.035 C 
HETATM   21  C9  UNL     1      -3.302  51.408 -19.183  1.00  0.00     0.010 C 
HETATM   22  C17 UNL     1      -5.962  49.984 -19.951  1.00  0.00     0.009 C 
HETATM   23  C18 UNL     1      -7.142  49.603 -20.865  1.00  0.00     0.047 C 
BRANCH   3  24
HETATM   24  O3  UNL     1      -6.924  50.956 -22.842  1.00  0.00    -0.381 OA
HETATM   25  H25 UNL     1      -6.634  50.994 -23.772  1.00  0.00     0.211 HD
ENDBRANCH   3  24
ENDBRANCH   1   3
BRANCH   1  26
HETATM   26  C21 UNL     1      -6.699  48.307 -24.603  1.00  0.00     0.260 C 
BRANCH  26  27
HETATM   27  O5  UNL     1      -7.652  48.109 -25.640  1.00  0.00    -0.314 OA
BRANCH  27  28
HETATM   28  C22 UNL     1      -7.756  46.834 -26.108  1.00  0.00     0.259 C 
HETATM   29  O6  UNL     1      -7.959  45.844 -25.419  1.00  0.00    -0.265 OA
BRANCH  28  30
HETATM   30  C23 UNL     1      -7.521  46.823 -27.600  1.00  0.00     0.120 C 
BRANCH  30  31
HETATM   31  C24 UNL     1      -8.531  47.708 -28.319  1.00  0.00     0.112 C 
BRANCH  31  32
HETATM   32  C25 UNL     1      -8.655  47.330 -29.781  1.00  0.00     0.218 C 
HETATM   33  O7  UNL     1      -8.779  48.153 -30.681  1.00  0.00    -0.274 OA
HETATM   34  N1  UNL     1      -8.570  45.972 -29.999  1.00  0.00    -0.360 N 
HETATM   35  H32 UNL     1      -8.802  45.361 -29.223  1.00  0.00     0.162 HD
BRANCH  34  36
HETATM   36  C26 UNL     1      -8.747  45.416 -31.333  1.00  0.00     0.142 C 
BRANCH  36  37
HETATM   37  C27 UNL     1      -7.516  44.655 -31.858  1.00  0.00     0.134 C 
BRANCH  37  38
HETATM   38  C28 UNL     1      -6.988  43.667 -30.825  1.00  0.00     0.150 C 
HETATM   39  O8  UNL     1      -6.846  43.840 -29.624  1.00  0.00    -0.649 OA
BRANCH  38  40
HETATM   40  O9  UNL     1      -6.584  42.490 -31.358  1.00  0.00    -0.776 OA
HETATM   41  H36 UNL     1      -6.196  42.022 -30.586  1.00  0.00     0.167 HD
ENDBRANCH  38  40
ENDBRANCH  37  38
BRANCH  37  42
HETATM   42  C29 UNL     1      -6.470  45.666 -32.321  1.00  0.00    -0.042 A 
HETATM   43  C30 UNL     1      -5.137  45.519 -31.900  1.00  0.00     0.008 A 
HETATM   44  C31 UNL     1      -4.150  46.399 -32.343  1.00  0.00     0.001 A 
HETATM   45  C32 UNL     1      -4.477  47.434 -33.216  1.00  0.00     0.000 A 
HETATM   46  C33 UNL     1      -5.791  47.586 -33.650  1.00  0.00     0.001 A 
HETATM   47  C34 UNL     1      -6.782  46.705 -33.211  1.00  0.00     0.008 A 
ENDBRANCH  37  42
ENDBRANCH  36  37
ENDBRANCH  34  36
ENDBRANCH  31  32
ENDBRANCH  30  31
ENDBRANCH  28  30
ENDBRANCH  27  28
ENDBRANCH  26  27
ENDBRANCH   1  26
TORSDOF 13
ENDMDL
MODEL 8
REMARK minimizedAffinity -8.63794041
REMARK CNNscore 0.340316713
REMARK CNNaffinity 6.10860443
REMARK  13 active torsions:
REMARK  status: ('A' for Active; 'I' for Inactive)
REMARK    1  A    between atoms: C19_21  and  O3_22 
REMARK    2  A    between atoms: C19_21  and  C20_23 
REMARK    3  A    between atoms: C20_23  and  C21_25 
REMARK    4  A    between atoms: C21_25  and  O5_26 
REMARK    5  A    between atoms: O5_26  and  C22_27 
REMARK    6  A    between atoms: C22_27  and  C23_29 
REMARK    7  A    between atoms: C23_29  and  C24_30 
REMARK    8  A    between atoms: C24_30  and  C25_31 
REMARK       I    between atoms: C25_31  and  N1_33 
REMARK    9  A    between atoms: N1_33  and  C26_34 
REMARK   10  A    between atoms: C26_34  and  C27_35 
REMARK   11  A    between atoms: C27_35  and  C28_36 
REMARK   12  A    between atoms: C27_35  and  C29_39 
REMARK   13  A    between atoms: C28_36  and  O9_38 
ROOT
HETATM    1  C20 UNL     1      -6.939  48.395 -24.267  1.00  0.00     0.185 C 
HETATM    2  O4  UNL     1      -6.259  48.024 -25.227  1.00  0.00    -0.292 OA
ENDROOT
BRANCH   1   3
HETATM    3  C19 UNL     1      -6.409  49.425 -23.244  1.00  0.00     0.128 C 
HETATM    4  C14 UNL     1      -4.904  49.307 -22.820  1.00  0.00     0.005 C 
HETATM    5  C13 UNL     1      -3.876  49.869 -23.810  1.00  0.00     0.091 C 
HETATM    6  C15 UNL     1      -4.515  47.843 -22.462  1.00  0.00     0.019 C 
HETATM    7  C16 UNL     1      -4.914  50.234 -21.574  1.00  0.00     0.002 C 
HETATM    8  C12 UNL     1      -2.520  50.002 -23.130  1.00  0.00     0.133 C 
HETATM    9  C11 UNL     1      -2.482  50.833 -21.832  1.00  0.00     0.072 C 
HETATM   10  O2  UNL     1      -1.519  49.524 -23.661  1.00  0.00    -0.297 OA
HETATM   11  C2  UNL     1      -1.065  51.009 -21.177  1.00  0.00    -0.009 C 
HETATM   12  C10 UNL     1      -3.563  50.310 -20.842  1.00  0.00     0.003 C 
HETATM   13  C1  UNL     1      -0.408  49.660 -20.808  1.00  0.00     0.021 C 
HETATM   14  C3  UNL     1      -0.150  51.783 -22.174  1.00  0.00     0.022 C 
HETATM   15  C7  UNL     1      -1.225  51.821 -19.877  1.00  0.00    -0.067 C 
HETATM   16  C4  UNL     1       1.085  52.398 -21.533  1.00  0.00     0.084 C 
HETATM   17  C5  UNL     1       0.682  53.301 -20.399  1.00  0.00     0.149 C 
HETATM   18  O1  UNL     1       1.293  54.328 -20.119  1.00  0.00    -0.293 OA
HETATM   19  C6  UNL     1      -0.459  52.879 -19.555  1.00  0.00     0.053 C 
HETATM   20  C8  UNL     1      -2.303  51.367 -18.922  1.00  0.00     0.035 C 
HETATM   21  C9  UNL     1      -3.653  51.229 -19.616  1.00  0.00     0.010 C 
HETATM   22  C17 UNL     1      -6.128  49.751 -20.793  1.00  0.00     0.009 C 
HETATM   23  C18 UNL     1      -7.145  49.352 -21.880  1.00  0.00     0.047 C 
BRANCH   3  24
HETATM   24  O3  UNL     1      -6.660  50.730 -23.790  1.00  0.00    -0.381 OA
HETATM   25  H25 UNL     1      -6.232  50.784 -24.665  1.00  0.00     0.211 HD
ENDBRANCH   3  24
ENDBRANCH   1   3
BRANCH   1  26
HETATM   26  C21 UNL     1      -8.405  47.967 -24.181  1.00  0.00     0.260 C 
BRANCH  26  27
HETATM   27  O5  UNL     1      -9.270  48.729 -25.013  1.00  0.00    -0.314 OA
BRANCH  27  28
HETATM   28  C22 UNL     1     -10.339  48.058 -25.523  1.00  0.00     0.259 C 
HETATM   29  O6  UNL     1     -11.178  48.533 -26.275  1.00  0.00    -0.265 OA
BRANCH  28  30
HETATM   30  C23 UNL     1     -10.364  46.653 -24.968  1.00  0.00     0.120 C 
BRANCH  30  31
HETATM   31  C24 UNL     1     -10.847  45.659 -26.018  1.00  0.00     0.112 C 
BRANCH  31  32
HETATM   32  C25 UNL     1     -12.359  45.642 -26.110  1.00  0.00     0.218 C 
HETATM   33  O7  UNL     1     -12.967  45.353 -27.134  1.00  0.00    -0.274 OA
HETATM   34  N1  UNL     1     -12.978  45.941 -24.915  1.00  0.00    -0.360 N 
HETATM   35  H32 UNL     1     -12.446  46.478 -24.238  1.00  0.00     0.162 HD
BRANCH  34  36
HETATM   36  C26 UNL     1     -14.427  46.050 -24.831  1.00  0.00     0.142 C 
BRANCH  36  37
HETATM   37  C27 UNL     1     -14.915  47.019 -23.738  1.00  0.00     0.134 C 
BRANCH  37  38
HETATM   38  C28 UNL     1     -14.019  46.966 -22.506  1.00  0.00     0.150 C 
HETATM   39  O8  UNL     1     -13.266  46.068 -22.163  1.00  0.00    -0.649 OA
BRANCH  38  40
HETATM   40  O9  UNL     1     -14.154  48.041 -21.693  1.00  0.00    -0.776 OA
HETATM   41  H36 UNL     1     -13.591  47.804 -20.924  1.00  0.00     0.167 HD
ENDBRANCH  38  40
ENDBRANCH  37  38
BRANCH  37  42
HETATM   42  C29 UNL     1     -16.382  46.724 -23.435  1.00  0.00    -0.042 A 
HETATM   43  C30 UNL     1     -17.349  46.953 -24.429  1.00  0.00     0.008 A 
HETATM   44  C31 UNL     1     -18.691  46.650 -24.199  1.00  0.00     0.001 A 
HETATM   45  C32 UNL     1     -19.086  46.108 -22.978  1.00  0.00     0.000 A 
HETATM   46  C33 UNL     1     -18.138  45.866 -21.988  1.00  0.00     0.001 A 
HETATM   47  C34 UNL     1     -16.793  46.165 -22.215  1.00  0.00     0.008 A 
ENDBRANCH  37  42
ENDBRANCH  36  37
ENDBRANCH  34  36
ENDBRANCH  31  32
ENDBRANCH  30  31
ENDBRANCH  28  30
ENDBRANCH  27  28
ENDBRANCH  26  27
ENDBRANCH   1  26
TORSDOF 13
ENDMDL
MODEL 9
REMARK minimizedAffinity -8.65078831
REMARK CNNscore 0.323351383
REMARK CNNaffinity 6.84192514
REMARK  13 active torsions:
REMARK  status: ('A' for Active; 'I' for Inactive)
REMARK    1  A    between atoms: C19_21  and  O3_22 
REMARK    2  A    between atoms: C19_21  and  C20_23 
REMARK    3  A    between atoms: C20_23  and  C21_25 
REMARK    4  A    between atoms: C21_25  and  O5_26 
REMARK    5  A    between atoms: O5_26  and  C22_27 
REMARK    6  A    between atoms: C22_27  and  C23_29 
REMARK    7  A    between atoms: C23_29  and  C24_30 
REMARK    8  A    between atoms: C24_30  and  C25_31 
REMARK       I    between atoms: C25_31  and  N1_33 
REMARK    9  A    between atoms: N1_33  and  C26_34 
REMARK   10  A    between atoms: C26_34  and  C27_35 
REMARK   11  A    between atoms: C27_35  and  C28_36 
REMARK   12  A    between atoms: C27_35  and  C29_39 
REMARK   13  A    between atoms: C28_36  and  O9_38 
ROOT
HETATM    1  C20 UNL     1      -3.816  48.022 -19.736  1.00  0.00     0.185 C 
HETATM    2  O4  UNL     1      -4.989  47.987 -19.357  1.00  0.00    -0.292 OA
ENDROOT
BRANCH   1   3
HETATM    3  C19 UNL     1      -3.444  47.968 -21.236  1.00  0.00     0.128 C 
HETATM    4  C14 UNL     1      -2.974  49.304 -21.906  1.00  0.00     0.005 C 
HETATM    5  C13 UNL     1      -1.523  49.723 -21.636  1.00  0.00     0.091 C 
HETATM    6  C15 UNL     1      -3.917  50.492 -21.560  1.00  0.00     0.019 C 
HETATM    7  C16 UNL     1      -3.073  48.891 -23.400  1.00  0.00     0.002 C 
HETATM    8  C12 UNL     1      -1.110  50.821 -22.608  1.00  0.00     0.133 C 
HETATM    9  C11 UNL     1      -1.277  50.506 -24.108  1.00  0.00     0.072 C 
HETATM   10  O2  UNL     1      -0.602  51.856 -22.182  1.00  0.00    -0.297 OA
HETATM   11  C2  UNL     1      -0.790  51.626 -25.097  1.00  0.00    -0.009 C 
HETATM   12  C10 UNL     1      -2.729  50.022 -24.385  1.00  0.00     0.003 C 
HETATM   13  C1  UNL     1      -1.525  52.968 -24.885  1.00  0.00     0.021 C 
HETATM   14  C3  UNL     1       0.744  51.832 -24.899  1.00  0.00     0.022 C 
HETATM   15  C7  UNL     1      -1.072  51.162 -26.539  1.00  0.00    -0.067 C 
HETATM   16  C4  UNL     1       1.427  52.551 -26.052  1.00  0.00     0.084 C 
HETATM   17  C5  UNL     1       1.168  51.820 -27.341  1.00  0.00     0.149 C 
HETATM   18  O1  UNL     1       1.995  51.760 -28.247  1.00  0.00    -0.293 OA
HETATM   19  C6  UNL     1      -0.169  51.214 -27.534  1.00  0.00     0.053 C 
HETATM   20  C8  UNL     1      -2.459  50.636 -26.822  1.00  0.00     0.035 C 
HETATM   21  C9  UNL     1      -2.864  49.546 -25.838  1.00  0.00     0.010 C 
HETATM   22  C17 UNL     1      -4.453  48.254 -23.492  1.00  0.00     0.009 C 
HETATM   23  C18 UNL     1      -4.634  47.545 -22.136  1.00  0.00     0.047 C 
BRANCH   3  24
HETATM   24  O3  UNL     1      -2.426  46.964 -21.382  1.00  0.00    -0.381 OA
HETATM   25  H25 UNL     1      -1.681  47.195 -20.797  1.00  0.00     0.211 HD
ENDBRANCH   3  24
ENDBRANCH   1   3
BRANCH   1  26
HETATM   26  C21 UNL     1      -2.711  48.309 -18.719  1.00  0.00     0.260 C 
BRANCH  26  27
HETATM   27  O5  UNL     1      -2.992  49.415 -17.869  1.00  0.00    -0.314 OA
BRANCH  27  28
HETATM   28  C22 UNL     1      -2.271  50.543 -18.114  1.00  0.00     0.259 C 
HETATM   29  O6  UNL     1      -2.742  51.660 -18.279  1.00  0.00    -0.265 OA
BRANCH  28  30
HETATM   30  C23 UNL     1      -0.804  50.195 -18.211  1.00  0.00     0.120 C 
BRANCH  30  31
HETATM   31  C24 UNL     1      -0.203  49.971 -16.829  1.00  0.00     0.112 C 
BRANCH  31  32
HETATM   32  C25 UNL     1       0.768  51.075 -16.463  1.00  0.00     0.218 C 
HETATM   33  O7  UNL     1       0.921  52.087 -17.137  1.00  0.00    -0.274 OA
HETATM   34  N1  UNL     1       1.425  50.846 -15.274  1.00  0.00    -0.360 N 
HETATM   35  H32 UNL     1       1.501  49.883 -14.962  1.00  0.00     0.162 HD
BRANCH  34  36
HETATM   36  C26 UNL     1       2.454  51.760 -14.800  1.00  0.00     0.142 C 
BRANCH  36  37
HETATM   37  C27 UNL     1       3.221  51.248 -13.566  1.00  0.00     0.134 C 
BRANCH  37  38
HETATM   38  C28 UNL     1       3.638  49.793 -13.734  1.00  0.00     0.150 C 
HETATM   39  O8  UNL     1       2.922  48.825 -13.940  1.00  0.00    -0.649 OA
BRANCH  38  40
HETATM   40  O9  UNL     1       4.966  49.587 -13.566  1.00  0.00    -0.776 OA
HETATM   41  H36 UNL     1       5.043  48.609 -13.613  1.00  0.00     0.167 HD
ENDBRANCH  38  40
ENDBRANCH  37  38
BRANCH  37  42
HETATM   42  C29 UNL     1       2.376  51.498 -12.320  1.00  0.00    -0.042 A 
HETATM   43  C30 UNL     1       1.249  52.332 -12.409  1.00  0.00     0.008 A 
HETATM   44  C31 UNL     1       0.430  52.543 -11.299  1.00  0.00     0.001 A 
HETATM   45  C32 UNL     1       0.721  51.921 -10.088  1.00  0.00     0.000 A 
HETATM   46  C33 UNL     1       1.829  51.083  -9.987  1.00  0.00     0.001 A 
HETATM   47  C34 UNL     1       2.648  50.867 -11.097  1.00  0.00     0.008 A 
ENDBRANCH  37  42
ENDBRANCH  36  37
ENDBRANCH  34  36
ENDBRANCH  31  32
ENDBRANCH  30  31
ENDBRANCH  28  30
ENDBRANCH  27  28
ENDBRANCH  26  27
ENDBRANCH   1  26
TORSDOF 13
ENDMDL
