MODEL 1
REMARK minimizedAffinity -6.35775948
REMARK  8 active torsions:
REMARK  status: ('A' for Active; 'I' for Inactive)
REMARK    1  A    between atoms: P1_2  and  O2_3 
REMARK    2  A    between atoms: P1_2  and  O3_4 
REMARK    3  A    between atoms: P1_2  and  C1_5 
REMARK    4  A    between atoms: C1_5  and  C2_6 
REMARK    5  A    between atoms: C1_5  and  P2_14 
REMARK    6  A    between atoms: C2_6  and  C3_7 
REMARK    7  A    between atoms: P2_14  and  O5_16 
REMARK    8  A    between atoms: P2_14  and  O6_17 
ROOT
HETATM    1  C1  UNL     1      -5.923   3.653  12.173  1.00  0.00     0.214 C 
ENDROOT
BRANCH   1   2
HETATM    2  P1  UNL     1      -7.456   3.493  13.089  1.00  0.00     0.252 P 
HETATM    3  O1  UNL     1      -7.450   3.495  14.577  1.00  0.00    -0.653 OA
BRANCH   2   4
HETATM    4  O2  UNL     1      -8.125   2.130  12.554  1.00  0.00    -0.328 OA
HETATM    5  H1  UNL     1      -8.853   1.831  13.131  1.00  0.00     0.220 HD
ENDBRANCH   2   4
BRANCH   2   6
HETATM    6  O3  UNL     1      -8.491   4.557  12.489  1.00  0.00    -0.328 OA
HETATM    7  H2  UNL     1      -9.275   4.685  13.056  1.00  0.00     0.220 HD
ENDBRANCH   2   6
ENDBRANCH   1   2
BRANCH   1   8
HETATM    8  C2  UNL     1      -4.793   4.124  13.100  1.00  0.00     0.085 C 
BRANCH   8   9
HETATM    9  C3  UNL     1      -4.755   5.627  13.217  1.00  0.00     0.010 A 
HETATM   10  C4  UNL     1      -3.585   6.331  12.951  1.00  0.00     0.025 A 
HETATM   11  C5  UNL     1      -3.593   7.718  13.070  1.00  0.00     0.003 A 
HETATM   12  C6  UNL     1      -4.763   8.363  13.446  1.00  0.00     0.017 A 
HETATM   13  C7  UNL     1      -5.884   7.591  13.690  1.00  0.00     0.088 A 
HETATM   14  N1  UNL     1      -5.909   6.238  13.587  1.00  0.00    -0.369 N 
ATOM     15  H1  UNL     1      -6.757   5.705  13.779  1.00  0.00     0.165 HD
ENDBRANCH   8   9
ENDBRANCH   1   8
BRANCH   1  16
HETATM   16  P2  UNL     1      -5.457   2.234  11.176  1.00  0.00     0.252 P 
HETATM   17  O4  UNL     1      -6.150   0.949  11.475  1.00  0.00    -0.653 OA
BRANCH  16  18
HETATM   18  O5  UNL     1      -3.863   2.112  11.290  1.00  0.00    -0.328 OA
HETATM   19  H10 UNL     1      -3.556   1.296  10.846  1.00  0.00     0.220 HD
ENDBRANCH  16  18
BRANCH  16  20
HETATM   20  O6  UNL     1      -5.586   2.653   9.633  1.00  0.00    -0.328 OA
HETATM   21  H11 UNL     1      -5.694   3.622   9.468  1.00  0.00     0.220 HD
ENDBRANCH  16  20
ENDBRANCH   1  16
TORSDOF 8
ENDMDL
MODEL 2
REMARK minimizedAffinity -6.26635885
REMARK  8 active torsions:
REMARK  status: ('A' for Active; 'I' for Inactive)
REMARK    1  A    between atoms: P1_2  and  O2_3 
REMARK    2  A    between atoms: P1_2  and  O3_4 
REMARK    3  A    between atoms: P1_2  and  C1_5 
REMARK    4  A    between atoms: C1_5  and  C2_6 
REMARK    5  A    between atoms: C1_5  and  P2_14 
REMARK    6  A    between atoms: C2_6  and  C3_7 
REMARK    7  A    between atoms: P2_14  and  O5_16 
REMARK    8  A    between atoms: P2_14  and  O6_17 
ROOT
HETATM    1  C1  UNL     1      -5.904   5.710  14.765  1.00  0.00     0.214 C 
ENDROOT
BRANCH   1   2
HETATM    2  P1  UNL     1      -7.400   6.013  15.705  1.00  0.00     0.252 P 
HETATM    3  O1  UNL     1      -7.353   6.803  16.965  1.00  0.00    -0.653 OA
BRANCH   2   4
HETATM    4  O2  UNL     1      -8.010   4.554  16.005  1.00  0.00    -0.328 OA
HETATM    5  H1  UNL     1      -8.706   4.584  16.689  1.00  0.00     0.220 HD
ENDBRANCH   2   4
BRANCH   2   6
HETATM    6  O3  UNL     1      -8.506   6.566  14.688  1.00  0.00    -0.328 OA
HETATM    7  H2  UNL     1      -9.279   6.951  15.141  1.00  0.00     0.220 HD
ENDBRANCH   2   6
ENDBRANCH   1   2
BRANCH   1   8
HETATM    8  C2  UNL     1      -6.217   5.662  13.262  1.00  0.00     0.085 C 
BRANCH   8   9
HETATM    9  C3  UNL     1      -6.282   4.246  12.749  1.00  0.00     0.010 A 
HETATM   10  C4  UNL     1      -5.250   3.722  11.977  1.00  0.00     0.025 A 
HETATM   11  C5  UNL     1      -5.348   2.409  11.524  1.00  0.00     0.003 A 
HETATM   12  C6  UNL     1      -6.468   1.656  11.854  1.00  0.00     0.017 A 
HETATM   13  C7  UNL     1      -7.448   2.250  12.628  1.00  0.00     0.088 A 
HETATM   14  N1  UNL     1      -7.384   3.527  13.082  1.00  0.00    -0.369 N 
ATOM     15  H1  UNL     1      -8.131   3.929  13.648  1.00  0.00     0.165 HD
ENDBRANCH   8   9
ENDBRANCH   1   8
BRANCH   1  16
HETATM   16  P2  UNL     1      -4.510   6.775  15.150  1.00  0.00     0.252 P 
HETATM   17  O4  UNL     1      -3.593   7.111  14.023  1.00  0.00    -0.653 OA
BRANCH  16  18
HETATM   18  O5  UNL     1      -3.744   6.083  16.376  1.00  0.00    -0.328 OA
HETATM   19  H10 UNL     1      -2.916   6.564  16.571  1.00  0.00     0.220 HD
ENDBRANCH  16  18
BRANCH  16  20
HETATM   20  O6  UNL     1      -5.076   8.080  15.888  1.00  0.00    -0.328 OA
HETATM   21  H11 UNL     1      -6.017   8.020  16.188  1.00  0.00     0.220 HD
ENDBRANCH  16  20
ENDBRANCH   1  16
TORSDOF 8
ENDMDL
MODEL 3
REMARK minimizedAffinity -6.22693777
REMARK  8 active torsions:
REMARK  status: ('A' for Active; 'I' for Inactive)
REMARK    1  A    between atoms: P1_2  and  O2_3 
REMARK    2  A    between atoms: P1_2  and  O3_4 
REMARK    3  A    between atoms: P1_2  and  C1_5 
REMARK    4  A    between atoms: C1_5  and  C2_6 
REMARK    5  A    between atoms: C1_5  and  P2_14 
REMARK    6  A    between atoms: C2_6  and  C3_7 
REMARK    7  A    between atoms: P2_14  and  O5_16 
REMARK    8  A    between atoms: P2_14  and  O6_17 
ROOT
HETATM    1  C1  UNL     1      -4.829  -9.441   9.206  1.00  0.00     0.214 C 
ENDROOT
BRANCH   1   2
HETATM    2  P1  UNL     1      -4.839  -9.647  10.986  1.00  0.00     0.252 P 
HETATM    3  O1  UNL     1      -5.446 -10.857  11.603  1.00  0.00    -0.653 OA
BRANCH   2   4
HETATM    4  O2  UNL     1      -5.564  -8.328  11.558  1.00  0.00    -0.328 OA
HETATM    5  H1  UNL     1      -5.816  -8.430  12.496  1.00  0.00     0.220 HD
ENDBRANCH   2   4
BRANCH   2   6
HETATM    6  O3  UNL     1      -3.349  -9.387  11.511  1.00  0.00    -0.328 OA
HETATM    7  H2  UNL     1      -3.215  -9.678  12.433  1.00  0.00     0.220 HD
ENDBRANCH   2   6
ENDBRANCH   1   2
BRANCH   1   8
HETATM    8  C2  UNL     1      -4.127 -10.630   8.534  1.00  0.00     0.085 C 
BRANCH   8   9
HETATM    9  C3  UNL     1      -3.683 -10.297   7.131  1.00  0.00     0.010 A 
HETATM   10  C4  UNL     1      -3.961 -11.159   6.075  1.00  0.00     0.025 A 
HETATM   11  C5  UNL     1      -3.535 -10.814   4.795  1.00  0.00     0.003 A 
HETATM   12  C6  UNL     1      -2.848  -9.623   4.604  1.00  0.00     0.017 A 
HETATM   13  C7  UNL     1      -2.614  -8.821   5.705  1.00  0.00     0.088 A 
HETATM   14  N1  UNL     1      -3.012  -9.129   6.965  1.00  0.00    -0.369 N 
ATOM     15  H1  UNL     1      -2.817  -8.511   7.752  1.00  0.00     0.165 HD
ENDBRANCH   8   9
ENDBRANCH   1   8
BRANCH   1  16
HETATM   16  P2  UNL     1      -6.415  -9.057   8.455  1.00  0.00     0.252 P 
HETATM   17  O4  UNL     1      -7.273 -10.215   8.073  1.00  0.00    -0.653 OA
BRANCH  16  18
HETATM   18  O5  UNL     1      -6.100  -8.092   7.214  1.00  0.00    -0.328 OA
HETATM   19  H10 UNL     1      -6.916  -7.926   6.702  1.00  0.00     0.220 HD
ENDBRANCH  16  18
BRANCH  16  20
HETATM   20  O6  UNL     1      -7.176  -8.023   9.414  1.00  0.00    -0.328 OA
HETATM   21  H11 UNL     1      -6.618  -7.615  10.122  1.00  0.00     0.220 HD
ENDBRANCH  16  20
ENDBRANCH   1  16
TORSDOF 8
ENDMDL
MODEL 4
REMARK minimizedAffinity -6.20784521
REMARK  8 active torsions:
REMARK  status: ('A' for Active; 'I' for Inactive)
REMARK    1  A    between atoms: P1_2  and  O2_3 
REMARK    2  A    between atoms: P1_2  and  O3_4 
REMARK    3  A    between atoms: P1_2  and  C1_5 
REMARK    4  A    between atoms: C1_5  and  C2_6 
REMARK    5  A    between atoms: C1_5  and  P2_14 
REMARK    6  A    between atoms: C2_6  and  C3_7 
REMARK    7  A    between atoms: P2_14  and  O5_16 
REMARK    8  A    between atoms: P2_14  and  O6_17 
ROOT
HETATM    1  C1  UNL     1      -6.879   5.645  14.014  1.00  0.00     0.214 C 
ENDROOT
BRANCH   1   2
HETATM    2  P1  UNL     1      -7.764   4.789  12.711  1.00  0.00     0.252 P 
HETATM    3  O1  UNL     1      -8.662   5.537  11.791  1.00  0.00    -0.653 OA
BRANCH   2   4
HETATM    4  O2  UNL     1      -8.598   3.633  13.459  1.00  0.00    -0.328 OA
HETATM    5  H1  UNL     1      -9.279   3.242  12.879  1.00  0.00     0.220 HD
ENDBRANCH   2   4
BRANCH   2   6
HETATM    6  O3  UNL     1      -6.704   3.888  11.917  1.00  0.00    -0.328 OA
HETATM    7  H2  UNL     1      -7.051   3.551  11.070  1.00  0.00     0.220 HD
ENDBRANCH   2   6
ENDBRANCH   1   2
BRANCH   1   8
HETATM    8  C2  UNL     1      -6.470   7.050  13.549  1.00  0.00     0.085 C 
BRANCH   8   9
HETATM    9  C3  UNL     1      -4.983   7.156  13.328  1.00  0.00     0.010 A 
HETATM   10  C4  UNL     1      -4.172   6.028  13.400  1.00  0.00     0.025 A 
HETATM   11  C5  UNL     1      -2.803   6.168  13.187  1.00  0.00     0.003 A 
HETATM   12  C6  UNL     1      -2.282   7.425  12.908  1.00  0.00     0.017 A 
HETATM   13  C7  UNL     1      -3.156   8.496  12.852  1.00  0.00     0.088 A 
HETATM   14  N1  UNL     1      -4.493   8.393  13.057  1.00  0.00    -0.369 N 
ATOM     15  H1  UNL     1      -5.104   9.208  13.010  1.00  0.00     0.165 HD
ENDBRANCH   8   9
ENDBRANCH   1   8
BRANCH   1  16
HETATM   16  P2  UNL     1      -7.672   5.649  15.625  1.00  0.00     0.252 P 
HETATM   17  O4  UNL     1      -8.908   6.472  15.760  1.00  0.00    -0.653 OA
BRANCH  16  18
HETATM   18  O5  UNL     1      -6.539   6.067  16.680  1.00  0.00    -0.328 OA
HETATM   19  H10 UNL     1      -6.933   6.184  17.567  1.00  0.00     0.220 HD
ENDBRANCH  16  18
BRANCH  16  20
HETATM   20  O6  UNL     1      -7.901   4.125  16.066  1.00  0.00    -0.328 OA
HETATM   21  H11 UNL     1      -7.421   3.453  15.522  1.00  0.00     0.220 HD
ENDBRANCH  16  20
ENDBRANCH   1  16
TORSDOF 8
ENDMDL
MODEL 5
REMARK minimizedAffinity -6.19247293
REMARK  8 active torsions:
REMARK  status: ('A' for Active; 'I' for Inactive)
REMARK    1  A    between atoms: P1_2  and  O2_3 
REMARK    2  A    between atoms: P1_2  and  O3_4 
REMARK    3  A    between atoms: P1_2  and  C1_5 
REMARK    4  A    between atoms: C1_5  and  C2_6 
REMARK    5  A    between atoms: C1_5  and  P2_14 
REMARK    6  A    between atoms: C2_6  and  C3_7 
REMARK    7  A    between atoms: P2_14  and  O5_16 
REMARK    8  A    between atoms: P2_14  and  O6_17 
ROOT
HETATM    1  C1  UNL     1      -6.625  -9.067  10.749  1.00  0.00     0.214 C 
ENDROOT
BRANCH   1   2
HETATM    2  P1  UNL     1      -7.011  -8.027  12.157  1.00  0.00     0.252 P 
HETATM    3  O1  UNL     1      -6.590  -6.600  12.179  1.00  0.00    -0.653 OA
BRANCH   2   4
HETATM    4  O2  UNL     1      -6.389  -8.794  13.429  1.00  0.00    -0.328 OA
HETATM    5  H1  UNL     1      -6.351  -8.219  14.217  1.00  0.00     0.220 HD
ENDBRANCH   2   4
BRANCH   2   6
HETATM    6  O3  UNL     1      -8.571  -8.199  12.473  1.00  0.00    -0.328 OA
HETATM    7  H2  UNL     1      -8.912  -7.520  13.084  1.00  0.00     0.220 HD
ENDBRANCH   2   6
ENDBRANCH   1   2
BRANCH   1   8
HETATM    8  C2  UNL     1      -6.758  -8.271   9.443  1.00  0.00     0.085 C 
BRANCH   8   9
HETATM    9  C3  UNL     1      -8.046  -8.585   8.724  1.00  0.00     0.010 A 
HETATM   10  C4  UNL     1      -8.074  -9.515   7.691  1.00  0.00     0.025 A 
HETATM   11  C5  UNL     1      -9.284  -9.778   7.054  1.00  0.00     0.003 A 
HETATM   12  C6  UNL     1     -10.430  -9.109   7.466  1.00  0.00     0.017 A 
HETATM   13  C7  UNL     1     -10.318  -8.201   8.502  1.00  0.00     0.088 A 
HETATM   14  N1  UNL     1      -9.154  -7.920   9.141  1.00  0.00    -0.369 N 
ATOM     15  H1  UNL     1      -9.113  -7.240   9.900  1.00  0.00     0.165 HD
ENDBRANCH   8   9
ENDBRANCH   1   8
BRANCH   1  16
HETATM   16  P2  UNL     1      -5.083  -9.980  10.851  1.00  0.00     0.252 P 
HETATM   17  O4  UNL     1      -4.487 -10.436   9.563  1.00  0.00    -0.653 OA
BRANCH  16  18
HETATM   18  O5  UNL     1      -5.347 -11.193  11.867  1.00  0.00    -0.328 OA
HETATM   19  H10 UNL     1      -4.571 -11.787  11.890  1.00  0.00     0.220 HD
ENDBRANCH  16  18
BRANCH  16  20
HETATM   20  O6  UNL     1      -4.055  -9.116  11.726  1.00  0.00    -0.328 OA
HETATM   21  H11 UNL     1      -4.456  -8.358  12.221  1.00  0.00     0.220 HD
ENDBRANCH  16  20
ENDBRANCH   1  16
TORSDOF 8
ENDMDL
MODEL 6
REMARK minimizedAffinity -6.18915749
REMARK  8 active torsions:
REMARK  status: ('A' for Active; 'I' for Inactive)
REMARK    1  A    between atoms: P1_2  and  O2_3 
REMARK    2  A    between atoms: P1_2  and  O3_4 
REMARK    3  A    between atoms: P1_2  and  C1_5 
REMARK    4  A    between atoms: C1_5  and  C2_6 
REMARK    5  A    between atoms: C1_5  and  P2_14 
REMARK    6  A    between atoms: C2_6  and  C3_7 
REMARK    7  A    between atoms: P2_14  and  O5_16 
REMARK    8  A    between atoms: P2_14  and  O6_17 
ROOT
HETATM    1  C1  UNL     1      -7.311   5.967  13.942  1.00  0.00     0.214 C 
ENDROOT
BRANCH   1   2
HETATM    2  P1  UNL     1      -7.600   5.897  15.710  1.00  0.00     0.252 P 
HETATM    3  O1  UNL     1      -8.584   6.810  16.351  1.00  0.00    -0.653 OA
BRANCH   2   4
HETATM    4  O2  UNL     1      -6.151   6.108  16.381  1.00  0.00    -0.328 OA
HETATM    5  H1  UNL     1      -6.218   6.302  17.336  1.00  0.00     0.220 HD
ENDBRANCH   2   4
BRANCH   2   6
HETATM    6  O3  UNL     1      -7.858   4.365  16.097  1.00  0.00    -0.328 OA
HETATM    7  H2  UNL     1      -8.227   4.258  16.994  1.00  0.00     0.220 HD
ENDBRANCH   2   6
ENDBRANCH   1   2
BRANCH   1   8
HETATM    8  C2  UNL     1      -5.978   5.289  13.591  1.00  0.00     0.085 C 
BRANCH   8   9
HETATM    9  C3  UNL     1      -4.880   6.296  13.365  1.00  0.00     0.010 A 
HETATM   10  C4  UNL     1      -3.575   5.881  13.119  1.00  0.00     0.025 A 
HETATM   11  C5  UNL     1      -2.590   6.844  12.914  1.00  0.00     0.003 A 
HETATM   12  C6  UNL     1      -2.932   8.189  12.957  1.00  0.00     0.017 A 
HETATM   13  C7  UNL     1      -4.253   8.518  13.204  1.00  0.00     0.088 A 
HETATM   14  N1  UNL     1      -5.235   7.606  13.411  1.00  0.00    -0.369 N 
ATOM     15  H1  UNL     1      -6.197   7.890  13.594  1.00  0.00     0.165 HD
ENDBRANCH   8   9
ENDBRANCH   1   8
BRANCH   1  16
HETATM   16  P2  UNL     1      -8.667   5.410  12.906  1.00  0.00     0.252 P 
HETATM   17  O4  UNL     1      -8.602   5.776  11.462  1.00  0.00    -0.653 OA
BRANCH  16  18
HETATM   18  O5  UNL     1     -10.010   5.932  13.609  1.00  0.00    -0.328 OA
HETATM   19  H10 UNL     1     -10.783   5.745  13.039  1.00  0.00     0.220 HD
ENDBRANCH  16  18
BRANCH  16  20
HETATM   20  O6  UNL     1      -8.842   3.832  13.128  1.00  0.00    -0.328 OA
HETATM   21  H11 UNL     1      -8.351   3.459  13.902  1.00  0.00     0.220 HD
ENDBRANCH  16  20
ENDBRANCH   1  16
TORSDOF 8
ENDMDL
MODEL 7
REMARK minimizedAffinity -6.16024733
REMARK  8 active torsions:
REMARK  status: ('A' for Active; 'I' for Inactive)
REMARK    1  A    between atoms: P1_2  and  O2_3 
REMARK    2  A    between atoms: P1_2  and  O3_4 
REMARK    3  A    between atoms: P1_2  and  C1_5 
REMARK    4  A    between atoms: C1_5  and  C2_6 
REMARK    5  A    between atoms: C1_5  and  P2_14 
REMARK    6  A    between atoms: C2_6  and  C3_7 
REMARK    7  A    between atoms: P2_14  and  O5_16 
REMARK    8  A    between atoms: P2_14  and  O6_17 
ROOT
HETATM    1  C1  UNL     1      -6.419   5.244  14.164  1.00  0.00     0.214 C 
ENDROOT
BRANCH   1   2
HETATM    2  P1  UNL     1      -8.047   5.182  13.417  1.00  0.00     0.252 P 
HETATM    3  O1  UNL     1      -8.274   5.735  12.055  1.00  0.00    -0.653 OA
BRANCH   2   4
HETATM    4  O2  UNL     1      -9.019   5.920  14.467  1.00  0.00    -0.328 OA
HETATM    5  H1  UNL     1      -9.886   6.134  14.072  1.00  0.00     0.220 HD
ENDBRANCH   2   4
BRANCH   2   6
HETATM    6  O3  UNL     1      -8.585   3.681  13.556  1.00  0.00    -0.328 OA
HETATM    7  H2  UNL     1      -9.367   3.506  12.999  1.00  0.00     0.220 HD
ENDBRANCH   2   6
ENDBRANCH   1   2
BRANCH   1   8
HETATM    8  C2  UNL     1      -5.336   5.348  13.080  1.00  0.00     0.085 C 
BRANCH   8   9
HETATM    9  C3  UNL     1      -5.000   4.000  12.494  1.00  0.00     0.010 A 
HETATM   10  C4  UNL     1      -3.706   3.496  12.567  1.00  0.00     0.025 A 
HETATM   11  C5  UNL     1      -3.438   2.247  12.014  1.00  0.00     0.003 A 
HETATM   12  C6  UNL     1      -4.465   1.535  11.408  1.00  0.00     0.017 A 
HETATM   13  C7  UNL     1      -5.725   2.106  11.379  1.00  0.00     0.088 A 
HETATM   14  N1  UNL     1      -6.018   3.322  11.905  1.00  0.00    -0.369 N 
ATOM     15  H1  UNL     1      -6.960   3.708  11.860  1.00  0.00     0.165 HD
ENDBRANCH   8   9
ENDBRANCH   1   8
BRANCH   1  16
HETATM   16  P2  UNL     1      -6.206   6.453  15.475  1.00  0.00     0.252 P 
HETATM   17  O4  UNL     1      -6.627   7.851  15.173  1.00  0.00    -0.653 OA
BRANCH  16  18
HETATM   18  O5  UNL     1      -4.670   6.360  15.925  1.00  0.00    -0.328 OA
HETATM   19  H10 UNL     1      -4.465   7.065  16.571  1.00  0.00     0.220 HD
ENDBRANCH  16  18
BRANCH  16  20
HETATM   20  O6  UNL     1      -6.908   5.876  16.796  1.00  0.00    -0.328 OA
HETATM   21  H11 UNL     1      -7.157   4.919  16.757  1.00  0.00     0.220 HD
ENDBRANCH  16  20
ENDBRANCH   1  16
TORSDOF 8
ENDMDL
MODEL 8
REMARK minimizedAffinity -6.11161423
REMARK  8 active torsions:
REMARK  status: ('A' for Active; 'I' for Inactive)
REMARK    1  A    between atoms: P1_2  and  O2_3 
REMARK    2  A    between atoms: P1_2  and  O3_4 
REMARK    3  A    between atoms: P1_2  and  C1_5 
REMARK    4  A    between atoms: C1_5  and  C2_6 
REMARK    5  A    between atoms: C1_5  and  P2_14 
REMARK    6  A    between atoms: C2_6  and  C3_7 
REMARK    7  A    between atoms: P2_14  and  O5_16 
REMARK    8  A    between atoms: P2_14  and  O6_17 
ROOT
HETATM    1  C1  UNL     1       4.268   7.228  10.989  1.00  0.00     0.214 C 
ENDROOT
BRANCH   1   2
HETATM    2  P1  UNL     1       5.885   6.466  11.116  1.00  0.00     0.252 P 
HETATM    3  O1  UNL     1       7.077   7.119  10.513  1.00  0.00    -0.653 OA
BRANCH   2   4
HETATM    4  O2  UNL     1       5.704   4.992  10.494  1.00  0.00    -0.328 OA
HETATM    5  H1  UNL     1       6.564   4.565  10.315  1.00  0.00     0.220 HD
ENDBRANCH   2   4
BRANCH   2   6
HETATM    6  O3  UNL     1       6.120   6.084  12.654  1.00  0.00    -0.328 OA
HETATM    7  H2  UNL     1       7.048   5.856  12.850  1.00  0.00     0.220 HD
ENDBRANCH   2   6
ENDBRANCH   1   2
BRANCH   1   8
HETATM    8  C2  UNL     1       3.234   6.211  10.486  1.00  0.00     0.085 C 
BRANCH   8   9
HETATM    9  C3  UNL     1       2.652   6.616   9.155  1.00  0.00     0.010 A 
HETATM   10  C4  UNL     1       2.860   5.837   8.021  1.00  0.00     0.025 A 
HETATM   11  C5  UNL     1       2.303   6.246   6.813  1.00  0.00     0.003 A 
HETATM   12  C6  UNL     1       1.555   7.416   6.768  1.00  0.00     0.017 A 
HETATM   13  C7  UNL     1       1.393   8.131   7.940  1.00  0.00     0.088 A 
HETATM   14  N1  UNL     1       1.924   7.762   9.132  1.00  0.00    -0.369 N 
ATOM     15  H1  UNL     1       1.784   8.321   9.974  1.00  0.00     0.165 HD
ENDBRANCH   8   9
ENDBRANCH   1   8
BRANCH   1  16
HETATM   16  P2  UNL     1       3.709   8.123  12.443  1.00  0.00     0.252 P 
HETATM   17  O4  UNL     1       4.715   8.986  13.126  1.00  0.00    -0.653 OA
BRANCH  16  18
HETATM   18  O5  UNL     1       3.074   7.027  13.426  1.00  0.00    -0.328 OA
HETATM   19  H10 UNL     1       2.840   7.439  14.281  1.00  0.00     0.220 HD
ENDBRANCH  16  18
BRANCH  16  20
HETATM   20  O6  UNL     1       2.383   8.930  12.046  1.00  0.00    -0.328 OA
HETATM   21  H11 UNL     1       1.976   8.673  11.181  1.00  0.00     0.220 HD
ENDBRANCH  16  20
ENDBRANCH   1  16
TORSDOF 8
ENDMDL
MODEL 9
REMARK minimizedAffinity -6.08886862
REMARK  8 active torsions:
REMARK  status: ('A' for Active; 'I' for Inactive)
REMARK    1  A    between atoms: P1_2  and  O2_3 
REMARK    2  A    between atoms: P1_2  and  O3_4 
REMARK    3  A    between atoms: P1_2  and  C1_5 
REMARK    4  A    between atoms: C1_5  and  C2_6 
REMARK    5  A    between atoms: C1_5  and  P2_14 
REMARK    6  A    between atoms: C2_6  and  C3_7 
REMARK    7  A    between atoms: P2_14  and  O5_16 
REMARK    8  A    between atoms: P2_14  and  O6_17 
ROOT
HETATM    1  C1  UNL     1      -3.587   3.188  11.933  1.00  0.00     0.214 C 
ENDROOT
BRANCH   1   2
HETATM    2  P1  UNL     1      -2.165   2.373  11.206  1.00  0.00     0.252 P 
HETATM    3  O1  UNL     1      -0.794   2.650  11.714  1.00  0.00    -0.653 OA
BRANCH   2   4
HETATM    4  O2  UNL     1      -2.238   2.721   9.636  1.00  0.00    -0.328 OA
HETATM    5  H1  UNL     1      -1.402   2.511   9.177  1.00  0.00     0.220 HD
ENDBRANCH   2   4
BRANCH   2   6
HETATM    6  O3  UNL     1      -2.481   0.805  11.152  1.00  0.00    -0.328 OA
HETATM    7  H2  UNL     1      -1.690   0.265  10.965  1.00  0.00     0.220 HD
ENDBRANCH   2   6
ENDBRANCH   1   2
BRANCH   1   8
HETATM    8  C2  UNL     1      -3.373   4.708  11.968  1.00  0.00     0.085 C 
BRANCH   8   9
HETATM    9  C3  UNL     1      -3.880   5.315  13.251  1.00  0.00     0.010 A 
HETATM   10  C4  UNL     1      -3.032   5.481  14.342  1.00  0.00     0.025 A 
HETATM   11  C5  UNL     1      -3.540   6.047  15.508  1.00  0.00     0.003 A 
HETATM   12  C6  UNL     1      -4.873   6.433  15.554  1.00  0.00     0.017 A 
HETATM   13  C7  UNL     1      -5.648   6.236  14.426  1.00  0.00     0.088 A 
HETATM   14  N1  UNL     1      -5.186   5.685  13.276  1.00  0.00    -0.369 N 
ATOM     15  H1  UNL     1      -5.792   5.554  12.467  1.00  0.00     0.165 HD
ENDBRANCH   8   9
ENDBRANCH   1   8
BRANCH   1  16
HETATM   16  P2  UNL     1      -5.183   2.727  11.252  1.00  0.00     0.252 P 
HETATM   17  O4  UNL     1      -6.387   3.288  11.929  1.00  0.00    -0.653 OA
BRANCH  16  18
HETATM   18  O5  UNL     1      -5.202   1.125  11.200  1.00  0.00    -0.328 OA
HETATM   19  H10 UNL     1      -6.086   0.807  10.929  1.00  0.00     0.220 HD
ENDBRANCH  16  18
BRANCH  16  20
HETATM   20  O6  UNL     1      -5.161   3.047   9.682  1.00  0.00    -0.328 OA
HETATM   21  H11 UNL     1      -4.268   3.243   9.305  1.00  0.00     0.220 HD
ENDBRANCH  16  20
ENDBRANCH   1  16
TORSDOF 8
ENDMDL
