MODEL 1
REMARK minimizedAffinity -7.87646294
REMARK CNNscore 0.746350288
REMARK CNNaffinity 7.05978441
REMARK  7 active torsions:
REMARK  status: ('A' for Active; 'I' for Inactive)
REMARK    1  A    between atoms: C2_2  and  C30_32 
REMARK    2  A    between atoms: C3_3  and  C4_4 
REMARK    3  A    between atoms: C4_4  and  C5_5 
REMARK    4  A    between atoms: C5_5  and  C6_6 
REMARK    5  A    between atoms: C6_6  and  C8_8 
REMARK    6  A    between atoms: C29_30  and  O2_31 
REMARK    7  A    between atoms: C30_32  and  O3_33 
ROOT
HETATM    1  C8  UNL     1       5.881  55.904  -8.290  1.00  0.00    -0.002 C 
HETATM    2  C9  UNL     1       6.593  54.741  -9.024  1.00  0.00     0.007 C 
HETATM    3  C10 UNL     1       5.491  53.932  -9.747  1.00  0.00     0.015 C 
HETATM    4  C11 UNL     1       4.227  54.814  -9.693  1.00  0.00    -0.010 C 
HETATM    5  C12 UNL     1       4.323  55.828 -10.880  1.00  0.00     0.021 C 
HETATM    6  C13 UNL     1       2.842  54.174  -9.807  1.00  0.00    -0.039 C 
HETATM    7  C14 UNL     1       1.772  54.804  -9.246  1.00  0.00    -0.066 C 
HETATM    8  C15 UNL     1       1.939  56.105  -8.436  1.00  0.00     0.036 C 
HETATM    9  C16 UNL     1       3.373  56.592  -8.135  1.00  0.00     0.015 C 
HETATM   10  C17 UNL     1       4.391  55.454  -8.264  1.00  0.00    -0.029 C 
HETATM   11  C18 UNL     1       4.144  54.447  -7.103  1.00  0.00     0.016 C 
HETATM   12  C19 UNL     1       0.325  54.243  -9.357  1.00  0.00    -0.015 C 
HETATM   13  C20 UNL     1      -0.051  53.680  -7.963  1.00  0.00     0.020 C 
HETATM   14  C21 UNL     1      -0.669  55.381  -9.732  1.00  0.00     0.021 C 
HETATM   15  C22 UNL     1      -1.955  54.940 -10.427  1.00  0.00     0.080 C 
HETATM   16  C23 UNL     1      -2.266  53.476 -10.230  1.00  0.00     0.135 C 
HETATM   17  O1  UNL     1      -3.378  53.121  -9.837  1.00  0.00    -0.297 OA
HETATM   18  C24 UNL     1      -1.176  52.475 -10.631  1.00  0.00     0.018 C 
HETATM   19  C25 UNL     1      -1.428  52.116 -12.111  1.00  0.00     0.023 C 
HETATM   20  C26 UNL     1      -1.338  51.179  -9.812  1.00  0.00     0.023 C 
HETATM   21  C27 UNL     1       0.230  53.155 -10.486  1.00  0.00     0.016 C 
HETATM   22  C28 UNL     1       1.389  52.154 -10.374  1.00  0.00     0.043 C 
HETATM   23  C29 UNL     1       2.733  52.859 -10.545  1.00  0.00     0.148 C 
ENDROOT
BRANCH   1  24
HETATM   24  C6  UNL     1       6.539  56.402  -6.967  1.00  0.00    -0.014 C 
HETATM   25  C7  UNL     1       5.592  57.104  -5.985  1.00  0.00     0.010 C 
BRANCH  24  26
HETATM   26  C5  UNL     1       7.230  55.202  -6.261  1.00  0.00     0.008 C 
BRANCH  26  27
HETATM   27  C4  UNL     1       7.828  55.541  -4.891  1.00  0.00     0.028 C 
BRANCH  27  28
HETATM   28  C3  UNL     1       9.308  55.271  -4.867  1.00  0.00    -0.022 C 
HETATM   29  C2  UNL     1      10.308  56.175  -4.923  1.00  0.00    -0.064 C 
HETATM   30  C1  UNL     1      10.107  57.667  -4.958  1.00  0.00     0.045 C 
BRANCH  29  31
HETATM   31  C30 UNL     1      11.750  55.735  -4.923  1.00  0.00     0.197 C 
BRANCH  31  32
HETATM   32  O3  UNL     1      12.580  56.886  -4.961  1.00  0.00    -0.397 OA
HETATM   33  H48 UNL     1      13.496  56.566  -4.929  1.00  0.00     0.209 HD
ENDBRANCH  31  32
ENDBRANCH  29  31
ENDBRANCH  27  28
ENDBRANCH  26  27
ENDBRANCH  24  26
ENDBRANCH   1  24
BRANCH  23  34
HETATM   34  O2  UNL     1       2.918  53.093 -11.938  1.00  0.00    -0.391 OA
HETATM   35  H45 UNL     1       3.869  53.217 -12.082  1.00  0.00     0.210 HD
ENDBRANCH  23  34
TORSDOF 7
ENDMDL
MODEL 2
REMARK minimizedAffinity -6.94933844
REMARK CNNscore 0.595842659
REMARK CNNaffinity 6.02470779
REMARK  7 active torsions:
REMARK  status: ('A' for Active; 'I' for Inactive)
REMARK    1  A    between atoms: C2_2  and  C30_32 
REMARK    2  A    between atoms: C3_3  and  C4_4 
REMARK    3  A    between atoms: C4_4  and  C5_5 
REMARK    4  A    between atoms: C5_5  and  C6_6 
REMARK    5  A    between atoms: C6_6  and  C8_8 
REMARK    6  A    between atoms: C29_30  and  O2_31 
REMARK    7  A    between atoms: C30_32  and  O3_33 
ROOT
HETATM    1  C8  UNL     1      -9.147  47.392 -29.249  1.00  0.00    -0.002 C 
HETATM    2  C9  UNL     1      -9.047  48.432 -28.106  1.00  0.00     0.007 C 
HETATM    3  C10 UNL     1     -10.164  48.089 -27.094  1.00  0.00     0.015 C 
HETATM    4  C11 UNL     1     -10.667  46.686 -27.492  1.00  0.00    -0.010 C 
HETATM    5  C12 UNL     1      -9.696  45.648 -26.840  1.00  0.00     0.021 C 
HETATM    6  C13 UNL     1     -12.076  46.238 -27.098  1.00  0.00    -0.039 C 
HETATM    7  C14 UNL     1     -12.709  45.298 -27.855  1.00  0.00    -0.066 C 
HETATM    8  C15 UNL     1     -12.066  44.733 -29.138  1.00  0.00     0.036 C 
HETATM    9  C16 UNL     1     -10.756  45.380 -29.637  1.00  0.00     0.015 C 
HETATM   10  C17 UNL     1     -10.569  46.787 -29.060  1.00  0.00    -0.029 C 
HETATM   11  C18 UNL     1     -11.647  47.717 -29.689  1.00  0.00     0.016 C 
HETATM   12  C19 UNL     1     -14.122  44.756 -27.497  1.00  0.00    -0.015 C 
HETATM   13  C20 UNL     1     -15.114  45.364 -28.521  1.00  0.00     0.020 C 
HETATM   14  C21 UNL     1     -14.153  43.204 -27.617  1.00  0.00     0.021 C 
HETATM   15  C22 UNL     1     -15.214  42.492 -26.781  1.00  0.00     0.080 C 
HETATM   16  C23 UNL     1     -16.335  43.402 -26.342  1.00  0.00     0.135 C 
HETATM   17  O1  UNL     1     -17.509  43.084 -26.533  1.00  0.00    -0.297 OA
HETATM   18  C24 UNL     1     -15.940  44.671 -25.576  1.00  0.00     0.018 C 
HETATM   19  C25 UNL     1     -15.934  44.298 -24.078  1.00  0.00     0.023 C 
HETATM   20  C26 UNL     1     -17.021  45.752 -25.775  1.00  0.00     0.023 C 
HETATM   21  C27 UNL     1     -14.501  45.113 -26.014  1.00  0.00     0.016 C 
HETATM   22  C28 UNL     1     -14.192  46.587 -25.716  1.00  0.00     0.043 C 
HETATM   23  C29 UNL     1     -12.700  46.873 -25.876  1.00  0.00     0.148 C 
ENDROOT
BRANCH   1  24
HETATM   24  C6  UNL     1      -8.715  47.869 -30.668  1.00  0.00    -0.014 C 
HETATM   25  C7  UNL     1      -8.587  49.388 -30.841  1.00  0.00     0.010 C 
BRANCH  24  26
HETATM   26  C5  UNL     1      -7.372  47.184 -31.047  1.00  0.00     0.008 C 
BRANCH  26  27
HETATM   27  C4  UNL     1      -7.296  46.717 -32.504  1.00  0.00     0.028 C 
BRANCH  27  28
HETATM   28  C3  UNL     1      -6.348  47.575 -33.297  1.00  0.00    -0.022 C 
HETATM   29  C2  UNL     1      -5.000  47.506 -33.318  1.00  0.00    -0.064 C 
HETATM   30  C1  UNL     1      -4.188  46.481 -32.573  1.00  0.00     0.045 C 
BRANCH  29  31
HETATM   31  C30 UNL     1      -4.190  48.470 -34.147  1.00  0.00     0.197 C 
BRANCH  31  32
HETATM   32  O3  UNL     1      -2.813  48.152 -34.003  1.00  0.00    -0.397 OA
HETATM   33  H48 UNL     1      -2.327  48.770 -34.571  1.00  0.00     0.209 HD
ENDBRANCH  31  32
ENDBRANCH  29  31
ENDBRANCH  27  28
ENDBRANCH  26  27
ENDBRANCH  24  26
ENDBRANCH   1  24
BRANCH  23  34
HETATM   34  O2  UNL     1     -12.043  46.379 -24.712  1.00  0.00    -0.391 OA
HETATM   35  H45 UNL     1     -11.193  46.841 -24.649  1.00  0.00     0.210 HD
ENDBRANCH  23  34
TORSDOF 7
ENDMDL
MODEL 3
REMARK minimizedAffinity -7.30352545
REMARK CNNscore 0.590438962
REMARK CNNaffinity 6.96741629
REMARK  7 active torsions:
REMARK  status: ('A' for Active; 'I' for Inactive)
REMARK    1  A    between atoms: C2_2  and  C30_32 
REMARK    2  A    between atoms: C3_3  and  C4_4 
REMARK    3  A    between atoms: C4_4  and  C5_5 
REMARK    4  A    between atoms: C5_5  and  C6_6 
REMARK    5  A    between atoms: C6_6  and  C8_8 
REMARK    6  A    between atoms: C29_30  and  O2_31 
REMARK    7  A    between atoms: C30_32  and  O3_33 
ROOT
HETATM    1  C8  UNL     1      -1.509  52.536 -11.038  1.00  0.00    -0.002 C 
HETATM    2  C9  UNL     1      -2.466  52.427  -9.826  1.00  0.00     0.007 C 
HETATM    3  C10 UNL     1      -1.853  53.288  -8.697  1.00  0.00     0.015 C 
HETATM    4  C11 UNL     1      -0.750  54.131  -9.372  1.00  0.00    -0.010 C 
HETATM    5  C12 UNL     1      -1.447  55.378 -10.006  1.00  0.00     0.021 C 
HETATM    6  C13 UNL     1       0.408  54.683  -8.538  1.00  0.00    -0.039 C 
HETATM    7  C14 UNL     1       1.601  54.936  -9.145  1.00  0.00    -0.066 C 
HETATM    8  C15 UNL     1       1.830  54.607 -10.635  1.00  0.00     0.036 C 
HETATM    9  C16 UNL     1       0.726  53.829 -11.383  1.00  0.00     0.015 C 
HETATM   10  C17 UNL     1      -0.195  53.085 -10.410  1.00  0.00    -0.029 C 
HETATM   11  C18 UNL     1       0.621  51.933  -9.754  1.00  0.00     0.016 C 
HETATM   12  C19 UNL     1       2.812  55.540  -8.379  1.00  0.00    -0.015 C 
HETATM   13  C20 UNL     1       3.845  54.401  -8.192  1.00  0.00     0.020 C 
HETATM   14  C21 UNL     1       3.461  56.686  -9.211  1.00  0.00     0.021 C 
HETATM   15  C22 UNL     1       4.239  57.730  -8.414  1.00  0.00     0.080 C 
HETATM   16  C23 UNL     1       4.639  57.252  -7.039  1.00  0.00     0.135 C 
HETATM   17  O1  UNL     1       5.807  57.350  -6.659  1.00  0.00    -0.297 OA
HETATM   18  C24 UNL     1       3.517  56.740  -6.128  1.00  0.00     0.018 C 
HETATM   19  C25 UNL     1       3.006  57.958  -5.329  1.00  0.00     0.023 C 
HETATM   20  C26 UNL     1       4.095  55.735  -5.112  1.00  0.00     0.023 C 
HETATM   21  C27 UNL     1       2.356  56.165  -7.011  1.00  0.00     0.016 C 
HETATM   22  C28 UNL     1       1.429  55.200  -6.258  1.00  0.00     0.043 C 
HETATM   23  C29 UNL     1       0.163  54.920  -7.065  1.00  0.00     0.148 C 
ENDROOT
BRANCH   1  24
HETATM   24  C6  UNL     1      -1.431  51.297 -11.981  1.00  0.00    -0.014 C 
HETATM   25  C7  UNL     1      -2.746  50.527 -12.165  1.00  0.00     0.010 C 
BRANCH  24  26
HETATM   26  C5  UNL     1      -0.890  51.748 -13.367  1.00  0.00     0.008 C 
BRANCH  26  27
HETATM   27  C4  UNL     1       0.414  51.059 -13.784  1.00  0.00     0.028 C 
BRANCH  27  28
HETATM   28  C3  UNL     1       1.098  51.821 -14.887  1.00  0.00    -0.022 C 
HETATM   29  C2  UNL     1       1.067  51.556 -16.210  1.00  0.00    -0.064 C 
HETATM   30  C1  UNL     1       0.263  50.448 -16.838  1.00  0.00     0.045 C 
BRANCH  29  31
HETATM   31  C30 UNL     1       1.841  52.403 -17.186  1.00  0.00     0.197 C 
BRANCH  31  32
HETATM   32  O3  UNL     1       2.565  53.388 -16.464  1.00  0.00    -0.397 OA
HETATM   33  H48 UNL     1       3.072  53.893 -17.119  1.00  0.00     0.209 HD
ENDBRANCH  31  32
ENDBRANCH  29  31
ENDBRANCH  27  28
ENDBRANCH  26  27
ENDBRANCH  24  26
ENDBRANCH   1  24
BRANCH  23  34
HETATM   34  O2  UNL     1      -0.696  56.047  -6.915  1.00  0.00    -0.391 OA
HETATM   35  H45 UNL     1      -1.595  55.749  -7.124  1.00  0.00     0.210 HD
ENDBRANCH  23  34
TORSDOF 7
ENDMDL
MODEL 4
REMARK minimizedAffinity -8.91555691
REMARK CNNscore 0.394490182
REMARK CNNaffinity 6.66211176
REMARK  7 active torsions:
REMARK  status: ('A' for Active; 'I' for Inactive)
REMARK    1  A    between atoms: C2_2  and  C30_32 
REMARK    2  A    between atoms: C3_3  and  C4_4 
REMARK    3  A    between atoms: C4_4  and  C5_5 
REMARK    4  A    between atoms: C5_5  and  C6_6 
REMARK    5  A    between atoms: C6_6  and  C8_8 
REMARK    6  A    between atoms: C29_30  and  O2_31 
REMARK    7  A    between atoms: C30_32  and  O3_33 
ROOT
HETATM    1  C8  UNL     1      -0.942  50.424 -21.864  1.00  0.00    -0.002 C 
HETATM    2  C9  UNL     1      -0.755  50.025 -20.380  1.00  0.00     0.007 C 
HETATM    3  C10 UNL     1      -1.970  49.149 -19.999  1.00  0.00     0.015 C 
HETATM    4  C11 UNL     1      -2.655  48.788 -21.334  1.00  0.00    -0.010 C 
HETATM    5  C12 UNL     1      -1.895  47.555 -21.922  1.00  0.00     0.021 C 
HETATM    6  C13 UNL     1      -4.137  48.408 -21.354  1.00  0.00    -0.039 C 
HETATM    7  C14 UNL     1      -4.858  48.613 -22.492  1.00  0.00    -0.066 C 
HETATM    8  C15 UNL     1      -4.232  49.286 -23.730  1.00  0.00     0.036 C 
HETATM    9  C16 UNL     1      -2.811  49.875 -23.593  1.00  0.00     0.015 C 
HETATM   10  C17 UNL     1      -2.448  50.132 -22.127  1.00  0.00    -0.029 C 
HETATM   11  C18 UNL     1      -3.332  51.302 -21.606  1.00  0.00     0.016 C 
HETATM   12  C19 UNL     1      -6.357  48.213 -22.610  1.00  0.00    -0.015 C 
HETATM   13  C20 UNL     1      -7.180  49.525 -22.582  1.00  0.00     0.020 C 
HETATM   14  C21 UNL     1      -6.616  47.477 -23.958  1.00  0.00     0.021 C 
HETATM   15  C22 UNL     1      -7.821  46.540 -23.985  1.00  0.00     0.080 C 
HETATM   16  C23 UNL     1      -8.815  46.819 -22.884  1.00  0.00     0.135 C 
HETATM   17  O1  UNL     1     -10.011  46.962 -23.144  1.00  0.00    -0.297 OA
HETATM   18  C24 UNL     1      -8.280  46.816 -21.447  1.00  0.00     0.018 C 
HETATM   19  C25 UNL     1      -8.421  45.369 -20.926  1.00  0.00     0.023 C 
HETATM   20  C26 UNL     1      -9.170  47.711 -20.562  1.00  0.00     0.023 C 
HETATM   21  C27 UNL     1      -6.766  47.225 -21.459  1.00  0.00     0.016 C 
HETATM   22  C28 UNL     1      -6.256  47.733 -20.102  1.00  0.00     0.043 C 
HETATM   23  C29 UNL     1      -4.731  47.821 -20.094  1.00  0.00     0.148 C 
ENDROOT
BRANCH   1  24
HETATM   24  C6  UNL     1      -0.357  51.803 -22.296  1.00  0.00    -0.014 C 
HETATM   25  C7  UNL     1       0.996  52.169 -21.671  1.00  0.00     0.010 C 
BRANCH  24  26
HETATM   26  C5  UNL     1      -0.245  51.843 -23.846  1.00  0.00     0.008 C 
BRANCH  26  27
HETATM   27  C4  UNL     1       0.624  52.986 -24.382  1.00  0.00     0.028 C 
BRANCH  27  28
HETATM   28  C3  UNL     1       0.014  53.595 -25.615  1.00  0.00    -0.022 C 
HETATM   29  C2  UNL     1       0.184  53.202 -26.895  1.00  0.00    -0.064 C 
HETATM   30  C1  UNL     1       0.993  52.004 -27.317  1.00  0.00     0.045 C 
BRANCH  29  31
HETATM   31  C30 UNL     1      -0.476  53.946 -28.027  1.00  0.00     0.197 C 
BRANCH  31  32
HETATM   32  O3  UNL     1      -1.863  53.645 -28.025  1.00  0.00    -0.397 OA
HETATM   33  H48 UNL     1      -2.259  54.162 -28.744  1.00  0.00     0.209 HD
ENDBRANCH  31  32
ENDBRANCH  29  31
ENDBRANCH  27  28
ENDBRANCH  26  27
ENDBRANCH  24  26
ENDBRANCH   1  24
BRANCH  23  34
HETATM   34  O2  UNL     1      -4.228  46.499 -19.919  1.00  0.00    -0.391 OA
HETATM   35  H45 UNL     1      -3.323  46.581 -19.581  1.00  0.00     0.210 HD
ENDBRANCH  23  34
TORSDOF 7
ENDMDL
MODEL 5
REMARK minimizedAffinity -7.21049309
REMARK CNNscore 0.370564789
REMARK CNNaffinity 5.83372831
REMARK  7 active torsions:
REMARK  status: ('A' for Active; 'I' for Inactive)
REMARK    1  A    between atoms: C2_2  and  C30_32 
REMARK    2  A    between atoms: C3_3  and  C4_4 
REMARK    3  A    between atoms: C4_4  and  C5_5 
REMARK    4  A    between atoms: C5_5  and  C6_6 
REMARK    5  A    between atoms: C6_6  and  C8_8 
REMARK    6  A    between atoms: C29_30  and  O2_31 
REMARK    7  A    between atoms: C30_32  and  O3_33 
ROOT
HETATM    1  C8  UNL     1      -7.785  47.509 -30.058  1.00  0.00    -0.002 C 
HETATM    2  C9  UNL     1      -8.627  48.632 -30.712  1.00  0.00     0.007 C 
HETATM    3  C10 UNL     1     -10.016  48.598 -30.034  1.00  0.00     0.015 C 
HETATM    4  C11 UNL     1      -9.850  47.695 -28.794  1.00  0.00    -0.010 C 
HETATM    5  C12 UNL     1      -9.265  48.587 -27.651  1.00  0.00     0.021 C 
HETATM    6  C13 UNL     1     -11.068  46.995 -28.189  1.00  0.00    -0.039 C 
HETATM    7  C14 UNL     1     -10.890  45.838 -27.492  1.00  0.00    -0.066 C 
HETATM    8  C15 UNL     1      -9.500  45.183 -27.365  1.00  0.00     0.036 C 
HETATM    9  C16 UNL     1      -8.338  45.782 -28.188  1.00  0.00     0.015 C 
HETATM   10  C17 UNL     1      -8.855  46.616 -29.364  1.00  0.00    -0.029 C 
HETATM   11  C18 UNL     1      -9.513  45.650 -30.393  1.00  0.00     0.016 C 
HETATM   12  C19 UNL     1     -12.069  45.089 -26.808  1.00  0.00    -0.015 C 
HETATM   13  C20 UNL     1     -12.351  43.820 -27.651  1.00  0.00     0.020 C 
HETATM   14  C21 UNL     1     -11.674  44.664 -25.363  1.00  0.00     0.021 C 
HETATM   15  C22 UNL     1     -12.832  44.460 -24.388  1.00  0.00     0.080 C 
HETATM   16  C23 UNL     1     -14.159  44.254 -25.076  1.00  0.00     0.135 C 
HETATM   17  O1  UNL     1     -14.875  43.297 -24.780  1.00  0.00    -0.297 OA
HETATM   18  C24 UNL     1     -14.599  45.333 -26.074  1.00  0.00     0.018 C 
HETATM   19  C25 UNL     1     -15.412  46.372 -25.271  1.00  0.00     0.023 C 
HETATM   20  C26 UNL     1     -15.551  44.715 -27.117  1.00  0.00     0.023 C 
HETATM   21  C27 UNL     1     -13.330  46.019 -26.688  1.00  0.00     0.016 C 
HETATM   22  C28 UNL     1     -13.601  46.738 -28.017  1.00  0.00     0.043 C 
HETATM   23  C29 UNL     1     -12.423  47.631 -28.401  1.00  0.00     0.148 C 
ENDROOT
BRANCH   1  24
HETATM   24  C6  UNL     1      -6.708  46.830 -30.956  1.00  0.00    -0.014 C 
HETATM   25  C7  UNL     1      -6.743  47.224 -32.439  1.00  0.00     0.010 C 
BRANCH  24  26
HETATM   26  C5  UNL     1      -5.299  47.126 -30.369  1.00  0.00     0.008 C 
BRANCH  26  27
HETATM   27  C4  UNL     1      -5.231  48.396 -29.513  1.00  0.00     0.028 C 
BRANCH  27  28
HETATM   28  C3  UNL     1      -4.654  48.100 -28.155  1.00  0.00    -0.022 C 
HETATM   29  C2  UNL     1      -3.817  48.875 -27.433  1.00  0.00    -0.064 C 
HETATM   30  C1  UNL     1      -3.350  50.244 -27.851  1.00  0.00     0.045 C 
BRANCH  29  31
HETATM   31  C30 UNL     1      -3.300  48.414 -26.095  1.00  0.00     0.197 C 
BRANCH  31  32
HETATM   32  O3  UNL     1      -4.381  48.376 -25.175  1.00  0.00    -0.397 OA
HETATM   33  H48 UNL     1      -4.018  48.048 -24.337  1.00  0.00     0.209 HD
ENDBRANCH  31  32
ENDBRANCH  29  31
ENDBRANCH  27  28
ENDBRANCH  26  27
ENDBRANCH  24  26
ENDBRANCH   1  24
BRANCH  23  34
HETATM   34  O2  UNL     1     -12.508  48.814 -27.610  1.00  0.00    -0.391 OA
HETATM   35  H45 UNL     1     -11.997  49.499 -28.069  1.00  0.00     0.210 HD
ENDBRANCH  23  34
TORSDOF 7
ENDMDL
MODEL 6
REMARK minimizedAffinity -7.5692296
REMARK CNNscore 0.333626598
REMARK CNNaffinity 6.60473299
REMARK  7 active torsions:
REMARK  status: ('A' for Active; 'I' for Inactive)
REMARK    1  A    between atoms: C2_2  and  C30_32 
REMARK    2  A    between atoms: C3_3  and  C4_4 
REMARK    3  A    between atoms: C4_4  and  C5_5 
REMARK    4  A    between atoms: C5_5  and  C6_6 
REMARK    5  A    between atoms: C6_6  and  C8_8 
REMARK    6  A    between atoms: C29_30  and  O2_31 
REMARK    7  A    between atoms: C30_32  and  O3_33 
ROOT
HETATM    1  C8  UNL     1      -3.078  50.618 -21.903  1.00  0.00    -0.002 C 
HETATM    2  C9  UNL     1      -4.198  51.503 -21.306  1.00  0.00     0.007 C 
HETATM    3  C10 UNL     1      -5.077  50.578 -20.432  1.00  0.00     0.015 C 
HETATM    4  C11 UNL     1      -4.273  49.271 -20.275  1.00  0.00    -0.010 C 
HETATM    5  C12 UNL     1      -3.261  49.492 -19.103  1.00  0.00     0.021 C 
HETATM    6  C13 UNL     1      -4.997  47.962 -19.955  1.00  0.00    -0.039 C 
HETATM    7  C14 UNL     1      -4.431  46.782 -20.333  1.00  0.00    -0.066 C 
HETATM    8  C15 UNL     1      -3.117  46.742 -21.140  1.00  0.00     0.036 C 
HETATM    9  C16 UNL     1      -2.543  48.080 -21.655  1.00  0.00     0.015 C 
HETATM   10  C17 UNL     1      -3.617  49.172 -21.703  1.00  0.00    -0.029 C 
HETATM   11  C18 UNL     1      -4.632  48.805 -22.825  1.00  0.00     0.016 C 
HETATM   12  C19 UNL     1      -5.080  45.406 -20.007  1.00  0.00    -0.015 C 
HETATM   13  C20 UNL     1      -5.658  44.851 -21.332  1.00  0.00     0.020 C 
HETATM   14  C21 UNL     1      -4.006  44.417 -19.464  1.00  0.00     0.021 C 
HETATM   15  C22 UNL     1      -4.528  43.284 -18.583  1.00  0.00     0.080 C 
HETATM   16  C23 UNL     1      -6.006  43.034 -18.750  1.00  0.00     0.135 C 
HETATM   17  O1  UNL     1      -6.427  41.898 -18.970  1.00  0.00    -0.297 OA
HETATM   18  C24 UNL     1      -6.942  44.231 -18.539  1.00  0.00     0.018 C 
HETATM   19  C25 UNL     1      -7.322  44.236 -17.043  1.00  0.00     0.023 C 
HETATM   20  C26 UNL     1      -8.241  44.020 -19.341  1.00  0.00     0.023 C 
HETATM   21  C27 UNL     1      -6.177  45.553 -18.892  1.00  0.00     0.016 C 
HETATM   22  C28 UNL     1      -7.104  46.739 -19.198  1.00  0.00     0.043 C 
HETATM   23  C29 UNL     1      -6.320  48.049 -19.228  1.00  0.00     0.148 C 
ENDROOT
BRANCH   1  24
HETATM   24  C6  UNL     1      -2.534  51.030 -23.305  1.00  0.00    -0.014 C 
HETATM   25  C7  UNL     1      -3.151  52.301 -23.903  1.00  0.00     0.010 C 
BRANCH  24  26
HETATM   26  C5  UNL     1      -0.990  51.185 -23.224  1.00  0.00     0.008 C 
BRANCH  26  27
HETATM   27  C4  UNL     1      -0.413  50.988 -21.818  1.00  0.00     0.028 C 
BRANCH  27  28
HETATM   28  C3  UNL     1       0.294  52.230 -21.346  1.00  0.00    -0.022 C 
HETATM   29  C2  UNL     1       0.836  53.205 -22.106  1.00  0.00    -0.064 C 
HETATM   30  C1  UNL     1       0.769  53.250 -23.610  1.00  0.00     0.045 C 
BRANCH  29  31
HETATM   31  C30 UNL     1       1.544  54.375 -21.473  1.00  0.00     0.197 C 
BRANCH  31  32
HETATM   32  O3  UNL     1       1.440  54.264 -20.061  1.00  0.00    -0.397 OA
HETATM   33  H48 UNL     1       1.930  55.013 -19.689  1.00  0.00     0.209 HD
ENDBRANCH  31  32
ENDBRANCH  29  31
ENDBRANCH  27  28
ENDBRANCH  26  27
ENDBRANCH  24  26
ENDBRANCH   1  24
BRANCH  23  34
HETATM   34  O2  UNL     1      -6.081  48.435 -17.877  1.00  0.00    -0.391 OA
HETATM   35  H45 UNL     1      -5.900  49.388 -17.882  1.00  0.00     0.210 HD
ENDBRANCH  23  34
TORSDOF 7
ENDMDL
MODEL 7
REMARK minimizedAffinity -7.37161779
REMARK CNNscore 0.328235
REMARK CNNaffinity 6.63041115
REMARK  7 active torsions:
REMARK  status: ('A' for Active; 'I' for Inactive)
REMARK    1  A    between atoms: C2_2  and  C30_32 
REMARK    2  A    between atoms: C3_3  and  C4_4 
REMARK    3  A    between atoms: C4_4  and  C5_5 
REMARK    4  A    between atoms: C5_5  and  C6_6 
REMARK    5  A    between atoms: C6_6  and  C8_8 
REMARK    6  A    between atoms: C29_30  and  O2_31 
REMARK    7  A    between atoms: C30_32  and  O3_33 
ROOT
HETATM    1  C8  UNL     1      -4.291  49.292 -22.776  1.00  0.00    -0.002 C 
HETATM    2  C9  UNL     1      -3.319  48.171 -22.334  1.00  0.00     0.007 C 
HETATM    3  C10 UNL     1      -4.092  47.280 -21.335  1.00  0.00     0.015 C 
HETATM    4  C11 UNL     1      -5.572  47.697 -21.468  1.00  0.00    -0.010 C 
HETATM    5  C12 UNL     1      -6.161  46.918 -22.688  1.00  0.00     0.021 C 
HETATM    6  C13 UNL     1      -6.543  47.451 -20.311  1.00  0.00    -0.039 C 
HETATM    7  C14 UNL     1      -7.639  48.250 -20.184  1.00  0.00    -0.066 C 
HETATM    8  C15 UNL     1      -7.881  49.440 -21.135  1.00  0.00     0.036 C 
HETATM    9  C16 UNL     1      -6.763  49.808 -22.134  1.00  0.00     0.015 C 
HETATM   10  C17 UNL     1      -5.407  49.247 -21.691  1.00  0.00    -0.029 C 
HETATM   11  C18 UNL     1      -4.959  50.013 -20.413  1.00  0.00     0.016 C 
HETATM   12  C19 UNL     1      -8.697  48.037 -19.064  1.00  0.00    -0.015 C 
HETATM   13  C20 UNL     1      -8.504  49.178 -18.034  1.00  0.00     0.020 C 
HETATM   14  C21 UNL     1     -10.136  48.122 -19.656  1.00  0.00     0.021 C 
HETATM   15  C22 UNL     1     -11.223  47.391 -18.872  1.00  0.00     0.080 C 
HETATM   16  C23 UNL     1     -10.833  47.100 -17.444  1.00  0.00     0.135 C 
HETATM   17  O1  UNL     1     -11.581  47.411 -16.516  1.00  0.00    -0.297 OA
HETATM   18  C24 UNL     1      -9.527  46.327 -17.224  1.00  0.00     0.018 C 
HETATM   19  C25 UNL     1      -9.899  44.828 -17.209  1.00  0.00     0.023 C 
HETATM   20  C26 UNL     1      -8.951  46.669 -15.836  1.00  0.00     0.023 C 
HETATM   21  C27 UNL     1      -8.549  46.614 -18.415  1.00  0.00     0.016 C 
HETATM   22  C28 UNL     1      -7.078  46.319 -18.088  1.00  0.00     0.043 C 
HETATM   23  C29 UNL     1      -6.228  46.321 -19.357  1.00  0.00     0.148 C 
ENDROOT
BRANCH   1  24
HETATM   24  C6  UNL     1      -3.653  50.667 -23.141  1.00  0.00    -0.014 C 
HETATM   25  C7  UNL     1      -4.593  51.876 -23.041  1.00  0.00     0.010 C 
BRANCH  24  26
HETATM   26  C5  UNL     1      -2.403  50.900 -22.247  1.00  0.00     0.008 C 
BRANCH  26  27
HETATM   27  C4  UNL     1      -1.446  51.973 -22.777  1.00  0.00     0.028 C 
BRANCH  27  28
HETATM   28  C3  UNL     1      -0.374  52.286 -21.768  1.00  0.00    -0.022 C 
HETATM   29  C2  UNL     1       0.717  53.060 -21.942  1.00  0.00    -0.064 C 
HETATM   30  C1  UNL     1       1.028  53.821 -23.204  1.00  0.00     0.045 C 
BRANCH  29  31
HETATM   31  C30 UNL     1       1.719  53.246 -20.832  1.00  0.00     0.197 C 
BRANCH  31  32
HETATM   32  O3  UNL     1       1.288  54.313 -20.001  1.00  0.00    -0.397 OA
HETATM   33  H48 UNL     1       1.938  54.384 -19.284  1.00  0.00     0.209 HD
ENDBRANCH  31  32
ENDBRANCH  29  31
ENDBRANCH  27  28
ENDBRANCH  26  27
ENDBRANCH  24  26
ENDBRANCH   1  24
BRANCH  23  34
HETATM   34  O2  UNL     1      -6.451  45.080 -20.022  1.00  0.00    -0.391 OA
HETATM   35  H45 UNL     1      -5.694  44.934 -20.611  1.00  0.00     0.210 HD
ENDBRANCH  23  34
TORSDOF 7
ENDMDL
MODEL 8
REMARK minimizedAffinity -8.98983574
REMARK CNNscore 0.312984347
REMARK CNNaffinity 6.6808753
REMARK  7 active torsions:
REMARK  status: ('A' for Active; 'I' for Inactive)
REMARK    1  A    between atoms: C2_2  and  C30_32 
REMARK    2  A    between atoms: C3_3  and  C4_4 
REMARK    3  A    between atoms: C4_4  and  C5_5 
REMARK    4  A    between atoms: C5_5  and  C6_6 
REMARK    5  A    between atoms: C6_6  and  C8_8 
REMARK    6  A    between atoms: C29_30  and  O2_31 
REMARK    7  A    between atoms: C30_32  and  O3_33 
ROOT
HETATM    1  C8  UNL     1      -0.487  50.117 -20.559  1.00  0.00    -0.002 C 
HETATM    2  C9  UNL     1      -0.900  49.346 -19.281  1.00  0.00     0.007 C 
HETATM    3  C10 UNL     1      -2.180  48.554 -19.635  1.00  0.00     0.015 C 
HETATM    4  C11 UNL     1      -2.294  48.616 -21.172  1.00  0.00    -0.010 C 
HETATM    5  C12 UNL     1      -1.381  47.484 -21.746  1.00  0.00     0.021 C 
HETATM    6  C13 UNL     1      -3.655  48.431 -21.846  1.00  0.00    -0.039 C 
HETATM    7  C14 UNL     1      -3.870  48.993 -23.069  1.00  0.00    -0.066 C 
HETATM    8  C15 UNL     1      -2.801  49.871 -23.750  1.00  0.00     0.036 C 
HETATM    9  C16 UNL     1      -1.539  50.235 -22.939  1.00  0.00     0.015 C 
HETATM   10  C17 UNL     1      -1.774  50.079 -21.433  1.00  0.00    -0.029 C 
HETATM   11  C18 UNL     1      -2.776  51.182 -20.981  1.00  0.00     0.016 C 
HETATM   12  C19 UNL     1      -5.209  48.815 -23.841  1.00  0.00    -0.015 C 
HETATM   13  C20 UNL     1      -5.960  50.168 -23.766  1.00  0.00     0.020 C 
HETATM   14  C21 UNL     1      -4.930  48.468 -25.333  1.00  0.00     0.021 C 
HETATM   15  C22 UNL     1      -6.042  47.716 -26.062  1.00  0.00     0.080 C 
HETATM   16  C23 UNL     1      -7.384  47.832 -25.380  1.00  0.00     0.135 C 
HETATM   17  O1  UNL     1      -8.380  48.176 -26.017  1.00  0.00    -0.297 OA
HETATM   18  C24 UNL     1      -7.452  47.413 -23.907  1.00  0.00     0.018 C 
HETATM   19  C25 UNL     1      -7.806  45.910 -23.891  1.00  0.00     0.023 C 
HETATM   20  C26 UNL     1      -8.605  48.162 -23.210  1.00  0.00     0.023 C 
HETATM   21  C27 UNL     1      -6.050  47.630 -23.241  1.00  0.00     0.016 C 
HETATM   22  C28 UNL     1      -6.103  47.726 -21.709  1.00  0.00     0.043 C 
HETATM   23  C29 UNL     1      -4.702  47.627 -21.110  1.00  0.00     0.148 C 
ENDROOT
BRANCH   1  24
HETATM   24  C6  UNL     1       0.239  51.480 -20.348  1.00  0.00    -0.014 C 
HETATM   25  C7  UNL     1      -0.082  52.564 -21.387  1.00  0.00     0.010 C 
BRANCH  24  26
HETATM   26  C5  UNL     1      -0.081  52.011 -18.923  1.00  0.00     0.008 C 
BRANCH  26  27
HETATM   27  C4  UNL     1       1.129  52.596 -18.186  1.00  0.00     0.028 C 
BRANCH  27  28
HETATM   28  C3  UNL     1       1.250  52.018 -16.802  1.00  0.00    -0.022 C 
HETATM   29  C2  UNL     1       2.310  52.095 -15.970  1.00  0.00    -0.064 C 
HETATM   30  C1  UNL     1       3.575  52.853 -16.272  1.00  0.00     0.045 C 
BRANCH  29  31
HETATM   31  C30 UNL     1       2.282  51.427 -14.620  1.00  0.00     0.197 C 
BRANCH  31  32
HETATM   32  O3  UNL     1       2.843  52.311 -13.661  1.00  0.00    -0.397 OA
HETATM   33  H48 UNL     1       2.782  51.862 -12.803  1.00  0.00     0.209 HD
ENDBRANCH  31  32
ENDBRANCH  29  31
ENDBRANCH  27  28
ENDBRANCH  26  27
ENDBRANCH  24  26
ENDBRANCH   1  24
BRANCH  23  34
HETATM   34  O2  UNL     1      -4.326  46.252 -21.127  1.00  0.00    -0.391 OA
HETATM   35  H45 UNL     1      -3.624  46.142 -20.467  1.00  0.00     0.210 HD
ENDBRANCH  23  34
TORSDOF 7
ENDMDL
MODEL 9
REMARK minimizedAffinity -7.46631575
REMARK CNNscore 0.277159393
REMARK CNNaffinity 6.49557495
REMARK  7 active torsions:
REMARK  status: ('A' for Active; 'I' for Inactive)
REMARK    1  A    between atoms: C2_2  and  C30_32 
REMARK    2  A    between atoms: C3_3  and  C4_4 
REMARK    3  A    between atoms: C4_4  and  C5_5 
REMARK    4  A    between atoms: C5_5  and  C6_6 
REMARK    5  A    between atoms: C6_6  and  C8_8 
REMARK    6  A    between atoms: C29_30  and  O2_31 
REMARK    7  A    between atoms: C30_32  and  O3_33 
ROOT
HETATM    1  C8  UNL     1      -4.338  50.312 -24.424  1.00  0.00    -0.002 C 
HETATM    2  C9  UNL     1      -4.419  49.018 -25.271  1.00  0.00     0.007 C 
HETATM    3  C10 UNL     1      -5.207  47.986 -24.431  1.00  0.00     0.015 C 
HETATM    4  C11 UNL     1      -5.843  48.790 -23.278  1.00  0.00    -0.010 C 
HETATM    5  C12 UNL     1      -7.164  49.417 -23.829  1.00  0.00     0.021 C 
HETATM    6  C13 UNL     1      -6.230  48.083 -21.977  1.00  0.00    -0.039 C 
HETATM    7  C14 UNL     1      -6.273  48.802 -20.820  1.00  0.00    -0.066 C 
HETATM    8  C15 UNL     1      -5.866  50.289 -20.781  1.00  0.00     0.036 C 
HETATM    9  C16 UNL     1      -5.250  50.904 -22.057  1.00  0.00     0.015 C 
HETATM   10  C17 UNL     1      -4.691  49.824 -22.989  1.00  0.00    -0.029 C 
HETATM   11  C18 UNL     1      -3.446  49.189 -22.304  1.00  0.00     0.016 C 
HETATM   12  C19 UNL     1      -6.701  48.170 -19.465  1.00  0.00    -0.015 C 
HETATM   13  C20 UNL     1      -5.419  48.021 -18.608  1.00  0.00     0.020 C 
HETATM   14  C21 UNL     1      -7.703  49.105 -18.725  1.00  0.00     0.021 C 
HETATM   15  C22 UNL     1      -8.635  48.425 -17.725  1.00  0.00     0.080 C 
HETATM   16  C23 UNL     1      -8.142  47.070 -17.279  1.00  0.00     0.135 C 
HETATM   17  O1  UNL     1      -8.065  46.796 -16.081  1.00  0.00    -0.297 OA
HETATM   18  C24 UNL     1      -7.842  46.044 -18.379  1.00  0.00     0.018 C 
HETATM   19  C25 UNL     1      -9.150  45.259 -18.620  1.00  0.00     0.023 C 
HETATM   20  C26 UNL     1      -6.790  45.037 -17.873  1.00  0.00     0.023 C 
HETATM   21  C27 UNL     1      -7.431  46.797 -19.691  1.00  0.00     0.016 C 
HETATM   22  C28 UNL     1      -6.648  45.925 -20.683  1.00  0.00     0.043 C 
HETATM   23  C29 UNL     1      -6.548  46.607 -22.045  1.00  0.00     0.148 C 
ENDROOT
BRANCH   1  24
HETATM   24  C6  UNL     1      -3.074  51.201 -24.626  1.00  0.00    -0.014 C 
HETATM   25  C7  UNL     1      -2.722  52.121 -23.449  1.00  0.00     0.010 C 
BRANCH  24  26
HETATM   26  C5  UNL     1      -1.860  50.290 -24.959  1.00  0.00     0.008 C 
BRANCH  26  27
HETATM   27  C4  UNL     1      -0.546  51.050 -25.171  1.00  0.00     0.028 C 
BRANCH  27  28
HETATM   28  C3  UNL     1      -0.584  51.849 -26.445  1.00  0.00    -0.022 C 
HETATM   29  C2  UNL     1      -0.338  53.168 -26.595  1.00  0.00    -0.064 C 
HETATM   30  C1  UNL     1       0.093  54.085 -25.482  1.00  0.00     0.045 C 
BRANCH  29  31
HETATM   31  C30 UNL     1      -0.453  53.827 -27.945  1.00  0.00     0.197 C 
BRANCH  31  32
HETATM   32  O3  UNL     1      -1.828  54.014 -28.248  1.00  0.00    -0.397 OA
HETATM   33  H48 UNL     1      -1.862  54.466 -29.106  1.00  0.00     0.209 HD
ENDBRANCH  31  32
ENDBRANCH  29  31
ENDBRANCH  27  28
ENDBRANCH  26  27
ENDBRANCH  24  26
ENDBRANCH   1  24
BRANCH  23  34
HETATM   34  O2  UNL     1      -7.801  46.434 -22.703  1.00  0.00    -0.391 OA
HETATM   35  H45 UNL     1      -7.642  46.552 -23.652  1.00  0.00     0.210 HD
ENDBRANCH  23  34
TORSDOF 7
ENDMDL
