MODEL 1
REMARK minimizedAffinity -11.8060017
REMARK CNNscore 0.50319463
REMARK CNNaffinity 7.5939889
REMARK  12 active torsions:
REMARK  status: ('A' for Active; 'I' for Inactive)
REMARK    1  A    between atoms: C2_2  and  C3_3 
REMARK    2  A    between atoms: C4_4  and  C18_19 
REMARK    3  A    between atoms: C19_20  and  O1_21 
REMARK    4  A    between atoms: N2_22  and  C20_23 
REMARK    5  A    between atoms: C20_23  and  C21_24 
REMARK    6  A    between atoms: C21_24  and  O3_26 
REMARK    7  A    between atoms: O3_26  and  C22_27 
REMARK    8  A    between atoms: C25_30  and  C26_31 
REMARK    9  A    between atoms: C32_38  and  C33_39 
REMARK   10  A    between atoms: C39_47  and  O7_48 
REMARK   11  A    between atoms: C43_52  and  O8_53 
REMARK   12  A    between atoms: C45_55  and  O9_56 
ROOT
HETATM    1  C22 UNL     1      -3.402  48.870 -26.132  1.00  0.00     0.135 C 
HETATM    2  C23 UNL     1      -2.411  50.023 -26.253  1.00  0.00     0.034 C 
HETATM    3  C24 UNL     1      -1.730  50.300 -24.925  1.00  0.00     0.022 C 
HETATM    4  C25 UNL     1      -2.731  50.846 -23.863  1.00  0.00     0.048 C 
HETATM    5  C27 UNL     1      -2.146  50.663 -22.415  1.00  0.00     0.011 C 
HETATM    6  C28 UNL     1      -0.680  51.110 -22.232  1.00  0.00     0.007 C 
HETATM    7  C29 UNL     1      -0.432  51.999 -21.019  1.00  0.00     0.013 C 
HETATM    8  C30 UNL     1      -1.060  51.512 -19.681  1.00  0.00    -0.005 C 
HETATM    9  C31 UNL     1      -0.926  52.711 -18.711  1.00  0.00     0.019 C 
HETATM   10  C32 UNL     1      -0.297  50.226 -19.174  1.00  0.00     0.028 C 
HETATM   11  C37 UNL     1      -1.218  49.053 -19.537  1.00  0.00     0.013 C 
HETATM   12  C38 UNL     1      -2.626  49.601 -19.415  1.00  0.00     0.040 C 
HETATM   13  C39 UNL     1      -2.563  51.065 -19.887  1.00  0.00     0.070 C 
HETATM   14  C40 UNL     1      -3.072  51.292 -21.346  1.00  0.00     0.026 C 
HETATM   15  C41 UNL     1      -4.557  50.916 -21.566  1.00  0.00     0.011 C 
HETATM   16  C42 UNL     1      -4.753  49.794 -22.580  1.00  0.00     0.039 C 
HETATM   17  C43 UNL     1      -4.127  50.102 -23.966  1.00  0.00     0.074 C 
HETATM   18  C44 UNL     1      -4.018  48.758 -24.729  1.00  0.00     0.071 C 
ENDROOT
BRANCH   1  19
HETATM   19  O3  UNL     1      -4.410  49.083 -27.145  1.00  0.00    -0.315 OA
BRANCH  19  20
HETATM   20  C21 UNL     1      -4.542  48.108 -28.082  1.00  0.00     0.285 C 
HETATM   21  O2  UNL     1      -3.636  47.683 -28.786  1.00  0.00    -0.263 OA
BRANCH  20  22
HETATM   22  C20 UNL     1      -5.974  47.599 -28.132  1.00  0.00     0.352 C 
BRANCH  22  23
HETATM   23  N2  UNL     1      -6.644  47.464 -29.560  1.00  0.00    -0.021 N 
HETATM   24  C6  UNL     1      -7.967  48.312 -29.547  1.00  0.00     0.214 C 
HETATM   25  C5  UNL     1      -8.349  48.587 -31.015  1.00  0.00     0.041 C 
HETATM   26  C7  UNL     1      -9.141  47.552 -28.856  1.00  0.00     0.109 C 
HETATM   27  C4  UNL     1      -7.726  47.508 -31.909  1.00  0.00     0.004 C 
HETATM   28  C3  UNL     1      -6.226  47.875 -32.016  1.00  0.00     0.047 C 
HETATM   29  C45 UNL     1      -5.650  48.024 -30.578  1.00  0.00     0.329 C 
HETATM   30  N1  UNL     1      -9.155  47.601 -27.368  1.00  0.00    -0.279 NA
HETATM   31  C15 UNL     1      -9.186  46.030 -29.214  1.00  0.00     0.035 C 
HETATM   32  C8  UNL     1      -9.527  48.859 -26.720  1.00  0.00     0.117 C 
HETATM   33  C9  UNL     1     -10.078  46.525 -27.099  1.00  0.00     0.018 A 
HETATM   34  C10 UNL     1     -10.817  46.312 -25.948  1.00  0.00     0.024 A 
HETATM   35  C14 UNL     1     -10.172  45.616 -28.178  1.00  0.00    -0.024 A 
HETATM   36  C11 UNL     1     -11.686  45.214 -25.903  1.00  0.00     0.002 A 
HETATM   37  C12 UNL     1     -11.798  44.339 -26.993  1.00  0.00     0.001 A 
HETATM   38  C13 UNL     1     -11.027  44.527 -28.141  1.00  0.00     0.010 A 
HETATM   39  C16 UNL     1      -7.845  45.341 -28.947  1.00  0.00     0.053 C 
HETATM   40  C19 UNL     1      -9.337  45.821 -30.729  1.00  0.00     0.139 C 
HETATM   41  C17 UNL     1      -6.985  46.013 -29.987  1.00  0.00     0.203 C 
HETATM   42  C18 UNL     1      -7.897  46.114 -31.257  1.00  0.00     0.051 C 
BRANCH  28  43
HETATM   43  C2  UNL     1      -5.384  46.900 -32.862  1.00  0.00     0.005 C 
HETATM   44  C1  UNL     1      -4.056  47.489 -33.321  1.00  0.00     0.005 C 
ENDBRANCH  28  43
BRANCH  29  45
HETATM   45  O9  UNL     1      -5.374  49.383 -30.312  1.00  0.00    -0.369 OA
HETATM   46  H59 UNL     1      -4.657  49.664 -30.912  1.00  0.00     0.212 HD
ENDBRANCH  29  45
BRANCH  40  47
HETATM   47  O1  UNL     1      -9.617  44.455 -31.020  1.00  0.00    -0.394 OA
HETATM   48  H24 UNL     1     -10.014  44.398 -31.911  1.00  0.00     0.210 HD
ENDBRANCH  40  47
ENDBRANCH  22  23
ENDBRANCH  20  22
ENDBRANCH  19  20
ENDBRANCH   1  19
BRANCH  17  49
HETATM   49  O8  UNL     1      -5.074  50.879 -24.726  1.00  0.00    -0.389 OA
HETATM   50  H55 UNL     1      -5.714  51.284 -24.107  1.00  0.00     0.210 HD
ENDBRANCH  17  49
BRANCH   4  51
HETATM   51  C26 UNL     1      -2.898  52.357 -24.116  1.00  0.00     0.244 C 
HETATM   52  O4  UNL     1      -2.077  53.060 -24.695  1.00  0.00    -0.306 OA
ENDBRANCH   4  51
BRANCH  13  53
HETATM   53  O7  UNL     1      -3.421  51.846 -19.044  1.00  0.00    -0.389 OA
HETATM   54  H49 UNL     1      -4.170  51.307 -18.741  1.00  0.00     0.210 HD
ENDBRANCH  13  53
BRANCH  10  55
HETATM   55  C33 UNL     1       0.127  50.209 -17.726  1.00  0.00    -0.045 A 
HETATM   56  C34 UNL     1       0.920  51.051 -17.060  1.00  0.00     0.087 A 
HETATM   57  C35 UNL     1       0.993  50.582 -15.678  1.00  0.00     0.283 A 
HETATM   58  O5  UNL     1       1.652  51.117 -14.805  1.00  0.00    -0.260 OA
HETATM   59  O6  UNL     1       0.209  49.483 -15.538  1.00  0.00    -0.314 OA
HETATM   60  C36 UNL     1      -0.397  49.178 -16.795  1.00  0.00     0.213 A 
ENDBRANCH  10  55
TORSDOF 12
ENDMDL
MODEL 2
REMARK minimizedAffinity -9.83060265
REMARK CNNscore 0.421587646
REMARK CNNaffinity 7.33813858
REMARK  12 active torsions:
REMARK  status: ('A' for Active; 'I' for Inactive)
REMARK    1  A    between atoms: C2_2  and  C3_3 
REMARK    2  A    between atoms: C4_4  and  C18_19 
REMARK    3  A    between atoms: C19_20  and  O1_21 
REMARK    4  A    between atoms: N2_22  and  C20_23 
REMARK    5  A    between atoms: C20_23  and  C21_24 
REMARK    6  A    between atoms: C21_24  and  O3_26 
REMARK    7  A    between atoms: O3_26  and  C22_27 
REMARK    8  A    between atoms: C25_30  and  C26_31 
REMARK    9  A    between atoms: C32_38  and  C33_39 
REMARK   10  A    between atoms: C39_47  and  O7_48 
REMARK   11  A    between atoms: C43_52  and  O8_53 
REMARK   12  A    between atoms: C45_55  and  O9_56 
ROOT
HETATM    1  C22 UNL     1       0.027  53.271 -10.920  1.00  0.00     0.135 C 
HETATM    2  C23 UNL     1       0.539  52.289  -9.870  1.00  0.00     0.034 C 
HETATM    3  C24 UNL     1       1.072  53.022  -8.652  1.00  0.00     0.022 C 
HETATM    4  C25 UNL     1       2.357  53.839  -8.982  1.00  0.00     0.048 C 
HETATM    5  C27 UNL     1       2.601  54.940  -7.887  1.00  0.00     0.011 C 
HETATM    6  C28 UNL     1       2.482  54.458  -6.425  1.00  0.00     0.007 C 
HETATM    7  C29 UNL     1       3.632  54.882  -5.520  1.00  0.00     0.013 C 
HETATM    8  C30 UNL     1       4.046  56.380  -5.604  1.00  0.00    -0.005 C 
HETATM    9  C31 UNL     1       5.391  56.472  -4.842  1.00  0.00     0.019 C 
HETATM   10  C32 UNL     1       2.917  57.279  -4.964  1.00  0.00     0.028 C 
HETATM   11  C37 UNL     1       2.155  57.865  -6.160  1.00  0.00     0.013 C 
HETATM   12  C38 UNL     1       3.197  58.038  -7.248  1.00  0.00     0.040 C 
HETATM   13  C39 UNL     1       4.169  56.853  -7.107  1.00  0.00     0.070 C 
HETATM   14  C40 UNL     1       3.927  55.698  -8.132  1.00  0.00     0.026 C 
HETATM   15  C41 UNL     1       4.096  56.118  -9.612  1.00  0.00     0.011 C 
HETATM   16  C42 UNL     1       2.819  55.966 -10.433  1.00  0.00     0.039 C 
HETATM   17  C43 UNL     1       2.239  54.527 -10.405  1.00  0.00     0.074 C 
HETATM   18  C44 UNL     1       0.771  54.615 -10.893  1.00  0.00     0.071 C 
ENDROOT
BRANCH   1  19
HETATM   19  O3  UNL     1       0.156  52.613 -12.199  1.00  0.00    -0.315 OA
BRANCH  19  20
HETATM   20  C21 UNL     1      -1.002  52.256 -12.816  1.00  0.00     0.285 C 
HETATM   21  O2  UNL     1      -2.091  52.165 -12.267  1.00  0.00    -0.263 OA
BRANCH  20  22
HETATM   22  C20 UNL     1      -0.766  51.995 -14.295  1.00  0.00     0.352 C 
BRANCH  22  23
HETATM   23  N2  UNL     1      -0.814  50.489 -14.781  1.00  0.00    -0.021 N 
HETATM   24  C6  UNL     1       0.579  50.153 -15.426  1.00  0.00     0.214 C 
HETATM   25  C5  UNL     1       0.715  48.617 -15.445  1.00  0.00     0.041 C 
HETATM   26  C7  UNL     1       0.687  50.685 -16.889  1.00  0.00     0.109 C 
HETATM   27  C4  UNL     1      -0.682  47.986 -15.418  1.00  0.00     0.004 C 
HETATM   28  C3  UNL     1      -1.172  48.130 -13.957  1.00  0.00     0.047 C 
HETATM   29  C45 UNL     1      -1.061  49.626 -13.543  1.00  0.00     0.329 C 
HETATM   30  N1  UNL     1       1.029  52.128 -17.027  1.00  0.00    -0.279 NA
HETATM   31  C15 UNL     1      -0.628  50.498 -17.714  1.00  0.00     0.035 C 
HETATM   32  C8  UNL     1       2.398  52.547 -16.723  1.00  0.00     0.117 C 
HETATM   33  C9  UNL     1       0.662  52.333 -18.407  1.00  0.00     0.018 A 
HETATM   34  C10 UNL     1       1.093  53.336 -19.258  1.00  0.00     0.024 A 
HETATM   35  C14 UNL     1      -0.260  51.364 -18.867  1.00  0.00    -0.024 A 
HETATM   36  C11 UNL     1       0.636  53.336 -20.582  1.00  0.00     0.002 A 
HETATM   37  C12 UNL     1      -0.250  52.349 -21.037  1.00  0.00     0.001 A 
HETATM   38  C13 UNL     1      -0.718  51.357 -20.174  1.00  0.00     0.010 A 
HETATM   39  C16 UNL     1      -1.842  51.093 -16.995  1.00  0.00     0.053 C 
HETATM   40  C19 UNL     1      -1.023  49.014 -17.797  1.00  0.00     0.139 C 
HETATM   41  C17 UNL     1      -1.931  50.169 -15.806  1.00  0.00     0.203 C 
HETATM   42  C18 UNL     1      -1.627  48.744 -16.382  1.00  0.00     0.051 C 
BRANCH  28  43
HETATM   43  C2  UNL     1      -2.585  47.575 -13.695  1.00  0.00     0.005 C 
HETATM   44  C1  UNL     1      -3.438  48.482 -12.816  1.00  0.00     0.005 C 
ENDBRANCH  28  43
BRANCH  29  45
HETATM   45  O9  UNL     1      -0.018  49.786 -12.604  1.00  0.00    -0.369 OA
HETATM   46  H59 UNL     1      -0.273  49.308 -11.793  1.00  0.00     0.212 HD
ENDBRANCH  29  45
BRANCH  40  47
HETATM   47  O1  UNL     1      -2.075  48.829 -18.740  1.00  0.00    -0.394 OA
HETATM   48  H24 UNL     1      -2.092  47.891 -19.011  1.00  0.00     0.210 HD
ENDBRANCH  40  47
ENDBRANCH  22  23
ENDBRANCH  20  22
ENDBRANCH  19  20
ENDBRANCH   1  19
BRANCH  17  49
HETATM   49  O8  UNL     1       2.915  53.750 -11.415  1.00  0.00    -0.389 OA
HETATM   50  H55 UNL     1       3.756  54.194 -11.640  1.00  0.00     0.210 HD
ENDBRANCH  17  49
BRANCH   4  51
HETATM   51  C26 UNL     1       3.549  52.864  -8.944  1.00  0.00     0.244 C 
HETATM   52  O4  UNL     1       4.507  52.908  -9.707  1.00  0.00    -0.306 OA
ENDBRANCH   4  51
BRANCH  13  53
HETATM   53  O7  UNL     1       5.498  57.331  -7.359  1.00  0.00    -0.389 OA
HETATM   54  H49 UNL     1       5.473  58.062  -7.998  1.00  0.00     0.210 HD
ENDBRANCH  13  53
BRANCH  10  55
HETATM   55  C33 UNL     1       3.359  58.333  -3.978  1.00  0.00    -0.045 A 
HETATM   56  C34 UNL     1       3.771  59.583  -4.194  1.00  0.00     0.087 A 
HETATM   57  C35 UNL     1       4.068  60.177  -2.893  1.00  0.00     0.283 A 
HETATM   58  O5  UNL     1       4.487  61.309  -2.733  1.00  0.00    -0.260 OA
HETATM   59  O6  UNL     1       3.792  59.274  -1.917  1.00  0.00    -0.314 OA
HETATM   60  C36 UNL     1       3.319  58.068  -2.518  1.00  0.00     0.213 A 
ENDBRANCH  10  55
TORSDOF 12
ENDMDL
MODEL 3
REMARK minimizedAffinity -11.2748175
REMARK CNNscore 0.414477706
REMARK CNNaffinity 7.43333054
REMARK  12 active torsions:
REMARK  status: ('A' for Active; 'I' for Inactive)
REMARK    1  A    between atoms: C2_2  and  C3_3 
REMARK    2  A    between atoms: C4_4  and  C18_19 
REMARK    3  A    between atoms: C19_20  and  O1_21 
REMARK    4  A    between atoms: N2_22  and  C20_23 
REMARK    5  A    between atoms: C20_23  and  C21_24 
REMARK    6  A    between atoms: C21_24  and  O3_26 
REMARK    7  A    between atoms: O3_26  and  C22_27 
REMARK    8  A    between atoms: C25_30  and  C26_31 
REMARK    9  A    between atoms: C32_38  and  C33_39 
REMARK   10  A    between atoms: C39_47  and  O7_48 
REMARK   11  A    between atoms: C43_52  and  O8_53 
REMARK   12  A    between atoms: C45_55  and  O9_56 
ROOT
HETATM    1  C22 UNL     1      -0.012  50.611 -17.212  1.00  0.00     0.135 C 
HETATM    2  C23 UNL     1      -0.414  49.141 -17.300  1.00  0.00     0.034 C 
HETATM    3  C24 UNL     1      -0.873  48.784 -18.702  1.00  0.00     0.022 C 
HETATM    4  C25 UNL     1      -2.203  49.504 -19.079  1.00  0.00     0.048 C 
HETATM    5  C27 UNL     1      -2.393  49.517 -20.639  1.00  0.00     0.011 C 
HETATM    6  C28 UNL     1      -2.149  48.168 -21.348  1.00  0.00     0.007 C 
HETATM    7  C29 UNL     1      -3.239  47.760 -22.332  1.00  0.00     0.013 C 
HETATM    8  C30 UNL     1      -3.701  48.862 -23.329  1.00  0.00    -0.005 C 
HETATM    9  C31 UNL     1      -4.986  48.301 -23.987  1.00  0.00     0.019 C 
HETATM   10  C32 UNL     1      -2.553  49.147 -24.374  1.00  0.00     0.028 C 
HETATM   11  C37 UNL     1      -1.902  50.453 -23.898  1.00  0.00     0.013 C 
HETATM   12  C38 UNL     1      -3.028  51.254 -23.274  1.00  0.00     0.040 C 
HETATM   13  C39 UNL     1      -3.952  50.234 -22.584  1.00  0.00     0.070 C 
HETATM   14  C40 UNL     1      -3.757  50.133 -21.038  1.00  0.00     0.026 C 
HETATM   15  C41 UNL     1      -4.050  51.447 -20.274  1.00  0.00     0.011 C 
HETATM   16  C42 UNL     1      -2.836  52.000 -19.534  1.00  0.00     0.039 C 
HETATM   17  C43 UNL     1      -2.214  50.992 -18.532  1.00  0.00     0.074 C 
HETATM   18  C44 UNL     1      -0.791  51.501 -18.193  1.00  0.00     0.071 C 
ENDROOT
BRANCH   1  19
HETATM   19  O3  UNL     1      -0.220  51.015 -15.841  1.00  0.00    -0.315 OA
BRANCH  19  20
HETATM   20  C21 UNL     1       0.692  51.878 -15.320  1.00  0.00     0.285 C 
HETATM   21  O2  UNL     1       1.594  52.411 -15.950  1.00  0.00    -0.263 OA
BRANCH  20  22
HETATM   22  C20 UNL     1       0.432  52.106 -13.839  1.00  0.00     0.352 C 
BRANCH  22  23
HETATM   23  N2  UNL     1       0.945  50.995 -12.835  1.00  0.00    -0.021 N 
HETATM   24  C6  UNL     1       0.447  51.387 -11.397  1.00  0.00     0.214 C 
HETATM   25  C5  UNL     1       0.504  50.113 -10.529  1.00  0.00     0.041 C 
HETATM   26  C7  UNL     1       1.351  52.480 -10.745  1.00  0.00     0.109 C 
HETATM   27  C4  UNL     1       1.528  49.141 -11.128  1.00  0.00     0.004 C 
HETATM   28  C3  UNL     1       0.832  48.517 -12.362  1.00  0.00     0.047 C 
HETATM   29  C45 UNL     1       0.327  49.668 -13.279  1.00  0.00     0.329 C 
HETATM   30  N1  UNL     1       1.076  53.881 -11.167  1.00  0.00    -0.279 NA
HETATM   31  C15 UNL     1       2.876  52.263 -11.019  1.00  0.00     0.035 C 
HETATM   32  C8  UNL     1      -0.141  54.526 -10.673  1.00  0.00     0.117 C 
HETATM   33  C9  UNL     1       2.287  54.515 -10.705  1.00  0.00     0.018 A 
HETATM   34  C10 UNL     1       2.490  55.858 -10.437  1.00  0.00     0.024 A 
HETATM   35  C14 UNL     1       3.348  53.594 -10.547  1.00  0.00    -0.024 A 
HETATM   36  C11 UNL     1       3.743  56.265  -9.963  1.00  0.00     0.002 A 
HETATM   37  C12 UNL     1       4.779  55.337  -9.775  1.00  0.00     0.001 A 
HETATM   38  C13 UNL     1       4.591  53.988 -10.080  1.00  0.00     0.010 A 
HETATM   39  C16 UNL     1       3.172  52.118 -12.514  1.00  0.00     0.053 C 
HETATM   40  C19 UNL     1       3.348  50.903 -10.483  1.00  0.00     0.139 C 
HETATM   41  C17 UNL     1       2.483  50.806 -12.798  1.00  0.00     0.203 C 
HETATM   42  C18 UNL     1       2.803  49.907 -11.555  1.00  0.00     0.051 C 
BRANCH  28  43
HETATM   43  C2  UNL     1       1.696  47.509 -13.145  1.00  0.00     0.005 C 
HETATM   44  C1  UNL     1       1.309  47.395 -14.615  1.00  0.00     0.005 C 
ENDBRANCH  28  43
BRANCH  29  45
HETATM   45  O9  UNL     1      -1.083  49.732 -13.234  1.00  0.00    -0.369 OA
HETATM   46  H59 UNL     1      -1.430  48.911 -13.629  1.00  0.00     0.212 HD
ENDBRANCH  29  45
BRANCH  40  47
HETATM   47  O1  UNL     1       4.770  50.816 -10.519  1.00  0.00    -0.394 OA
HETATM   48  H24 UNL     1       5.058  50.115  -9.904  1.00  0.00     0.210 HD
ENDBRANCH  40  47
ENDBRANCH  22  23
ENDBRANCH  20  22
ENDBRANCH  19  20
ENDBRANCH   1  19
BRANCH  17  49
HETATM   49  O8  UNL     1      -2.942  51.083 -17.291  1.00  0.00    -0.389 OA
HETATM   50  H55 UNL     1      -3.811  51.496 -17.468  1.00  0.00     0.210 HD
ENDBRANCH  17  49
BRANCH   4  51
HETATM   51  C26 UNL     1      -3.360  48.690 -18.469  1.00  0.00     0.244 C 
HETATM   52  O4  UNL     1      -3.296  47.501 -18.178  1.00  0.00    -0.306 OA
ENDBRANCH   4  51
BRANCH  13  53
HETATM   53  O7  UNL     1      -5.310  50.653 -22.783  1.00  0.00    -0.389 OA
HETATM   54  H49 UNL     1      -5.355  51.622 -22.833  1.00  0.00     0.210 HD
ENDBRANCH  13  53
BRANCH  10  55
HETATM   55  C33 UNL     1      -2.948  49.188 -25.830  1.00  0.00    -0.045 A 
HETATM   56  C34 UNL     1      -3.768  48.389 -26.514  1.00  0.00     0.087 A 
HETATM   57  C35 UNL     1      -3.808  48.877 -27.890  1.00  0.00     0.283 A 
HETATM   58  O5  UNL     1      -4.451  48.358 -28.785  1.00  0.00    -0.260 OA
HETATM   59  O6  UNL     1      -3.033  49.986 -27.993  1.00  0.00    -0.314 OA
HETATM   60  C36 UNL     1      -2.453  50.270 -26.718  1.00  0.00     0.213 A 
ENDBRANCH  10  55
TORSDOF 12
ENDMDL
MODEL 4
REMARK minimizedAffinity -9.56059837
REMARK CNNscore 0.398006171
REMARK CNNaffinity 6.32609415
REMARK  12 active torsions:
REMARK  status: ('A' for Active; 'I' for Inactive)
REMARK    1  A    between atoms: C2_2  and  C3_3 
REMARK    2  A    between atoms: C4_4  and  C18_19 
REMARK    3  A    between atoms: C19_20  and  O1_21 
REMARK    4  A    between atoms: N2_22  and  C20_23 
REMARK    5  A    between atoms: C20_23  and  C21_24 
REMARK    6  A    between atoms: C21_24  and  O3_26 
REMARK    7  A    between atoms: O3_26  and  C22_27 
REMARK    8  A    between atoms: C25_30  and  C26_31 
REMARK    9  A    between atoms: C32_38  and  C33_39 
REMARK   10  A    between atoms: C39_47  and  O7_48 
REMARK   11  A    between atoms: C43_52  and  O8_53 
REMARK   12  A    between atoms: C45_55  and  O9_56 
ROOT
HETATM    1  C22 UNL     1      -8.581  46.688 -22.037  1.00  0.00     0.135 C 
HETATM    2  C23 UNL     1      -7.443  45.964 -22.751  1.00  0.00     0.034 C 
HETATM    3  C24 UNL     1      -6.110  46.637 -22.477  1.00  0.00     0.022 C 
HETATM    4  C25 UNL     1      -6.036  48.058 -23.113  1.00  0.00     0.048 C 
HETATM    5  C27 UNL     1      -4.900  48.903 -22.430  1.00  0.00     0.011 C 
HETATM    6  C28 UNL     1      -3.546  48.182 -22.267  1.00  0.00     0.007 C 
HETATM    7  C29 UNL     1      -2.336  48.986 -22.729  1.00  0.00     0.013 C 
HETATM    8  C30 UNL     1      -2.271  50.460 -22.233  1.00  0.00    -0.005 C 
HETATM    9  C31 UNL     1      -1.148  51.120 -23.070  1.00  0.00     0.019 C 
HETATM   10  C32 UNL     1      -1.975  50.485 -20.683  1.00  0.00     0.028 C 
HETATM   11  C37 UNL     1      -3.332  50.775 -20.027  1.00  0.00     0.013 C 
HETATM   12  C38 UNL     1      -4.064  51.668 -21.009  1.00  0.00     0.040 C 
HETATM   13  C39 UNL     1      -3.665  51.184 -22.415  1.00  0.00     0.070 C 
HETATM   14  C40 UNL     1      -4.733  50.283 -23.112  1.00  0.00     0.026 C 
HETATM   15  C41 UNL     1      -6.093  50.983 -23.354  1.00  0.00     0.011 C 
HETATM   16  C42 UNL     1      -7.253  50.320 -22.620  1.00  0.00     0.039 C 
HETATM   17  C43 UNL     1      -7.421  48.816 -22.964  1.00  0.00     0.074 C 
HETATM   18  C44 UNL     1      -8.315  48.191 -21.864  1.00  0.00     0.071 C 
ENDROOT
BRANCH   1  19
HETATM   19  O3  UNL     1      -9.777  46.440 -22.808  1.00  0.00    -0.315 OA
BRANCH  19  20
HETATM   20  C21 UNL     1     -10.855  45.980 -22.121  1.00  0.00     0.285 C 
HETATM   21  O2  UNL     1     -10.882  44.948 -21.465  1.00  0.00    -0.263 OA
BRANCH  20  22
HETATM   22  C20 UNL     1     -12.032  46.931 -22.266  1.00  0.00     0.352 C 
BRANCH  22  23
HETATM   23  N2  UNL     1     -13.439  46.425 -21.746  1.00  0.00    -0.021 N 
HETATM   24  C6  UNL     1     -13.555  44.897 -22.098  1.00  0.00     0.214 C 
HETATM   25  C5  UNL     1     -14.652  44.301 -21.193  1.00  0.00     0.041 C 
HETATM   26  C7  UNL     1     -13.956  44.671 -23.589  1.00  0.00     0.109 C 
HETATM   27  C4  UNL     1     -15.606  45.419 -20.752  1.00  0.00     0.004 C 
HETATM   28  C3  UNL     1     -14.843  46.205 -19.659  1.00  0.00     0.047 C 
HETATM   29  C45 UNL     1     -13.461  46.636 -20.232  1.00  0.00     0.329 C 
HETATM   30  N1  UNL     1     -12.846  44.762 -24.577  1.00  0.00    -0.279 NA
HETATM   31  C15 UNL     1     -15.037  45.680 -24.097  1.00  0.00     0.035 C 
HETATM   32  C8  UNL     1     -11.870  43.672 -24.624  1.00  0.00     0.117 C 
HETATM   33  C9  UNL     1     -13.612  44.896 -25.791  1.00  0.00     0.018 A 
HETATM   34  C10 UNL     1     -13.200  44.631 -27.086  1.00  0.00     0.024 A 
HETATM   35  C14 UNL     1     -14.921  45.373 -25.550  1.00  0.00    -0.024 A 
HETATM   36  C11 UNL     1     -14.119  44.799 -28.130  1.00  0.00     0.002 A 
HETATM   37  C12 UNL     1     -15.427  45.238 -27.875  1.00  0.00     0.001 A 
HETATM   38  C13 UNL     1     -15.836  45.542 -26.576  1.00  0.00     0.010 A 
HETATM   39  C16 UNL     1     -14.624  47.133 -23.848  1.00  0.00     0.053 C 
HETATM   40  C19 UNL     1     -16.323  45.583 -23.260  1.00  0.00     0.139 C 
HETATM   41  C17 UNL     1     -14.662  47.169 -22.341  1.00  0.00     0.203 C 
HETATM   42  C18 UNL     1     -15.934  46.341 -21.951  1.00  0.00     0.051 C 
BRANCH  28  43
HETATM   43  C2  UNL     1     -15.612  47.407 -19.077  1.00  0.00     0.005 C 
HETATM   44  C1  UNL     1     -14.728  48.619 -18.810  1.00  0.00     0.005 C 
ENDBRANCH  28  43
BRANCH  29  45
HETATM   45  O9  UNL     1     -12.433  45.896 -19.608  1.00  0.00    -0.369 OA
HETATM   46  H59 UNL     1     -12.416  46.147 -18.665  1.00  0.00     0.212 HD
ENDBRANCH  29  45
BRANCH  40  47
HETATM   47  O1  UNL     1     -17.375  46.323 -23.873  1.00  0.00    -0.394 OA
HETATM   48  H24 UNL     1     -18.229  46.003 -23.524  1.00  0.00     0.210 HD
ENDBRANCH  40  47
ENDBRANCH  22  23
ENDBRANCH  20  22
ENDBRANCH  19  20
ENDBRANCH   1  19
BRANCH  17  49
HETATM   49  O8  UNL     1      -8.200  48.715 -24.172  1.00  0.00    -0.389 OA
HETATM   50  H55 UNL     1      -8.163  49.572 -24.641  1.00  0.00     0.210 HD
ENDBRANCH  17  49
BRANCH   4  51
HETATM   51  C26 UNL     1      -5.667  47.884 -24.598  1.00  0.00     0.244 C 
HETATM   52  O4  UNL     1      -6.474  47.664 -25.494  1.00  0.00    -0.306 OA
ENDBRANCH   4  51
BRANCH  13  53
HETATM   53  O7  UNL     1      -3.508  52.334 -23.258  1.00  0.00    -0.389 OA
HETATM   54  H49 UNL     1      -4.115  53.038 -22.975  1.00  0.00     0.210 HD
ENDBRANCH  13  53
BRANCH  10  55
HETATM   55  C33 UNL     1      -0.886  51.417 -20.210  1.00  0.00    -0.045 A 
HETATM   56  C34 UNL     1      -0.359  52.486 -20.808  1.00  0.00     0.087 A 
HETATM   57  C35 UNL     1       0.656  53.034 -19.912  1.00  0.00     0.283 A 
HETATM   58  O5  UNL     1       1.344  54.006 -20.164  1.00  0.00    -0.260 OA
HETATM   59  O6  UNL     1       0.690  52.296 -18.773  1.00  0.00    -0.314 OA
HETATM   60  C36 UNL     1      -0.275  51.246 -18.867  1.00  0.00     0.213 A 
ENDBRANCH  10  55
TORSDOF 12
ENDMDL
MODEL 5
REMARK minimizedAffinity -9.35273075
REMARK CNNscore 0.38768965
REMARK CNNaffinity 7.41944122
REMARK  12 active torsions:
REMARK  status: ('A' for Active; 'I' for Inactive)
REMARK    1  A    between atoms: C2_2  and  C3_3 
REMARK    2  A    between atoms: C4_4  and  C18_19 
REMARK    3  A    between atoms: C19_20  and  O1_21 
REMARK    4  A    between atoms: N2_22  and  C20_23 
REMARK    5  A    between atoms: C20_23  and  C21_24 
REMARK    6  A    between atoms: C21_24  and  O3_26 
REMARK    7  A    between atoms: O3_26  and  C22_27 
REMARK    8  A    between atoms: C25_30  and  C26_31 
REMARK    9  A    between atoms: C32_38  and  C33_39 
REMARK   10  A    between atoms: C39_47  and  O7_48 
REMARK   11  A    between atoms: C43_52  and  O8_53 
REMARK   12  A    between atoms: C45_55  and  O9_56 
ROOT
HETATM    1  C22 UNL     1       0.492  53.024 -11.238  1.00  0.00     0.135 C 
HETATM    2  C23 UNL     1      -0.055  54.418 -10.944  1.00  0.00     0.034 C 
HETATM    3  C24 UNL     1       0.932  55.229 -10.123  1.00  0.00     0.022 C 
HETATM    4  C25 UNL     1       1.112  54.645  -8.689  1.00  0.00     0.048 C 
HETATM    5  C27 UNL     1       2.447  55.172  -8.048  1.00  0.00     0.011 C 
HETATM    6  C28 UNL     1       2.689  56.691  -8.178  1.00  0.00     0.007 C 
HETATM    7  C29 UNL     1       3.096  57.383  -6.883  1.00  0.00     0.013 C 
HETATM    8  C30 UNL     1       4.220  56.686  -6.064  1.00  0.00    -0.005 C 
HETATM    9  C31 UNL     1       4.225  57.401  -4.691  1.00  0.00     0.019 C 
HETATM   10  C32 UNL     1       5.595  56.821  -6.829  1.00  0.00     0.028 C 
HETATM   11  C37 UNL     1       5.815  55.452  -7.487  1.00  0.00     0.013 C 
HETATM   12  C38 UNL     1       5.194  54.449  -6.535  1.00  0.00     0.040 C 
HETATM   13  C39 UNL     1       3.952  55.133  -5.936  1.00  0.00     0.070 C 
HETATM   14  C40 UNL     1       2.600  54.693  -6.585  1.00  0.00     0.026 C 
HETATM   15  C41 UNL     1       2.283  53.186  -6.428  1.00  0.00     0.011 C 
HETATM   16  C42 UNL     1       2.181  52.447  -7.758  1.00  0.00     0.039 C 
HETATM   17  C43 UNL     1       1.132  53.060  -8.723  1.00  0.00     0.074 C 
HETATM   18  C44 UNL     1       1.434  52.509 -10.139  1.00  0.00     0.071 C 
ENDROOT
BRANCH   1  19
HETATM   19  O3  UNL     1      -0.652  52.159 -11.411  1.00  0.00    -0.315 OA
BRANCH  19  20
HETATM   20  C21 UNL     1      -1.260  52.196 -12.626  1.00  0.00     0.285 C 
HETATM   21  O2  UNL     1      -2.420  52.530 -12.822  1.00  0.00    -0.263 OA
BRANCH  20  22
HETATM   22  C20 UNL     1      -0.295  51.776 -13.724  1.00  0.00     0.352 C 
BRANCH  22  23
HETATM   23  N2  UNL     1      -0.365  50.271 -14.212  1.00  0.00    -0.021 N 
HETATM   24  C6  UNL     1       0.954  49.969 -15.012  1.00  0.00     0.214 C 
HETATM   25  C5  UNL     1       1.120  48.436 -15.057  1.00  0.00     0.041 C 
HETATM   26  C7  UNL     1       0.886  50.511 -16.474  1.00  0.00     0.109 C 
HETATM   27  C4  UNL     1      -0.252  47.775 -14.878  1.00  0.00     0.004 C 
HETATM   28  C3  UNL     1      -0.577  47.900 -13.370  1.00  0.00     0.047 C 
HETATM   29  C45 UNL     1      -0.453  49.397 -12.961  1.00  0.00     0.329 C 
HETATM   30  N1  UNL     1       1.179  51.961 -16.639  1.00  0.00    -0.279 NA
HETATM   31  C15 UNL     1      -0.510  50.298 -17.147  1.00  0.00     0.035 C 
HETATM   32  C8  UNL     1       2.564  52.409 -16.487  1.00  0.00     0.117 C 
HETATM   33  C9  UNL     1       0.655  52.164 -17.968  1.00  0.00     0.018 A 
HETATM   34  C10 UNL     1       0.966  53.181 -18.854  1.00  0.00     0.024 A 
HETATM   35  C14 UNL     1      -0.291  51.178 -18.328  1.00  0.00    -0.024 A 
HETATM   36  C11 UNL     1       0.364  53.177 -20.119  1.00  0.00     0.002 A 
HETATM   37  C12 UNL     1      -0.547  52.172 -20.479  1.00  0.00     0.001 A 
HETATM   38  C13 UNL     1      -0.893  51.166 -19.576  1.00  0.00     0.010 A 
HETATM   39  C16 UNL     1      -1.648  50.863 -16.293  1.00  0.00     0.053 C 
HETATM   40  C19 UNL     1      -0.879  48.806 -17.196  1.00  0.00     0.139 C 
HETATM   41  C17 UNL     1      -1.583  49.931 -15.108  1.00  0.00     0.203 C 
HETATM   42  C18 UNL     1      -1.314  48.516 -15.725  1.00  0.00     0.051 C 
BRANCH  28  43
HETATM   43  C2  UNL     1      -1.941  47.313 -12.956  1.00  0.00     0.005 C 
HETATM   44  C1  UNL     1      -1.927  45.796 -12.811  1.00  0.00     0.005 C 
ENDBRANCH  28  43
BRANCH  29  45
HETATM   45  O9  UNL     1       0.685  49.576 -12.144  1.00  0.00    -0.369 OA
HETATM   46  H59 UNL     1       0.533  49.088 -11.312  1.00  0.00     0.212 HD
ENDBRANCH  29  45
BRANCH  40  47
HETATM   47  O1  UNL     1      -2.026  48.602 -18.017  1.00  0.00    -0.394 OA
HETATM   48  H24 UNL     1      -2.054  47.665 -18.291  1.00  0.00     0.210 HD
ENDBRANCH  40  47
ENDBRANCH  22  23
ENDBRANCH  20  22
ENDBRANCH  19  20
ENDBRANCH   1  19
BRANCH  17  49
HETATM   49  O8  UNL     1      -0.160  52.517  -8.386  1.00  0.00    -0.389 OA
HETATM   50  H55 UNL     1      -0.124  52.165  -7.475  1.00  0.00     0.210 HD
ENDBRANCH  17  49
BRANCH   4  51
HETATM   51  C26 UNL     1      -0.059  55.157  -7.829  1.00  0.00     0.244 C 
HETATM   52  O4  UNL     1      -0.500  56.300  -7.864  1.00  0.00    -0.306 OA
ENDBRANCH   4  51
BRANCH  13  53
HETATM   53  O7  UNL     1       3.862  54.768  -4.552  1.00  0.00    -0.389 OA
HETATM   54  H49 UNL     1       4.225  53.876  -4.419  1.00  0.00     0.210 HD
ENDBRANCH  13  53
BRANCH  10  55
HETATM   55  C33 UNL     1       6.784  57.279  -6.022  1.00  0.00    -0.045 A 
HETATM   56  C34 UNL     1       7.016  58.456  -5.438  1.00  0.00     0.087 A 
HETATM   57  C35 UNL     1       8.315  58.367  -4.775  1.00  0.00     0.283 A 
HETATM   58  O5  UNL     1       8.837  59.280  -4.161  1.00  0.00    -0.260 OA
HETATM   59  O6  UNL     1       8.820  57.119  -4.948  1.00  0.00    -0.314 OA
HETATM   60  C36 UNL     1       7.901  56.347  -5.723  1.00  0.00     0.213 A 
ENDBRANCH  10  55
TORSDOF 12
ENDMDL
MODEL 6
REMARK minimizedAffinity -10.4461994
REMARK CNNscore 0.354508758
REMARK CNNaffinity 6.74474955
REMARK  12 active torsions:
REMARK  status: ('A' for Active; 'I' for Inactive)
REMARK    1  A    between atoms: C2_2  and  C3_3 
REMARK    2  A    between atoms: C4_4  and  C18_19 
REMARK    3  A    between atoms: C19_20  and  O1_21 
REMARK    4  A    between atoms: N2_22  and  C20_23 
REMARK    5  A    between atoms: C20_23  and  C21_24 
REMARK    6  A    between atoms: C21_24  and  O3_26 
REMARK    7  A    between atoms: O3_26  and  C22_27 
REMARK    8  A    between atoms: C25_30  and  C26_31 
REMARK    9  A    between atoms: C32_38  and  C33_39 
REMARK   10  A    between atoms: C39_47  and  O7_48 
REMARK   11  A    between atoms: C43_52  and  O8_53 
REMARK   12  A    between atoms: C45_55  and  O9_56 
ROOT
HETATM    1  C22 UNL     1      -5.712  48.136 -20.098  1.00  0.00     0.135 C 
HETATM    2  C23 UNL     1      -5.979  47.294 -21.342  1.00  0.00     0.034 C 
HETATM    3  C24 UNL     1      -5.031  47.667 -22.467  1.00  0.00     0.022 C 
HETATM    4  C25 UNL     1      -5.294  49.110 -22.994  1.00  0.00     0.048 C 
HETATM    5  C27 UNL     1      -4.040  49.642 -23.779  1.00  0.00     0.011 C 
HETATM    6  C28 UNL     1      -3.440  48.663 -24.809  1.00  0.00     0.007 C 
HETATM    7  C29 UNL     1      -3.169  49.269 -26.181  1.00  0.00     0.013 C 
HETATM    8  C30 UNL     1      -2.430  50.638 -26.184  1.00  0.00    -0.005 C 
HETATM    9  C31 UNL     1      -2.554  51.162 -27.636  1.00  0.00     0.019 C 
HETATM   10  C32 UNL     1      -0.931  50.433 -25.734  1.00  0.00     0.028 C 
HETATM   11  C37 UNL     1      -0.893  50.900 -24.272  1.00  0.00     0.013 C 
HETATM   12  C38 UNL     1      -1.910  52.021 -24.186  1.00  0.00     0.040 C 
HETATM   13  C39 UNL     1      -3.063  51.630 -25.128  1.00  0.00     0.070 C 
HETATM   14  C40 UNL     1      -4.311  51.032 -24.403  1.00  0.00     0.026 C 
HETATM   15  C41 UNL     1      -4.987  52.000 -23.402  1.00  0.00     0.011 C 
HETATM   16  C42 UNL     1      -4.970  51.492 -21.964  1.00  0.00     0.039 C 
HETATM   17  C43 UNL     1      -5.626  50.096 -21.798  1.00  0.00     0.074 C 
HETATM   18  C44 UNL     1      -5.164  49.533 -20.430  1.00  0.00     0.071 C 
ENDROOT
BRANCH   1  19
HETATM   19  O3  UNL     1      -6.959  48.209 -19.372  1.00  0.00    -0.315 OA
BRANCH  19  20
HETATM   20  C21 UNL     1      -7.898  47.278 -19.687  1.00  0.00     0.285 C 
HETATM   21  O2  UNL     1      -7.678  46.230 -20.278  1.00  0.00    -0.263 OA
BRANCH  20  22
HETATM   22  C20 UNL     1      -9.270  47.708 -19.192  1.00  0.00     0.352 C 
BRANCH  22  23
HETATM   23  N2  UNL     1     -10.042  46.705 -18.241  1.00  0.00    -0.021 N 
HETATM   24  C6  UNL     1     -10.336  45.399 -19.065  1.00  0.00     0.214 C 
HETATM   25  C5  UNL     1     -10.625  44.274 -18.051  1.00  0.00     0.041 C 
HETATM   26  C7  UNL     1     -11.575  45.565 -19.999  1.00  0.00     0.109 C 
HETATM   27  C4  UNL     1     -11.109  44.894 -16.734  1.00  0.00     0.004 C 
HETATM   28  C3  UNL     1      -9.840  45.461 -16.054  1.00  0.00     0.047 C 
HETATM   29  C45 UNL     1      -9.119  46.405 -17.060  1.00  0.00     0.329 C 
HETATM   30  N1  UNL     1     -11.321  46.261 -21.290  1.00  0.00    -0.279 NA
HETATM   31  C15 UNL     1     -12.748  46.356 -19.333  1.00  0.00     0.035 C 
HETATM   32  C8  UNL     1     -10.576  45.546 -22.327  1.00  0.00     0.117 C 
HETATM   33  C9  UNL     1     -12.679  46.568 -21.671  1.00  0.00     0.018 A 
HETATM   34  C10 UNL     1     -13.159  46.853 -22.937  1.00  0.00     0.024 A 
HETATM   35  C14 UNL     1     -13.558  46.574 -20.563  1.00  0.00    -0.024 A 
HETATM   36  C11 UNL     1     -14.529  47.094 -23.096  1.00  0.00     0.002 A 
HETATM   37  C12 UNL     1     -15.399  47.062 -21.996  1.00  0.00     0.001 A 
HETATM   38  C13 UNL     1     -14.914  46.813 -20.711  1.00  0.00     0.010 A 
HETATM   39  C16 UNL     1     -12.285  47.707 -18.781  1.00  0.00     0.053 C 
HETATM   40  C19 UNL     1     -13.233  45.656 -18.053  1.00  0.00     0.139 C 
HETATM   41  C17 UNL     1     -11.377  47.245 -17.668  1.00  0.00     0.203 C 
HETATM   42  C18 UNL     1     -12.122  46.028 -17.021  1.00  0.00     0.051 C 
BRANCH  28  43
HETATM   43  C2  UNL     1     -10.092  46.161 -14.704  1.00  0.00     0.005 C 
HETATM   44  C1  UNL     1      -9.947  45.232 -13.505  1.00  0.00     0.005 C 
ENDBRANCH  28  43
BRANCH  29  45
HETATM   45  O9  UNL     1      -7.919  45.807 -17.501  1.00  0.00    -0.369 OA
HETATM   46  H59 UNL     1      -7.322  45.738 -16.732  1.00  0.00     0.212 HD
ENDBRANCH  29  45
BRANCH  40  47
HETATM   47  O1  UNL     1     -14.445  46.244 -17.590  1.00  0.00    -0.394 OA
HETATM   48  H24 UNL     1     -14.894  45.612 -16.995  1.00  0.00     0.210 HD
ENDBRANCH  40  47
ENDBRANCH  22  23
ENDBRANCH  20  22
ENDBRANCH  19  20
ENDBRANCH   1  19
BRANCH  17  49
HETATM   49  O8  UNL     1      -7.049  50.281 -21.657  1.00  0.00    -0.389 OA
HETATM   50  H55 UNL     1      -7.286  51.162 -22.008  1.00  0.00     0.210 HD
ENDBRANCH  17  49
BRANCH   4  51
HETATM   51  C26 UNL     1      -6.473  49.036 -23.982  1.00  0.00     0.244 C 
HETATM   52  O4  UNL     1      -6.655  48.124 -24.780  1.00  0.00    -0.306 OA
ENDBRANCH   4  51
BRANCH  13  53
HETATM   53  O7  UNL     1      -3.523  52.816 -25.791  1.00  0.00    -0.389 OA
HETATM   54  H49 UNL     1      -3.408  53.587 -25.211  1.00  0.00     0.210 HD
ENDBRANCH  13  53
BRANCH  10  55
HETATM   55  C33 UNL     1       0.134  51.082 -26.583  1.00  0.00    -0.045 A 
HETATM   56  C34 UNL     1       1.458  51.102 -26.422  1.00  0.00     0.087 A 
HETATM   57  C35 UNL     1       2.022  51.861 -27.536  1.00  0.00     0.283 A 
HETATM   58  O5  UNL     1       3.210  52.087 -27.682  1.00  0.00    -0.260 OA
HETATM   59  O6  UNL     1       1.019  52.251 -28.364  1.00  0.00    -0.314 OA
HETATM   60  C36 UNL     1      -0.225  51.784 -27.841  1.00  0.00     0.213 A 
ENDBRANCH  10  55
TORSDOF 12
ENDMDL
MODEL 7
REMARK minimizedAffinity -10.4894857
REMARK CNNscore 0.349319637
REMARK CNNaffinity 6.66125107
REMARK  12 active torsions:
REMARK  status: ('A' for Active; 'I' for Inactive)
REMARK    1  A    between atoms: C2_2  and  C3_3 
REMARK    2  A    between atoms: C4_4  and  C18_19 
REMARK    3  A    between atoms: C19_20  and  O1_21 
REMARK    4  A    between atoms: N2_22  and  C20_23 
REMARK    5  A    between atoms: C20_23  and  C21_24 
REMARK    6  A    between atoms: C21_24  and  O3_26 
REMARK    7  A    between atoms: O3_26  and  C22_27 
REMARK    8  A    between atoms: C25_30  and  C26_31 
REMARK    9  A    between atoms: C32_38  and  C33_39 
REMARK   10  A    between atoms: C39_47  and  O7_48 
REMARK   11  A    between atoms: C43_52  and  O8_53 
REMARK   12  A    between atoms: C45_55  and  O9_56 
ROOT
HETATM    1  C22 UNL     1     -10.574  44.810 -27.279  1.00  0.00     0.135 C 
HETATM    2  C23 UNL     1     -10.769  46.131 -26.540  1.00  0.00     0.034 C 
HETATM    3  C24 UNL     1     -12.080  46.140 -25.775  1.00  0.00     0.022 C 
HETATM    4  C25 UNL     1     -13.310  46.123 -26.731  1.00  0.00     0.048 C 
HETATM    5  C27 UNL     1     -14.595  45.649 -25.960  1.00  0.00     0.011 C 
HETATM    6  C28 UNL     1     -14.832  46.322 -24.592  1.00  0.00     0.007 C 
HETATM    7  C29 UNL     1     -16.248  46.844 -24.376  1.00  0.00     0.013 C 
HETATM    8  C30 UNL     1     -17.397  45.862 -24.745  1.00  0.00    -0.005 C 
HETATM    9  C31 UNL     1     -18.686  46.721 -24.726  1.00  0.00     0.019 C 
HETATM   10  C32 UNL     1     -17.437  44.677 -23.704  1.00  0.00     0.028 C 
HETATM   11  C37 UNL     1     -16.773  43.496 -24.426  1.00  0.00     0.013 C 
HETATM   12  C38 UNL     1     -17.134  43.672 -25.888  1.00  0.00     0.040 C 
HETATM   13  C39 UNL     1     -17.141  45.188 -26.152  1.00  0.00     0.070 C 
HETATM   14  C40 UNL     1     -15.854  45.723 -26.858  1.00  0.00     0.026 C 
HETATM   15  C41 UNL     1     -15.605  45.122 -28.263  1.00  0.00     0.011 C 
HETATM   16  C42 UNL     1     -14.303  44.336 -28.362  1.00  0.00     0.039 C 
HETATM   17  C43 UNL     1     -13.052  45.165 -27.967  1.00  0.00     0.074 C 
HETATM   18  C44 UNL     1     -11.903  44.161 -27.699  1.00  0.00     0.071 C 
ENDROOT
BRANCH   1  19
HETATM   19  O3  UNL     1      -9.733  45.093 -28.419  1.00  0.00    -0.315 OA
BRANCH  19  20
HETATM   20  C21 UNL     1      -9.441  44.044 -29.231  1.00  0.00     0.285 C 
HETATM   21  O2  UNL     1      -9.067  42.944 -28.850  1.00  0.00    -0.263 OA
BRANCH  20  22
HETATM   22  C20 UNL     1      -9.655  44.416 -30.690  1.00  0.00     0.352 C 
BRANCH  22  23
HETATM   23  N2  UNL     1      -8.879  45.683 -31.235  1.00  0.00    -0.021 N 
HETATM   24  C6  UNL     1      -8.728  45.516 -32.790  1.00  0.00     0.214 C 
HETATM   25  C5  UNL     1      -8.435  46.913 -33.374  1.00  0.00     0.041 C 
HETATM   26  C7  UNL     1      -7.553  44.559 -33.163  1.00  0.00     0.109 C 
HETATM   27  C4  UNL     1      -7.818  47.797 -32.283  1.00  0.00     0.004 C 
HETATM   28  C3  UNL     1      -8.997  48.202 -31.365  1.00  0.00     0.047 C 
HETATM   29  C45 UNL     1      -9.729  46.909 -30.901  1.00  0.00     0.329 C 
HETATM   30  N1  UNL     1      -7.857  43.104 -33.087  1.00  0.00    -0.279 NA
HETATM   31  C15 UNL     1      -6.287  44.758 -32.266  1.00  0.00     0.035 C 
HETATM   32  C8  UNL     1      -8.719  42.523 -34.117  1.00  0.00     0.117 C 
HETATM   33  C9  UNL     1      -6.515  42.575 -33.100  1.00  0.00     0.018 A 
HETATM   34  C10 UNL     1      -6.112  41.297 -33.446  1.00  0.00     0.024 A 
HETATM   35  C14 UNL     1      -5.558  43.529 -32.685  1.00  0.00    -0.024 A 
HETATM   36  C11 UNL     1      -4.744  40.994 -33.421  1.00  0.00     0.002 A 
HETATM   37  C12 UNL     1      -3.800  41.960 -33.042  1.00  0.00     0.001 A 
HETATM   38  C13 UNL     1      -4.204  43.239 -32.656  1.00  0.00     0.010 A 
HETATM   39  C16 UNL     1      -6.624  44.669 -30.775  1.00  0.00     0.053 C 
HETATM   40  C19 UNL     1      -5.754  46.196 -32.371  1.00  0.00     0.139 C 
HETATM   41  C17 UNL     1      -7.474  45.904 -30.617  1.00  0.00     0.203 C 
HETATM   42  C18 UNL     1      -6.761  46.997 -31.485  1.00  0.00     0.051 C 
BRANCH  28  43
HETATM   43  C2  UNL     1      -8.603  49.088 -30.167  1.00  0.00     0.005 C 
HETATM   44  C1  UNL     1      -9.021  48.508 -28.822  1.00  0.00     0.005 C 
ENDBRANCH  28  43
BRANCH  29  45
HETATM   45  O9  UNL     1     -10.994  46.827 -31.524  1.00  0.00    -0.369 OA
HETATM   46  H59 UNL     1     -11.536  47.567 -31.195  1.00  0.00     0.212 HD
ENDBRANCH  29  45
BRANCH  40  47
HETATM   47  O1  UNL     1      -4.477  46.303 -31.748  1.00  0.00    -0.394 OA
HETATM   48  H24 UNL     1      -4.026  47.099 -32.090  1.00  0.00     0.210 HD
ENDBRANCH  40  47
ENDBRANCH  22  23
ENDBRANCH  20  22
ENDBRANCH  19  20
ENDBRANCH   1  19
BRANCH  17  49
HETATM   49  O8  UNL     1     -12.624  45.912 -29.123  1.00  0.00    -0.389 OA
HETATM   50  H55 UNL     1     -13.370  45.970 -29.752  1.00  0.00     0.210 HD
ENDBRANCH  17  49
BRANCH   4  51
HETATM   51  C26 UNL     1     -13.550  47.570 -27.204  1.00  0.00     0.244 C 
HETATM   52  O4  UNL     1     -12.670  48.411 -27.342  1.00  0.00    -0.306 OA
ENDBRANCH   4  51
BRANCH  13  53
HETATM   53  O7  UNL     1     -18.229  45.485 -27.038  1.00  0.00    -0.389 OA
HETATM   54  H49 UNL     1     -18.386  44.734 -27.634  1.00  0.00     0.210 HD
ENDBRANCH  13  53
BRANCH  10  55
HETATM   55  C33 UNL     1     -18.783  44.323 -23.120  1.00  0.00    -0.045 A 
HETATM   56  C34 UNL     1     -19.817  43.695 -23.681  1.00  0.00     0.087 A 
HETATM   57  C35 UNL     1     -20.871  43.600 -22.674  1.00  0.00     0.283 A 
HETATM   58  O5  UNL     1     -21.963  43.097 -22.866  1.00  0.00    -0.260 OA
HETATM   59  O6  UNL     1     -20.428  44.147 -21.513  1.00  0.00    -0.314 OA
HETATM   60  C36 UNL     1     -19.094  44.624 -21.700  1.00  0.00     0.213 A 
ENDBRANCH  10  55
TORSDOF 12
ENDMDL
MODEL 8
REMARK minimizedAffinity -12.110239
REMARK CNNscore 0.331895888
REMARK CNNaffinity 7.29872513
REMARK  12 active torsions:
REMARK  status: ('A' for Active; 'I' for Inactive)
REMARK    1  A    between atoms: C2_2  and  C3_3 
REMARK    2  A    between atoms: C4_4  and  C18_19 
REMARK    3  A    between atoms: C19_20  and  O1_21 
REMARK    4  A    between atoms: N2_22  and  C20_23 
REMARK    5  A    between atoms: C20_23  and  C21_24 
REMARK    6  A    between atoms: C21_24  and  O3_26 
REMARK    7  A    between atoms: O3_26  and  C22_27 
REMARK    8  A    between atoms: C25_30  and  C26_31 
REMARK    9  A    between atoms: C32_38  and  C33_39 
REMARK   10  A    between atoms: C39_47  and  O7_48 
REMARK   11  A    between atoms: C43_52  and  O8_53 
REMARK   12  A    between atoms: C45_55  and  O9_56 
ROOT
HETATM    1  C22 UNL     1      -3.874  48.598 -25.995  1.00  0.00     0.135 C 
HETATM    2  C23 UNL     1      -2.803  49.660 -26.223  1.00  0.00     0.034 C 
HETATM    3  C24 UNL     1      -2.053  49.964 -24.938  1.00  0.00     0.022 C 
HETATM    4  C25 UNL     1      -2.967  50.652 -23.881  1.00  0.00     0.048 C 
HETATM    5  C27 UNL     1      -2.343  50.513 -22.445  1.00  0.00     0.011 C 
HETATM    6  C28 UNL     1      -0.842  50.853 -22.340  1.00  0.00     0.007 C 
HETATM    7  C29 UNL     1      -0.480  51.792 -21.195  1.00  0.00     0.013 C 
HETATM    8  C30 UNL     1      -1.092  51.439 -19.809  1.00  0.00    -0.005 C 
HETATM    9  C31 UNL     1      -0.830  52.682 -18.922  1.00  0.00     0.019 C 
HETATM   10  C32 UNL     1      -0.412  50.131 -19.245  1.00  0.00     0.028 C 
HETATM   11  C37 UNL     1      -1.433  49.015 -19.501  1.00  0.00     0.013 C 
HETATM   12  C38 UNL     1      -2.790  49.679 -19.368  1.00  0.00     0.040 C 
HETATM   13  C39 UNL     1      -2.632  51.101 -19.935  1.00  0.00     0.070 C 
HETATM   14  C40 UNL     1      -3.177  51.278 -21.388  1.00  0.00     0.026 C 
HETATM   15  C41 UNL     1      -4.694  51.007 -21.534  1.00  0.00     0.011 C 
HETATM   16  C42 UNL     1      -5.014  49.844 -22.467  1.00  0.00     0.039 C 
HETATM   17  C43 UNL     1      -4.419  50.016 -23.889  1.00  0.00     0.074 C 
HETATM   18  C44 UNL     1      -4.443  48.623 -24.567  1.00  0.00     0.071 C 
ENDROOT
BRANCH   1  19
HETATM   19  O3  UNL     1      -4.901  48.828 -26.984  1.00  0.00    -0.315 OA
BRANCH  19  20
HETATM   20  C21 UNL     1      -4.844  48.061 -28.105  1.00  0.00     0.285 C 
HETATM   21  O2  UNL     1      -3.817  47.753 -28.694  1.00  0.00    -0.263 OA
BRANCH  20  22
HETATM   22  C20 UNL     1      -6.236  47.618 -28.527  1.00  0.00     0.352 C 
BRANCH  22  23
HETATM   23  N2  UNL     1      -6.442  47.233 -30.048  1.00  0.00    -0.021 N 
HETATM   24  C6  UNL     1      -7.913  47.623 -30.443  1.00  0.00     0.214 C 
HETATM   25  C5  UNL     1      -7.965  47.715 -31.981  1.00  0.00     0.041 C 
HETATM   26  C7  UNL     1      -8.946  46.555 -29.968  1.00  0.00     0.109 C 
HETATM   27  C4  UNL     1      -6.842  46.857 -32.576  1.00  0.00     0.004 C 
HETATM   28  C3  UNL     1      -5.543  47.673 -32.366  1.00  0.00     0.047 C 
HETATM   29  C45 UNL     1      -5.430  48.044 -30.858  1.00  0.00     0.329 C 
HETATM   30  N1  UNL     1      -9.360  46.645 -28.540  1.00  0.00    -0.279 NA
HETATM   31  C15 UNL     1      -8.445  45.085 -30.154  1.00  0.00     0.035 C 
HETATM   32  C8  UNL     1     -10.242  47.744 -28.144  1.00  0.00     0.117 C 
HETATM   33  C9  UNL     1      -9.960  45.344 -28.378  1.00  0.00     0.018 A 
HETATM   34  C10 UNL     1     -10.875  44.947 -27.418  1.00  0.00     0.024 A 
HETATM   35  C14 UNL     1      -9.498  44.416 -29.340  1.00  0.00    -0.024 A 
HETATM   36  C11 UNL     1     -11.361  43.634 -27.457  1.00  0.00     0.002 A 
HETATM   37  C12 UNL     1     -10.923  42.732 -28.438  1.00  0.00     0.001 A 
HETATM   38  C13 UNL     1      -9.972  43.116 -29.385  1.00  0.00     0.010 A 
HETATM   39  C16 UNL     1      -7.078  44.862 -29.503  1.00  0.00     0.053 C 
HETATM   40  C19 UNL     1      -8.130  44.789 -31.629  1.00  0.00     0.139 C 
HETATM   41  C17 UNL     1      -6.216  45.735 -30.379  1.00  0.00     0.203 C 
HETATM   42  C18 UNL     1      -6.755  45.503 -31.832  1.00  0.00     0.051 C 
BRANCH  28  43
HETATM   43  C2  UNL     1      -4.262  46.985 -32.876  1.00  0.00     0.005 C 
HETATM   44  C1  UNL     1      -3.452  47.849 -33.835  1.00  0.00     0.005 C 
ENDBRANCH  28  43
BRANCH  29  45
HETATM   45  O9  UNL     1      -5.647  49.428 -30.689  1.00  0.00    -0.369 OA
HETATM   46  H59 UNL     1      -4.916  49.900 -31.130  1.00  0.00     0.212 HD
ENDBRANCH  29  45
BRANCH  40  47
HETATM   47  O1  UNL     1      -7.908  43.395 -31.824  1.00  0.00    -0.394 OA
HETATM   48  H24 UNL     1      -8.026  43.187 -32.770  1.00  0.00     0.210 HD
ENDBRANCH  40  47
ENDBRANCH  22  23
ENDBRANCH  20  22
ENDBRANCH  19  20
ENDBRANCH   1  19
BRANCH  17  49
HETATM   49  O8  UNL     1      -5.333  50.817 -24.666  1.00  0.00    -0.389 OA
HETATM   50  H55 UNL     1      -5.915  51.309 -24.053  1.00  0.00     0.210 HD
ENDBRANCH  17  49
BRANCH   4  51
HETATM   51  C26 UNL     1      -3.028  52.153 -24.225  1.00  0.00     0.244 C 
HETATM   52  O4  UNL     1      -3.256  52.600 -25.343  1.00  0.00    -0.306 OA
ENDBRANCH   4  51
BRANCH  13  53
HETATM   53  O7  UNL     1      -3.395  51.998 -19.116  1.00  0.00    -0.389 OA
HETATM   54  H49 UNL     1      -4.171  51.539 -18.754  1.00  0.00     0.210 HD
ENDBRANCH  13  53
BRANCH  10  55
HETATM   55  C33 UNL     1       0.065  50.170 -17.814  1.00  0.00    -0.045 A 
HETATM   56  C34 UNL     1       0.787  51.096 -17.181  1.00  0.00     0.087 A 
HETATM   57  C35 UNL     1       0.960  50.648 -15.801  1.00  0.00     0.283 A 
HETATM   58  O5  UNL     1       1.591  51.256 -14.955  1.00  0.00    -0.260 OA
HETATM   59  O6  UNL     1       0.305  49.472 -15.629  1.00  0.00    -0.314 OA
HETATM   60  C36 UNL     1      -0.311  49.096 -16.861  1.00  0.00     0.213 A 
ENDBRANCH  10  55
TORSDOF 12
ENDMDL
MODEL 9
REMARK minimizedAffinity -9.97803497
REMARK CNNscore 0.329264045
REMARK CNNaffinity 7.65343237
REMARK  12 active torsions:
REMARK  status: ('A' for Active; 'I' for Inactive)
REMARK    1  A    between atoms: C2_2  and  C3_3 
REMARK    2  A    between atoms: C4_4  and  C18_19 
REMARK    3  A    between atoms: C19_20  and  O1_21 
REMARK    4  A    between atoms: N2_22  and  C20_23 
REMARK    5  A    between atoms: C20_23  and  C21_24 
REMARK    6  A    between atoms: C21_24  and  O3_26 
REMARK    7  A    between atoms: O3_26  and  C22_27 
REMARK    8  A    between atoms: C25_30  and  C26_31 
REMARK    9  A    between atoms: C32_38  and  C33_39 
REMARK   10  A    between atoms: C39_47  and  O7_48 
REMARK   11  A    between atoms: C43_52  and  O8_53 
REMARK   12  A    between atoms: C45_55  and  O9_56 
ROOT
HETATM    1  C22 UNL     1      -0.319  51.929 -13.706  1.00  0.00     0.135 C 
HETATM    2  C23 UNL     1       0.921  51.624 -14.542  1.00  0.00     0.034 C 
HETATM    3  C24 UNL     1       0.573  51.517 -16.016  1.00  0.00     0.022 C 
HETATM    4  C25 UNL     1      -0.326  50.280 -16.312  1.00  0.00     0.048 C 
HETATM    5  C27 UNL     1      -1.058  50.453 -17.692  1.00  0.00     0.011 C 
HETATM    6  C28 UNL     1      -0.164  50.914 -18.862  1.00  0.00     0.007 C 
HETATM    7  C29 UNL     1      -0.320  50.100 -20.141  1.00  0.00     0.013 C 
HETATM    8  C30 UNL     1      -1.782  49.832 -20.601  1.00  0.00    -0.005 C 
HETATM    9  C31 UNL     1      -1.666  48.760 -21.712  1.00  0.00     0.019 C 
HETATM   10  C32 UNL     1      -2.432  51.176 -21.113  1.00  0.00     0.028 C 
HETATM   11  C37 UNL     1      -3.334  51.640 -19.961  1.00  0.00     0.013 C 
HETATM   12  C38 UNL     1      -3.838  50.366 -19.313  1.00  0.00     0.040 C 
HETATM   13  C39 UNL     1      -2.681  49.354 -19.391  1.00  0.00     0.070 C 
HETATM   14  C40 UNL     1      -1.876  49.193 -18.061  1.00  0.00     0.026 C 
HETATM   15  C41 UNL     1      -2.718  48.673 -16.871  1.00  0.00     0.011 C 
HETATM   16  C42 UNL     1      -2.794  49.657 -15.709  1.00  0.00     0.039 C 
HETATM   17  C43 UNL     1      -1.402  50.076 -15.165  1.00  0.00     0.074 C 
HETATM   18  C44 UNL     1      -1.606  51.358 -14.320  1.00  0.00     0.071 C 
ENDROOT
BRANCH   1  19
HETATM   19  O3  UNL     1      -0.071  51.393 -12.388  1.00  0.00    -0.315 OA
BRANCH  19  20
HETATM   20  C21 UNL     1       1.153  51.643 -11.853  1.00  0.00     0.285 C 
HETATM   21  O2  UNL     1       2.054  50.823 -11.747  1.00  0.00    -0.263 OA
BRANCH  20  22
HETATM   22  C20 UNL     1       1.262  53.094 -11.413  1.00  0.00     0.352 C 
BRANCH  22  23
HETATM   23  N2  UNL     1       0.646  53.471 -10.004  1.00  0.00    -0.021 N 
HETATM   24  C6  UNL     1       0.981  54.982  -9.727  1.00  0.00     0.214 C 
HETATM   25  C5  UNL     1       0.001  55.477  -8.644  1.00  0.00     0.041 C 
HETATM   26  C7  UNL     1       2.441  55.170  -9.209  1.00  0.00     0.109 C 
HETATM   27  C4  UNL     1      -0.496  54.278  -7.828  1.00  0.00     0.004 C 
HETATM   28  C3  UNL     1      -1.531  53.564  -8.731  1.00  0.00     0.047 C 
HETATM   29  C45 UNL     1      -0.865  53.260 -10.104  1.00  0.00     0.329 C 
HETATM   30  N1  UNL     1       3.502  55.179 -10.253  1.00  0.00    -0.279 NA
HETATM   31  C15 UNL     1       2.881  54.067  -8.191  1.00  0.00     0.035 C 
HETATM   32  C8  UNL     1       3.608  56.353 -11.121  1.00  0.00     0.117 C 
HETATM   33  C9  UNL     1       4.663  54.975  -9.422  1.00  0.00     0.018 A 
HETATM   34  C10 UNL     1       5.981  55.275  -9.720  1.00  0.00     0.024 A 
HETATM   35  C14 UNL     1       4.336  54.382  -8.181  1.00  0.00    -0.024 A 
HETATM   36  C11 UNL     1       6.961  55.025  -8.752  1.00  0.00     0.002 A 
HETATM   37  C12 UNL     1       6.622  54.469  -7.510  1.00  0.00     0.001 A 
HETATM   38  C13 UNL     1       5.300  54.130  -7.218  1.00  0.00     0.010 A 
HETATM   39  C16 UNL     1       2.668  52.657  -8.750  1.00  0.00     0.053 C 
HETATM   40  C19 UNL     1       1.959  54.048  -6.961  1.00  0.00     0.139 C 
HETATM   41  C17 UNL     1       1.162  52.619  -8.817  1.00  0.00     0.203 C 
HETATM   42  C18 UNL     1       0.684  53.329  -7.504  1.00  0.00     0.051 C 
BRANCH  28  43
HETATM   43  C2  UNL     1      -2.157  52.298  -8.114  1.00  0.00     0.005 C 
HETATM   44  C1  UNL     1      -2.639  51.294  -9.154  1.00  0.00     0.005 C 
ENDBRANCH  28  43
BRANCH  29  45
HETATM   45  O9  UNL     1      -1.422  54.091 -11.100  1.00  0.00    -0.369 OA
HETATM   46  H59 UNL     1      -2.360  53.843 -11.203  1.00  0.00     0.212 HD
ENDBRANCH  29  45
BRANCH  40  47
HETATM   47  O1  UNL     1       2.504  53.215  -5.941  1.00  0.00    -0.394 OA
HETATM   48  H24 UNL     1       2.097  53.457  -5.087  1.00  0.00     0.210 HD
ENDBRANCH  40  47
ENDBRANCH  22  23
ENDBRANCH  20  22
ENDBRANCH  19  20
ENDBRANCH   1  19
BRANCH  17  49
HETATM   49  O8  UNL     1      -0.970  49.078 -14.219  1.00  0.00    -0.389 OA
HETATM   50  H55 UNL     1      -1.475  48.256 -14.379  1.00  0.00     0.210 HD
ENDBRANCH  17  49
BRANCH   4  51
HETATM   51  C26 UNL     1       0.596  49.050 -16.418  1.00  0.00     0.244 C 
HETATM   52  O4  UNL     1       0.610  48.121 -15.620  1.00  0.00    -0.306 OA
ENDBRANCH   4  51
BRANCH  13  53
HETATM   53  O7  UNL     1      -3.233  48.062 -19.677  1.00  0.00    -0.389 OA
HETATM   54  H49 UNL     1      -4.120  47.986 -19.288  1.00  0.00     0.210 HD
ENDBRANCH  13  53
BRANCH  10  55
HETATM   55  C33 UNL     1      -3.155  51.125 -22.437  1.00  0.00    -0.045 A 
HETATM   56  C34 UNL     1      -2.693  51.344 -23.669  1.00  0.00     0.087 A 
HETATM   57  C35 UNL     1      -3.807  51.155 -24.594  1.00  0.00     0.283 A 
HETATM   58  O5  UNL     1      -3.731  51.298 -25.801  1.00  0.00    -0.260 OA
HETATM   59  O6  UNL     1      -4.911  50.790 -23.894  1.00  0.00    -0.314 OA
HETATM   60  C36 UNL     1      -4.584  50.731 -22.504  1.00  0.00     0.213 A 
ENDBRANCH  10  55
TORSDOF 12
ENDMDL
