MODEL 1
REMARK minimizedAffinity -9.37336731
REMARK  11 active torsions:
REMARK  status: ('A' for Active; 'I' for Inactive)
REMARK    1  A    between atoms: C2_2  and  C3_3 
REMARK    2  A    between atoms: C2_2  and  C4_5 
REMARK    3  A    between atoms: C3_3  and  O1_4 
REMARK    4  A    between atoms: C13_14  and  C14_15 
REMARK    5  A    between atoms: C14_15  and  C16_17 
REMARK    6  A    between atoms: C16_17  and  C17_18 
REMARK    7  A    between atoms: C17_18  and  C18_19 
REMARK    8  A    between atoms: C27_28  and  C28_29 
REMARK    9  A    between atoms: C28_29  and  C29_30 
REMARK   10  A    between atoms: C29_30  and  C30_31 
REMARK   11  A    between atoms: C30_31  and  O3_33 
ROOT
HETATM    1  C4  UNL     1      -0.795  51.723 -18.473  1.00  0.00     0.025 C 
HETATM    2  C5  UNL     1      -1.995  50.834 -18.104  1.00  0.00     0.010 C 
HETATM    3  C6  UNL     1      -3.150  51.035 -19.072  1.00  0.00     0.007 C 
HETATM    4  C7  UNL     1      -2.773  50.448 -20.436  1.00  0.00     0.004 C 
HETATM    5  C8  UNL     1      -1.501  51.127 -21.007  1.00  0.00    -0.027 A 
HETATM    6  C9  UNL     1      -1.613  51.727 -22.424  1.00  0.00     0.011 C 
HETATM    7  C10 UNL     1      -2.550  51.049 -23.440  1.00  0.00     0.011 C 
HETATM    8  C11 UNL     1      -3.427  49.942 -22.850  1.00  0.00    -0.032 C 
HETATM    9  C12 UNL     1      -2.573  48.650 -22.788  1.00  0.00     0.016 C 
HETATM   10  C13 UNL     1      -4.766  49.682 -23.610  1.00  0.00    -0.002 C 
HETATM   11  C22 UNL     1      -5.722  49.134 -22.524  1.00  0.00     0.006 C 
HETATM   12  C23 UNL     1      -5.035  49.374 -21.166  1.00  0.00     0.011 C 
HETATM   13  C24 UNL     1      -3.949  50.431 -21.450  1.00  0.00    -0.032 C 
HETATM   14  C25 UNL     1      -4.666  51.819 -21.460  1.00  0.00     0.016 C 
HETATM   15  C26 UNL     1      -0.180  50.447 -20.700  1.00  0.00     0.022 A 
HETATM   16  C27 UNL     1      -0.462  51.746 -19.992  1.00  0.00    -0.024 A 
ENDROOT
BRANCH  10  17
HETATM   17  C14 UNL     1      -4.802  49.006 -25.012  1.00  0.00    -0.014 C 
HETATM   18  C15 UNL     1      -5.970  47.998 -25.057  1.00  0.00     0.010 C 
BRANCH  17  19
HETATM   19  C16 UNL     1      -3.550  48.345 -25.635  1.00  0.00     0.008 C 
BRANCH  19  20
HETATM   20  C17 UNL     1      -3.213  48.677 -27.089  1.00  0.00     0.028 C 
BRANCH  20  21
HETATM   21  C18 UNL     1      -3.140  50.167 -27.295  1.00  0.00    -0.025 C 
HETATM   22  C19 UNL     1      -2.095  50.986 -27.060  1.00  0.00    -0.091 C 
HETATM   23  C20 UNL     1      -2.215  52.469 -27.303  1.00  0.00     0.042 C 
HETATM   24  C21 UNL     1      -0.744  50.549 -26.568  1.00  0.00     0.042 C 
ENDBRANCH  20  21
ENDBRANCH  19  20
ENDBRANCH  17  19
ENDBRANCH  10  17
BRANCH  16  25
HETATM   25  C28 UNL     1       0.254  53.038 -20.441  1.00  0.00     0.021 C 
BRANCH  25  26
HETATM   26  C29 UNL     1       1.386  52.878 -21.447  1.00  0.00     0.111 C 
BRANCH  26  27
HETATM   27  C30 UNL     1       1.450  54.012 -22.429  1.00  0.00     0.139 C 
HETATM   28  O2  UNL     1       1.060  54.008 -23.583  1.00  0.00    -0.650 OA
BRANCH  27  29
HETATM   29  O3  UNL     1       1.977  55.130 -21.886  1.00  0.00    -0.776 OA
HETATM   30  H48 UNL     1       1.983  55.763 -22.637  1.00  0.00     0.167 HD
ENDBRANCH  27  29
ENDBRANCH  26  27
ENDBRANCH  25  26
ENDBRANCH  16  25
BRANCH   1  31
HETATM   31  C2  UNL     1       0.358  51.453 -17.497  1.00  0.00    -0.061 C 
HETATM   32  C1  UNL     1       0.467  50.252 -16.893  1.00  0.00     0.017 C 
BRANCH  31  33
HETATM   33  C3  UNL     1       1.439  52.487 -17.298  1.00  0.00     0.198 C 
BRANCH  33  34
HETATM   34  O1  UNL     1       1.309  53.130 -16.045  1.00  0.00    -0.397 OA
HETATM   35  H5  UNL     1       1.188  52.435 -15.372  1.00  0.00     0.209 HD
ENDBRANCH  33  34
ENDBRANCH  31  33
ENDBRANCH   1  31
TORSDOF 11
ENDMDL
MODEL 2
REMARK minimizedAffinity -9.17735767
REMARK  11 active torsions:
REMARK  status: ('A' for Active; 'I' for Inactive)
REMARK    1  A    between atoms: C2_2  and  C3_3 
REMARK    2  A    between atoms: C2_2  and  C4_5 
REMARK    3  A    between atoms: C3_3  and  O1_4 
REMARK    4  A    between atoms: C13_14  and  C14_15 
REMARK    5  A    between atoms: C14_15  and  C16_17 
REMARK    6  A    between atoms: C16_17  and  C17_18 
REMARK    7  A    between atoms: C17_18  and  C18_19 
REMARK    8  A    between atoms: C27_28  and  C28_29 
REMARK    9  A    between atoms: C28_29  and  C29_30 
REMARK   10  A    between atoms: C29_30  and  C30_31 
REMARK   11  A    between atoms: C30_31  and  O3_33 
ROOT
HETATM    1  C4  UNL     1      -2.257  50.067 -25.257  1.00  0.00     0.025 C 
HETATM    2  C5  UNL     1      -3.272  49.156 -24.547  1.00  0.00     0.010 C 
HETATM    3  C6  UNL     1      -2.657  48.488 -23.329  1.00  0.00     0.007 C 
HETATM    4  C7  UNL     1      -2.417  49.542 -22.242  1.00  0.00     0.004 C 
HETATM    5  C8  UNL     1      -1.469  50.661 -22.747  1.00  0.00    -0.027 A 
HETATM    6  C9  UNL     1      -0.221  50.950 -21.888  1.00  0.00     0.011 C 
HETATM    7  C10 UNL     1      -0.314  50.759 -20.364  1.00  0.00     0.011 C 
HETATM    8  C11 UNL     1      -1.613  50.104 -19.887  1.00  0.00    -0.032 C 
HETATM    9  C12 UNL     1      -2.695  51.211 -19.805  1.00  0.00     0.016 C 
HETATM   10  C13 UNL     1      -1.508  49.334 -18.532  1.00  0.00    -0.002 C 
HETATM   11  C22 UNL     1      -2.599  48.240 -18.629  1.00  0.00     0.006 C 
HETATM   12  C23 UNL     1      -3.071  48.213 -20.096  1.00  0.00     0.011 C 
HETATM   13  C24 UNL     1      -1.964  48.941 -20.885  1.00  0.00    -0.032 C 
HETATM   14  C25 UNL     1      -0.820  47.901 -21.115  1.00  0.00     0.016 C 
HETATM   15  C26 UNL     1      -2.133  51.886 -23.348  1.00  0.00     0.022 A 
HETATM   16  C27 UNL     1      -1.419  50.959 -24.297  1.00  0.00    -0.024 A 
ENDROOT
BRANCH  10  17
HETATM   17  C14 UNL     1      -1.347  50.074 -17.173  1.00  0.00    -0.014 C 
HETATM   18  C15 UNL     1      -2.743  50.454 -16.636  1.00  0.00     0.010 C 
BRANCH  17  19
HETATM   19  C16 UNL     1      -0.402  51.289 -17.007  1.00  0.00     0.008 C 
BRANCH  19  20
HETATM   20  C17 UNL     1       0.615  51.255 -15.866  1.00  0.00     0.028 C 
BRANCH  20  21
HETATM   21  C18 UNL     1       1.893  51.944 -16.267  1.00  0.00    -0.025 C 
HETATM   22  C19 UNL     1       3.070  51.954 -15.609  1.00  0.00    -0.091 C 
HETATM   23  C20 UNL     1       4.244  52.726 -16.152  1.00  0.00     0.042 C 
HETATM   24  C21 UNL     1       3.354  51.223 -14.326  1.00  0.00     0.042 C 
ENDBRANCH  20  21
ENDBRANCH  19  20
ENDBRANCH  17  19
ENDBRANCH  10  17
BRANCH  16  25
HETATM   25  C28 UNL     1      -0.047  51.362 -24.877  1.00  0.00     0.021 C 
BRANCH  25  26
HETATM   26  C29 UNL     1       0.358  50.711 -26.194  1.00  0.00     0.111 C 
BRANCH  26  27
HETATM   27  C30 UNL     1       0.986  51.683 -27.149  1.00  0.00     0.139 C 
HETATM   28  O2  UNL     1       0.553  52.031 -28.234  1.00  0.00    -0.650 OA
BRANCH  27  29
HETATM   29  O3  UNL     1       2.132  52.209 -26.665  1.00  0.00    -0.776 OA
HETATM   30  H48 UNL     1       2.438  52.790 -27.395  1.00  0.00     0.167 HD
ENDBRANCH  27  29
ENDBRANCH  26  27
ENDBRANCH  25  26
ENDBRANCH  16  25
BRANCH   1  31
HETATM   31  C2  UNL     1      -2.935  50.752 -26.451  1.00  0.00    -0.061 C 
HETATM   32  C1  UNL     1      -3.059  52.094 -26.482  1.00  0.00     0.017 C 
BRANCH  31  33
HETATM   33  C3  UNL     1      -3.361  49.937 -27.649  1.00  0.00     0.198 C 
BRANCH  33  34
HETATM   34  O1  UNL     1      -3.402  50.731 -28.820  1.00  0.00    -0.397 OA
HETATM   35  H5  UNL     1      -2.567  51.233 -28.861  1.00  0.00     0.209 HD
ENDBRANCH  33  34
ENDBRANCH  31  33
ENDBRANCH   1  31
TORSDOF 11
ENDMDL
MODEL 3
REMARK minimizedAffinity -9.06313419
REMARK  11 active torsions:
REMARK  status: ('A' for Active; 'I' for Inactive)
REMARK    1  A    between atoms: C2_2  and  C3_3 
REMARK    2  A    between atoms: C2_2  and  C4_5 
REMARK    3  A    between atoms: C3_3  and  O1_4 
REMARK    4  A    between atoms: C13_14  and  C14_15 
REMARK    5  A    between atoms: C14_15  and  C16_17 
REMARK    6  A    between atoms: C16_17  and  C17_18 
REMARK    7  A    between atoms: C17_18  and  C18_19 
REMARK    8  A    between atoms: C27_28  and  C28_29 
REMARK    9  A    between atoms: C28_29  and  C29_30 
REMARK   10  A    between atoms: C29_30  and  C30_31 
REMARK   11  A    between atoms: C30_31  and  O3_33 
ROOT
HETATM    1  C4  UNL     1      -0.915  51.346 -18.837  1.00  0.00     0.025 C 
HETATM    2  C5  UNL     1      -2.377  51.059 -18.453  1.00  0.00     0.010 C 
HETATM    3  C6  UNL     1      -3.326  51.433 -19.578  1.00  0.00     0.007 C 
HETATM    4  C7  UNL     1      -3.143  50.451 -20.741  1.00  0.00     0.004 C 
HETATM    5  C8  UNL     1      -1.685  50.476 -21.270  1.00  0.00    -0.027 A 
HETATM    6  C9  UNL     1      -1.501  50.733 -22.780  1.00  0.00     0.011 C 
HETATM    7  C10 UNL     1      -2.581  50.223 -23.752  1.00  0.00     0.011 C 
HETATM    8  C11 UNL     1      -3.836  49.673 -23.070  1.00  0.00    -0.032 C 
HETATM    9  C12 UNL     1      -3.538  48.212 -22.646  1.00  0.00     0.016 C 
HETATM   10  C13 UNL     1      -5.139  49.744 -23.926  1.00  0.00    -0.002 C 
HETATM   11  C22 UNL     1      -6.277  49.842 -22.881  1.00  0.00     0.006 C 
HETATM   12  C23 UNL     1      -5.609  50.125 -21.522  1.00  0.00     0.011 C 
HETATM   13  C24 UNL     1      -4.193  50.625 -21.871  1.00  0.00    -0.032 C 
HETATM   14  C25 UNL     1      -4.330  52.136 -22.246  1.00  0.00     0.016 C 
HETATM   15  C26 UNL     1      -0.733  49.458 -20.672  1.00  0.00     0.022 A 
HETATM   16  C27 UNL     1      -0.533  50.898 -20.276  1.00  0.00    -0.024 A 
ENDROOT
BRANCH  10  17
HETATM   17  C14 UNL     1      -5.369  48.822 -25.159  1.00  0.00    -0.014 C 
HETATM   18  C15 UNL     1      -6.238  47.619 -24.736  1.00  0.00     0.010 C 
BRANCH  17  19
HETATM   19  C16 UNL     1      -4.196  48.308 -26.028  1.00  0.00     0.008 C 
BRANCH  19  20
HETATM   20  C17 UNL     1      -4.353  48.363 -27.548  1.00  0.00     0.028 C 
BRANCH  20  21
HETATM   21  C18 UNL     1      -5.671  47.768 -27.973  1.00  0.00    -0.025 C 
HETATM   22  C19 UNL     1      -6.107  47.533 -29.227  1.00  0.00    -0.091 C 
HETATM   23  C20 UNL     1      -7.477  46.951 -29.464  1.00  0.00     0.042 C 
HETATM   24  C21 UNL     1      -5.321  47.791 -30.482  1.00  0.00     0.042 C 
ENDBRANCH  20  21
ENDBRANCH  19  20
ENDBRANCH  17  19
ENDBRANCH  10  17
BRANCH  16  25
HETATM   25  C28 UNL     1       0.637  51.704 -20.878  1.00  0.00     0.021 C 
BRANCH  25  26
HETATM   26  C29 UNL     1       0.303  53.079 -21.441  1.00  0.00     0.111 C 
BRANCH  26  27
HETATM   27  C30 UNL     1       1.353  54.103 -21.125  1.00  0.00     0.139 C 
HETATM   28  O2  UNL     1       1.880  54.880 -21.904  1.00  0.00    -0.650 OA
BRANCH  27  29
HETATM   29  O3  UNL     1       1.667  54.129 -19.812  1.00  0.00    -0.776 OA
HETATM   30  H48 UNL     1       2.371  54.811 -19.763  1.00  0.00     0.167 HD
ENDBRANCH  27  29
ENDBRANCH  26  27
ENDBRANCH  25  26
ENDBRANCH  16  25
BRANCH   1  31
HETATM   31  C2  UNL     1       0.007  50.912 -17.689  1.00  0.00    -0.061 C 
HETATM   32  C1  UNL     1      -0.029  49.644 -17.233  1.00  0.00     0.017 C 
BRANCH  31  33
HETATM   33  C3  UNL     1       1.041  51.870 -17.145  1.00  0.00     0.198 C 
BRANCH  33  34
HETATM   34  O1  UNL     1       0.712  53.210 -17.459  1.00  0.00    -0.397 OA
HETATM   35  H5  UNL     1      -0.225  53.342 -17.226  1.00  0.00     0.209 HD
ENDBRANCH  33  34
ENDBRANCH  31  33
ENDBRANCH   1  31
TORSDOF 11
ENDMDL
MODEL 4
REMARK minimizedAffinity -8.89274502
REMARK  11 active torsions:
REMARK  status: ('A' for Active; 'I' for Inactive)
REMARK    1  A    between atoms: C2_2  and  C3_3 
REMARK    2  A    between atoms: C2_2  and  C4_5 
REMARK    3  A    between atoms: C3_3  and  O1_4 
REMARK    4  A    between atoms: C13_14  and  C14_15 
REMARK    5  A    between atoms: C14_15  and  C16_17 
REMARK    6  A    between atoms: C16_17  and  C17_18 
REMARK    7  A    between atoms: C17_18  and  C18_19 
REMARK    8  A    between atoms: C27_28  and  C28_29 
REMARK    9  A    between atoms: C28_29  and  C29_30 
REMARK   10  A    between atoms: C29_30  and  C30_31 
REMARK   11  A    between atoms: C30_31  and  O3_33 
ROOT
HETATM    1  C4  UNL     1      -6.240  47.726 -23.453  1.00  0.00     0.025 C 
HETATM    2  C5  UNL     1      -6.009  47.806 -21.934  1.00  0.00     0.010 C 
HETATM    3  C6  UNL     1      -4.528  47.752 -21.599  1.00  0.00     0.007 C 
HETATM    4  C7  UNL     1      -3.858  49.053 -22.054  1.00  0.00     0.004 C 
HETATM    5  C8  UNL     1      -4.031  49.267 -23.581  1.00  0.00    -0.027 A 
HETATM    6  C9  UNL     1      -2.742  49.500 -24.397  1.00  0.00     0.011 C 
HETATM    7  C10 UNL     1      -1.566  50.231 -23.725  1.00  0.00     0.011 C 
HETATM    8  C11 UNL     1      -1.749  50.478 -22.225  1.00  0.00    -0.032 C 
HETATM    9  C12 UNL     1      -2.621  51.749 -22.062  1.00  0.00     0.016 C 
HETATM   10  C13 UNL     1      -0.424  50.610 -21.410  1.00  0.00    -0.002 C 
HETATM   11  C22 UNL     1      -0.804  50.135 -19.986  1.00  0.00     0.006 C 
HETATM   12  C23 UNL     1      -2.194  49.480 -20.092  1.00  0.00     0.011 C 
HETATM   13  C24 UNL     1      -2.382  49.185 -21.594  1.00  0.00    -0.032 C 
HETATM   14  C25 UNL     1      -1.609  47.859 -21.891  1.00  0.00     0.016 C 
HETATM   15  C26 UNL     1      -5.224  50.097 -24.014  1.00  0.00     0.022 A 
HETATM   16  C27 UNL     1      -5.282  48.617 -24.293  1.00  0.00    -0.024 A 
ENDROOT
BRANCH  10  17
HETATM   17  C14 UNL     1       0.501  51.855 -21.533  1.00  0.00    -0.014 C 
HETATM   18  C15 UNL     1       0.640  52.520 -20.147  1.00  0.00     0.010 C 
BRANCH  17  19
HETATM   19  C16 UNL     1       0.257  52.957 -22.591  1.00  0.00     0.008 C 
BRANCH  19  20
HETATM   20  C17 UNL     1       1.117  52.939 -23.856  1.00  0.00     0.028 C 
BRANCH  20  21
HETATM   21  C18 UNL     1       0.378  52.291 -24.998  1.00  0.00    -0.025 C 
HETATM   22  C19 UNL     1       0.899  51.641 -26.058  1.00  0.00    -0.091 C 
HETATM   23  C20 UNL     1      -0.001  51.076 -27.126  1.00  0.00     0.042 C 
HETATM   24  C21 UNL     1       2.363  51.395 -26.292  1.00  0.00     0.042 C 
ENDBRANCH  20  21
ENDBRANCH  19  20
ENDBRANCH  17  19
ENDBRANCH  10  17
BRANCH  16  25
HETATM   25  C28 UNL     1      -5.064  48.097 -25.729  1.00  0.00     0.021 C 
BRANCH  25  26
HETATM   26  C29 UNL     1      -3.754  48.479 -26.405  1.00  0.00     0.111 C 
BRANCH  26  27
HETATM   27  C30 UNL     1      -3.952  48.989 -27.802  1.00  0.00     0.139 C 
HETATM   28  O2  UNL     1      -4.256  48.336 -28.786  1.00  0.00    -0.650 OA
BRANCH  27  29
HETATM   29  O3  UNL     1      -3.792  50.327 -27.888  1.00  0.00    -0.776 OA
HETATM   30  H48 UNL     1      -3.920  50.508 -28.844  1.00  0.00     0.167 HD
ENDBRANCH  27  29
ENDBRANCH  26  27
ENDBRANCH  25  26
ENDBRANCH  16  25
BRANCH   1  31
HETATM   31  C2  UNL     1      -7.744  47.830 -23.745  1.00  0.00    -0.061 C 
HETATM   32  C1  UNL     1      -8.641  47.610 -22.762  1.00  0.00     0.017 C 
BRANCH  31  33
HETATM   33  C3  UNL     1      -8.222  48.291 -25.101  1.00  0.00     0.198 C 
BRANCH  33  34
HETATM   34  O1  UNL     1      -8.671  49.632 -25.057  1.00  0.00    -0.397 OA
HETATM   35  H5  UNL     1      -7.990  50.152 -24.592  1.00  0.00     0.209 HD
ENDBRANCH  33  34
ENDBRANCH  31  33
ENDBRANCH   1  31
TORSDOF 11
ENDMDL
MODEL 5
REMARK minimizedAffinity -8.82616234
REMARK  11 active torsions:
REMARK  status: ('A' for Active; 'I' for Inactive)
REMARK    1  A    between atoms: C2_2  and  C3_3 
REMARK    2  A    between atoms: C2_2  and  C4_5 
REMARK    3  A    between atoms: C3_3  and  O1_4 
REMARK    4  A    between atoms: C13_14  and  C14_15 
REMARK    5  A    between atoms: C14_15  and  C16_17 
REMARK    6  A    between atoms: C16_17  and  C17_18 
REMARK    7  A    between atoms: C17_18  and  C18_19 
REMARK    8  A    between atoms: C27_28  and  C28_29 
REMARK    9  A    between atoms: C28_29  and  C29_30 
REMARK   10  A    between atoms: C29_30  and  C30_31 
REMARK   11  A    between atoms: C30_31  and  O3_33 
ROOT
HETATM    1  C4  UNL     1      -5.696  47.850 -24.364  1.00  0.00     0.025 C 
HETATM    2  C5  UNL     1      -5.903  47.942 -22.842  1.00  0.00     0.010 C 
HETATM    3  C6  UNL     1      -4.573  48.000 -22.108  1.00  0.00     0.007 C 
HETATM    4  C7  UNL     1      -3.902  49.350 -22.383  1.00  0.00     0.004 C 
HETATM    5  C8  UNL     1      -3.659  49.555 -23.901  1.00  0.00    -0.027 A 
HETATM    6  C9  UNL     1      -2.216  49.889 -24.332  1.00  0.00     0.011 C 
HETATM    7  C10 UNL     1      -1.330  50.705 -23.373  1.00  0.00     0.011 C 
HETATM    8  C11 UNL     1      -1.941  50.932 -21.988  1.00  0.00    -0.032 C 
HETATM    9  C12 UNL     1      -2.915  52.133 -22.096  1.00  0.00     0.016 C 
HETATM   10  C13 UNL     1      -0.908  51.162 -20.839  1.00  0.00    -0.002 C 
HETATM   11  C22 UNL     1      -1.632  50.655 -19.569  1.00  0.00     0.006 C 
HETATM   12  C23 UNL     1      -2.885  49.896 -20.045  1.00  0.00     0.011 C 
HETATM   13  C24 UNL     1      -2.626  49.593 -21.534  1.00  0.00    -0.032 C 
HETATM   14  C25 UNL     1      -1.705  48.331 -21.581  1.00  0.00     0.016 C 
HETATM   15  C26 UNL     1      -4.743  50.293 -24.663  1.00  0.00     0.022 A 
HETATM   16  C27 UNL     1      -4.611  48.815 -24.920  1.00  0.00    -0.024 A 
ENDROOT
BRANCH  10  17
HETATM   17  C14 UNL     1      -0.080  52.475 -20.723  1.00  0.00    -0.014 C 
HETATM   18  C15 UNL     1       1.298  52.263 -21.385  1.00  0.00     0.010 C 
BRANCH  17  19
HETATM   19  C16 UNL     1       0.123  53.199 -19.371  1.00  0.00     0.008 C 
BRANCH  19  20
HETATM   20  C17 UNL     1       1.438  52.969 -18.625  1.00  0.00     0.028 C 
BRANCH  20  21
HETATM   21  C18 UNL     1       1.196  52.263 -17.317  1.00  0.00    -0.025 C 
HETATM   22  C19 UNL     1       2.064  52.077 -16.303  1.00  0.00    -0.091 C 
HETATM   23  C20 UNL     1       1.650  51.317 -15.070  1.00  0.00     0.042 C 
HETATM   24  C21 UNL     1       3.477  52.591 -16.265  1.00  0.00     0.042 C 
ENDBRANCH  20  21
ENDBRANCH  19  20
ENDBRANCH  17  19
ENDBRANCH  10  17
BRANCH  16  25
HETATM   25  C28 UNL     1      -3.965  48.317 -26.231  1.00  0.00     0.021 C 
BRANCH  25  26
HETATM   26  C29 UNL     1      -2.957  49.248 -26.894  1.00  0.00     0.111 C 
BRANCH  26  27
HETATM   27  C30 UNL     1      -3.477  49.848 -28.167  1.00  0.00     0.139 C 
HETATM   28  O2  UNL     1      -4.129  49.288 -29.031  1.00  0.00    -0.650 OA
BRANCH  27  29
HETATM   29  O3  UNL     1      -3.179  51.161 -28.274  1.00  0.00    -0.776 OA
HETATM   30  H48 UNL     1      -3.548  51.405 -29.150  1.00  0.00     0.167 HD
ENDBRANCH  27  29
ENDBRANCH  26  27
ENDBRANCH  25  26
ENDBRANCH  16  25
BRANCH   1  31
HETATM   31  C2  UNL     1      -7.063  47.840 -25.063  1.00  0.00    -0.061 C 
HETATM   32  C1  UNL     1      -7.246  47.108 -26.180  1.00  0.00     0.017 C 
BRANCH  31  33
HETATM   33  C3  UNL     1      -8.238  48.553 -24.438  1.00  0.00     0.198 C 
BRANCH  33  34
HETATM   34  O1  UNL     1      -8.496  49.782 -25.091  1.00  0.00    -0.397 OA
HETATM   35  H5  UNL     1      -8.503  49.607 -26.050  1.00  0.00     0.209 HD
ENDBRANCH  33  34
ENDBRANCH  31  33
ENDBRANCH   1  31
TORSDOF 11
ENDMDL
MODEL 6
REMARK minimizedAffinity -8.57888985
REMARK  11 active torsions:
REMARK  status: ('A' for Active; 'I' for Inactive)
REMARK    1  A    between atoms: C2_2  and  C3_3 
REMARK    2  A    between atoms: C2_2  and  C4_5 
REMARK    3  A    between atoms: C3_3  and  O1_4 
REMARK    4  A    between atoms: C13_14  and  C14_15 
REMARK    5  A    between atoms: C14_15  and  C16_17 
REMARK    6  A    between atoms: C16_17  and  C17_18 
REMARK    7  A    between atoms: C17_18  and  C18_19 
REMARK    8  A    between atoms: C27_28  and  C28_29 
REMARK    9  A    between atoms: C28_29  and  C29_30 
REMARK   10  A    between atoms: C29_30  and  C30_31 
REMARK   11  A    between atoms: C30_31  and  O3_33 
ROOT
HETATM    1  C4  UNL     1      -5.705  47.882 -23.860  1.00  0.00     0.025 C 
HETATM    2  C5  UNL     1      -6.128  47.559 -22.416  1.00  0.00     0.010 C 
HETATM    3  C6  UNL     1      -4.928  47.201 -21.557  1.00  0.00     0.007 C 
HETATM    4  C7  UNL     1      -4.078  48.455 -21.327  1.00  0.00     0.004 C 
HETATM    5  C8  UNL     1      -3.586  49.053 -22.672  1.00  0.00    -0.027 A 
HETATM    6  C9  UNL     1      -2.067  49.276 -22.815  1.00  0.00     0.011 C 
HETATM    7  C10 UNL     1      -1.252  49.636 -21.559  1.00  0.00     0.011 C 
HETATM    8  C11 UNL     1      -2.037  49.541 -20.249  1.00  0.00    -0.032 C 
HETATM    9  C12 UNL     1      -2.846  50.854 -20.090  1.00  0.00     0.016 C 
HETATM   10  C13 UNL     1      -1.172  49.270 -18.977  1.00  0.00    -0.002 C 
HETATM   11  C22 UNL     1      -2.132  48.532 -18.013  1.00  0.00     0.006 C 
HETATM   12  C23 UNL     1      -3.374  48.141 -18.836  1.00  0.00     0.011 C 
HETATM   13  C24 UNL     1      -2.926  48.247 -20.308  1.00  0.00    -0.032 C 
HETATM   14  C25 UNL     1      -2.153  46.929 -20.638  1.00  0.00     0.016 C 
HETATM   15  C26 UNL     1      -4.455  50.134 -23.286  1.00  0.00     0.022 A 
HETATM   16  C27 UNL     1      -4.448  48.791 -23.968  1.00  0.00    -0.024 A 
ENDROOT
BRANCH  10  17
HETATM   17  C14 UNL     1      -0.231  50.353 -18.372  1.00  0.00    -0.014 C 
HETATM   18  C15 UNL     1      -0.028  50.062 -16.869  1.00  0.00     0.010 C 
BRANCH  17  19
HETATM   19  C16 UNL     1      -0.499  51.866 -18.554  1.00  0.00     0.008 C 
BRANCH  19  20
HETATM   20  C17 UNL     1       0.519  52.681 -19.353  1.00  0.00     0.028 C 
BRANCH  20  21
HETATM   21  C18 UNL     1       0.381  52.414 -20.829  1.00  0.00    -0.025 C 
HETATM   22  C19 UNL     1       0.816  53.176 -21.852  1.00  0.00    -0.091 C 
HETATM   23  C20 UNL     1       0.563  52.759 -23.278  1.00  0.00     0.042 C 
HETATM   24  C21 UNL     1       1.581  54.463 -21.713  1.00  0.00     0.042 C 
ENDBRANCH  20  21
ENDBRANCH  19  20
ENDBRANCH  17  19
ENDBRANCH  10  17
BRANCH  16  25
HETATM   25  C28 UNL     1      -3.670  48.604 -25.287  1.00  0.00     0.021 C 
BRANCH  25  26
HETATM   26  C29 UNL     1      -3.544  49.826 -26.188  1.00  0.00     0.111 C 
BRANCH  26  27
HETATM   27  C30 UNL     1      -3.522  49.469 -27.646  1.00  0.00     0.139 C 
HETATM   28  O2  UNL     1      -3.406  50.234 -28.588  1.00  0.00    -0.650 OA
BRANCH  27  29
HETATM   29  O3  UNL     1      -3.610  48.137 -27.849  1.00  0.00    -0.776 OA
HETATM   30  H48 UNL     1      -3.613  48.058 -28.828  1.00  0.00     0.167 HD
ENDBRANCH  27  29
ENDBRANCH  26  27
ENDBRANCH  25  26
ENDBRANCH  16  25
BRANCH   1  31
HETATM   31  C2  UNL     1      -6.942  48.280 -24.676  1.00  0.00    -0.061 C 
HETATM   32  C1  UNL     1      -7.155  47.739 -25.892  1.00  0.00     0.017 C 
BRANCH  31  33
HETATM   33  C3  UNL     1      -7.986  49.190 -24.073  1.00  0.00     0.198 C 
BRANCH  33  34
HETATM   34  O1  UNL     1      -8.879  49.669 -25.060  1.00  0.00    -0.397 OA
HETATM   35  H5  UNL     1      -9.168  48.903 -25.589  1.00  0.00     0.209 HD
ENDBRANCH  33  34
ENDBRANCH  31  33
ENDBRANCH   1  31
TORSDOF 11
ENDMDL
MODEL 7
REMARK minimizedAffinity -8.51458645
REMARK  11 active torsions:
REMARK  status: ('A' for Active; 'I' for Inactive)
REMARK    1  A    between atoms: C2_2  and  C3_3 
REMARK    2  A    between atoms: C2_2  and  C4_5 
REMARK    3  A    between atoms: C3_3  and  O1_4 
REMARK    4  A    between atoms: C13_14  and  C14_15 
REMARK    5  A    between atoms: C14_15  and  C16_17 
REMARK    6  A    between atoms: C16_17  and  C17_18 
REMARK    7  A    between atoms: C17_18  and  C18_19 
REMARK    8  A    between atoms: C27_28  and  C28_29 
REMARK    9  A    between atoms: C28_29  and  C29_30 
REMARK   10  A    between atoms: C29_30  and  C30_31 
REMARK   11  A    between atoms: C30_31  and  O3_33 
ROOT
HETATM    1  C4  UNL     1      -0.129  51.293 -25.685  1.00  0.00     0.025 C 
HETATM    2  C5  UNL     1      -1.107  50.412 -26.481  1.00  0.00     0.010 C 
HETATM    3  C6  UNL     1      -1.838  49.438 -25.572  1.00  0.00     0.007 C 
HETATM    4  C7  UNL     1      -2.816  50.214 -24.683  1.00  0.00     0.004 C 
HETATM    5  C8  UNL     1      -2.074  51.266 -23.818  1.00  0.00    -0.027 A 
HETATM    6  C9  UNL     1      -2.314  51.202 -22.295  1.00  0.00     0.011 C 
HETATM    7  C10 UNL     1      -3.687  50.730 -21.784  1.00  0.00     0.011 C 
HETATM    8  C11 UNL     1      -4.614  50.184 -22.873  1.00  0.00    -0.032 C 
HETATM    9  C12 UNL     1      -5.296  51.395 -23.560  1.00  0.00     0.016 C 
HETATM   10  C13 UNL     1      -5.682  49.157 -22.380  1.00  0.00    -0.002 C 
HETATM   11  C22 UNL     1      -5.956  48.268 -23.617  1.00  0.00     0.006 C 
HETATM   12  C23 UNL     1      -4.861  48.596 -24.651  1.00  0.00     0.011 C 
HETATM   13  C24 UNL     1      -3.751  49.300 -23.846  1.00  0.00    -0.032 C 
HETATM   14  C25 UNL     1      -2.917  48.176 -23.152  1.00  0.00     0.016 C 
HETATM   15  C26 UNL     1      -1.978  52.665 -24.395  1.00  0.00     0.022 A 
HETATM   16  C27 UNL     1      -0.710  51.851 -24.355  1.00  0.00    -0.024 A 
ENDROOT
BRANCH  10  17
HETATM   17  C14 UNL     1      -6.902  49.585 -21.514  1.00  0.00    -0.014 C 
HETATM   18  C15 UNL     1      -6.397  50.105 -20.151  1.00  0.00     0.010 C 
BRANCH  17  19
HETATM   19  C16 UNL     1      -8.107  48.645 -21.274  1.00  0.00     0.008 C 
BRANCH  19  20
HETATM   20  C17 UNL     1      -8.315  48.093 -19.863  1.00  0.00     0.028 C 
BRANCH  20  21
HETATM   21  C18 UNL     1      -9.745  48.268 -19.424  1.00  0.00    -0.025 C 
HETATM   22  C19 UNL     1     -10.848  47.699 -19.950  1.00  0.00    -0.091 C 
HETATM   23  C20 UNL     1     -12.212  48.014 -19.393  1.00  0.00     0.042 C 
HETATM   24  C21 UNL     1     -10.860  46.718 -21.089  1.00  0.00     0.042 C 
ENDBRANCH  20  21
ENDBRANCH  19  20
ENDBRANCH  17  19
ENDBRANCH  10  17
BRANCH  16  25
HETATM   25  C28 UNL     1       0.370  52.163 -23.298  1.00  0.00     0.021 C 
BRANCH  25  26
HETATM   26  C29 UNL     1       0.561  53.628 -22.925  1.00  0.00     0.111 C 
BRANCH  26  27
HETATM   27  C30 UNL     1       1.388  53.804 -21.685  1.00  0.00     0.139 C 
HETATM   28  O2  UNL     1       1.433  53.062 -20.719  1.00  0.00    -0.650 OA
BRANCH  27  29
HETATM   29  O3  UNL     1       2.164  54.908 -21.740  1.00  0.00    -0.776 OA
HETATM   30  H48 UNL     1       2.616  54.908 -20.868  1.00  0.00     0.167 HD
ENDBRANCH  27  29
ENDBRANCH  26  27
ENDBRANCH  25  26
ENDBRANCH  16  25
BRANCH   1  31
HETATM   31  C2  UNL     1       0.551  52.287 -26.636  1.00  0.00    -0.061 C 
HETATM   32  C1  UNL     1       1.780  52.026 -27.124  1.00  0.00     0.017 C 
BRANCH  31  33
HETATM   33  C3  UNL     1      -0.200  53.504 -27.121  1.00  0.00     0.198 C 
BRANCH  33  34
HETATM   34  O1  UNL     1       0.141  54.651 -26.366  1.00  0.00    -0.397 OA
HETATM   35  H5  UNL     1       1.114  54.685 -26.312  1.00  0.00     0.209 HD
ENDBRANCH  33  34
ENDBRANCH  31  33
ENDBRANCH   1  31
TORSDOF 11
ENDMDL
MODEL 8
REMARK minimizedAffinity -8.44923592
REMARK  11 active torsions:
REMARK  status: ('A' for Active; 'I' for Inactive)
REMARK    1  A    between atoms: C2_2  and  C3_3 
REMARK    2  A    between atoms: C2_2  and  C4_5 
REMARK    3  A    between atoms: C3_3  and  O1_4 
REMARK    4  A    between atoms: C13_14  and  C14_15 
REMARK    5  A    between atoms: C14_15  and  C16_17 
REMARK    6  A    between atoms: C16_17  and  C17_18 
REMARK    7  A    between atoms: C17_18  and  C18_19 
REMARK    8  A    between atoms: C27_28  and  C28_29 
REMARK    9  A    between atoms: C28_29  and  C29_30 
REMARK   10  A    between atoms: C29_30  and  C30_31 
REMARK   11  A    between atoms: C30_31  and  O3_33 
ROOT
HETATM    1  C4  UNL     1      -0.148  51.345 -26.005  1.00  0.00     0.025 C 
HETATM    2  C5  UNL     1      -1.204  50.561 -26.802  1.00  0.00     0.010 C 
HETATM    3  C6  UNL     1      -1.932  49.561 -25.919  1.00  0.00     0.007 C 
HETATM    4  C7  UNL     1      -2.827  50.317 -24.931  1.00  0.00     0.004 C 
HETATM    5  C8  UNL     1      -1.995  51.277 -24.041  1.00  0.00    -0.027 A 
HETATM    6  C9  UNL     1      -2.159  51.123 -22.515  1.00  0.00     0.011 C 
HETATM    7  C10 UNL     1      -3.524  50.676 -21.962  1.00  0.00     0.011 C 
HETATM    8  C11 UNL     1      -4.529  50.243 -23.032  1.00  0.00    -0.032 C 
HETATM    9  C12 UNL     1      -5.189  51.525 -23.603  1.00  0.00     0.016 C 
HETATM   10  C13 UNL     1      -5.616  49.232 -22.549  1.00  0.00    -0.002 C 
HETATM   11  C22 UNL     1      -5.993  48.439 -23.824  1.00  0.00     0.006 C 
HETATM   12  C23 UNL     1      -4.939  48.788 -24.892  1.00  0.00     0.011 C 
HETATM   13  C24 UNL     1      -3.758  49.390 -24.104  1.00  0.00    -0.032 C 
HETATM   14  C25 UNL     1      -2.943  48.188 -23.529  1.00  0.00     0.016 C 
HETATM   15  C26 UNL     1      -1.864  52.706 -24.532  1.00  0.00     0.022 A 
HETATM   16  C27 UNL     1      -0.635  51.839 -24.613  1.00  0.00    -0.024 A 
ENDROOT
BRANCH  10  17
HETATM   17  C14 UNL     1      -6.770  49.653 -21.593  1.00  0.00    -0.014 C 
HETATM   18  C15 UNL     1      -6.168  50.138 -20.257  1.00  0.00     0.010 C 
BRANCH  17  19
HETATM   19  C16 UNL     1      -7.967  48.720 -21.290  1.00  0.00     0.008 C 
BRANCH  19  20
HETATM   20  C17 UNL     1      -7.760  47.598 -20.272  1.00  0.00     0.028 C 
BRANCH  20  21
HETATM   21  C18 UNL     1      -6.354  47.061 -20.344  1.00  0.00    -0.025 C 
HETATM   22  C19 UNL     1      -5.909  45.998 -21.042  1.00  0.00    -0.091 C 
HETATM   23  C20 UNL     1      -4.460  45.588 -20.972  1.00  0.00     0.042 C 
HETATM   24  C21 UNL     1      -6.749  45.139 -21.946  1.00  0.00     0.042 C 
ENDBRANCH  20  21
ENDBRANCH  19  20
ENDBRANCH  17  19
ENDBRANCH  10  17
BRANCH  16  25
HETATM   25  C28 UNL     1       0.512  52.034 -23.598  1.00  0.00     0.021 C 
BRANCH  25  26
HETATM   26  C29 UNL     1       0.413  53.244 -22.678  1.00  0.00     0.111 C 
BRANCH  26  27
HETATM   27  C30 UNL     1       1.274  54.386 -23.133  1.00  0.00     0.139 C 
HETATM   28  O2  UNL     1       1.381  54.819 -24.268  1.00  0.00    -0.650 OA
BRANCH  27  29
HETATM   29  O3  UNL     1       1.940  54.965 -22.112  1.00  0.00    -0.776 OA
HETATM   30  H48 UNL     1       2.472  55.661 -22.556  1.00  0.00     0.167 HD
ENDBRANCH  27  29
ENDBRANCH  26  27
ENDBRANCH  25  26
ENDBRANCH  16  25
BRANCH   1  31
HETATM   31  C2  UNL     1       0.527  52.370 -26.926  1.00  0.00    -0.061 C 
HETATM   32  C1  UNL     1       0.022  53.615 -27.039  1.00  0.00     0.017 C 
BRANCH  31  33
HETATM   33  C3  UNL     1       1.825  52.028 -27.618  1.00  0.00     0.198 C 
BRANCH  33  34
HETATM   34  O1  UNL     1       2.914  52.074 -26.717  1.00  0.00    -0.397 OA
HETATM   35  H5  UNL     1       2.655  51.574 -25.921  1.00  0.00     0.209 HD
ENDBRANCH  33  34
ENDBRANCH  31  33
ENDBRANCH   1  31
TORSDOF 11
ENDMDL
MODEL 9
REMARK minimizedAffinity -8.44764137
REMARK  11 active torsions:
REMARK  status: ('A' for Active; 'I' for Inactive)
REMARK    1  A    between atoms: C2_2  and  C3_3 
REMARK    2  A    between atoms: C2_2  and  C4_5 
REMARK    3  A    between atoms: C3_3  and  O1_4 
REMARK    4  A    between atoms: C13_14  and  C14_15 
REMARK    5  A    between atoms: C14_15  and  C16_17 
REMARK    6  A    between atoms: C16_17  and  C17_18 
REMARK    7  A    between atoms: C17_18  and  C18_19 
REMARK    8  A    between atoms: C27_28  and  C28_29 
REMARK    9  A    between atoms: C28_29  and  C29_30 
REMARK   10  A    between atoms: C29_30  and  C30_31 
REMARK   11  A    between atoms: C30_31  and  O3_33 
ROOT
HETATM    1  C4  UNL     1      -2.231  50.313 -24.798  1.00  0.00     0.025 C 
HETATM    2  C5  UNL     1      -3.155  49.384 -23.992  1.00  0.00     0.010 C 
HETATM    3  C6  UNL     1      -2.434  48.797 -22.790  1.00  0.00     0.007 C 
HETATM    4  C7  UNL     1      -2.180  49.904 -21.762  1.00  0.00     0.004 C 
HETATM    5  C8  UNL     1      -1.322  51.046 -22.367  1.00  0.00    -0.027 A 
HETATM    6  C9  UNL     1      -0.040  51.428 -21.600  1.00  0.00     0.011 C 
HETATM    7  C10 UNL     1      -0.030  51.295 -20.067  1.00  0.00     0.011 C 
HETATM    8  C11 UNL     1      -1.263  50.600 -19.485  1.00  0.00    -0.032 C 
HETATM    9  C12 UNL     1      -2.392  51.657 -19.377  1.00  0.00     0.016 C 
HETATM   10  C13 UNL     1      -1.038  49.893 -18.111  1.00  0.00    -0.002 C 
HETATM   11  C22 UNL     1      -2.077  48.745 -18.098  1.00  0.00     0.006 C 
HETATM   12  C23 UNL     1      -2.636  48.636 -19.529  1.00  0.00     0.011 C 
HETATM   13  C24 UNL     1      -1.616  49.382 -20.413  1.00  0.00    -0.032 C 
HETATM   14  C25 UNL     1      -0.439  48.388 -20.676  1.00  0.00     0.016 C 
HETATM   15  C26 UNL     1      -2.082  52.212 -22.971  1.00  0.00     0.022 A 
HETATM   16  C27 UNL     1      -1.381  51.281 -23.927  1.00  0.00    -0.024 A 
ENDROOT
BRANCH  10  17
HETATM   17  C14 UNL     1      -0.831  50.695 -16.793  1.00  0.00    -0.014 C 
HETATM   18  C15 UNL     1       0.579  50.402 -16.240  1.00  0.00     0.010 C 
BRANCH  17  19
HETATM   19  C16 UNL     1      -1.847  50.632 -15.627  1.00  0.00     0.008 C 
BRANCH  19  20
HETATM   20  C17 UNL     1      -1.327  50.876 -14.210  1.00  0.00     0.028 C 
BRANCH  20  21
HETATM   21  C18 UNL     1      -2.136  51.942 -13.518  1.00  0.00    -0.025 C 
HETATM   22  C19 UNL     1      -3.084  51.779 -12.573  1.00  0.00    -0.091 C 
HETATM   23  C20 UNL     1      -3.814  52.970 -12.009  1.00  0.00     0.042 C 
HETATM   24  C21 UNL     1      -3.501  50.462 -11.981  1.00  0.00     0.042 C 
ENDBRANCH  20  21
ENDBRANCH  19  20
ENDBRANCH  17  19
ENDBRANCH  10  17
BRANCH  16  25
HETATM   25  C28 UNL     1      -0.069  51.724 -24.608  1.00  0.00     0.021 C 
BRANCH  25  26
HETATM   26  C29 UNL     1       0.198  51.176 -26.004  1.00  0.00     0.111 C 
BRANCH  26  27
HETATM   27  C30 UNL     1       0.192  52.247 -27.055  1.00  0.00     0.139 C 
HETATM   28  O2  UNL     1       0.686  53.359 -26.975  1.00  0.00    -0.650 OA
BRANCH  27  29
HETATM   29  O3  UNL     1      -0.412  51.844 -28.194  1.00  0.00    -0.776 OA
HETATM   30  H48 UNL     1      -0.366  52.641 -28.766  1.00  0.00     0.167 HD
ENDBRANCH  27  29
ENDBRANCH  26  27
ENDBRANCH  25  26
ENDBRANCH  16  25
BRANCH   1  31
HETATM   31  C2  UNL     1      -3.014  50.915 -25.973  1.00  0.00    -0.061 C 
HETATM   32  C1  UNL     1      -3.439  52.193 -25.919  1.00  0.00     0.017 C 
BRANCH  31  33
HETATM   33  C3  UNL     1      -3.210  50.118 -27.240  1.00  0.00     0.198 C 
BRANCH  33  34
HETATM   34  O1  UNL     1      -3.274  50.963 -28.372  1.00  0.00    -0.397 OA
HETATM   35  H5  UNL     1      -2.525  51.585 -28.315  1.00  0.00     0.209 HD
ENDBRANCH  33  34
ENDBRANCH  31  33
ENDBRANCH   1  31
TORSDOF 11
ENDMDL
