MODEL 1
REMARK minimizedAffinity -9.40981483
REMARK  4 active torsions:
REMARK  status: ('A' for Active; 'I' for Inactive)
REMARK    1  A    between atoms: C2_2  and  C4_4 
REMARK    2  A    between atoms: C4_4  and  C5_5 
REMARK    3  A    between atoms: C5_5  and  O1_6 
REMARK    4  A    between atoms: C8_9  and  C9_10 
ROOT
HETATM    1  C9  UNL     1      -5.621   6.607  15.175  1.00  0.00     0.001 C 
HETATM    2  C10 UNL     1      -5.976   5.358  14.323  1.00  0.00     0.007 C 
HETATM    3  C11 UNL     1      -4.802   5.114  13.359  1.00  0.00     0.011 C 
HETATM    4  C12 UNL     1      -3.643   5.958  13.921  1.00  0.00    -0.032 C 
HETATM    5  C13 UNL     1      -2.988   5.108  15.055  1.00  0.00     0.016 C 
HETATM    6  C14 UNL     1      -2.579   6.364  12.867  1.00  0.00     0.004 C 
HETATM    7  C15 UNL     1      -1.709   5.203  12.370  1.00  0.00     0.007 C 
HETATM    8  C16 UNL     1      -0.740   5.689  11.293  1.00  0.00     0.007 C 
HETATM    9  C17 UNL     1       0.315   6.613  11.916  1.00  0.00     0.010 C 
HETATM   10  C18 UNL     1       1.384   7.158  10.916  1.00  0.00     0.018 C 
HETATM   11  C19 UNL     1       0.782   7.933   9.733  1.00  0.00     0.023 C 
HETATM   12  C20 UNL     1       2.242   6.003  10.368  1.00  0.00     0.023 C 
HETATM   13  C21 UNL     1       2.334   8.108  11.662  1.00  0.00     0.135 C 
HETATM   14  O2  UNL     1       3.223   8.733  11.080  1.00  0.00    -0.297 OA
HETATM   15  C22 UNL     1       2.202   8.184  13.162  1.00  0.00     0.080 C 
HETATM   16  C23 UNL     1       0.771   8.515  13.560  1.00  0.00     0.018 C 
HETATM   17  C24 UNL     1      -0.285   7.745  12.761  1.00  0.00    -0.026 A 
HETATM   18  C25 UNL     1      -1.428   8.580  12.235  1.00  0.00     0.021 A 
HETATM   19  C26 UNL     1      -1.724   7.573  13.329  1.00  0.00    -0.027 A 
HETATM   20  C27 UNL     1      -1.995   8.124  14.733  1.00  0.00     0.011 C 
HETATM   21  C28 UNL     1      -3.442   8.079  15.260  1.00  0.00     0.011 C 
HETATM   22  C29 UNL     1      -4.412   7.242  14.414  1.00  0.00    -0.032 C 
HETATM   23  C30 UNL     1      -4.933   8.148  13.265  1.00  0.00     0.016 C 
ENDROOT
BRANCH   1  24
HETATM   24  C8  UNL     1      -6.863   7.415  15.647  1.00  0.00     0.014 C 
HETATM   25  C7  UNL     1      -7.316   8.461  14.623  1.00  0.00     0.010 C 
HETATM   26  C6  UNL     1      -8.426   9.340  15.199  1.00  0.00     0.041 C 
HETATM   27  C4  UNL     1      -9.595   8.536  15.817  1.00  0.00     0.085 C 
HETATM   28  O3  UNL     1      -9.064   7.523  16.705  1.00  0.00    -0.377 OA
HETATM   29  C31 UNL     1      -8.084   6.638  16.150  1.00  0.00     0.174 C 
BRANCH  27  30
HETATM   30  C2  UNL     1     -10.447   9.487  16.737  1.00  0.00     0.014 C 
HETATM   31  C1  UNL     1     -11.967   9.330  16.584  1.00  0.00     0.012 C 
HETATM   32  C3  UNL     1     -10.088  10.973  16.613  1.00  0.00     0.012 C 
ENDBRANCH  27  30
BRANCH  27  33
HETATM   33  C5  UNL     1     -10.440   7.855  14.704  1.00  0.00     0.202 C 
BRANCH  33  34
HETATM   34  O1  UNL     1     -10.959   6.596  15.130  1.00  0.00    -0.398 OA
HETATM   35  H10 UNL     1     -10.288   6.223  15.734  1.00  0.00     0.209 HD
ENDBRANCH  33  34
ENDBRANCH  27  33
ENDBRANCH   1  24
TORSDOF 4
ENDMDL
MODEL 2
REMARK minimizedAffinity -9.30293179
REMARK  4 active torsions:
REMARK  status: ('A' for Active; 'I' for Inactive)
REMARK    1  A    between atoms: C2_2  and  C4_4 
REMARK    2  A    between atoms: C4_4  and  C5_5 
REMARK    3  A    between atoms: C5_5  and  O1_6 
REMARK    4  A    between atoms: C8_9  and  C9_10 
ROOT
HETATM    1  C9  UNL     1      -2.778   5.626  13.285  1.00  0.00     0.001 C 
HETATM    2  C10 UNL     1      -2.760   4.781  11.981  1.00  0.00     0.007 C 
HETATM    3  C11 UNL     1      -1.362   4.936  11.356  1.00  0.00     0.011 C 
HETATM    4  C12 UNL     1      -0.487   5.528  12.477  1.00  0.00    -0.032 C 
HETATM    5  C13 UNL     1      -0.039   4.326  13.367  1.00  0.00     0.016 C 
HETATM    6  C14 UNL     1       0.750   6.317  11.973  1.00  0.00     0.004 C 
HETATM    7  C15 UNL     1       1.847   5.442  11.354  1.00  0.00     0.007 C 
HETATM    8  C16 UNL     1       2.989   6.312  10.832  1.00  0.00     0.007 C 
HETATM    9  C17 UNL     1       3.739   6.953  12.007  1.00  0.00     0.010 C 
HETATM   10  C18 UNL     1       4.951   7.851  11.602  1.00  0.00     0.018 C 
HETATM   11  C19 UNL     1       4.575   9.003  10.655  1.00  0.00     0.023 C 
HETATM   12  C20 UNL     1       6.048   7.001  10.937  1.00  0.00     0.023 C 
HETATM   13  C21 UNL     1       5.566   8.469  12.867  1.00  0.00     0.135 C 
HETATM   14  O2  UNL     1       6.492   9.282  12.814  1.00  0.00    -0.297 OA
HETATM   15  C22 UNL     1       5.058   7.975  14.198  1.00  0.00     0.080 C 
HETATM   16  C23 UNL     1       3.544   8.108  14.278  1.00  0.00     0.018 C 
HETATM   17  C24 UNL     1       2.819   7.676  13.001  1.00  0.00    -0.026 A 
HETATM   18  C25 UNL     1       1.751   8.627  12.514  1.00  0.00     0.021 A 
HETATM   19  C26 UNL     1       1.314   7.279  13.051  1.00  0.00    -0.027 A 
HETATM   20  C27 UNL     1       0.639   7.259  14.427  1.00  0.00     0.011 C 
HETATM   21  C28 UNL     1      -0.878   6.995  14.483  1.00  0.00     0.011 C 
HETATM   22  C29 UNL     1      -1.501   6.520  13.163  1.00  0.00    -0.032 C 
HETATM   23  C30 UNL     1      -1.823   7.782  12.317  1.00  0.00     0.016 C 
ENDROOT
BRANCH   1  24
HETATM   24  C8  UNL     1      -4.184   6.177  13.653  1.00  0.00     0.014 C 
HETATM   25  C7  UNL     1      -5.302   5.154  13.426  1.00  0.00     0.010 C 
HETATM   26  C6  UNL     1      -6.674   5.793  13.638  1.00  0.00     0.041 C 
HETATM   27  C4  UNL     1      -6.801   6.557  14.978  1.00  0.00     0.085 C 
HETATM   28  O3  UNL     1      -5.661   7.435  15.140  1.00  0.00    -0.377 OA
HETATM   29  C31 UNL     1      -4.368   6.829  15.027  1.00  0.00     0.174 C 
BRANCH  27  30
HETATM   30  C2  UNL     1      -8.052   7.510  14.914  1.00  0.00     0.014 C 
HETATM   31  C1  UNL     1      -7.739   8.991  15.174  1.00  0.00     0.012 C 
HETATM   32  C3  UNL     1      -9.217   7.085  15.815  1.00  0.00     0.012 C 
ENDBRANCH  27  30
BRANCH  27  33
HETATM   33  C5  UNL     1      -6.859   5.562  16.172  1.00  0.00     0.202 C 
BRANCH  33  34
HETATM   34  O1  UNL     1      -7.723   4.460  15.899  1.00  0.00    -0.398 OA
HETATM   35  H10 UNL     1      -8.437   4.815  15.334  1.00  0.00     0.209 HD
ENDBRANCH  33  34
ENDBRANCH  27  33
ENDBRANCH   1  24
TORSDOF 4
ENDMDL
MODEL 3
REMARK minimizedAffinity -9.13061523
REMARK  4 active torsions:
REMARK  status: ('A' for Active; 'I' for Inactive)
REMARK    1  A    between atoms: C2_2  and  C4_4 
REMARK    2  A    between atoms: C4_4  and  C5_5 
REMARK    3  A    between atoms: C5_5  and  O1_6 
REMARK    4  A    between atoms: C8_9  and  C9_10 
ROOT
HETATM    1  C9  UNL     1      -2.193   7.572  13.707  1.00  0.00     0.001 C 
HETATM    2  C10 UNL     1      -1.870   7.579  15.227  1.00  0.00     0.007 C 
HETATM    3  C11 UNL     1      -0.340   7.655  15.368  1.00  0.00     0.011 C 
HETATM    4  C12 UNL     1       0.168   8.080  13.978  1.00  0.00    -0.032 C 
HETATM    5  C13 UNL     1       0.022   9.633  13.911  1.00  0.00     0.016 C 
HETATM    6  C14 UNL     1       1.632   7.663  13.676  1.00  0.00     0.004 C 
HETATM    7  C15 UNL     1       2.686   8.436  14.478  1.00  0.00     0.007 C 
HETATM    8  C16 UNL     1       4.085   7.912  14.161  1.00  0.00     0.007 C 
HETATM    9  C17 UNL     1       4.469   8.281  12.722  1.00  0.00     0.010 C 
HETATM   10  C18 UNL     1       5.896   7.819  12.284  1.00  0.00     0.018 C 
HETATM   11  C19 UNL     1       6.118   6.304  12.411  1.00  0.00     0.023 C 
HETATM   12  C20 UNL     1       6.971   8.550  13.108  1.00  0.00     0.023 C 
HETATM   13  C21 UNL     1       6.120   8.203  10.813  1.00  0.00     0.135 C 
HETATM   14  O2  UNL     1       7.141   7.881  10.202  1.00  0.00    -0.297 OA
HETATM   15  C22 UNL     1       5.079   9.075  10.157  1.00  0.00     0.080 C 
HETATM   16  C23 UNL     1       3.696   8.456  10.294  1.00  0.00     0.018 C 
HETATM   17  C24 UNL     1       3.411   7.881  11.684  1.00  0.00    -0.026 A 
HETATM   18  C25 UNL     1       2.799   6.501  11.697  1.00  0.00     0.021 A 
HETATM   19  C26 UNL     1       1.944   7.664  12.157  1.00  0.00    -0.027 A 
HETATM   20  C27 UNL     1       0.828   8.128  11.215  1.00  0.00     0.011 C 
HETATM   21  C28 UNL     1      -0.627   7.806  11.606  1.00  0.00     0.011 C 
HETATM   22  C29 UNL     1      -0.811   7.281  13.037  1.00  0.00    -0.032 C 
HETATM   23  C30 UNL     1      -0.554   5.750  13.010  1.00  0.00     0.016 C 
ENDROOT
BRANCH   1  24
HETATM   24  C8  UNL     1      -3.502   6.812  13.350  1.00  0.00     0.014 C 
HETATM   25  C7  UNL     1      -3.607   5.451  14.046  1.00  0.00     0.010 C 
HETATM   26  C6  UNL     1      -4.819   4.672  13.535  1.00  0.00     0.041 C 
HETATM   27  C4  UNL     1      -6.136   5.485  13.568  1.00  0.00     0.085 C 
HETATM   28  O3  UNL     1      -5.915   6.782  12.963  1.00  0.00    -0.377 OA
HETATM   29  C31 UNL     1      -4.833   7.557  13.492  1.00  0.00     0.174 C 
BRANCH  27  30
HETATM   30  C2  UNL     1      -7.203   4.778  12.652  1.00  0.00     0.014 C 
HETATM   31  C1  UNL     1      -8.510   5.564  12.471  1.00  0.00     0.012 C 
HETATM   32  C3  UNL     1      -7.543   3.342  13.071  1.00  0.00     0.012 C 
ENDBRANCH  27  30
BRANCH  27  33
HETATM   33  C5  UNL     1      -6.626   5.675  15.031  1.00  0.00     0.202 C 
BRANCH  33  34
HETATM   34  O1  UNL     1      -7.815   4.932  15.291  1.00  0.00    -0.398 OA
HETATM   35  H10 UNL     1      -8.314   4.927  14.451  1.00  0.00     0.209 HD
ENDBRANCH  33  34
ENDBRANCH  27  33
ENDBRANCH   1  24
TORSDOF 4
ENDMDL
MODEL 4
REMARK minimizedAffinity -9.01309013
REMARK  4 active torsions:
REMARK  status: ('A' for Active; 'I' for Inactive)
REMARK    1  A    between atoms: C2_2  and  C4_4 
REMARK    2  A    between atoms: C4_4  and  C5_5 
REMARK    3  A    between atoms: C5_5  and  O1_6 
REMARK    4  A    between atoms: C8_9  and  C9_10 
ROOT
HETATM    1  C9  UNL     1      -2.123   6.335  13.504  1.00  0.00     0.001 C 
HETATM    2  C10 UNL     1      -1.946   6.702  15.002  1.00  0.00     0.007 C 
HETATM    3  C11 UNL     1      -0.503   7.206  15.182  1.00  0.00     0.011 C 
HETATM    4  C12 UNL     1      -0.000   7.492  13.754  1.00  0.00    -0.032 C 
HETATM    5  C13 UNL     1      -0.529   8.912  13.377  1.00  0.00     0.016 C 
HETATM    6  C14 UNL     1       1.542   7.431  13.595  1.00  0.00     0.004 C 
HETATM    7  C15 UNL     1       2.292   8.589  14.267  1.00  0.00     0.007 C 
HETATM    8  C16 UNL     1       3.800   8.406  14.111  1.00  0.00     0.007 C 
HETATM    9  C17 UNL     1       4.202   8.597  12.643  1.00  0.00     0.010 C 
HETATM   10  C18 UNL     1       5.731   8.459  12.357  1.00  0.00     0.018 C 
HETATM   11  C19 UNL     1       6.319   7.106  12.789  1.00  0.00     0.023 C 
HETATM   12  C20 UNL     1       6.510   9.586  13.059  1.00  0.00     0.023 C 
HETATM   13  C21 UNL     1       5.978   8.616  10.848  1.00  0.00     0.135 C 
HETATM   14  O2  UNL     1       7.097   8.472  10.350  1.00  0.00    -0.297 OA
HETATM   15  C22 UNL     1       4.811   9.046   9.995  1.00  0.00     0.080 C 
HETATM   16  C23 UNL     1       3.624   8.117  10.201  1.00  0.00     0.018 C 
HETATM   17  C24 UNL     1       3.374   7.750  11.666  1.00  0.00    -0.026 A 
HETATM   18  C25 UNL     1       3.134   6.282  11.928  1.00  0.00     0.021 A 
HETATM   19  C26 UNL     1       1.974   7.240  12.118  1.00  0.00    -0.027 A 
HETATM   20  C27 UNL     1       0.864   7.212  11.063  1.00  0.00     0.011 C 
HETATM   21  C28 UNL     1      -0.491   6.592  11.456  1.00  0.00     0.011 C 
HETATM   22  C29 UNL     1      -0.659   6.305  12.955  1.00  0.00    -0.032 C 
HETATM   23  C30 UNL     1      -0.020   4.918  13.241  1.00  0.00     0.016 C 
ENDROOT
BRANCH   1  24
HETATM   24  C8  UNL     1      -3.159   5.203  13.256  1.00  0.00     0.014 C 
HETATM   25  C7  UNL     1      -4.535   5.736  12.843  1.00  0.00     0.010 C 
HETATM   26  C6  UNL     1      -5.560   4.603  12.777  1.00  0.00     0.041 C 
HETATM   27  C4  UNL     1      -5.090   3.393  11.934  1.00  0.00     0.085 C 
HETATM   28  O3  UNL     1      -3.753   3.015  12.341  1.00  0.00    -0.377 OA
HETATM   29  C31 UNL     1      -2.764   4.051  12.326  1.00  0.00     0.174 C 
BRANCH  27  30
HETATM   30  C2  UNL     1      -5.992   2.148  12.272  1.00  0.00     0.014 C 
HETATM   31  C1  UNL     1      -6.100   1.113  11.142  1.00  0.00     0.012 C 
HETATM   32  C3  UNL     1      -7.405   2.503  12.753  1.00  0.00     0.012 C 
ENDBRANCH  27  30
BRANCH  27  33
HETATM   33  C5  UNL     1      -5.089   3.747  10.421  1.00  0.00     0.202 C 
BRANCH  33  34
HETATM   34  O1  UNL     1      -3.925   3.249   9.762  1.00  0.00    -0.398 OA
HETATM   35  H10 UNL     1      -3.207   3.291  10.424  1.00  0.00     0.209 HD
ENDBRANCH  33  34
ENDBRANCH  27  33
ENDBRANCH   1  24
TORSDOF 4
ENDMDL
MODEL 5
REMARK minimizedAffinity -8.87934875
REMARK  4 active torsions:
REMARK  status: ('A' for Active; 'I' for Inactive)
REMARK    1  A    between atoms: C2_2  and  C4_4 
REMARK    2  A    between atoms: C4_4  and  C5_5 
REMARK    3  A    between atoms: C5_5  and  O1_6 
REMARK    4  A    between atoms: C8_9  and  C9_10 
ROOT
HETATM    1  C9  UNL     1       3.027   7.381  11.203  1.00  0.00     0.001 C 
HETATM    2  C10 UNL     1       3.098   5.892  10.766  1.00  0.00     0.007 C 
HETATM    3  C11 UNL     1       1.734   5.256  11.088  1.00  0.00     0.011 C 
HETATM    4  C12 UNL     1       0.787   6.446  11.331  1.00  0.00    -0.032 C 
HETATM    5  C13 UNL     1       0.315   6.929   9.924  1.00  0.00     0.016 C 
HETATM    6  C14 UNL     1      -0.436   6.117  12.227  1.00  0.00     0.004 C 
HETATM    7  C15 UNL     1      -1.480   5.211  11.561  1.00  0.00     0.007 C 
HETATM    8  C16 UNL     1      -2.609   4.893  12.539  1.00  0.00     0.007 C 
HETATM    9  C17 UNL     1      -3.435   6.156  12.815  1.00  0.00     0.010 C 
HETATM   10  C18 UNL     1      -4.641   5.953  13.787  1.00  0.00     0.018 C 
HETATM   11  C19 UNL     1      -4.237   5.398  15.162  1.00  0.00     0.023 C 
HETATM   12  C20 UNL     1      -5.683   5.011  13.157  1.00  0.00     0.023 C 
HETATM   13  C21 UNL     1      -5.338   7.304  14.014  1.00  0.00     0.135 C 
HETATM   14  O2  UNL     1      -6.276   7.431  14.805  1.00  0.00    -0.297 OA
HETATM   15  C22 UNL     1      -4.893   8.466  13.163  1.00  0.00     0.080 C 
HETATM   16  C23 UNL     1      -3.389   8.669  13.274  1.00  0.00     0.018 C 
HETATM   17  C24 UNL     1      -2.586   7.366  13.227  1.00  0.00    -0.026 A 
HETATM   18  C25 UNL     1      -1.514   7.234  14.282  1.00  0.00     0.021 A 
HETATM   19  C26 UNL     1      -1.078   7.389  12.839  1.00  0.00    -0.027 A 
HETATM   20  C27 UNL     1      -0.480   8.739  12.429  1.00  0.00     0.011 C 
HETATM   21  C28 UNL     1       1.036   8.807  12.166  1.00  0.00     0.011 C 
HETATM   22  C29 UNL     1       1.740   7.445  12.090  1.00  0.00    -0.032 C 
HETATM   23  C30 UNL     1       2.083   7.013  13.542  1.00  0.00     0.016 C 
ENDROOT
BRANCH   1  24
HETATM   24  C8  UNL     1       4.399   7.973  11.632  1.00  0.00     0.014 C 
HETATM   25  C7  UNL     1       4.261   9.168  12.581  1.00  0.00     0.010 C 
HETATM   26  C6  UNL     1       5.621   9.818  12.837  1.00  0.00     0.041 C 
HETATM   27  C4  UNL     1       6.715   8.813  13.269  1.00  0.00     0.085 C 
HETATM   28  O3  UNL     1       6.714   7.683  12.362  1.00  0.00    -0.377 OA
HETATM   29  C31 UNL     1       5.461   7.014  12.180  1.00  0.00     0.174 C 
BRANCH  27  30
HETATM   30  C2  UNL     1       8.129   9.482  13.093  1.00  0.00     0.014 C 
HETATM   31  C1  UNL     1       9.146   9.122  14.187  1.00  0.00     0.012 C 
HETATM   32  C3  UNL     1       8.091  11.007  12.936  1.00  0.00     0.012 C 
ENDBRANCH  27  30
BRANCH  27  33
HETATM   33  C5  UNL     1       6.459   8.312  14.718  1.00  0.00     0.202 C 
BRANCH  33  34
HETATM   34  O1  UNL     1       6.373   6.890  14.778  1.00  0.00    -0.398 OA
HETATM   35  H10 UNL     1       5.973   6.612  13.931  1.00  0.00     0.209 HD
ENDBRANCH  33  34
ENDBRANCH  27  33
ENDBRANCH   1  24
TORSDOF 4
ENDMDL
MODEL 6
REMARK minimizedAffinity -8.85275555
REMARK  4 active torsions:
REMARK  status: ('A' for Active; 'I' for Inactive)
REMARK    1  A    between atoms: C2_2  and  C4_4 
REMARK    2  A    between atoms: C4_4  and  C5_5 
REMARK    3  A    between atoms: C5_5  and  O1_6 
REMARK    4  A    between atoms: C8_9  and  C9_10 
ROOT
HETATM    1  C9  UNL     1      -2.413   5.485  13.238  1.00  0.00     0.001 C 
HETATM    2  C10 UNL     1      -2.420   4.791  11.848  1.00  0.00     0.007 C 
HETATM    3  C11 UNL     1      -1.045   5.045  11.204  1.00  0.00     0.011 C 
HETATM    4  C12 UNL     1      -0.147   5.526  12.359  1.00  0.00    -0.032 C 
HETATM    5  C13 UNL     1       0.350   4.243  13.096  1.00  0.00     0.016 C 
HETATM    6  C14 UNL     1       1.060   6.393  11.911  1.00  0.00     0.004 C 
HETATM    7  C15 UNL     1       2.153   5.616  11.167  1.00  0.00     0.007 C 
HETATM    8  C16 UNL     1       3.262   6.562  10.713  1.00  0.00     0.007 C 
HETATM    9  C17 UNL     1       4.036   7.085  11.931  1.00  0.00     0.010 C 
HETATM   10  C18 UNL     1       5.219   8.048  11.593  1.00  0.00     0.018 C 
HETATM   11  C19 UNL     1       4.793   9.289  10.793  1.00  0.00     0.023 C 
HETATM   12  C20 UNL     1       6.310   7.300  10.807  1.00  0.00     0.023 C 
HETATM   13  C21 UNL     1       5.862   8.534  12.902  1.00  0.00     0.135 C 
HETATM   14  O2  UNL     1       6.771   9.367  12.914  1.00  0.00    -0.297 OA
HETATM   15  C22 UNL     1       5.404   7.884  14.184  1.00  0.00     0.080 C 
HETATM   16  C23 UNL     1       3.891   7.975  14.321  1.00  0.00     0.018 C 
HETATM   17  C24 UNL     1       3.135   7.672  13.025  1.00  0.00    -0.026 A 
HETATM   18  C25 UNL     1       2.036   8.649  12.678  1.00  0.00     0.021 A 
HETATM   19  C26 UNL     1       1.639   7.241  13.073  1.00  0.00    -0.027 A 
HETATM   20  C27 UNL     1       1.008   7.054  14.457  1.00  0.00     0.011 C 
HETATM   21  C28 UNL     1      -0.501   6.753  14.527  1.00  0.00     0.011 C 
HETATM   22  C29 UNL     1      -1.156   6.414  13.181  1.00  0.00    -0.032 C 
HETATM   23  C30 UNL     1      -1.527   7.755  12.490  1.00  0.00     0.016 C 
ENDROOT
BRANCH   1  24
HETATM   24  C8  UNL     1      -3.817   5.962  13.706  1.00  0.00     0.014 C 
HETATM   25  C7  UNL     1      -3.902   6.158  15.223  1.00  0.00     0.010 C 
HETATM   26  C6  UNL     1      -5.338   6.461  15.652  1.00  0.00     0.041 C 
HETATM   27  C4  UNL     1      -5.997   7.605  14.844  1.00  0.00     0.085 C 
HETATM   28  O3  UNL     1      -5.793   7.372  13.429  1.00  0.00    -0.377 OA
HETATM   29  C31 UNL     1      -4.440   7.172  13.004  1.00  0.00     0.174 C 
BRANCH  27  30
HETATM   30  C2  UNL     1      -7.557   7.552  15.051  1.00  0.00     0.014 C 
HETATM   31  C1  UNL     1      -8.000   7.301  16.500  1.00  0.00     0.012 C 
HETATM   32  C3  UNL     1      -8.282   6.559  14.133  1.00  0.00     0.012 C 
ENDBRANCH  27  30
BRANCH  27  33
HETATM   33  C5  UNL     1      -5.381   8.977  15.236  1.00  0.00     0.202 C 
BRANCH  33  34
HETATM   34  O1  UNL     1      -4.724   8.920  16.501  1.00  0.00    -0.398 OA
HETATM   35  H10 UNL     1      -5.231   8.276  17.034  1.00  0.00     0.209 HD
ENDBRANCH  33  34
ENDBRANCH  27  33
ENDBRANCH   1  24
TORSDOF 4
ENDMDL
MODEL 7
REMARK minimizedAffinity -8.6476717
REMARK  4 active torsions:
REMARK  status: ('A' for Active; 'I' for Inactive)
REMARK    1  A    between atoms: C2_2  and  C4_4 
REMARK    2  A    between atoms: C4_4  and  C5_5 
REMARK    3  A    between atoms: C5_5  and  O1_6 
REMARK    4  A    between atoms: C8_9  and  C9_10 
ROOT
HETATM    1  C9  UNL     1      -3.058   5.766  13.437  1.00  0.00     0.001 C 
HETATM    2  C10 UNL     1      -2.275   5.259  12.195  1.00  0.00     0.007 C 
HETATM    3  C11 UNL     1      -0.920   5.988  12.181  1.00  0.00     0.011 C 
HETATM    4  C12 UNL     1      -0.776   6.590  13.590  1.00  0.00    -0.032 C 
HETATM    5  C13 UNL     1      -0.238   5.447  14.507  1.00  0.00     0.016 C 
HETATM    6  C14 UNL     1       0.158   7.827  13.665  1.00  0.00     0.004 C 
HETATM    7  C15 UNL     1       1.646   7.505  13.474  1.00  0.00     0.007 C 
HETATM    8  C16 UNL     1       2.474   8.788  13.499  1.00  0.00     0.007 C 
HETATM    9  C17 UNL     1       2.473   9.385  14.913  1.00  0.00     0.010 C 
HETATM   10  C18 UNL     1       3.311  10.693  15.075  1.00  0.00     0.018 C 
HETATM   11  C19 UNL     1       2.873  11.825  14.132  1.00  0.00     0.023 C 
HETATM   12  C20 UNL     1       4.805  10.403  14.842  1.00  0.00     0.023 C 
HETATM   13  C21 UNL     1       3.172  11.205  16.517  1.00  0.00     0.135 C 
HETATM   14  O2  UNL     1       3.677  12.269  16.884  1.00  0.00    -0.297 OA
HETATM   15  C22 UNL     1       2.468  10.311  17.506  1.00  0.00     0.080 C 
HETATM   16  C23 UNL     1       1.090   9.922  16.993  1.00  0.00     0.018 C 
HETATM   17  C24 UNL     1       1.068   9.547  15.508  1.00  0.00    -0.026 A 
HETATM   18  C25 UNL     1      -0.045  10.175  14.703  1.00  0.00     0.021 A 
HETATM   19  C26 UNL     1      -0.092   8.678  14.937  1.00  0.00    -0.027 A 
HETATM   20  C27 UNL     1      -1.134   8.158  15.933  1.00  0.00     0.011 C 
HETATM   21  C28 UNL     1      -2.356   7.406  15.371  1.00  0.00     0.011 C 
HETATM   22  C29 UNL     1      -2.259   7.034  13.885  1.00  0.00    -0.032 C 
HETATM   23  C30 UNL     1      -2.727   8.265  13.062  1.00  0.00     0.016 C 
ENDROOT
BRANCH   1  24
HETATM   24  C8  UNL     1      -4.602   5.739  13.257  1.00  0.00     0.014 C 
HETATM   25  C7  UNL     1      -5.113   4.404  12.705  1.00  0.00     0.010 C 
HETATM   26  C6  UNL     1      -6.606   4.484  12.386  1.00  0.00     0.041 C 
HETATM   27  C4  UNL     1      -7.459   5.035  13.554  1.00  0.00     0.085 C 
HETATM   28  O3  UNL     1      -6.853   6.249  14.061  1.00  0.00    -0.377 OA
HETATM   29  C31 UNL     1      -5.476   6.163  14.442  1.00  0.00     0.174 C 
BRANCH  27  30
HETATM   30  C2  UNL     1      -8.867   5.474  13.003  1.00  0.00     0.014 C 
HETATM   31  C1  UNL     1      -8.891   5.802  11.503  1.00  0.00     0.012 C 
HETATM   32  C3  UNL     1      -9.513   6.632  13.773  1.00  0.00     0.012 C 
ENDBRANCH  27  30
BRANCH  27  33
HETATM   33  C5  UNL     1      -7.557   3.990  14.701  1.00  0.00     0.202 C 
BRANCH  33  34
HETATM   34  O1  UNL     1      -7.970   4.588  15.928  1.00  0.00    -0.398 OA
HETATM   35  H10 UNL     1      -7.594   5.490  15.923  1.00  0.00     0.209 HD
ENDBRANCH  33  34
ENDBRANCH  27  33
ENDBRANCH   1  24
TORSDOF 4
ENDMDL
MODEL 8
REMARK minimizedAffinity -8.63886929
REMARK  4 active torsions:
REMARK  status: ('A' for Active; 'I' for Inactive)
REMARK    1  A    between atoms: C2_2  and  C4_4 
REMARK    2  A    between atoms: C4_4  and  C5_5 
REMARK    3  A    between atoms: C5_5  and  O1_6 
REMARK    4  A    between atoms: C8_9  and  C9_10 
ROOT
HETATM    1  C9  UNL     1     -10.156   7.806  14.768  1.00  0.00     0.001 C 
HETATM    2  C10 UNL     1     -10.000   9.351  14.752  1.00  0.00     0.007 C 
HETATM    3  C11 UNL     1     -11.372   9.946  14.393  1.00  0.00     0.011 C 
HETATM    4  C12 UNL     1     -12.371   8.791  14.591  1.00  0.00    -0.032 C 
HETATM    5  C13 UNL     1     -12.704   8.751  16.116  1.00  0.00     0.016 C 
HETATM    6  C14 UNL     1     -13.674   8.923  13.758  1.00  0.00     0.004 C 
HETATM    7  C15 UNL     1     -14.616  10.036  14.233  1.00  0.00     0.007 C 
HETATM    8  C16 UNL     1     -15.834  10.129  13.316  1.00  0.00     0.007 C 
HETATM    9  C17 UNL     1     -16.718   8.888  13.492  1.00  0.00     0.010 C 
HETATM   10  C18 UNL     1     -18.015   8.876  12.621  1.00  0.00     0.018 C 
HETATM   11  C19 UNL     1     -17.746   8.998  11.113  1.00  0.00     0.023 C 
HETATM   12  C20 UNL     1     -18.958  10.014  13.051  1.00  0.00     0.023 C 
HETATM   13  C21 UNL     1     -18.768   7.557  12.856  1.00  0.00     0.135 C 
HETATM   14  O2  UNL     1     -19.788   7.265  12.227  1.00  0.00    -0.297 OA
HETATM   15  C22 UNL     1     -18.267   6.658  13.959  1.00  0.00     0.080 C 
HETATM   16  C23 UNL     1     -16.789   6.349  13.769  1.00  0.00     0.018 C 
HETATM   17  C24 UNL     1     -15.951   7.565  13.365  1.00  0.00    -0.026 A 
HETATM   18  C25 UNL     1     -14.994   7.334  12.219  1.00  0.00     0.021 A 
HETATM   19  C26 UNL     1     -14.411   7.568  13.599  1.00  0.00    -0.027 A 
HETATM   20  C27 UNL     1     -13.809   6.356  14.319  1.00  0.00     0.011 C 
HETATM   21  C28 UNL     1     -12.276   6.280  14.446  1.00  0.00     0.011 C 
HETATM   22  C29 UNL     1     -11.531   7.567  14.063  1.00  0.00    -0.032 C 
HETATM   23  C30 UNL     1     -11.334   7.553  12.522  1.00  0.00     0.016 C 
ENDROOT
BRANCH   1  24
HETATM   24  C8  UNL     1      -8.854   7.042  14.399  1.00  0.00     0.014 C 
HETATM   25  C7  UNL     1      -8.250   6.286  15.587  1.00  0.00     0.010 C 
HETATM   26  C6  UNL     1      -6.890   5.694  15.220  1.00  0.00     0.041 C 
HETATM   27  C4  UNL     1      -6.906   4.870  13.910  1.00  0.00     0.085 C 
HETATM   28  O3  UNL     1      -7.566   5.633  12.871  1.00  0.00    -0.377 OA
HETATM   29  C31 UNL     1      -8.878   6.121  13.174  1.00  0.00     0.174 C 
BRANCH  27  30
HETATM   30  C2  UNL     1      -5.428   4.675  13.404  1.00  0.00     0.014 C 
HETATM   31  C1  UNL     1      -4.658   5.982  13.164  1.00  0.00     0.012 C 
HETATM   32  C3  UNL     1      -5.299   3.788  12.160  1.00  0.00     0.012 C 
ENDBRANCH  27  30
BRANCH  27  33
HETATM   33  C5  UNL     1      -7.657   3.525  14.119  1.00  0.00     0.202 C 
BRANCH  33  34
HETATM   34  O1  UNL     1      -8.626   3.296  13.097  1.00  0.00    -0.398 OA
HETATM   35  H10 UNL     1      -8.964   4.179  12.849  1.00  0.00     0.209 HD
ENDBRANCH  33  34
ENDBRANCH  27  33
ENDBRANCH   1  24
TORSDOF 4
ENDMDL
MODEL 9
REMARK minimizedAffinity -8.62719822
REMARK  4 active torsions:
REMARK  status: ('A' for Active; 'I' for Inactive)
REMARK    1  A    between atoms: C2_2  and  C4_4 
REMARK    2  A    between atoms: C4_4  and  C5_5 
REMARK    3  A    between atoms: C5_5  and  O1_6 
REMARK    4  A    between atoms: C8_9  and  C9_10 
ROOT
HETATM    1  C9  UNL     1      -3.084   7.643  13.787  1.00  0.00     0.001 C 
HETATM    2  C10 UNL     1      -2.493   8.307  12.513  1.00  0.00     0.007 C 
HETATM    3  C11 UNL     1      -1.691   9.538  12.970  1.00  0.00     0.011 C 
HETATM    4  C12 UNL     1      -1.501   9.350  14.486  1.00  0.00    -0.032 C 
HETATM    5  C13 UNL     1      -0.280   8.394  14.663  1.00  0.00     0.016 C 
HETATM    6  C14 UNL     1      -1.272  10.669  15.270  1.00  0.00     0.004 C 
HETATM    7  C15 UNL     1       0.091  11.325  15.016  1.00  0.00     0.007 C 
HETATM    8  C16 UNL     1       0.196  12.644  15.778  1.00  0.00     0.007 C 
HETATM    9  C17 UNL     1       0.267  12.374  17.287  1.00  0.00     0.010 C 
HETATM   10  C18 UNL     1       0.402  13.650  18.178  1.00  0.00     0.018 C 
HETATM   11  C19 UNL     1      -0.736  14.663  17.978  1.00  0.00     0.023 C 
HETATM   12  C20 UNL     1       1.745  14.351  17.907  1.00  0.00     0.023 C 
HETATM   13  C21 UNL     1       0.403  13.233  19.657  1.00  0.00     0.135 C 
HETATM   14  O2  UNL     1       0.422  14.063  20.570  1.00  0.00    -0.297 OA
HETATM   15  C22 UNL     1       0.474  11.758  19.963  1.00  0.00     0.080 C 
HETATM   16  C23 UNL     1      -0.639  11.007  19.247  1.00  0.00     0.018 C 
HETATM   17  C24 UNL     1      -0.851  11.454  17.798  1.00  0.00    -0.026 A 
HETATM   18  C25 UNL     1      -2.289  11.693  17.403  1.00  0.00     0.021 A 
HETATM   19  C26 UNL     1      -1.567  10.513  16.785  1.00  0.00    -0.027 A 
HETATM   20  C27 UNL     1      -1.957   9.116  17.281  1.00  0.00     0.011 C 
HETATM   21  C28 UNL     1      -2.779   8.218  16.336  1.00  0.00     0.011 C 
HETATM   22  C29 UNL     1      -2.892   8.731  14.893  1.00  0.00    -0.032 C 
HETATM   23  C30 UNL     1      -4.072   9.740  14.846  1.00  0.00     0.016 C 
ENDROOT
BRANCH   1  24
HETATM   24  C8  UNL     1      -4.424   6.894  13.537  1.00  0.00     0.014 C 
HETATM   25  C7  UNL     1      -4.436   5.482  14.133  1.00  0.00     0.010 C 
HETATM   26  C6  UNL     1      -5.699   4.728  13.718  1.00  0.00     0.041 C 
HETATM   27  C4  UNL     1      -7.004   5.518  13.979  1.00  0.00     0.085 C 
HETATM   28  O3  UNL     1      -6.866   6.861  13.454  1.00  0.00    -0.377 OA
HETATM   29  C31 UNL     1      -5.730   7.607  13.903  1.00  0.00     0.174 C 
BRANCH  27  30
HETATM   30  C2  UNL     1      -8.175   4.869  13.151  1.00  0.00     0.014 C 
HETATM   31  C1  UNL     1      -7.921   3.418  12.716  1.00  0.00     0.012 C 
HETATM   32  C3  UNL     1      -8.610   5.684  11.927  1.00  0.00     0.012 C 
ENDBRANCH  27  30
BRANCH  27  33
HETATM   33  C5  UNL     1      -7.307   5.588  15.502  1.00  0.00     0.202 C 
BRANCH  33  34
HETATM   34  O1  UNL     1      -7.904   4.383  15.979  1.00  0.00    -0.398 OA
HETATM   35  H10 UNL     1      -8.445   4.045  15.239  1.00  0.00     0.209 HD
ENDBRANCH  33  34
ENDBRANCH  27  33
ENDBRANCH   1  24
TORSDOF 4
ENDMDL
