MODEL 1
REMARK minimizedAffinity -7.64752769
REMARK CNNscore 0.466474086
REMARK CNNaffinity 6.69214249
REMARK  12 active torsions:
REMARK  status: ('A' for Active; 'I' for Inactive)
REMARK    1  A    between atoms: C2_2  and  C3_3 
REMARK    2  A    between atoms: C2_2  and  C9_10 
REMARK    3  A    between atoms: C3_3  and  C4_4 
REMARK    4  A    between atoms: C5_5  and  C6_6 
REMARK    5  A    between atoms: C6_6  and  O1_9 
REMARK    6  A    between atoms: C27_29  and  O3_30 
REMARK    7  A    between atoms: O3_30  and  C28_31 
REMARK    8  A    between atoms: C29_33  and  C30_34 
REMARK    9  A    between atoms: C30_34  and  O5_35 
REMARK   10  A    between atoms: C31_36  and  O6_37 
REMARK   11  A    between atoms: C32_38  and  O7_39 
REMARK   12  A    between atoms: C33_40  and  O8_41 
ROOT
HETATM    1  C9  UNL     1       5.786  55.523  -7.747  1.00  0.00    -0.002 C 
HETATM    2  C10 UNL     1       6.730  54.625  -8.598  1.00  0.00     0.006 C 
HETATM    3  C11 UNL     1       5.814  53.750  -9.507  1.00  0.00     0.011 C 
HETATM    4  C12 UNL     1       4.398  54.357  -9.332  1.00  0.00    -0.029 C 
HETATM    5  C13 UNL     1       4.374  55.597 -10.308  1.00  0.00     0.016 C 
HETATM    6  C14 UNL     1       3.119  53.516  -9.694  1.00  0.00     0.028 C 
HETATM    7  C15 UNL     1       3.209  52.076 -10.102  1.00  0.00    -0.021 C 
HETATM    8  C16 UNL     1       2.083  51.344 -10.122  1.00  0.00     0.008 C 
HETATM    9  C17 UNL     1       0.726  51.899  -9.656  1.00  0.00     0.092 C 
HETATM   10  O2  UNL     1       0.758  51.612  -8.249  1.00  0.00    -0.374 OA
HETATM   11  C18 UNL     1       1.541  52.694  -7.651  1.00  0.00     0.179 C 
HETATM   12  C19 UNL     1       1.858  53.765  -8.766  1.00  0.00    -0.004 C 
HETATM   13  C20 UNL     1       1.891  55.177  -8.170  1.00  0.00     0.014 C 
HETATM   14  C21 UNL     1       3.190  55.554  -7.420  1.00  0.00     0.011 C 
HETATM   15  C22 UNL     1       4.440  54.734  -7.809  1.00  0.00    -0.032 C 
HETATM   16  C23 UNL     1       4.567  53.453  -6.935  1.00  0.00     0.016 C 
HETATM   17  C24 UNL     1       0.610  53.443  -9.611  1.00  0.00     0.036 C 
HETATM   18  C25 UNL     1       0.337  54.102 -10.962  1.00  0.00     0.011 C 
HETATM   19  C26 UNL     1       0.338  53.124 -12.138  1.00  0.00     0.033 C 
HETATM   20  C27 UNL     1      -0.405  51.780 -11.914  1.00  0.00     0.136 C 
HETATM   21  C34 UNL     1      -0.500  51.316 -10.416  1.00  0.00     0.014 C 
HETATM   22  C35 UNL     1      -1.836  51.761  -9.758  1.00  0.00     0.021 C 
HETATM   23  C36 UNL     1      -0.542  49.770 -10.365  1.00  0.00     0.021 C 
ENDROOT
BRANCH  20  24
HETATM   24  O3  UNL     1      -1.729  51.820 -12.466  1.00  0.00    -0.352 OA
BRANCH  24  25
HETATM   25  C28 UNL     1      -2.007  50.787 -13.423  1.00  0.00     0.292 C 
HETATM   26  O4  UNL     1      -0.875  49.963 -13.647  1.00  0.00    -0.348 OA
HETATM   27  C29 UNL     1      -1.177  48.805 -14.447  1.00  0.00     0.179 C 
HETATM   28  C31 UNL     1      -2.202  49.102 -15.572  1.00  0.00     0.180 C 
HETATM   29  C32 UNL     1      -2.219  50.590 -15.968  1.00  0.00     0.183 C 
HETATM   30  C33 UNL     1      -2.404  51.496 -14.735  1.00  0.00     0.204 C 
BRANCH  27  31
HETATM   31  C30 UNL     1       0.163  48.285 -14.989  1.00  0.00     0.198 C 
BRANCH  31  32
HETATM   32  O5  UNL     1       0.183  48.315 -16.418  1.00  0.00    -0.398 OA
HETATM   33  H46 UNL     1       1.105  48.145 -16.686  1.00  0.00     0.209 HD
ENDBRANCH  31  32
ENDBRANCH  27  31
BRANCH  28  34
HETATM   34  O6  UNL     1      -3.499  48.697 -15.084  1.00  0.00    -0.390 OA
HETATM   35  H48 UNL     1      -4.149  49.405 -15.280  1.00  0.00     0.210 HD
ENDBRANCH  28  34
BRANCH  29  36
HETATM   36  O7  UNL     1      -1.053  50.977 -16.706  1.00  0.00    -0.390 OA
HETATM   37  H50 UNL     1      -0.276  50.517 -16.321  1.00  0.00     0.210 HD
ENDBRANCH  29  36
BRANCH  30  38
HETATM   38  O8  UNL     1      -3.792  51.890 -14.643  1.00  0.00    -0.388 OA
HETATM   39  H52 UNL     1      -3.803  52.694 -14.083  1.00  0.00     0.210 HD
ENDBRANCH  30  38
ENDBRANCH  24  25
ENDBRANCH  20  24
BRANCH   1  40
HETATM   40  C2  UNL     1       6.358  56.127  -6.425  1.00  0.00    -0.010 C 
HETATM   41  C1  UNL     1       6.253  57.667  -6.517  1.00  0.00     0.010 C 
BRANCH  40  42
HETATM   42  C3  UNL     1       7.786  55.705  -6.022  1.00  0.00     0.031 C 
BRANCH  42  43
HETATM   43  C4  UNL     1       8.678  56.710  -5.332  1.00  0.00    -0.027 C 
HETATM   44  C5  UNL     1      10.018  56.680  -5.206  1.00  0.00     0.006 C 
BRANCH  44  45
HETATM   45  C6  UNL     1      10.874  57.718  -4.511  1.00  0.00     0.068 C 
HETATM   46  C7  UNL     1      10.397  59.123  -4.881  1.00  0.00     0.050 C 
HETATM   47  C8  UNL     1      10.833  57.521  -2.990  1.00  0.00     0.050 C 
BRANCH  45  48
HETATM   48  O1  UNL     1      12.237  57.599  -4.934  1.00  0.00    -0.387 OA
HETATM   49  H15 UNL     1      12.540  56.722  -4.630  1.00  0.00     0.211 HD
ENDBRANCH  45  48
ENDBRANCH  44  45
ENDBRANCH  42  43
ENDBRANCH  40  42
ENDBRANCH   1  40
TORSDOF 12
ENDMDL
MODEL 2
REMARK minimizedAffinity -9.15625858
REMARK CNNscore 0.447790533
REMARK CNNaffinity 7.05191946
REMARK  12 active torsions:
REMARK  status: ('A' for Active; 'I' for Inactive)
REMARK    1  A    between atoms: C2_2  and  C3_3 
REMARK    2  A    between atoms: C2_2  and  C9_10 
REMARK    3  A    between atoms: C3_3  and  C4_4 
REMARK    4  A    between atoms: C5_5  and  C6_6 
REMARK    5  A    between atoms: C6_6  and  O1_9 
REMARK    6  A    between atoms: C27_29  and  O3_30 
REMARK    7  A    between atoms: O3_30  and  C28_31 
REMARK    8  A    between atoms: C29_33  and  C30_34 
REMARK    9  A    between atoms: C30_34  and  O5_35 
REMARK   10  A    between atoms: C31_36  and  O6_37 
REMARK   11  A    between atoms: C32_38  and  O7_39 
REMARK   12  A    between atoms: C33_40  and  O8_41 
ROOT
HETATM    1  C9  UNL     1      -0.162  50.757 -21.045  1.00  0.00    -0.002 C 
HETATM    2  C10 UNL     1      -0.132  50.726 -19.489  1.00  0.00     0.006 C 
HETATM    3  C11 UNL     1      -1.409  49.956 -19.035  1.00  0.00     0.011 C 
HETATM    4  C12 UNL     1      -1.986  49.352 -20.340  1.00  0.00    -0.029 C 
HETATM    5  C13 UNL     1      -1.141  48.041 -20.579  1.00  0.00     0.016 C 
HETATM    6  C14 UNL     1      -3.490  48.899 -20.413  1.00  0.00     0.028 C 
HETATM    7  C15 UNL     1      -4.444  49.139 -19.282  1.00  0.00    -0.021 C 
HETATM    8  C16 UNL     1      -5.760  48.990 -19.510  1.00  0.00     0.008 C 
HETATM    9  C17 UNL     1      -6.328  48.675 -20.904  1.00  0.00     0.092 C 
HETATM   10  O2  UNL     1      -6.491  49.989 -21.460  1.00  0.00    -0.374 OA
HETATM   11  C18 UNL     1      -5.167  50.368 -21.954  1.00  0.00     0.179 C 
HETATM   12  C19 UNL     1      -4.200  49.128 -21.812  1.00  0.00    -0.004 C 
HETATM   13  C20 UNL     1      -3.178  49.103 -22.953  1.00  0.00     0.014 C 
HETATM   14  C21 UNL     1      -1.981  50.071 -22.796  1.00  0.00     0.011 C 
HETATM   15  C22 UNL     1      -1.673  50.513 -21.349  1.00  0.00    -0.032 C 
HETATM   16  C23 UNL     1      -2.475  51.793 -20.969  1.00  0.00     0.016 C 
HETATM   17  C24 UNL     1      -5.323  48.078 -21.921  1.00  0.00     0.036 C 
HETATM   18  C25 UNL     1      -5.069  46.580 -21.763  1.00  0.00     0.011 C 
HETATM   19  C26 UNL     1      -5.770  45.959 -20.553  1.00  0.00     0.033 C 
HETATM   20  C27 UNL     1      -7.241  46.392 -20.314  1.00  0.00     0.136 C 
HETATM   21  C34 UNL     1      -7.618  47.805 -20.889  1.00  0.00     0.014 C 
HETATM   22  C35 UNL     1      -8.246  47.703 -22.306  1.00  0.00     0.021 C 
HETATM   23  C36 UNL     1      -8.735  48.426 -20.016  1.00  0.00     0.021 C 
ENDROOT
BRANCH  20  24
HETATM   24  O3  UNL     1      -8.160  45.424 -20.841  1.00  0.00    -0.352 OA
BRANCH  24  25
HETATM   25  C28 UNL     1      -7.598  44.119 -21.047  1.00  0.00     0.292 C 
HETATM   26  O4  UNL     1      -7.791  43.672 -22.379  1.00  0.00    -0.348 OA
HETATM   27  C29 UNL     1      -7.070  42.461 -22.671  1.00  0.00     0.179 C 
HETATM   28  C31 UNL     1      -7.048  41.472 -21.477  1.00  0.00     0.180 C 
HETATM   29  C32 UNL     1      -8.227  41.695 -20.512  1.00  0.00     0.183 C 
HETATM   30  C33 UNL     1      -8.318  43.168 -20.069  1.00  0.00     0.204 C 
BRANCH  27  31
HETATM   31  C30 UNL     1      -7.718  41.857 -23.927  1.00  0.00     0.198 C 
BRANCH  31  32
HETATM   32  O5  UNL     1      -7.436  42.654 -25.081  1.00  0.00    -0.398 OA
HETATM   33  H46 UNL     1      -7.719  42.133 -25.854  1.00  0.00     0.209 HD
ENDBRANCH  31  32
ENDBRANCH  27  31
BRANCH  28  34
HETATM   34  O6  UNL     1      -5.793  41.664 -20.789  1.00  0.00    -0.390 OA
HETATM   35  H48 UNL     1      -5.962  41.716 -19.824  1.00  0.00     0.210 HD
ENDBRANCH  28  34
BRANCH  29  36
HETATM   36  O7  UNL     1      -9.477  41.257 -21.060  1.00  0.00    -0.390 OA
HETATM   37  H50 UNL     1      -9.494  41.485 -22.015  1.00  0.00     0.210 HD
ENDBRANCH  29  36
BRANCH  30  38
HETATM   38  O8  UNL     1      -7.710  43.306 -18.764  1.00  0.00    -0.388 OA
HETATM   39  H52 UNL     1      -8.073  44.136 -18.388  1.00  0.00     0.210 HD
ENDBRANCH  30  38
ENDBRANCH  24  25
ENDBRANCH  20  24
BRANCH   1  40
HETATM   40  C2  UNL     1       0.685  51.856 -21.764  1.00  0.00    -0.010 C 
HETATM   41  C1  UNL     1       1.249  52.808 -20.683  1.00  0.00     0.010 C 
BRANCH  40  42
HETATM   42  C3  UNL     1      -0.011  52.658 -22.881  1.00  0.00     0.031 C 
BRANCH  42  43
HETATM   43  C4  UNL     1       0.401  52.425 -24.315  1.00  0.00    -0.027 C 
HETATM   44  C5  UNL     1      -0.218  52.845 -25.435  1.00  0.00     0.006 C 
BRANCH  44  45
HETATM   45  C6  UNL     1       0.240  52.595 -26.856  1.00  0.00     0.068 C 
HETATM   46  C7  UNL     1      -0.288  51.248 -27.348  1.00  0.00     0.050 C 
HETATM   47  C8  UNL     1      -0.231  53.726 -27.781  1.00  0.00     0.050 C 
BRANCH  45  48
HETATM   48  O1  UNL     1       1.671  52.547 -26.913  1.00  0.00    -0.387 OA
HETATM   49  H15 UNL     1       1.983  53.436 -26.659  1.00  0.00     0.211 HD
ENDBRANCH  45  48
ENDBRANCH  44  45
ENDBRANCH  42  43
ENDBRANCH  40  42
ENDBRANCH   1  40
TORSDOF 12
ENDMDL
MODEL 3
REMARK minimizedAffinity -8.33202267
REMARK CNNscore 0.44693923
REMARK CNNaffinity 6.53838491
REMARK  12 active torsions:
REMARK  status: ('A' for Active; 'I' for Inactive)
REMARK    1  A    between atoms: C2_2  and  C3_3 
REMARK    2  A    between atoms: C2_2  and  C9_10 
REMARK    3  A    between atoms: C3_3  and  C4_4 
REMARK    4  A    between atoms: C5_5  and  C6_6 
REMARK    5  A    between atoms: C6_6  and  O1_9 
REMARK    6  A    between atoms: C27_29  and  O3_30 
REMARK    7  A    between atoms: O3_30  and  C28_31 
REMARK    8  A    between atoms: C29_33  and  C30_34 
REMARK    9  A    between atoms: C30_34  and  O5_35 
REMARK   10  A    between atoms: C31_36  and  O6_37 
REMARK   11  A    between atoms: C32_38  and  O7_39 
REMARK   12  A    between atoms: C33_40  and  O8_41 
ROOT
HETATM    1  C9  UNL     1      -7.457  47.972 -30.646  1.00  0.00    -0.002 C 
HETATM    2  C10 UNL     1      -8.013  47.613 -32.055  1.00  0.00     0.006 C 
HETATM    3  C11 UNL     1      -9.333  46.817 -31.823  1.00  0.00     0.011 C 
HETATM    4  C12 UNL     1      -9.620  46.970 -30.308  1.00  0.00    -0.029 C 
HETATM    5  C13 UNL     1     -10.314  48.381 -30.176  1.00  0.00     0.016 C 
HETATM    6  C14 UNL     1     -10.577  45.963 -29.571  1.00  0.00     0.028 C 
HETATM    7  C15 UNL     1     -11.147  44.762 -30.264  1.00  0.00    -0.021 C 
HETATM    8  C16 UNL     1     -11.718  43.801 -29.518  1.00  0.00     0.008 C 
HETATM    9  C17 UNL     1     -11.725  43.842 -27.981  1.00  0.00     0.092 C 
HETATM   10  O2  UNL     1     -10.480  43.199 -27.663  1.00  0.00    -0.374 OA
HETATM   11  C18 UNL     1      -9.460  44.238 -27.804  1.00  0.00     0.179 C 
HETATM   12  C19 UNL     1     -10.178  45.618 -28.076  1.00  0.00    -0.004 C 
HETATM   13  C20 UNL     1      -9.395  46.772 -27.441  1.00  0.00     0.014 C 
HETATM   14  C21 UNL     1      -8.153  47.248 -28.230  1.00  0.00     0.011 C 
HETATM   15  C22 UNL     1      -8.159  46.914 -29.738  1.00  0.00    -0.032 C 
HETATM   16  C23 UNL     1      -7.524  45.519 -30.007  1.00  0.00     0.016 C 
HETATM   17  C24 UNL     1     -11.478  45.232 -27.343  1.00  0.00     0.036 C 
HETATM   18  C25 UNL     1     -12.704  46.143 -27.304  1.00  0.00     0.011 C 
HETATM   19  C26 UNL     1     -13.931  45.558 -28.005  1.00  0.00     0.033 C 
HETATM   20  C27 UNL     1     -14.231  44.061 -27.729  1.00  0.00     0.136 C 
HETATM   21  C34 UNL     1     -12.981  43.196 -27.329  1.00  0.00     0.014 C 
HETATM   22  C35 UNL     1     -12.825  43.088 -25.787  1.00  0.00     0.021 C 
HETATM   23  C36 UNL     1     -13.202  41.738 -27.797  1.00  0.00     0.021 C 
ENDROOT
BRANCH  20  24
HETATM   24  O3  UNL     1     -15.235  43.911 -26.715  1.00  0.00    -0.352 OA
BRANCH  24  25
HETATM   25  C28 UNL     1     -16.585  44.026 -27.190  1.00  0.00     0.292 C 
HETATM   26  O4  UNL     1     -17.402  44.738 -26.275  1.00  0.00    -0.348 OA
HETATM   27  C29 UNL     1     -18.704  45.042 -26.810  1.00  0.00     0.179 C 
HETATM   28  C31 UNL     1     -19.274  43.900 -27.690  1.00  0.00     0.180 C 
HETATM   29  C32 UNL     1     -18.659  42.532 -27.341  1.00  0.00     0.183 C 
HETATM   30  C33 UNL     1     -17.119  42.588 -27.356  1.00  0.00     0.204 C 
BRANCH  27  31
HETATM   31  C30 UNL     1     -19.605  45.370 -25.608  1.00  0.00     0.198 C 
BRANCH  31  32
HETATM   32  O5  UNL     1     -19.475  46.743 -25.232  1.00  0.00    -0.398 OA
HETATM   33  H46 UNL     1     -20.189  46.924 -24.594  1.00  0.00     0.209 HD
ENDBRANCH  31  32
ENDBRANCH  27  31
BRANCH  28  34
HETATM   34  O6  UNL     1     -18.992  44.241 -29.064  1.00  0.00    -0.390 OA
HETATM   35  H48 UNL     1     -18.629  43.452 -29.522  1.00  0.00     0.210 HD
ENDBRANCH  28  34
BRANCH  29  36
HETATM   36  O7  UNL     1     -19.131  42.020 -26.088  1.00  0.00    -0.390 OA
HETATM   37  H50 UNL     1     -19.208  42.768 -25.457  1.00  0.00     0.210 HD
ENDBRANCH  29  36
BRANCH  30  38
HETATM   38  O8  UNL     1     -16.640  42.063 -28.615  1.00  0.00    -0.388 OA
HETATM   39  H52 UNL     1     -15.706  41.809 -28.459  1.00  0.00     0.210 HD
ENDBRANCH  30  38
ENDBRANCH  24  25
ENDBRANCH  20  24
BRANCH   1  40
HETATM   40  C2  UNL     1      -5.937  48.316 -30.534  1.00  0.00    -0.010 C 
HETATM   41  C1  UNL     1      -5.269  47.978 -31.888  1.00  0.00     0.010 C 
BRANCH  40  42
HETATM   42  C3  UNL     1      -5.156  47.673 -29.370  1.00  0.00     0.031 C 
BRANCH  42  43
HETATM   43  C4  UNL     1      -4.778  48.527 -28.183  1.00  0.00    -0.027 C 
HETATM   44  C5  UNL     1      -4.451  48.122 -26.941  1.00  0.00     0.006 C 
BRANCH  44  45
HETATM   45  C6  UNL     1      -4.068  49.017 -25.781  1.00  0.00     0.068 C 
HETATM   46  C7  UNL     1      -5.077  48.860 -24.643  1.00  0.00     0.050 C 
HETATM   47  C8  UNL     1      -2.651  48.687 -25.291  1.00  0.00     0.050 C 
BRANCH  45  48
HETATM   48  O1  UNL     1      -4.085  50.389 -26.190  1.00  0.00    -0.387 OA
HETATM   49  H15 UNL     1      -3.389  50.479 -26.868  1.00  0.00     0.211 HD
ENDBRANCH  45  48
ENDBRANCH  44  45
ENDBRANCH  42  43
ENDBRANCH  40  42
ENDBRANCH   1  40
TORSDOF 12
ENDMDL
MODEL 4
REMARK minimizedAffinity -10.4175024
REMARK CNNscore 0.419987172
REMARK CNNaffinity 6.84166288
REMARK  12 active torsions:
REMARK  status: ('A' for Active; 'I' for Inactive)
REMARK    1  A    between atoms: C2_2  and  C3_3 
REMARK    2  A    between atoms: C2_2  and  C9_10 
REMARK    3  A    between atoms: C3_3  and  C4_4 
REMARK    4  A    between atoms: C5_5  and  C6_6 
REMARK    5  A    between atoms: C6_6  and  O1_9 
REMARK    6  A    between atoms: C27_29  and  O3_30 
REMARK    7  A    between atoms: O3_30  and  C28_31 
REMARK    8  A    between atoms: C29_33  and  C30_34 
REMARK    9  A    between atoms: C30_34  and  O5_35 
REMARK   10  A    between atoms: C31_36  and  O6_37 
REMARK   11  A    between atoms: C32_38  and  O7_39 
REMARK   12  A    between atoms: C33_40  and  O8_41 
ROOT
HETATM    1  C9  UNL     1      -1.092  52.052 -21.326  1.00  0.00    -0.002 C 
HETATM    2  C10 UNL     1      -0.431  51.511 -22.628  1.00  0.00     0.006 C 
HETATM    3  C11 UNL     1      -1.514  50.657 -23.355  1.00  0.00     0.011 C 
HETATM    4  C12 UNL     1      -2.825  50.949 -22.583  1.00  0.00    -0.029 C 
HETATM    5  C13 UNL     1      -3.341  52.316 -23.178  1.00  0.00     0.016 C 
HETATM    6  C14 UNL     1      -4.046  49.963 -22.683  1.00  0.00     0.028 C 
HETATM    7  C15 UNL     1      -3.953  48.661 -23.419  1.00  0.00    -0.021 C 
HETATM    8  C16 UNL     1      -4.921  47.747 -23.233  1.00  0.00     0.008 C 
HETATM    9  C17 UNL     1      -6.066  47.949 -22.225  1.00  0.00     0.092 C 
HETATM   10  O2  UNL     1      -5.490  47.428 -21.017  1.00  0.00    -0.374 OA
HETATM   11  C18 UNL     1      -4.668  48.512 -20.480  1.00  0.00     0.179 C 
HETATM   12  C19 UNL     1      -4.900  49.804 -21.356  1.00  0.00    -0.004 C 
HETATM   13  C20 UNL     1      -4.808  51.069 -20.494  1.00  0.00     0.014 C 
HETATM   14  C21 UNL     1      -3.375  51.541 -20.155  1.00  0.00     0.011 C 
HETATM   15  C22 UNL     1      -2.271  51.051 -21.118  1.00  0.00    -0.032 C 
HETATM   16  C23 UNL     1      -1.693  49.680 -20.659  1.00  0.00     0.016 C 
HETATM   17  C24 UNL     1      -6.327  49.412 -21.787  1.00  0.00     0.036 C 
HETATM   18  C25 UNL     1      -7.146  50.238 -22.777  1.00  0.00     0.011 C 
HETATM   19  C26 UNL     1      -7.467  49.502 -24.079  1.00  0.00     0.033 C 
HETATM   20  C27 UNL     1      -7.923  48.025 -23.938  1.00  0.00     0.136 C 
HETATM   21  C34 UNL     1      -7.412  47.293 -22.646  1.00  0.00     0.014 C 
HETATM   22  C35 UNL     1      -8.455  47.357 -21.496  1.00  0.00     0.021 C 
HETATM   23  C36 UNL     1      -7.262  45.782 -22.944  1.00  0.00     0.021 C 
ENDROOT
BRANCH  20  24
HETATM   24  O3  UNL     1      -9.353  47.916 -23.992  1.00  0.00    -0.352 OA
BRANCH  24  25
HETATM   25  C28 UNL     1      -9.891  47.774 -25.315  1.00  0.00     0.292 C 
HETATM   26  O4  UNL     1      -9.520  46.536 -25.900  1.00  0.00    -0.348 OA
HETATM   27  C29 UNL     1     -10.203  46.278 -27.141  1.00  0.00     0.179 C 
HETATM   28  C31 UNL     1     -10.397  47.556 -27.997  1.00  0.00     0.180 C 
HETATM   29  C32 UNL     1      -9.361  48.645 -27.664  1.00  0.00     0.183 C 
HETATM   30  C33 UNL     1      -9.320  48.938 -26.152  1.00  0.00     0.204 C 
BRANCH  27  31
HETATM   31  C30 UNL     1      -9.393  45.195 -27.870  1.00  0.00     0.198 C 
BRANCH  31  32
HETATM   32  O5  UNL     1      -9.780  45.105 -29.243  1.00  0.00    -0.398 OA
HETATM   33  H46 UNL     1      -9.120  44.537 -29.681  1.00  0.00     0.209 HD
ENDBRANCH  31  32
ENDBRANCH  27  31
BRANCH  28  34
HETATM   34  O6  UNL     1     -11.734  48.041 -27.741  1.00  0.00    -0.390 OA
HETATM   35  H48 UNL     1     -11.698  49.009 -27.585  1.00  0.00     0.210 HD
ENDBRANCH  28  34
BRANCH  29  36
HETATM   36  O7  UNL     1      -8.051  48.325 -28.149  1.00  0.00    -0.390 OA
HETATM   37  H50 UNL     1      -7.901  47.362 -28.024  1.00  0.00     0.210 HD
ENDBRANCH  29  36
BRANCH  30  38
HETATM   38  O8  UNL     1     -10.100  50.125 -25.880  1.00  0.00    -0.388 OA
HETATM   39  H52 UNL     1      -9.786  50.456 -25.012  1.00  0.00     0.210 HD
ENDBRANCH  30  38
ENDBRANCH  24  25
ENDBRANCH  20  24
BRANCH   1  40
HETATM   40  C2  UNL     1      -0.146  52.506 -20.169  1.00  0.00    -0.010 C 
HETATM   41  C1  UNL     1       1.241  52.816 -20.779  1.00  0.00     0.010 C 
BRANCH  40  42
HETATM   42  C3  UNL     1      -0.007  51.556 -18.963  1.00  0.00     0.031 C 
BRANCH  42  43
HETATM   43  C4  UNL     1       0.755  52.025 -17.746  1.00  0.00    -0.027 C 
HETATM   44  C5  UNL     1       1.078  51.318 -16.646  1.00  0.00     0.006 C 
BRANCH  44  45
HETATM   45  C6  UNL     1       1.855  51.829 -15.452  1.00  0.00     0.068 C 
HETATM   46  C7  UNL     1       2.085  50.695 -14.453  1.00  0.00     0.050 C 
HETATM   47  C8  UNL     1       3.194  52.431 -15.897  1.00  0.00     0.050 C 
BRANCH  45  48
HETATM   48  O1  UNL     1       1.112  52.853 -14.781  1.00  0.00    -0.387 OA
HETATM   49  H15 UNL     1       1.034  53.592 -15.414  1.00  0.00     0.211 HD
ENDBRANCH  45  48
ENDBRANCH  44  45
ENDBRANCH  42  43
ENDBRANCH  40  42
ENDBRANCH   1  40
TORSDOF 12
ENDMDL
MODEL 5
REMARK minimizedAffinity -7.44492817
REMARK CNNscore 0.353791624
REMARK CNNaffinity 5.96322775
REMARK  12 active torsions:
REMARK  status: ('A' for Active; 'I' for Inactive)
REMARK    1  A    between atoms: C2_2  and  C3_3 
REMARK    2  A    between atoms: C2_2  and  C9_10 
REMARK    3  A    between atoms: C3_3  and  C4_4 
REMARK    4  A    between atoms: C5_5  and  C6_6 
REMARK    5  A    between atoms: C6_6  and  O1_9 
REMARK    6  A    between atoms: C27_29  and  O3_30 
REMARK    7  A    between atoms: O3_30  and  C28_31 
REMARK    8  A    between atoms: C29_33  and  C30_34 
REMARK    9  A    between atoms: C30_34  and  O5_35 
REMARK   10  A    between atoms: C31_36  and  O6_37 
REMARK   11  A    between atoms: C32_38  and  O7_39 
REMARK   12  A    between atoms: C33_40  and  O8_41 
ROOT
HETATM    1  C9  UNL     1      -7.939  46.791 -29.464  1.00  0.00    -0.002 C 
HETATM    2  C10 UNL     1      -7.480  45.315 -29.272  1.00  0.00     0.006 C 
HETATM    3  C11 UNL     1      -8.716  44.531 -28.736  1.00  0.00     0.011 C 
HETATM    4  C12 UNL     1      -9.901  45.519 -28.884  1.00  0.00    -0.029 C 
HETATM    5  C13 UNL     1     -10.335  45.394 -30.396  1.00  0.00     0.016 C 
HETATM    6  C14 UNL     1     -11.220  45.315 -28.053  1.00  0.00     0.028 C 
HETATM    7  C15 UNL     1     -11.339  44.244 -27.010  1.00  0.00    -0.021 C 
HETATM    8  C16 UNL     1     -12.369  44.299 -26.149  1.00  0.00     0.008 C 
HETATM    9  C17 UNL     1     -13.373  45.465 -26.133  1.00  0.00     0.092 C 
HETATM   10  O2  UNL     1     -12.727  46.398 -25.252  1.00  0.00    -0.374 OA
HETATM   11  C18 UNL     1     -11.746  47.098 -26.080  1.00  0.00     0.179 C 
HETATM   12  C19 UNL     1     -11.938  46.647 -27.581  1.00  0.00    -0.004 C 
HETATM   13  C20 UNL     1     -11.626  47.803 -28.540  1.00  0.00     0.014 C 
HETATM   14  C21 UNL     1     -10.124  48.067 -28.797  1.00  0.00     0.011 C 
HETATM   15  C22 UNL     1      -9.186  46.870 -28.528  1.00  0.00    -0.032 C 
HETATM   16  C23 UNL     1      -8.704  46.856 -27.047  1.00  0.00     0.016 C 
HETATM   17  C24 UNL     1     -13.436  46.317 -27.425  1.00  0.00     0.036 C 
HETATM   18  C25 UNL     1     -14.268  45.708 -28.552  1.00  0.00     0.011 C 
HETATM   19  C26 UNL     1     -14.799  44.308 -28.241  1.00  0.00     0.033 C 
HETATM   20  C27 UNL     1     -15.385  44.097 -26.819  1.00  0.00     0.136 C 
HETATM   21  C34 UNL     1     -14.816  45.061 -25.717  1.00  0.00     0.014 C 
HETATM   22  C35 UNL     1     -15.718  46.312 -25.522  1.00  0.00     0.021 C 
HETATM   23  C36 UNL     1     -14.854  44.343 -24.346  1.00  0.00     0.021 C 
ENDROOT
BRANCH  20  24
HETATM   24  O3  UNL     1     -16.817  44.204 -26.827  1.00  0.00    -0.352 OA
BRANCH  24  25
HETATM   25  C28 UNL     1     -17.508  42.980 -26.537  1.00  0.00     0.292 C 
HETATM   26  O4  UNL     1     -17.354  42.033 -27.582  1.00  0.00    -0.348 OA
HETATM   27  C29 UNL     1     -17.866  40.733 -27.236  1.00  0.00     0.179 C 
HETATM   28  C31 UNL     1     -19.161  40.803 -26.387  1.00  0.00     0.180 C 
HETATM   29  C32 UNL     1     -19.922  42.126 -26.590  1.00  0.00     0.183 C 
HETATM   30  C33 UNL     1     -18.999  43.342 -26.377  1.00  0.00     0.204 C 
BRANCH  27  31
HETATM   31  C30 UNL     1     -18.065  39.975 -28.558  1.00  0.00     0.198 C 
BRANCH  31  32
HETATM   32  O5  UNL     1     -18.565  40.845 -29.576  1.00  0.00    -0.398 OA
HETATM   33  H46 UNL     1     -18.502  40.355 -30.416  1.00  0.00     0.209 HD
ENDBRANCH  31  32
ENDBRANCH  27  31
BRANCH  28  34
HETATM   34  O6  UNL     1     -18.771  40.655 -25.004  1.00  0.00    -0.390 OA
HETATM   35  H48 UNL     1     -19.230  41.337 -24.468  1.00  0.00     0.210 HD
ENDBRANCH  28  34
BRANCH  29  36
HETATM   36  O7  UNL     1     -20.564  42.201 -27.869  1.00  0.00    -0.390 OA
HETATM   37  H50 UNL     1     -19.971  41.796 -28.538  1.00  0.00     0.210 HD
ENDBRANCH  29  36
BRANCH  30  38
HETATM   38  O8  UNL     1     -19.205  43.862 -25.043  1.00  0.00    -0.388 OA
HETATM   39  H52 UNL     1     -18.876  44.785 -25.065  1.00  0.00     0.210 HD
ENDBRANCH  30  38
ENDBRANCH  24  25
ENDBRANCH  20  24
BRANCH   1  40
HETATM   40  C2  UNL     1      -6.834  47.893 -29.506  1.00  0.00    -0.010 C 
HETATM   41  C1  UNL     1      -6.830  48.514 -30.923  1.00  0.00     0.010 C 
BRANCH  40  42
HETATM   42  C3  UNL     1      -5.408  47.473 -29.096  1.00  0.00     0.031 C 
BRANCH  42  43
HETATM   43  C4  UNL     1      -4.691  48.262 -28.025  1.00  0.00    -0.027 C 
HETATM   44  C5  UNL     1      -4.817  48.151 -26.689  1.00  0.00     0.006 C 
BRANCH  44  45
HETATM   45  C6  UNL     1      -4.067  48.960 -25.652  1.00  0.00     0.068 C 
HETATM   46  C7  UNL     1      -4.393  48.445 -24.250  1.00  0.00     0.050 C 
HETATM   47  C8  UNL     1      -2.555  48.896 -25.908  1.00  0.00     0.050 C 
BRANCH  45  48
HETATM   48  O1  UNL     1      -4.467  50.334 -25.713  1.00  0.00    -0.387 OA
HETATM   49  H15 UNL     1      -4.190  50.659 -26.590  1.00  0.00     0.211 HD
ENDBRANCH  45  48
ENDBRANCH  44  45
ENDBRANCH  42  43
ENDBRANCH  40  42
ENDBRANCH   1  40
TORSDOF 12
ENDMDL
MODEL 6
REMARK minimizedAffinity -7.77840376
REMARK CNNscore 0.34250322
REMARK CNNaffinity 6.02659845
REMARK  12 active torsions:
REMARK  status: ('A' for Active; 'I' for Inactive)
REMARK    1  A    between atoms: C2_2  and  C3_3 
REMARK    2  A    between atoms: C2_2  and  C9_10 
REMARK    3  A    between atoms: C3_3  and  C4_4 
REMARK    4  A    between atoms: C5_5  and  C6_6 
REMARK    5  A    between atoms: C6_6  and  O1_9 
REMARK    6  A    between atoms: C27_29  and  O3_30 
REMARK    7  A    between atoms: O3_30  and  C28_31 
REMARK    8  A    between atoms: C29_33  and  C30_34 
REMARK    9  A    between atoms: C30_34  and  O5_35 
REMARK   10  A    between atoms: C31_36  and  O6_37 
REMARK   11  A    between atoms: C32_38  and  O7_39 
REMARK   12  A    between atoms: C33_40  and  O8_41 
ROOT
HETATM    1  C9  UNL     1     -15.431  44.744 -24.246  1.00  0.00    -0.002 C 
HETATM    2  C10 UNL     1     -16.553  45.154 -25.244  1.00  0.00     0.006 C 
HETATM    3  C11 UNL     1     -15.852  45.454 -26.604  1.00  0.00     0.011 C 
HETATM    4  C12 UNL     1     -14.396  44.960 -26.410  1.00  0.00    -0.029 C 
HETATM    5  C13 UNL     1     -14.468  43.404 -26.661  1.00  0.00     0.016 C 
HETATM    6  C14 UNL     1     -13.244  45.481 -27.345  1.00  0.00     0.028 C 
HETATM    7  C15 UNL     1     -13.480  46.551 -28.368  1.00  0.00    -0.021 C 
HETATM    8  C16 UNL     1     -12.416  47.146 -28.932  1.00  0.00     0.008 C 
HETATM    9  C17 UNL     1     -10.971  46.839 -28.501  1.00  0.00     0.092 C 
HETATM   10  O2  UNL     1     -10.782  47.766 -27.420  1.00  0.00    -0.374 OA
HETATM   11  C18 UNL     1     -11.392  47.131 -26.253  1.00  0.00     0.179 C 
HETATM   12  C19 UNL     1     -11.834  45.667 -26.646  1.00  0.00    -0.004 C 
HETATM   13  C20 UNL     1     -11.687  44.716 -25.452  1.00  0.00     0.014 C 
HETATM   14  C21 UNL     1     -12.819  44.789 -24.401  1.00  0.00     0.011 C 
HETATM   15  C22 UNL     1     -14.160  45.361 -24.910  1.00  0.00    -0.032 C 
HETATM   16  C23 UNL     1     -14.209  46.908 -24.748  1.00  0.00     0.016 C 
HETATM   17  C24 UNL     1     -10.764  45.502 -27.744  1.00  0.00     0.036 C 
HETATM   18  C25 UNL     1     -10.686  44.267 -28.640  1.00  0.00     0.011 C 
HETATM   19  C26 UNL     1     -10.939  44.560 -30.120  1.00  0.00     0.033 C 
HETATM   20  C27 UNL     1     -10.244  45.822 -30.698  1.00  0.00     0.136 C 
HETATM   21  C34 UNL     1      -9.925  46.945 -29.646  1.00  0.00     0.014 C 
HETATM   22  C35 UNL     1      -8.475  46.827 -29.099  1.00  0.00     0.021 C 
HETATM   23  C36 UNL     1      -9.959  48.323 -30.349  1.00  0.00     0.021 C 
ENDROOT
BRANCH  20  24
HETATM   24  O3  UNL     1      -9.031  45.479 -31.385  1.00  0.00    -0.352 OA
BRANCH  24  25
HETATM   25  C28 UNL     1      -9.113  45.557 -32.816  1.00  0.00     0.292 C 
HETATM   26  O4  UNL     1     -10.455  45.692 -33.256  1.00  0.00    -0.348 OA
HETATM   27  C29 UNL     1     -10.554  45.972 -34.664  1.00  0.00     0.179 C 
HETATM   28  C31 UNL     1      -9.496  45.211 -35.504  1.00  0.00     0.180 C 
HETATM   29  C32 UNL     1      -8.994  43.939 -34.797  1.00  0.00     0.183 C 
HETATM   30  C33 UNL     1      -8.514  44.246 -33.365  1.00  0.00     0.204 C 
BRANCH  27  31
HETATM   31  C30 UNL     1     -11.995  45.631 -35.078  1.00  0.00     0.198 C 
BRANCH  31  32
HETATM   32  O5  UNL     1     -12.518  44.568 -34.278  1.00  0.00    -0.398 OA
HETATM   33  H46 UNL     1     -13.473  44.522 -34.467  1.00  0.00     0.209 HD
ENDBRANCH  31  32
ENDBRANCH  27  31
BRANCH  28  34
HETATM   34  O6  UNL     1      -8.400  46.123 -35.735  1.00  0.00    -0.390 OA
HETATM   35  H48 UNL     1      -7.555  45.659 -35.556  1.00  0.00     0.210 HD
ENDBRANCH  28  34
BRANCH  29  36
HETATM   36  O7  UNL     1      -9.972  42.892 -34.786  1.00  0.00    -0.390 OA
HETATM   37  H50 UNL     1     -10.855  43.295 -34.637  1.00  0.00     0.210 HD
ENDBRANCH  29  36
BRANCH  30  38
HETATM   38  O8  UNL     1      -7.073  44.364 -33.365  1.00  0.00    -0.388 OA
HETATM   39  H52 UNL     1      -6.795  44.224 -32.435  1.00  0.00     0.210 HD
ENDBRANCH  30  38
ENDBRANCH  24  25
ENDBRANCH  20  24
BRANCH   1  40
HETATM   40  C2  UNL     1     -15.739  44.868 -22.719  1.00  0.00    -0.010 C 
HETATM   41  C1  UNL     1     -16.646  43.682 -22.317  1.00  0.00     0.010 C 
BRANCH  40  42
HETATM   42  C3  UNL     1     -16.344  46.200 -22.233  1.00  0.00     0.031 C 
BRANCH  42  43
HETATM   43  C4  UNL     1     -15.694  46.918 -21.073  1.00  0.00    -0.027 C 
HETATM   44  C5  UNL     1     -14.562  47.648 -21.079  1.00  0.00     0.006 C 
BRANCH  44  45
HETATM   45  C6  UNL     1     -13.953  48.360 -19.890  1.00  0.00     0.068 C 
HETATM   46  C7  UNL     1     -14.838  48.176 -18.658  1.00  0.00     0.050 C 
HETATM   47  C8  UNL     1     -12.536  47.836 -19.616  1.00  0.00     0.050 C 
BRANCH  45  48
HETATM   48  O1  UNL     1     -13.860  49.766 -20.150  1.00  0.00    -0.387 OA
HETATM   49  H15 UNL     1     -13.239  49.863 -20.897  1.00  0.00     0.211 HD
ENDBRANCH  45  48
ENDBRANCH  44  45
ENDBRANCH  42  43
ENDBRANCH  40  42
ENDBRANCH   1  40
TORSDOF 12
ENDMDL
MODEL 7
REMARK minimizedAffinity -8.91936493
REMARK CNNscore 0.330712408
REMARK CNNaffinity 6.77091074
REMARK  12 active torsions:
REMARK  status: ('A' for Active; 'I' for Inactive)
REMARK    1  A    between atoms: C2_2  and  C3_3 
REMARK    2  A    between atoms: C2_2  and  C9_10 
REMARK    3  A    between atoms: C3_3  and  C4_4 
REMARK    4  A    between atoms: C5_5  and  C6_6 
REMARK    5  A    between atoms: C6_6  and  O1_9 
REMARK    6  A    between atoms: C27_29  and  O3_30 
REMARK    7  A    between atoms: O3_30  and  C28_31 
REMARK    8  A    between atoms: C29_33  and  C30_34 
REMARK    9  A    between atoms: C30_34  and  O5_35 
REMARK   10  A    between atoms: C31_36  and  O6_37 
REMARK   11  A    between atoms: C32_38  and  O7_39 
REMARK   12  A    between atoms: C33_40  and  O8_41 
ROOT
HETATM    1  C9  UNL     1      -0.734  49.958 -16.825  1.00  0.00    -0.002 C 
HETATM    2  C10 UNL     1      -2.091  50.283 -16.134  1.00  0.00     0.006 C 
HETATM    3  C11 UNL     1      -3.184  50.209 -17.242  1.00  0.00     0.011 C 
HETATM    4  C12 UNL     1      -2.459  49.595 -18.466  1.00  0.00    -0.029 C 
HETATM    5  C13 UNL     1      -2.467  48.041 -18.195  1.00  0.00     0.016 C 
HETATM    6  C14 UNL     1      -3.048  49.769 -19.914  1.00  0.00     0.028 C 
HETATM    7  C15 UNL     1      -4.251  50.624 -20.180  1.00  0.00    -0.021 C 
HETATM    8  C16 UNL     1      -4.533  50.957 -21.451  1.00  0.00     0.008 C 
HETATM    9  C17 UNL     1      -3.619  50.576 -22.628  1.00  0.00     0.092 C 
HETATM   10  O2  UNL     1      -2.699  51.678 -22.657  1.00  0.00    -0.374 OA
HETATM   11  C18 UNL     1      -1.701  51.376 -21.630  1.00  0.00     0.179 C 
HETATM   12  C19 UNL     1      -1.975  49.926 -21.069  1.00  0.00    -0.004 C 
HETATM   13  C20 UNL     1      -0.661  49.233 -20.690  1.00  0.00     0.014 C 
HETATM   14  C21 UNL     1      -0.052  49.657 -19.333  1.00  0.00     0.011 C 
HETATM   15  C22 UNL     1      -1.048  50.267 -18.323  1.00  0.00    -0.032 C 
HETATM   16  C23 UNL     1      -1.160  51.809 -18.505  1.00  0.00     0.016 C 
HETATM   17  C24 UNL     1      -2.633  49.410 -22.365  1.00  0.00     0.036 C 
HETATM   18  C25 UNL     1      -3.247  48.016 -22.479  1.00  0.00     0.011 C 
HETATM   19  C26 UNL     1      -4.756  48.024 -22.724  1.00  0.00     0.033 C 
HETATM   20  C27 UNL     1      -5.277  49.046 -23.770  1.00  0.00     0.136 C 
HETATM   21  C34 UNL     1      -4.372  50.316 -23.964  1.00  0.00     0.014 C 
HETATM   22  C35 UNL     1      -3.379  50.141 -25.147  1.00  0.00     0.021 C 
HETATM   23  C36 UNL     1      -5.260  51.513 -24.381  1.00  0.00     0.021 C 
ENDROOT
BRANCH  20  24
HETATM   24  O3  UNL     1      -5.476  48.425 -25.049  1.00  0.00    -0.352 OA
BRANCH  24  25
HETATM   25  C28 UNL     1      -6.816  47.971 -25.289  1.00  0.00     0.292 C 
HETATM   26  O4  UNL     1      -7.113  47.929 -26.676  1.00  0.00    -0.348 OA
HETATM   27  C29 UNL     1      -8.373  47.293 -26.958  1.00  0.00     0.179 C 
HETATM   28  C31 UNL     1      -9.461  47.623 -25.904  1.00  0.00     0.180 C 
HETATM   29  C32 UNL     1      -9.181  48.947 -25.169  1.00  0.00     0.183 C 
HETATM   30  C33 UNL     1      -7.755  48.974 -24.586  1.00  0.00     0.204 C 
BRANCH  27  31
HETATM   31  C30 UNL     1      -8.774  47.725 -28.377  1.00  0.00     0.198 C 
BRANCH  31  32
HETATM   32  O5  UNL     1      -8.640  49.140 -28.537  1.00  0.00    -0.398 OA
HETATM   33  H46 UNL     1      -8.736  49.322 -29.490  1.00  0.00     0.209 HD
ENDBRANCH  31  32
ENDBRANCH  27  31
BRANCH  28  34
HETATM   34  O6  UNL     1      -9.491  46.525 -24.966  1.00  0.00    -0.390 OA
HETATM   35  H48 UNL     1      -9.506  46.885 -24.053  1.00  0.00     0.210 HD
ENDBRANCH  28  34
BRANCH  29  36
HETATM   36  O7  UNL     1      -9.407  50.094 -25.997  1.00  0.00    -0.390 OA
HETATM   37  H50 UNL     1      -9.093  49.889 -26.904  1.00  0.00     0.210 HD
ENDBRANCH  29  36
BRANCH  30  38
HETATM   38  O8  UNL     1      -7.813  48.640 -23.180  1.00  0.00    -0.388 OA
HETATM   39  H52 UNL     1      -6.982  48.984 -22.791  1.00  0.00     0.210 HD
ENDBRANCH  30  38
ENDBRANCH  24  25
ENDBRANCH  20  24
BRANCH   1  40
HETATM   40  C2  UNL     1       0.573  50.432 -16.114  1.00  0.00    -0.010 C 
HETATM   41  C1  UNL     1       1.002  49.329 -15.117  1.00  0.00     0.010 C 
BRANCH  40  42
HETATM   42  C3  UNL     1       0.532  51.806 -15.415  1.00  0.00     0.031 C 
BRANCH  42  43
HETATM   43  C4  UNL     1       0.635  51.865 -13.909  1.00  0.00    -0.027 C 
HETATM   44  C5  UNL     1      -0.091  52.613 -13.057  1.00  0.00     0.006 C 
BRANCH  44  45
HETATM   45  C6  UNL     1       0.040  52.631 -11.549  1.00  0.00     0.068 C 
HETATM   46  C7  UNL     1       0.102  54.073 -11.046  1.00  0.00     0.050 C 
HETATM   47  C8  UNL     1      -1.132  51.885 -10.896  1.00  0.00     0.050 C 
BRANCH  45  48
HETATM   48  O1  UNL     1       1.253  51.981 -11.151  1.00  0.00    -0.387 OA
HETATM   49  H15 UNL     1       1.163  51.048 -11.423  1.00  0.00     0.211 HD
ENDBRANCH  45  48
ENDBRANCH  44  45
ENDBRANCH  42  43
ENDBRANCH  40  42
ENDBRANCH   1  40
TORSDOF 12
ENDMDL
MODEL 8
REMARK minimizedAffinity -9.00872326
REMARK CNNscore 0.323135495
REMARK CNNaffinity 6.76613617
REMARK  12 active torsions:
REMARK  status: ('A' for Active; 'I' for Inactive)
REMARK    1  A    between atoms: C2_2  and  C3_3 
REMARK    2  A    between atoms: C2_2  and  C9_10 
REMARK    3  A    between atoms: C3_3  and  C4_4 
REMARK    4  A    between atoms: C5_5  and  C6_6 
REMARK    5  A    between atoms: C6_6  and  O1_9 
REMARK    6  A    between atoms: C27_29  and  O3_30 
REMARK    7  A    between atoms: O3_30  and  C28_31 
REMARK    8  A    between atoms: C29_33  and  C30_34 
REMARK    9  A    between atoms: C30_34  and  O5_35 
REMARK   10  A    between atoms: C31_36  and  O6_37 
REMARK   11  A    between atoms: C32_38  and  O7_39 
REMARK   12  A    between atoms: C33_40  and  O8_41 
ROOT
HETATM    1  C9  UNL     1      -1.431  51.215 -22.741  1.00  0.00    -0.002 C 
HETATM    2  C10 UNL     1      -1.619  50.378 -24.041  1.00  0.00     0.006 C 
HETATM    3  C11 UNL     1      -2.868  49.473 -23.811  1.00  0.00     0.011 C 
HETATM    4  C12 UNL     1      -3.500  50.006 -22.500  1.00  0.00    -0.029 C 
HETATM    5  C13 UNL     1      -4.348  51.259 -22.948  1.00  0.00     0.016 C 
HETATM    6  C14 UNL     1      -4.488  49.109 -21.668  1.00  0.00     0.028 C 
HETATM    7  C15 UNL     1      -4.761  47.682 -22.036  1.00  0.00    -0.021 C 
HETATM    8  C16 UNL     1      -5.381  46.895 -21.141  1.00  0.00     0.008 C 
HETATM    9  C17 UNL     1      -5.735  47.375 -19.723  1.00  0.00     0.092 C 
HETATM   10  O2  UNL     1      -4.533  47.068 -18.999  1.00  0.00    -0.374 OA
HETATM   11  C18 UNL     1      -3.620  48.178 -19.275  1.00  0.00     0.179 C 
HETATM   12  C19 UNL     1      -4.398  49.280 -20.094  1.00  0.00    -0.004 C 
HETATM   13  C20 UNL     1      -3.900  50.683 -19.726  1.00  0.00     0.014 C 
HETATM   14  C21 UNL     1      -2.570  51.112 -20.388  1.00  0.00     0.011 C 
HETATM   15  C22 UNL     1      -2.205  50.362 -21.688  1.00  0.00    -0.032 C 
HETATM   16  C23 UNL     1      -1.384  49.074 -21.383  1.00  0.00     0.016 C 
HETATM   17  C24 UNL     1      -5.782  48.911 -19.524  1.00  0.00     0.036 C 
HETATM   18  C25 UNL     1      -7.073  49.576 -19.997  1.00  0.00     0.011 C 
HETATM   19  C26 UNL     1      -8.046  48.618 -20.686  1.00  0.00     0.033 C 
HETATM   20  C27 UNL     1      -8.243  47.235 -20.010  1.00  0.00     0.136 C 
HETATM   21  C34 UNL     1      -7.031  46.744 -19.139  1.00  0.00     0.014 C 
HETATM   22  C35 UNL     1      -7.212  47.112 -17.639  1.00  0.00     0.021 C 
HETATM   23  C36 UNL     1      -6.990  45.197 -19.153  1.00  0.00     0.021 C 
ENDROOT
BRANCH  20  24
HETATM   24  O3  UNL     1      -9.427  47.218 -19.199  1.00  0.00    -0.352 OA
BRANCH  24  25
HETATM   25  C28 UNL     1     -10.635  46.919 -19.914  1.00  0.00     0.292 C 
HETATM   26  O4  UNL     1     -11.649  47.875 -19.650  1.00  0.00    -0.348 OA
HETATM   27  C29 UNL     1     -12.800  47.717 -20.499  1.00  0.00     0.179 C 
HETATM   28  C31 UNL     1     -13.139  46.231 -20.783  1.00  0.00     0.180 C 
HETATM   29  C32 UNL     1     -12.598  45.291 -19.690  1.00  0.00     0.183 C 
HETATM   30  C33 UNL     1     -11.096  45.526 -19.439  1.00  0.00     0.204 C 
BRANCH  27  31
HETATM   31  C30 UNL     1     -13.955  48.467 -19.817  1.00  0.00     0.198 C 
BRANCH  31  32
HETATM   32  O5  UNL     1     -13.873  49.872 -20.070  1.00  0.00    -0.398 OA
HETATM   33  H46 UNL     1     -14.714  50.259 -19.766  1.00  0.00     0.209 HD
ENDBRANCH  31  32
ENDBRANCH  27  31
BRANCH  28  34
HETATM   34  O6  UNL     1     -12.557  45.899 -22.062  1.00  0.00    -0.390 OA
HETATM   35  H48 UNL     1     -12.089  45.040 -21.988  1.00  0.00     0.210 HD
ENDBRANCH  28  34
BRANCH  29  36
HETATM   36  O7  UNL     1     -13.334  45.391 -18.464  1.00  0.00    -0.390 OA
HETATM   37  H50 UNL     1     -13.564  46.335 -18.317  1.00  0.00     0.210 HD
ENDBRANCH  29  36
BRANCH  30  38
HETATM   38  O8  UNL     1     -10.336  44.523 -20.152  1.00  0.00    -0.388 OA
HETATM   39  H52 UNL     1      -9.458  44.496 -19.717  1.00  0.00     0.210 HD
ENDBRANCH  30  38
ENDBRANCH  24  25
ENDBRANCH  20  24
BRANCH   1  40
HETATM   40  C2  UNL     1      -0.018  51.825 -22.472  1.00  0.00    -0.010 C 
HETATM   41  C1  UNL     1      -0.018  52.416 -21.042  1.00  0.00     0.010 C 
BRANCH  40  42
HETATM   42  C3  UNL     1       0.502  52.863 -23.486  1.00  0.00     0.031 C 
BRANCH  42  43
HETATM   43  C4  UNL     1      -0.002  52.812 -24.909  1.00  0.00    -0.027 C 
HETATM   44  C5  UNL     1       0.686  52.491 -26.021  1.00  0.00     0.006 C 
BRANCH  44  45
HETATM   45  C6  UNL     1       0.135  52.443 -27.431  1.00  0.00     0.068 C 
HETATM   46  C7  UNL     1      -0.246  53.850 -27.892  1.00  0.00     0.050 C 
HETATM   47  C8  UNL     1       1.160  51.824 -28.390  1.00  0.00     0.050 C 
BRANCH  45  48
HETATM   48  O1  UNL     1      -1.049  51.639 -27.471  1.00  0.00    -0.387 OA
HETATM   49  H15 UNL     1      -0.771  50.733 -27.237  1.00  0.00     0.211 HD
ENDBRANCH  45  48
ENDBRANCH  44  45
ENDBRANCH  42  43
ENDBRANCH  40  42
ENDBRANCH   1  40
TORSDOF 12
ENDMDL
MODEL 9
REMARK minimizedAffinity -8.64321232
REMARK CNNscore 0.320025861
REMARK CNNaffinity 7.13963318
REMARK  12 active torsions:
REMARK  status: ('A' for Active; 'I' for Inactive)
REMARK    1  A    between atoms: C2_2  and  C3_3 
REMARK    2  A    between atoms: C2_2  and  C9_10 
REMARK    3  A    between atoms: C3_3  and  C4_4 
REMARK    4  A    between atoms: C5_5  and  C6_6 
REMARK    5  A    between atoms: C6_6  and  O1_9 
REMARK    6  A    between atoms: C27_29  and  O3_30 
REMARK    7  A    between atoms: O3_30  and  C28_31 
REMARK    8  A    between atoms: C29_33  and  C30_34 
REMARK    9  A    between atoms: C30_34  and  O5_35 
REMARK   10  A    between atoms: C31_36  and  O6_37 
REMARK   11  A    between atoms: C32_38  and  O7_39 
REMARK   12  A    between atoms: C33_40  and  O8_41 
ROOT
HETATM    1  C9  UNL     1      -0.309  51.464 -20.493  1.00  0.00    -0.002 C 
HETATM    2  C10 UNL     1      -0.970  52.136 -19.254  1.00  0.00     0.006 C 
HETATM    3  C11 UNL     1      -2.331  51.412 -19.028  1.00  0.00     0.011 C 
HETATM    4  C12 UNL     1      -2.286  50.189 -19.978  1.00  0.00    -0.029 C 
HETATM    5  C13 UNL     1      -1.449  49.106 -19.192  1.00  0.00     0.016 C 
HETATM    6  C14 UNL     1      -3.612  49.461 -20.408  1.00  0.00     0.028 C 
HETATM    7  C15 UNL     1      -4.962  49.985 -20.020  1.00  0.00    -0.021 C 
HETATM    8  C16 UNL     1      -6.045  49.491 -20.643  1.00  0.00     0.008 C 
HETATM    9  C17 UNL     1      -5.946  48.482 -21.800  1.00  0.00     0.092 C 
HETATM   10  O2  UNL     1      -5.820  49.350 -22.937  1.00  0.00    -0.374 OA
HETATM   11  C18 UNL     1      -4.407  49.724 -22.985  1.00  0.00     0.179 C 
HETATM   12  C19 UNL     1      -3.628  48.897 -21.889  1.00  0.00    -0.004 C 
HETATM   13  C20 UNL     1      -2.207  48.571 -22.363  1.00  0.00     0.014 C 
HETATM   14  C21 UNL     1      -1.183  49.723 -22.240  1.00  0.00     0.011 C 
HETATM   15  C22 UNL     1      -1.536  50.816 -21.207  1.00  0.00    -0.032 C 
HETATM   16  C23 UNL     1      -2.396  51.942 -21.851  1.00  0.00     0.016 C 
HETATM   17  C24 UNL     1      -4.608  47.708 -21.905  1.00  0.00     0.036 C 
HETATM   18  C25 UNL     1      -4.481  46.521 -20.951  1.00  0.00     0.011 C 
HETATM   19  C26 UNL     1      -5.656  46.378 -19.982  1.00  0.00     0.033 C 
HETATM   20  C27 UNL     1      -7.072  46.571 -20.587  1.00  0.00     0.136 C 
HETATM   21  C34 UNL     1      -7.128  47.473 -21.872  1.00  0.00     0.014 C 
HETATM   22  C35 UNL     1      -7.069  46.627 -23.174  1.00  0.00     0.021 C 
HETATM   23  C36 UNL     1      -8.503  48.181 -21.936  1.00  0.00     0.021 C 
ENDROOT
BRANCH  20  24
HETATM   24  O3  UNL     1      -7.684  45.308 -20.887  1.00  0.00    -0.352 OA
BRANCH  24  25
HETATM   25  C28 UNL     1      -8.960  45.099 -20.262  1.00  0.00     0.292 C 
HETATM   26  O4  UNL     1     -10.017  45.638 -21.039  1.00  0.00    -0.348 OA
HETATM   27  C29 UNL     1     -11.317  45.274 -20.541  1.00  0.00     0.179 C 
HETATM   28  C31 UNL     1     -11.381  45.243 -18.992  1.00  0.00     0.180 C 
HETATM   29  C32 UNL     1     -10.306  46.136 -18.346  1.00  0.00     0.183 C 
HETATM   30  C33 UNL     1      -8.903  45.812 -18.895  1.00  0.00     0.204 C 
BRANCH  27  31
HETATM   31  C30 UNL     1     -12.316  46.267 -21.155  1.00  0.00     0.198 C 
BRANCH  31  32
HETATM   32  O5  UNL     1     -11.904  46.661 -22.467  1.00  0.00    -0.398 OA
HETATM   33  H46 UNL     1     -12.655  47.142 -22.861  1.00  0.00     0.209 HD
ENDBRANCH  31  32
ENDBRANCH  27  31
BRANCH  28  34
HETATM   34  O6  UNL     1     -11.202  43.869 -18.586  1.00  0.00    -0.390 OA
HETATM   35  H48 UNL     1     -10.552  43.834 -17.852  1.00  0.00     0.210 HD
ENDBRANCH  28  34
BRANCH  29  36
HETATM   36  O7  UNL     1     -10.591  47.533 -18.491  1.00  0.00    -0.390 OA
HETATM   37  H50 UNL     1     -10.968  47.682 -19.385  1.00  0.00     0.210 HD
ENDBRANCH  29  36
BRANCH  30  38
HETATM   38  O8  UNL     1      -8.217  44.950 -17.957  1.00  0.00    -0.388 OA
HETATM   39  H52 UNL     1      -7.263  45.041 -18.161  1.00  0.00     0.210 HD
ENDBRANCH  30  38
ENDBRANCH  24  25
ENDBRANCH  20  24
BRANCH   1  40
HETATM   40  C2  UNL     1       0.790  52.272 -21.255  1.00  0.00    -0.010 C 
HETATM   41  C1  UNL     1       1.458  53.238 -20.248  1.00  0.00     0.010 C 
BRANCH  40  42
HETATM   42  C3  UNL     1       0.350  53.032 -22.522  1.00  0.00     0.031 C 
BRANCH  42  43
HETATM   43  C4  UNL     1       0.860  52.569 -23.867  1.00  0.00    -0.027 C 
HETATM   44  C5  UNL     1       0.166  52.425 -25.012  1.00  0.00     0.006 C 
BRANCH  44  45
HETATM   45  C6  UNL     1       0.724  51.967 -26.343  1.00  0.00     0.068 C 
HETATM   46  C7  UNL     1       2.126  51.388 -26.152  1.00  0.00     0.050 C 
HETATM   47  C8  UNL     1      -0.202  50.925 -26.986  1.00  0.00     0.050 C 
BRANCH  45  48
HETATM   48  O1  UNL     1       0.832  53.076 -27.242  1.00  0.00    -0.387 OA
HETATM   49  H15 UNL     1      -0.080  53.387 -27.401  1.00  0.00     0.211 HD
ENDBRANCH  45  48
ENDBRANCH  44  45
ENDBRANCH  42  43
ENDBRANCH  40  42
ENDBRANCH   1  40
TORSDOF 12
ENDMDL
