MODEL 1
REMARK minimizedAffinity -9.38269806
REMARK  7 active torsions:
REMARK  status: ('A' for Active; 'I' for Inactive)
REMARK    1  A    between atoms: C3_4  and  O2_5 
REMARK    2  A    between atoms: O2_5  and  C4_6 
REMARK    3  A    between atoms: C4_6  and  C5_7 
REMARK    4  A    between atoms: N1_15  and  C13_16 
REMARK    5  A    between atoms: N3_24  and  C19_25 
REMARK    6  A    between atoms: C19_25  and  C20_26 
REMARK    7  A    between atoms: C20_26  and  N4_27 
ROOT
HETATM    1  C13 UNL     1      -2.441   4.872  12.316  1.00  0.00     0.043 A 
HETATM    2  C14 UNL     1      -3.313   5.635  13.110  1.00  0.00     0.032 A 
HETATM    3  C15 UNL     1      -4.664   5.296  13.293  1.00  0.00     0.034 A 
HETATM    4  C16 UNL     1      -5.134   4.149  12.648  1.00  0.00     0.062 A 
HETATM    5  C17 UNL     1      -4.309   3.359  11.856  1.00  0.00     0.011 A 
HETATM    6  C18 UNL     1      -5.141   2.309  11.409  1.00  0.00     0.121 A 
HETATM    7  N2  UNL     1      -6.392   2.410  11.866  1.00  0.00    -0.308 N 
ATOM      8  H2  UNL     1      -7.178   1.784  11.697  1.00  0.00     0.186 HD
HETATM    9  N3  UNL     1      -6.366   3.541  12.606  1.00  0.00    -0.290 N 
HETATM   10  C25 UNL     1      -2.958   3.721  11.685  1.00  0.00     0.045 A 
ENDROOT
BRANCH   1  11
HETATM   11  N1  UNL     1      -1.055   5.255  12.127  1.00  0.00    -0.290 N 
HETATM   12  C1  UNL     1      -0.116   4.302  11.661  1.00  0.00     0.254 A 
HETATM   13  O1  UNL     1      -0.338   3.132  11.352  1.00  0.00    -0.268 OA
HETATM   14  C2  UNL     1       1.287   4.772  11.494  1.00  0.00     0.111 A 
HETATM   15  C3  UNL     1       1.622   6.030  11.792  1.00  0.00     0.075 A 
HETATM   16  C11 UNL     1       0.628   6.964  12.233  1.00  0.00     0.054 A 
HETATM   17  C12 UNL     1      -0.639   6.565  12.389  1.00  0.00     0.103 A 
BRANCH  15  18
HETATM   18  O2  UNL     1       2.892   6.525  11.614  1.00  0.00    -0.346 OA
BRANCH  18  19
HETATM   19  C4  UNL     1       3.561   5.922  10.495  1.00  0.00     0.214 C 
BRANCH  19  20
HETATM   20  C5  UNL     1       3.091   6.521   9.190  1.00  0.00    -0.034 A 
HETATM   21  C6  UNL     1       2.979   7.912   9.048  1.00  0.00     0.009 A 
HETATM   22  C7  UNL     1       2.548   8.469   7.844  1.00  0.00     0.001 A 
HETATM   23  C8  UNL     1       2.222   7.641   6.771  1.00  0.00     0.000 A 
HETATM   24  C9  UNL     1       2.327   6.257   6.900  1.00  0.00     0.001 A 
HETATM   25  C10 UNL     1       2.760   5.698   8.104  1.00  0.00     0.009 A 
ENDBRANCH  19  20
ENDBRANCH  18  19
ENDBRANCH  15  18
ENDBRANCH   1  11
BRANCH   9  26
HETATM   26  C19 UNL     1      -7.586   3.987  13.256  1.00  0.00     0.179 C 
BRANCH  26  27
HETATM   27  C20 UNL     1      -7.631   5.515  13.368  1.00  0.00     0.294 C 
BRANCH  27  28
HETATM   28  N4  UNL     1      -8.290   5.969  14.612  1.00  0.00     0.090 N 
HETATM   29  C21 UNL     1      -7.670   5.395  15.819  1.00  0.00     0.272 C 
HETATM   30  C22 UNL     1      -6.481   6.286  16.154  1.00  0.00     0.032 C 
HETATM   31  C23 UNL     1      -6.767   7.608  15.458  1.00  0.00     0.032 C 
HETATM   32  C24 UNL     1      -8.125   7.421  14.799  1.00  0.00     0.272 C 
ENDBRANCH  27  28
ENDBRANCH  26  27
ENDBRANCH   9  26
TORSDOF 7
ENDMDL
MODEL 2
REMARK minimizedAffinity -9.33444309
REMARK  7 active torsions:
REMARK  status: ('A' for Active; 'I' for Inactive)
REMARK    1  A    between atoms: C3_4  and  O2_5 
REMARK    2  A    between atoms: O2_5  and  C4_6 
REMARK    3  A    between atoms: C4_6  and  C5_7 
REMARK    4  A    between atoms: N1_15  and  C13_16 
REMARK    5  A    between atoms: N3_24  and  C19_25 
REMARK    6  A    between atoms: C19_25  and  C20_26 
REMARK    7  A    between atoms: C20_26  and  N4_27 
ROOT
HETATM    1  C13 UNL     1      -4.041   5.244  12.748  1.00  0.00     0.043 A 
HETATM    2  C14 UNL     1      -4.458   6.465  13.303  1.00  0.00     0.032 A 
HETATM    3  C15 UNL     1      -5.782   6.703  13.706  1.00  0.00     0.034 A 
HETATM    4  C16 UNL     1      -6.703   5.666  13.537  1.00  0.00     0.062 A 
HETATM    5  C17 UNL     1      -6.339   4.438  12.997  1.00  0.00     0.011 A 
HETATM    6  C18 UNL     1      -7.527   3.675  13.012  1.00  0.00     0.121 A 
HETATM    7  N2  UNL     1      -8.567   4.347  13.511  1.00  0.00    -0.308 N 
ATOM      8  H2  UNL     1      -9.526   4.025  13.636  1.00  0.00     0.186 HD
HETATM    9  N3  UNL     1      -8.046   5.557  13.812  1.00  0.00    -0.290 N 
HETATM   10  C25 UNL     1      -5.005   4.224  12.598  1.00  0.00     0.045 A 
ENDROOT
BRANCH   1  11
HETATM   11  N1  UNL     1      -2.672   5.030  12.320  1.00  0.00    -0.290 N 
HETATM   12  C1  UNL     1      -2.365   3.966  11.438  1.00  0.00     0.254 A 
HETATM   13  O1  UNL     1      -3.155   3.167  10.936  1.00  0.00    -0.268 OA
HETATM   14  C2  UNL     1      -0.935   3.812  11.048  1.00  0.00     0.111 A 
HETATM   15  C3  UNL     1      -0.006   4.639  11.534  1.00  0.00     0.075 A 
HETATM   16  C11 UNL     1      -0.374   5.719  12.401  1.00  0.00     0.054 A 
HETATM   17  C12 UNL     1      -1.651   5.878  12.764  1.00  0.00     0.103 A 
BRANCH  15  18
HETATM   18  O2  UNL     1       1.317   4.567  11.170  1.00  0.00    -0.346 OA
BRANCH  18  19
HETATM   19  C4  UNL     1       1.938   5.860  11.104  1.00  0.00     0.214 C 
BRANCH  19  20
HETATM   20  C5  UNL     1       1.884   6.420   9.702  1.00  0.00    -0.034 A 
HETATM   21  C6  UNL     1       2.600   5.805   8.665  1.00  0.00     0.009 A 
HETATM   22  C7  UNL     1       2.551   6.318   7.368  1.00  0.00     0.001 A 
HETATM   23  C8  UNL     1       1.788   7.452   7.097  1.00  0.00     0.000 A 
HETATM   24  C9  UNL     1       1.073   8.074   8.120  1.00  0.00     0.001 A 
HETATM   25  C10 UNL     1       1.120   7.561   9.417  1.00  0.00     0.009 A 
ENDBRANCH  19  20
ENDBRANCH  18  19
ENDBRANCH  15  18
ENDBRANCH   1  11
BRANCH   9  26
HETATM   26  C19 UNL     1      -8.911   6.580  14.372  1.00  0.00     0.179 C 
BRANCH  26  27
HETATM   27  C20 UNL     1     -10.256   6.635  13.640  1.00  0.00     0.294 C 
BRANCH  27  28
HETATM   28  N4  UNL     1     -11.310   7.288  14.446  1.00  0.00     0.090 N 
HETATM   29  C21 UNL     1     -11.639   8.637  13.955  1.00  0.00     0.272 C 
HETATM   30  C22 UNL     1     -12.652   8.448  12.833  1.00  0.00     0.032 C 
HETATM   31  C23 UNL     1     -13.253   7.070  13.068  1.00  0.00     0.032 C 
HETATM   32  C24 UNL     1     -12.587   6.561  14.337  1.00  0.00     0.272 C 
ENDBRANCH  27  28
ENDBRANCH  26  27
ENDBRANCH   9  26
TORSDOF 7
ENDMDL
MODEL 3
REMARK minimizedAffinity -9.24347973
REMARK  7 active torsions:
REMARK  status: ('A' for Active; 'I' for Inactive)
REMARK    1  A    between atoms: C3_4  and  O2_5 
REMARK    2  A    between atoms: O2_5  and  C4_6 
REMARK    3  A    between atoms: C4_6  and  C5_7 
REMARK    4  A    between atoms: N1_15  and  C13_16 
REMARK    5  A    between atoms: N3_24  and  C19_25 
REMARK    6  A    between atoms: C19_25  and  C20_26 
REMARK    7  A    between atoms: C20_26  and  N4_27 
ROOT
HETATM    1  C13 UNL     1      -3.880   5.466  12.841  1.00  0.00     0.043 A 
HETATM    2  C14 UNL     1      -4.416   6.714  13.198  1.00  0.00     0.032 A 
HETATM    3  C15 UNL     1      -5.757   6.881  13.581  1.00  0.00     0.034 A 
HETATM    4  C16 UNL     1      -6.570   5.744  13.598  1.00  0.00     0.062 A 
HETATM    5  C17 UNL     1      -6.084   4.487  13.258  1.00  0.00     0.011 A 
HETATM    6  C18 UNL     1      -7.189   3.622  13.418  1.00  0.00     0.121 A 
HETATM    7  N2  UNL     1      -8.291   4.259  13.820  1.00  0.00    -0.308 N 
ATOM      8  H2  UNL     1      -9.212   3.868  14.012  1.00  0.00     0.186 HD
HETATM    9  N3  UNL     1      -7.894   5.547  13.911  1.00  0.00    -0.290 N 
HETATM   10  C25 UNL     1      -4.735   4.344  12.875  1.00  0.00     0.045 A 
ENDROOT
BRANCH   1  11
HETATM   11  N1  UNL     1      -2.496   5.323  12.430  1.00  0.00    -0.290 N 
HETATM   12  C1  UNL     1      -1.511   6.201  12.944  1.00  0.00     0.254 A 
HETATM   13  O1  UNL     1      -1.678   7.106  13.761  1.00  0.00    -0.268 OA
HETATM   14  C2  UNL     1      -0.114   5.990  12.472  1.00  0.00     0.111 A 
HETATM   15  C3  UNL     1       0.166   5.024  11.593  1.00  0.00     0.075 A 
HETATM   16  C11 UNL     1      -0.863   4.142  11.125  1.00  0.00     0.054 A 
HETATM   17  C12 UNL     1      -2.123   4.312  11.537  1.00  0.00     0.103 A 
BRANCH  15  18
HETATM   18  O2  UNL     1       1.444   4.760  11.161  1.00  0.00    -0.346 OA
BRANCH  18  19
HETATM   19  C4  UNL     1       2.206   5.957  10.943  1.00  0.00     0.214 C 
BRANCH  19  20
HETATM   20  C5  UNL     1       2.065   6.443   9.520  1.00  0.00    -0.034 A 
HETATM   21  C6  UNL     1       1.280   7.569   9.229  1.00  0.00     0.009 A 
HETATM   22  C7  UNL     1       1.150   8.021   7.915  1.00  0.00     0.001 A 
HETATM   23  C8  UNL     1       1.801   7.352   6.880  1.00  0.00     0.000 A 
HETATM   24  C9  UNL     1       2.582   6.231   7.157  1.00  0.00     0.001 A 
HETATM   25  C10 UNL     1       2.715   5.778   8.470  1.00  0.00     0.009 A 
ENDBRANCH  19  20
ENDBRANCH  18  19
ENDBRANCH  15  18
ENDBRANCH   1  11
BRANCH   9  26
HETATM   26  C19 UNL     1      -8.858   6.558  14.313  1.00  0.00     0.179 C 
BRANCH  26  27
HETATM   27  C20 UNL     1     -10.051   6.603  13.352  1.00  0.00     0.294 C 
BRANCH  27  28
HETATM   28  N4  UNL     1     -11.275   7.122  14.000  1.00  0.00     0.090 N 
HETATM   29  C21 UNL     1     -11.028   8.355  14.765  1.00  0.00     0.272 C 
HETATM   30  C22 UNL     1     -11.103   9.501  13.765  1.00  0.00     0.032 C 
HETATM   31  C23 UNL     1     -11.895   8.950  12.588  1.00  0.00     0.032 C 
HETATM   32  C24 UNL     1     -12.271   7.534  12.995  1.00  0.00     0.272 C 
ENDBRANCH  27  28
ENDBRANCH  26  27
ENDBRANCH   9  26
TORSDOF 7
ENDMDL
MODEL 4
REMARK minimizedAffinity -8.54616833
REMARK  7 active torsions:
REMARK  status: ('A' for Active; 'I' for Inactive)
REMARK    1  A    between atoms: C3_4  and  O2_5 
REMARK    2  A    between atoms: O2_5  and  C4_6 
REMARK    3  A    between atoms: C4_6  and  C5_7 
REMARK    4  A    between atoms: N1_15  and  C13_16 
REMARK    5  A    between atoms: N3_24  and  C19_25 
REMARK    6  A    between atoms: C19_25  and  C20_26 
REMARK    7  A    between atoms: C20_26  and  N4_27 
ROOT
HETATM    1  C13 UNL     1      -5.989   5.178  13.206  1.00  0.00     0.043 A 
HETATM    2  C14 UNL     1      -4.790   5.880  13.411  1.00  0.00     0.032 A 
HETATM    3  C15 UNL     1      -3.539   5.374  13.025  1.00  0.00     0.034 A 
HETATM    4  C16 UNL     1      -3.512   4.116  12.415  1.00  0.00     0.062 A 
HETATM    5  C17 UNL     1      -4.671   3.384  12.186  1.00  0.00     0.011 A 
HETATM    6  C18 UNL     1      -4.229   2.205  11.548  1.00  0.00     0.121 A 
HETATM    7  N2  UNL     1      -2.905   2.172  11.382  1.00  0.00    -0.308 N 
ATOM      8  H2  UNL     1      -2.341   1.442  10.948  1.00  0.00     0.186 HD
HETATM    9  N3  UNL     1      -2.490   3.337  11.926  1.00  0.00    -0.290 N 
HETATM   10  C25 UNL     1      -5.916   3.913  12.585  1.00  0.00     0.045 A 
ENDROOT
BRANCH   1  11
HETATM   11  N1  UNL     1      -7.267   5.715  13.632  1.00  0.00    -0.290 N 
HETATM   12  C1  UNL     1      -7.457   6.101  14.981  1.00  0.00     0.254 A 
HETATM   13  O1  UNL     1      -6.626   6.064  15.888  1.00  0.00    -0.268 OA
HETATM   14  C2  UNL     1      -8.799   6.641  15.340  1.00  0.00     0.111 A 
HETATM   15  C3  UNL     1      -9.762   6.729  14.420  1.00  0.00     0.075 A 
HETATM   16  C11 UNL     1      -9.510   6.352  13.060  1.00  0.00     0.054 A 
HETATM   17  C12 UNL     1      -8.313   5.866  12.715  1.00  0.00     0.103 A 
BRANCH  15  18
HETATM   18  O2  UNL     1     -11.001   7.261  14.689  1.00  0.00    -0.346 OA
BRANCH  18  19
HETATM   19  C4  UNL     1     -11.747   7.541  13.494  1.00  0.00     0.214 C 
BRANCH  19  20
HETATM   20  C5  UNL     1     -13.148   6.983  13.582  1.00  0.00    -0.034 A 
HETATM   21  C6  UNL     1     -14.173   7.511  12.783  1.00  0.00     0.009 A 
HETATM   22  C7  UNL     1     -15.468   6.996  12.860  1.00  0.00     0.001 A 
HETATM   23  C8  UNL     1     -15.750   5.950  13.736  1.00  0.00     0.000 A 
HETATM   24  C9  UNL     1     -14.741   5.419  14.537  1.00  0.00     0.001 A 
HETATM   25  C10 UNL     1     -13.444   5.932  14.461  1.00  0.00     0.009 A 
ENDBRANCH  19  20
ENDBRANCH  18  19
ENDBRANCH  15  18
ENDBRANCH   1  11
BRANCH   9  26
HETATM   26  C19 UNL     1      -1.071   3.644  11.943  1.00  0.00     0.179 C 
BRANCH  26  27
HETATM   27  C20 UNL     1      -0.753   4.867  11.077  1.00  0.00     0.294 C 
BRANCH  27  28
HETATM   28  N4  UNL     1       0.304   5.716  11.667  1.00  0.00     0.090 N 
HETATM   29  C21 UNL     1       1.626   5.471  11.064  1.00  0.00     0.272 C 
HETATM   30  C22 UNL     1       1.684   6.321   9.802  1.00  0.00     0.032 C 
HETATM   31  C23 UNL     1       0.631   7.402  10.001  1.00  0.00     0.032 C 
HETATM   32  C24 UNL     1       0.057   7.142  11.386  1.00  0.00     0.272 C 
ENDBRANCH  27  28
ENDBRANCH  26  27
ENDBRANCH   9  26
TORSDOF 7
ENDMDL
MODEL 5
REMARK minimizedAffinity -8.37423134
REMARK  7 active torsions:
REMARK  status: ('A' for Active; 'I' for Inactive)
REMARK    1  A    between atoms: C3_4  and  O2_5 
REMARK    2  A    between atoms: O2_5  and  C4_6 
REMARK    3  A    between atoms: C4_6  and  C5_7 
REMARK    4  A    between atoms: N1_15  and  C13_16 
REMARK    5  A    between atoms: N3_24  and  C19_25 
REMARK    6  A    between atoms: C19_25  and  C20_26 
REMARK    7  A    between atoms: C20_26  and  N4_27 
ROOT
HETATM    1  C13 UNL     1      -2.116   5.821  12.451  1.00  0.00     0.043 A 
HETATM    2  C14 UNL     1      -3.137   6.605  13.013  1.00  0.00     0.032 A 
HETATM    3  C15 UNL     1      -4.461   6.153  13.136  1.00  0.00     0.034 A 
HETATM    4  C16 UNL     1      -4.748   4.867  12.672  1.00  0.00     0.062 A 
HETATM    5  C17 UNL     1      -3.772   4.050  12.113  1.00  0.00     0.011 A 
HETATM    6  C18 UNL     1      -4.448   2.851  11.795  1.00  0.00     0.121 A 
HETATM    7  N2  UNL     1      -5.744   2.889  12.114  1.00  0.00    -0.308 N 
ATOM      8  H2  UNL     1      -6.445   2.158  11.994  1.00  0.00     0.186 HD
HETATM    9  N3  UNL     1      -5.905   4.125  12.634  1.00  0.00    -0.290 N 
HETATM   10  C25 UNL     1      -2.451   4.527  11.998  1.00  0.00     0.045 A 
ENDROOT
BRANCH   1  11
HETATM   11  N1  UNL     1      -0.761   6.319  12.317  1.00  0.00    -0.290 N 
HETATM   12  C1  UNL     1      -0.533   7.700  12.106  1.00  0.00     0.254 A 
HETATM   13  O1  UNL     1      -1.379   8.591  12.043  1.00  0.00    -0.268 OA
HETATM   14  C2  UNL     1       0.887   8.132  11.976  1.00  0.00     0.111 A 
HETATM   15  C3  UNL     1       1.877   7.238  12.042  1.00  0.00     0.075 A 
HETATM   16  C11 UNL     1       1.594   5.854  12.287  1.00  0.00     0.054 A 
HETATM   17  C12 UNL     1       0.328   5.444  12.408  1.00  0.00     0.103 A 
BRANCH  15  18
HETATM   18  O2  UNL     1       3.204   7.590  11.974  1.00  0.00    -0.346 OA
BRANCH  18  19
HETATM   19  C4  UNL     1       3.939   6.775  11.047  1.00  0.00     0.214 C 
BRANCH  19  20
HETATM   20  C5  UNL     1       3.409   6.933   9.642  1.00  0.00    -0.034 A 
HETATM   21  C6  UNL     1       3.251   8.210   9.083  1.00  0.00     0.009 A 
HETATM   22  C7  UNL     1       2.763   8.359   7.784  1.00  0.00     0.001 A 
HETATM   23  C8  UNL     1       2.429   7.235   7.032  1.00  0.00     0.000 A 
HETATM   24  C9  UNL     1       2.580   5.961   7.577  1.00  0.00     0.001 A 
HETATM   25  C10 UNL     1       3.068   5.809   8.876  1.00  0.00     0.009 A 
ENDBRANCH  19  20
ENDBRANCH  18  19
ENDBRANCH  15  18
ENDBRANCH   1  11
BRANCH   9  26
HETATM   26  C19 UNL     1      -7.224   4.537  13.083  1.00  0.00     0.179 C 
BRANCH  26  27
HETATM   27  C20 UNL     1      -7.218   4.904  14.570  1.00  0.00     0.294 C 
BRANCH  27  28
HETATM   28  N4  UNL     1      -8.287   5.865  14.917  1.00  0.00     0.090 N 
HETATM   29  C21 UNL     1      -8.391   6.091  16.369  1.00  0.00     0.272 C 
HETATM   30  C22 UNL     1      -7.359   7.158  16.709  1.00  0.00     0.032 C 
HETATM   31  C23 UNL     1      -7.074   7.870  15.395  1.00  0.00     0.032 C 
HETATM   32  C24 UNL     1      -7.991   7.205  14.380  1.00  0.00     0.272 C 
ENDBRANCH  27  28
ENDBRANCH  26  27
ENDBRANCH   9  26
TORSDOF 7
ENDMDL
MODEL 6
REMARK minimizedAffinity -8.34874058
REMARK  7 active torsions:
REMARK  status: ('A' for Active; 'I' for Inactive)
REMARK    1  A    between atoms: C3_4  and  O2_5 
REMARK    2  A    between atoms: O2_5  and  C4_6 
REMARK    3  A    between atoms: C4_6  and  C5_7 
REMARK    4  A    between atoms: N1_15  and  C13_16 
REMARK    5  A    between atoms: N3_24  and  C19_25 
REMARK    6  A    between atoms: C19_25  and  C20_26 
REMARK    7  A    between atoms: C20_26  and  N4_27 
ROOT
HETATM    1  C13 UNL     1      -1.802   6.454  12.783  1.00  0.00     0.043 A 
HETATM    2  C14 UNL     1      -2.492   5.238  12.916  1.00  0.00     0.032 A 
HETATM    3  C15 UNL     1      -3.855   5.173  13.248  1.00  0.00     0.034 A 
HETATM    4  C16 UNL     1      -4.528   6.381  13.450  1.00  0.00     0.062 A 
HETATM    5  C17 UNL     1      -3.891   7.609  13.325  1.00  0.00     0.011 A 
HETATM    6  C18 UNL     1      -4.899   8.563  13.583  1.00  0.00     0.121 A 
HETATM    7  N2  UNL     1      -6.081   8.005  13.856  1.00  0.00    -0.308 N 
ATOM      8  H2  UNL     1      -6.964   8.469  14.070  1.00  0.00     0.186 HD
HETATM    9  N3  UNL     1      -5.829   6.680  13.780  1.00  0.00    -0.290 N 
HETATM   10  C25 UNL     1      -2.522   7.649  12.993  1.00  0.00     0.045 A 
ENDROOT
BRANCH   1  11
HETATM   11  N1  UNL     1      -0.389   6.494  12.458  1.00  0.00    -0.290 N 
HETATM   12  C1  UNL     1       0.382   7.634  12.796  1.00  0.00     0.254 A 
HETATM   13  O1  UNL     1      -0.005   8.642  13.386  1.00  0.00    -0.268 OA
HETATM   14  C2  UNL     1       1.825   7.599  12.427  1.00  0.00     0.111 A 
HETATM   15  C3  UNL     1       2.338   6.541  11.795  1.00  0.00     0.075 A 
HETATM   16  C11 UNL     1       1.522   5.400  11.501  1.00  0.00     0.054 A 
HETATM   17  C12 UNL     1       0.224   5.408  11.824  1.00  0.00     0.103 A 
BRANCH  15  18
HETATM   18  O2  UNL     1       3.671   6.441  11.473  1.00  0.00    -0.346 OA
BRANCH  18  19
HETATM   19  C4  UNL     1       3.884   5.742  10.237  1.00  0.00     0.214 C 
BRANCH  19  20
HETATM   20  C5  UNL     1       3.306   6.507   9.070  1.00  0.00    -0.034 A 
HETATM   21  C6  UNL     1       3.403   7.906   9.021  1.00  0.00     0.009 A 
HETATM   22  C7  UNL     1       2.872   8.616   7.944  1.00  0.00     0.001 A 
HETATM   23  C8  UNL     1       2.238   7.935   6.906  1.00  0.00     0.000 A 
HETATM   24  C9  UNL     1       2.134   6.545   6.944  1.00  0.00     0.001 A 
HETATM   25  C10 UNL     1       2.665   5.833   8.020  1.00  0.00     0.009 A 
ENDBRANCH  19  20
ENDBRANCH  18  19
ENDBRANCH  15  18
ENDBRANCH   1  11
BRANCH   9  26
HETATM   26  C19 UNL     1      -6.905   5.740  14.043  1.00  0.00     0.179 C 
BRANCH  26  27
HETATM   27  C20 UNL     1      -8.252   6.284  13.557  1.00  0.00     0.294 C 
BRANCH  27  28
HETATM   28  N4  UNL     1      -9.298   6.208  14.600  1.00  0.00     0.090 N 
HETATM   29  C21 UNL     1      -8.830   6.707  15.905  1.00  0.00     0.272 C 
HETATM   30  C22 UNL     1      -9.008   8.219  15.873  1.00  0.00     0.032 C 
HETATM   31  C23 UNL     1     -10.038   8.476  14.783  1.00  0.00     0.032 C 
HETATM   32  C24 UNL     1     -10.431   7.096  14.279  1.00  0.00     0.272 C 
ENDBRANCH  27  28
ENDBRANCH  26  27
ENDBRANCH   9  26
TORSDOF 7
ENDMDL
MODEL 7
REMARK minimizedAffinity -8.3420763
REMARK  7 active torsions:
REMARK  status: ('A' for Active; 'I' for Inactive)
REMARK    1  A    between atoms: C3_4  and  O2_5 
REMARK    2  A    between atoms: O2_5  and  C4_6 
REMARK    3  A    between atoms: C4_6  and  C5_7 
REMARK    4  A    between atoms: N1_15  and  C13_16 
REMARK    5  A    between atoms: N3_24  and  C19_25 
REMARK    6  A    between atoms: C19_25  and  C20_26 
REMARK    7  A    between atoms: C20_26  and  N4_27 
ROOT
HETATM    1  C13 UNL     1      -3.605   5.874  13.393  1.00  0.00     0.043 A 
HETATM    2  C14 UNL     1      -2.837   7.027  13.166  1.00  0.00     0.032 A 
HETATM    3  C15 UNL     1      -1.555   6.985  12.595  1.00  0.00     0.034 A 
HETATM    4  C16 UNL     1      -1.044   5.730  12.250  1.00  0.00     0.062 A 
HETATM    5  C17 UNL     1      -1.767   4.560  12.450  1.00  0.00     0.011 A 
HETATM    6  C18 UNL     1      -0.928   3.534  11.962  1.00  0.00     0.121 A 
HETATM    7  N2  UNL     1       0.234   3.995  11.493  1.00  0.00    -0.308 N 
ATOM      8  H2  UNL     1       1.004   3.467  11.085  1.00  0.00     0.186 HD
HETATM    9  N3  UNL     1       0.145   5.329  11.689  1.00  0.00    -0.290 N 
HETATM   10  C25 UNL     1      -3.051   4.628  13.026  1.00  0.00     0.045 A 
ENDROOT
BRANCH   1  11
HETATM   11  N1  UNL     1      -4.920   5.942  14.002  1.00  0.00    -0.290 N 
HETATM   12  C1  UNL     1      -5.137   6.780  15.122  1.00  0.00     0.254 A 
HETATM   13  O1  UNL     1      -4.317   7.521  15.664  1.00  0.00    -0.268 OA
HETATM   14  C2  UNL     1      -6.513   6.794  15.691  1.00  0.00     0.111 A 
HETATM   15  C3  UNL     1      -7.473   6.031  15.163  1.00  0.00     0.075 A 
HETATM   16  C11 UNL     1      -7.210   5.222  14.009  1.00  0.00     0.054 A 
HETATM   17  C12 UNL     1      -5.982   5.195  13.481  1.00  0.00     0.103 A 
BRANCH  15  18
HETATM   18  O2  UNL     1      -8.769   6.041  15.622  1.00  0.00    -0.346 OA
BRANCH  18  19
HETATM   19  C4  UNL     1      -9.236   7.368  15.911  1.00  0.00     0.214 C 
BRANCH  19  20
HETATM   20  C5  UNL     1     -10.136   7.881  14.811  1.00  0.00    -0.034 A 
HETATM   21  C6  UNL     1     -10.435   9.249  14.719  1.00  0.00     0.009 A 
HETATM   22  C7  UNL     1     -11.264   9.726  13.703  1.00  0.00     0.001 A 
HETATM   23  C8  UNL     1     -11.802   8.841  12.770  1.00  0.00     0.000 A 
HETATM   24  C9  UNL     1     -11.514   7.480  12.852  1.00  0.00     0.001 A 
HETATM   25  C10 UNL     1     -10.684   7.000  13.867  1.00  0.00     0.009 A 
ENDBRANCH  19  20
ENDBRANCH  18  19
ENDBRANCH  15  18
ENDBRANCH   1  11
BRANCH   9  26
HETATM   26  C19 UNL     1       1.262   6.175  11.306  1.00  0.00     0.179 C 
BRANCH  26  27
HETATM   27  C20 UNL     1       1.096   6.708   9.880  1.00  0.00     0.294 C 
BRANCH  27  28
HETATM   28  N4  UNL     1       2.227   6.335   9.003  1.00  0.00     0.090 N 
HETATM   29  C21 UNL     1       2.162   6.995   7.688  1.00  0.00     0.272 C 
HETATM   30  C22 UNL     1       2.790   8.370   7.869  1.00  0.00     0.032 C 
HETATM   31  C23 UNL     1       3.651   8.253   9.118  1.00  0.00     0.032 C 
HETATM   32  C24 UNL     1       3.507   6.806   9.561  1.00  0.00     0.272 C 
ENDBRANCH  27  28
ENDBRANCH  26  27
ENDBRANCH   9  26
TORSDOF 7
ENDMDL
MODEL 8
REMARK minimizedAffinity -8.31545448
REMARK  7 active torsions:
REMARK  status: ('A' for Active; 'I' for Inactive)
REMARK    1  A    between atoms: C3_4  and  O2_5 
REMARK    2  A    between atoms: O2_5  and  C4_6 
REMARK    3  A    between atoms: C4_6  and  C5_7 
REMARK    4  A    between atoms: N1_15  and  C13_16 
REMARK    5  A    between atoms: N3_24  and  C19_25 
REMARK    6  A    between atoms: C19_25  and  C20_26 
REMARK    7  A    between atoms: C20_26  and  N4_27 
ROOT
HETATM    1  C13 UNL     1      -4.480   7.405  13.715  1.00  0.00     0.043 A 
HETATM    2  C14 UNL     1      -5.168   8.332  14.514  1.00  0.00     0.032 A 
HETATM    3  C15 UNL     1      -6.505   8.153  14.904  1.00  0.00     0.034 A 
HETATM    4  C16 UNL     1      -7.155   6.996  14.465  1.00  0.00     0.062 A 
HETATM    5  C17 UNL     1      -6.516   6.046  13.677  1.00  0.00     0.011 A 
HETATM    6  C18 UNL     1      -7.487   5.042  13.469  1.00  0.00     0.121 A 
HETATM    7  N2  UNL     1      -8.651   5.317  14.063  1.00  0.00    -0.308 N 
ATOM      8  H2  UNL     1      -9.504   4.759  14.070  1.00  0.00     0.186 HD
HETATM    9  N3  UNL     1      -8.429   6.513  14.652  1.00  0.00    -0.290 N 
HETATM   10  C25 UNL     1      -5.175   6.250  13.296  1.00  0.00     0.045 A 
ENDROOT
BRANCH   1  11
HETATM   11  N1  UNL     1      -3.105   7.624  13.308  1.00  0.00    -0.290 N 
HETATM   12  C1  UNL     1      -2.089   6.744  13.752  1.00  0.00     0.254 A 
HETATM   13  O1  UNL     1      -2.228   5.744  14.456  1.00  0.00    -0.268 OA
HETATM   14  C2  UNL     1      -0.702   7.037  13.292  1.00  0.00     0.111 A 
HETATM   15  C3  UNL     1      -0.455   8.094  12.515  1.00  0.00     0.075 A 
HETATM   16  C11 UNL     1      -1.524   8.938  12.068  1.00  0.00     0.054 A 
HETATM   17  C12 UNL     1      -2.777   8.693  12.468  1.00  0.00     0.103 A 
BRANCH  15  18
HETATM   18  O2  UNL     1       0.798   8.382  12.027  1.00  0.00    -0.346 OA
BRANCH  18  19
HETATM   19  C4  UNL     1       1.508   7.205  11.612  1.00  0.00     0.214 C 
BRANCH  19  20
HETATM   20  C5  UNL     1       1.681   7.173  10.112  1.00  0.00    -0.034 A 
HETATM   21  C6  UNL     1       1.012   8.100   9.300  1.00  0.00     0.009 A 
HETATM   22  C7  UNL     1       1.172   8.075   7.915  1.00  0.00     0.001 A 
HETATM   23  C8  UNL     1       2.002   7.122   7.327  1.00  0.00     0.000 A 
HETATM   24  C9  UNL     1       2.671   6.194   8.123  1.00  0.00     0.001 A 
HETATM   25  C10 UNL     1       2.513   6.218   9.510  1.00  0.00     0.009 A 
ENDBRANCH  19  20
ENDBRANCH  18  19
ENDBRANCH  15  18
ENDBRANCH   1  11
BRANCH   9  26
HETATM   26  C19 UNL     1      -9.506   7.147  15.392  1.00  0.00     0.179 C 
BRANCH  26  27
HETATM   27  C20 UNL     1     -10.269   8.148  14.518  1.00  0.00     0.294 C 
BRANCH  27  28
HETATM   28  N4  UNL     1     -11.186   7.482  13.568  1.00  0.00     0.090 N 
HETATM   29  C21 UNL     1     -12.172   6.623  14.246  1.00  0.00     0.272 C 
HETATM   30  C22 UNL     1     -13.315   7.536  14.669  1.00  0.00     0.032 C 
HETATM   31  C23 UNL     1     -13.196   8.762  13.776  1.00  0.00     0.032 C 
HETATM   32  C24 UNL     1     -12.020   8.468  12.858  1.00  0.00     0.272 C 
ENDBRANCH  27  28
ENDBRANCH  26  27
ENDBRANCH   9  26
TORSDOF 7
ENDMDL
MODEL 9
REMARK minimizedAffinity -8.27720642
REMARK  7 active torsions:
REMARK  status: ('A' for Active; 'I' for Inactive)
REMARK    1  A    between atoms: C3_4  and  O2_5 
REMARK    2  A    between atoms: O2_5  and  C4_6 
REMARK    3  A    between atoms: C4_6  and  C5_7 
REMARK    4  A    between atoms: N1_15  and  C13_16 
REMARK    5  A    between atoms: N3_24  and  C19_25 
REMARK    6  A    between atoms: C19_25  and  C20_26 
REMARK    7  A    between atoms: C20_26  and  N4_27 
ROOT
HETATM    1  C13 UNL     1      -2.769   4.290  12.106  1.00  0.00     0.043 A 
HETATM    2  C14 UNL     1      -3.571   5.068  12.957  1.00  0.00     0.032 A 
HETATM    3  C15 UNL     1      -4.918   4.765  13.217  1.00  0.00     0.034 A 
HETATM    4  C16 UNL     1      -5.458   3.640  12.588  1.00  0.00     0.062 A 
HETATM    5  C17 UNL     1      -4.704   2.836  11.742  1.00  0.00     0.011 A 
HETATM    6  C18 UNL     1      -5.591   1.815  11.335  1.00  0.00     0.121 A 
HETATM    7  N2  UNL     1      -6.809   1.946  11.865  1.00  0.00    -0.308 N 
ATOM      8  H2  UNL     1      -7.622   1.344  11.737  1.00  0.00     0.186 HD
HETATM    9  N3  UNL     1      -6.707   3.067  12.613  1.00  0.00    -0.290 N 
HETATM   10  C25 UNL     1      -3.355   3.161  11.495  1.00  0.00     0.045 A 
ENDROOT
BRANCH   1  11
HETATM   11  N1  UNL     1      -1.386   4.636  11.839  1.00  0.00    -0.290 N 
HETATM   12  C1  UNL     1      -0.423   3.612  11.666  1.00  0.00     0.254 A 
HETATM   13  O1  UNL     1      -0.619   2.397  11.688  1.00  0.00    -0.268 OA
HETATM   14  C2  UNL     1       0.976   4.048  11.397  1.00  0.00     0.111 A 
HETATM   15  C3  UNL     1       1.283   5.347  11.344  1.00  0.00     0.075 A 
HETATM   16  C11 UNL     1       0.265   6.344  11.496  1.00  0.00     0.054 A 
HETATM   17  C12 UNL     1      -0.997   5.976  11.737  1.00  0.00     0.103 A 
BRANCH  15  18
HETATM   18  O2  UNL     1       2.549   5.800  11.054  1.00  0.00    -0.346 OA
BRANCH  18  19
HETATM   19  C4  UNL     1       2.942   6.897  11.895  1.00  0.00     0.214 C 
BRANCH  19  20
HETATM   20  C5  UNL     1       4.277   7.459  11.468  1.00  0.00    -0.034 A 
HETATM   21  C6  UNL     1       4.410   8.825  11.174  1.00  0.00     0.009 A 
HETATM   22  C7  UNL     1       5.643   9.348  10.782  1.00  0.00     0.001 A 
HETATM   23  C8  UNL     1       6.753   8.512  10.679  1.00  0.00     0.000 A 
HETATM   24  C9  UNL     1       6.633   7.154  10.967  1.00  0.00     0.001 A 
HETATM   25  C10 UNL     1       5.401   6.628  11.360  1.00  0.00     0.009 A 
ENDBRANCH  19  20
ENDBRANCH  18  19
ENDBRANCH  15  18
ENDBRANCH   1  11
BRANCH   9  26
HETATM   26  C19 UNL     1      -7.873   3.540  13.339  1.00  0.00     0.179 C 
BRANCH  26  27
HETATM   27  C20 UNL     1      -7.927   5.071  13.371  1.00  0.00     0.294 C 
BRANCH  27  28
HETATM   28  N4  UNL     1      -8.510   5.588  14.629  1.00  0.00     0.090 N 
HETATM   29  C21 UNL     1      -7.611   5.406  15.782  1.00  0.00     0.272 C 
HETATM   30  C22 UNL     1      -6.655   6.591  15.769  1.00  0.00     0.032 C 
HETATM   31  C23 UNL     1      -7.356   7.659  14.943  1.00  0.00     0.032 C 
HETATM   32  C24 UNL     1      -8.696   7.048  14.565  1.00  0.00     0.272 C 
ENDBRANCH  27  28
ENDBRANCH  26  27
ENDBRANCH   9  26
TORSDOF 7
ENDMDL
