MODEL 1
REMARK minimizedAffinity -7.2691102
REMARK CNNscore 0.403119683
REMARK CNNaffinity 6.90606546
REMARK  10 active torsions:
REMARK  status: ('A' for Active; 'I' for Inactive)
REMARK    1  A    between atoms: C16_18  and  C17_19 
REMARK    2  A    between atoms: C26_30  and  C27_31 
REMARK    3  A    between atoms: C27_31  and  O1_33 
REMARK    4  A    between atoms: C30_35  and  C31_36 
REMARK    5  A    between atoms: C31_36  and  O3_38 
REMARK    6  A    between atoms: C37_44  and  O4_45 
REMARK    7  A    between atoms: C40_48  and  C41_49 
REMARK    8  A    between atoms: C40_48  and  C42_51 
REMARK    9  A    between atoms: C41_49  and  O5_50 
REMARK   10  A    between atoms: C42_51  and  O7_53 
ROOT
HETATM    1  C17 UNL     1       0.989  54.587  -7.736  1.00  0.00     0.013 A 
HETATM    2  C18 UNL     1       0.008  53.926  -8.530  1.00  0.00     0.053 A 
HETATM    3  N3  UNL     1      -0.113  52.593  -8.839  1.00  0.00    -0.357 N 
HETATM    4  C19 UNL     1      -1.247  52.326  -9.573  1.00  0.00     0.038 A 
HETATM    5  C20 UNL     1      -1.830  53.553  -9.846  1.00  0.00    -0.020 A 
HETATM    6  C21 UNL     1      -3.021  53.838 -10.705  1.00  0.00     0.072 C 
HETATM    7  C22 UNL     1      -4.162  52.822 -10.625  1.00  0.00     0.277 C 
HETATM    8  N4  UNL     1      -3.894  51.429 -10.985  1.00  0.00     0.096 N 
HETATM    9  C23 UNL     1      -3.310  51.234 -12.324  1.00  0.00     0.277 C 
HETATM   10  C24 UNL     1      -2.277  50.096 -12.286  1.00  0.00     0.016 C 
HETATM   11  C25 UNL     1      -2.943  48.840 -11.704  1.00  0.00     0.015 C 
HETATM   12  C26 UNL     1      -3.482  49.137 -10.285  1.00  0.00     0.049 C 
HETATM   13  C29 UNL     1      -3.176  50.644  -9.945  1.00  0.00     0.253 C 
HETATM   14  C30 UNL     1      -1.622  50.881  -9.953  1.00  0.00     0.122 C 
HETATM   15  C33 UNL     1      -1.104  50.522 -11.375  1.00  0.00     0.035 C 
HETATM   16  C34 UNL     1      -1.047  54.558  -9.176  1.00  0.00    -0.000 A 
HETATM   17  C35 UNL     1      -1.154  55.955  -9.070  1.00  0.00     0.017 A 
HETATM   18  C36 UNL     1      -0.234  56.654  -8.292  1.00  0.00     0.038 A 
HETATM   19  C37 UNL     1       0.798  55.981  -7.636  1.00  0.00     0.075 A 
HETATM   20  H19 UNL     1       0.554  51.894  -8.540  1.00  0.00     0.166 HD
ENDROOT
BRANCH   1  21
HETATM   21  C16 UNL     1       2.122  53.781  -7.083  1.00  0.00     0.075 C 
HETATM   22  C9  UNL     1       2.678  54.211  -5.748  1.00  0.00     0.025 A 
HETATM   23  C8  UNL     1       3.921  54.081  -5.130  1.00  0.00    -0.020 A 
HETATM   24  N2  UNL     1       1.833  54.796  -4.829  1.00  0.00    -0.358 N 
HETATM   25  C7  UNL     1       5.191  53.457  -5.648  1.00  0.00     0.079 C 
HETATM   26  C15 UNL     1       3.769  54.590  -3.784  1.00  0.00    -0.001 A 
HETATM   27  C6  UNL     1       6.014  54.130  -6.797  1.00  0.00     0.248 C 
HETATM   28  N1  UNL     1       6.064  55.604  -6.878  1.00  0.00     0.094 N 
HETATM   29  C40 UNL     1       5.726  53.577  -8.234  1.00  0.00     0.107 C 
HETATM   30  C4  UNL     1       4.824  56.226  -7.340  1.00  0.00     0.306 C 
HETATM   31  C5  UNL     1       6.569  56.257  -5.676  1.00  0.00     0.310 C 
HETATM   32  C3  UNL     1       4.218  55.572  -8.577  1.00  0.00    -0.051 C 
HETATM   33  C2  UNL     1       3.700  56.350  -9.552  1.00  0.00    -0.026 C 
HETATM   34  C39 UNL     1       4.312  54.055  -8.683  1.00  0.00     0.039 C 
HETATM   35  C1  UNL     1       3.035  55.923 -10.822  1.00  0.00     0.036 C 
HETATM   36  C38 UNL     1       3.143  53.222  -8.090  1.00  0.00     0.026 C 
HETATM   37  C10 UNL     1       2.459  55.027  -3.636  1.00  0.00     0.043 A 
HETATM   38  C14 UNL     1       4.633  54.708  -2.672  1.00  0.00     0.014 A 
HETATM   39  C11 UNL     1       1.963  55.584  -2.450  1.00  0.00     0.030 A 
HETATM   40  C12 UNL     1       2.843  55.693  -1.372  1.00  0.00     0.002 A 
HETATM   41  C13 UNL     1       4.161  55.262  -1.478  1.00  0.00     0.001 A 
HETATM   42  H13 UNL     1       0.874  55.045  -5.026  1.00  0.00     0.166 HD
BRANCH  29  43
HETATM   43  C41 UNL     1       6.836  54.083  -9.222  1.00  0.00     0.186 C 
BRANCH  43  44
HETATM   44  O5  UNL     1       7.146  55.472  -9.072  1.00  0.00    -0.399 OA
HETATM   45  H49 UNL     1       6.339  55.992  -9.253  1.00  0.00     0.209 HD
ENDBRANCH  43  44
ENDBRANCH  29  43
BRANCH  29  46
HETATM   46  C42 UNL     1       5.937  52.059  -8.248  1.00  0.00     0.272 C 
HETATM   47  O6  UNL     1       5.104  51.238  -7.880  1.00  0.00    -0.264 OA
BRANCH  46  48
HETATM   48  O7  UNL     1       7.197  51.725  -8.653  1.00  0.00    -0.326 OA
HETATM   49  C43 UNL     1       7.790  50.635  -7.946  1.00  0.00     0.213 C 
ENDBRANCH  46  48
ENDBRANCH  29  46
ENDBRANCH   1  21
BRANCH  19  50
HETATM   50  O4  UNL     1       1.633  56.725  -6.852  1.00  0.00    -0.360 OA
HETATM   51  H43 UNL     1       1.571  57.660  -7.108  1.00  0.00     0.217 HD
ENDBRANCH  19  50
BRANCH  14  52
HETATM   52  C31 UNL     1      -1.011  49.956  -8.857  1.00  0.00     0.275 C 
HETATM   53  O2  UNL     1      -1.393  49.894  -7.697  1.00  0.00    -0.264 OA
BRANCH  52  54
HETATM   54  O3  UNL     1       0.102  49.304  -9.318  1.00  0.00    -0.326 OA
HETATM   55  C32 UNL     1       0.727  48.452  -8.358  1.00  0.00     0.213 C 
ENDBRANCH  52  54
ENDBRANCH  14  52
BRANCH  12  56
HETATM   56  C27 UNL     1      -4.976  48.774 -10.097  1.00  0.00     0.120 C 
HETATM   57  C28 UNL     1      -5.688  48.528 -11.422  1.00  0.00     0.040 C 
BRANCH  56  58
HETATM   58  O1  UNL     1      -5.681  49.804  -9.414  1.00  0.00    -0.396 OA
HETATM   59  H34 UNL     1      -5.133  50.026  -8.630  1.00  0.00     0.210 HD
ENDBRANCH  56  58
ENDBRANCH  12  56
TORSDOF 10
ENDMDL
MODEL 2
REMARK minimizedAffinity -8.96141243
REMARK CNNscore 0.31617716
REMARK CNNaffinity 7.41323042
REMARK  10 active torsions:
REMARK  status: ('A' for Active; 'I' for Inactive)
REMARK    1  A    between atoms: C16_18  and  C17_19 
REMARK    2  A    between atoms: C26_30  and  C27_31 
REMARK    3  A    between atoms: C27_31  and  O1_33 
REMARK    4  A    between atoms: C30_35  and  C31_36 
REMARK    5  A    between atoms: C31_36  and  O3_38 
REMARK    6  A    between atoms: C37_44  and  O4_45 
REMARK    7  A    between atoms: C40_48  and  C41_49 
REMARK    8  A    between atoms: C40_48  and  C42_51 
REMARK    9  A    between atoms: C41_49  and  O5_50 
REMARK   10  A    between atoms: C42_51  and  O7_53 
ROOT
HETATM    1  C17 UNL     1       2.358  51.309 -12.598  1.00  0.00     0.013 A 
HETATM    2  C18 UNL     1       2.808  52.123 -11.519  1.00  0.00     0.053 A 
HETATM    3  N3  UNL     1       2.330  53.334 -11.080  1.00  0.00    -0.357 N 
HETATM    4  C19 UNL     1       2.981  53.776  -9.950  1.00  0.00     0.038 A 
HETATM    5  C20 UNL     1       3.999  52.866  -9.708  1.00  0.00    -0.020 A 
HETATM    6  C21 UNL     1       5.070  52.936  -8.668  1.00  0.00     0.072 C 
HETATM    7  C22 UNL     1       4.645  53.487  -7.305  1.00  0.00     0.277 C 
HETATM    8  N4  UNL     1       4.104  54.845  -7.229  1.00  0.00     0.096 N 
HETATM    9  C23 UNL     1       4.966  55.891  -7.806  1.00  0.00     0.277 C 
HETATM   10  C24 UNL     1       4.105  56.949  -8.515  1.00  0.00     0.016 C 
HETATM   11  C25 UNL     1       3.054  57.477  -7.528  1.00  0.00     0.015 C 
HETATM   12  C26 UNL     1       2.175  56.311  -7.018  1.00  0.00     0.049 C 
HETATM   13  C29 UNL     1       2.692  54.977  -7.678  1.00  0.00     0.253 C 
HETATM   14  C30 UNL     1       2.545  55.072  -9.241  1.00  0.00     0.122 C 
HETATM   15  C33 UNL     1       3.394  56.284  -9.715  1.00  0.00     0.035 C 
HETATM   16  C34 UNL     1       3.879  51.819 -10.688  1.00  0.00    -0.000 A 
HETATM   17  C35 UNL     1       4.598  50.637 -10.932  1.00  0.00     0.017 A 
HETATM   18  C36 UNL     1       4.193  49.791 -11.963  1.00  0.00     0.038 A 
HETATM   19  C37 UNL     1       3.096  50.118 -12.760  1.00  0.00     0.075 A 
HETATM   20  H19 UNL     1       1.574  53.827 -11.535  1.00  0.00     0.166 HD
ENDROOT
BRANCH   1  21
HETATM   21  C16 UNL     1       1.170  51.760 -13.460  1.00  0.00     0.075 C 
HETATM   22  C9  UNL     1      -0.164  52.044 -12.814  1.00  0.00     0.025 A 
HETATM   23  C8  UNL     1      -1.486  51.974 -13.253  1.00  0.00    -0.020 A 
HETATM   24  N2  UNL     1      -0.192  52.569 -11.540  1.00  0.00    -0.358 N 
HETATM   25  C7  UNL     1      -2.035  51.535 -14.586  1.00  0.00     0.079 C 
HETATM   26  C15 UNL     1      -2.304  52.513 -12.187  1.00  0.00    -0.001 A 
HETATM   27  C6  UNL     1      -1.978  50.036 -15.031  1.00  0.00     0.248 C 
HETATM   28  N1  UNL     1      -2.124  48.976 -14.012  1.00  0.00     0.094 N 
HETATM   29  C40 UNL     1      -0.766  49.659 -15.948  1.00  0.00     0.107 C 
HETATM   30  C4  UNL     1      -0.960  48.809 -13.143  1.00  0.00     0.306 C 
HETATM   31  C5  UNL     1      -3.358  49.051 -13.238  1.00  0.00     0.310 C 
HETATM   32  C3  UNL     1       0.372  48.757 -13.883  1.00  0.00    -0.051 C 
HETATM   33  C2  UNL     1       1.311  47.867 -13.497  1.00  0.00    -0.026 C 
HETATM   34  C39 UNL     1       0.536  49.670 -15.092  1.00  0.00     0.039 C 
HETATM   35  C1  UNL     1       2.684  47.668 -14.057  1.00  0.00     0.036 C 
HETATM   36  C38 UNL     1       1.119  51.088 -14.844  1.00  0.00     0.026 C 
HETATM   37  C10 UNL     1      -1.464  52.869 -11.140  1.00  0.00     0.043 A 
HETATM   38  C14 UNL     1      -3.689  52.738 -12.027  1.00  0.00     0.014 A 
HETATM   39  C11 UNL     1      -1.924  53.427  -9.940  1.00  0.00     0.030 A 
HETATM   40  C12 UNL     1      -3.300  53.631  -9.810  1.00  0.00     0.002 A 
HETATM   41  C13 UNL     1      -4.173  53.292 -10.837  1.00  0.00     0.001 A 
HETATM   42  H13 UNL     1       0.630  52.693 -10.964  1.00  0.00     0.166 HD
BRANCH  29  43
HETATM   43  C41 UNL     1      -1.012  48.246 -16.587  1.00  0.00     0.186 C 
BRANCH  43  44
HETATM   44  O5  UNL     1      -1.138  48.277 -18.012  1.00  0.00    -0.399 OA
HETATM   45  H49 UNL     1      -1.905  48.835 -18.244  1.00  0.00     0.209 HD
ENDBRANCH  43  44
ENDBRANCH  29  43
BRANCH  29  46
HETATM   46  C42 UNL     1      -0.749  50.578 -17.175  1.00  0.00     0.272 C 
HETATM   47  O6  UNL     1       0.266  50.926 -17.769  1.00  0.00    -0.264 OA
BRANCH  46  48
HETATM   48  O7  UNL     1      -1.998  51.030 -17.488  1.00  0.00    -0.326 OA
HETATM   49  C43 UNL     1      -2.120  51.621 -18.783  1.00  0.00     0.213 C 
ENDBRANCH  46  48
ENDBRANCH  29  46
ENDBRANCH   1  21
BRANCH  19  50
HETATM   50  O4  UNL     1       2.728  49.218 -13.719  1.00  0.00    -0.360 OA
HETATM   51  H43 UNL     1       3.471  48.621 -13.907  1.00  0.00     0.217 HD
ENDBRANCH  19  50
BRANCH  14  52
HETATM   52  C31 UNL     1       1.029  55.263  -9.547  1.00  0.00     0.275 C 
HETATM   53  O2  UNL     1       0.556  55.471 -10.656  1.00  0.00    -0.264 OA
BRANCH  52  54
HETATM   54  O3  UNL     1       0.288  55.300  -8.396  1.00  0.00    -0.326 OA
HETATM   55  C32 UNL     1      -0.089  54.017  -7.895  1.00  0.00     0.213 C 
ENDBRANCH  52  54
ENDBRANCH  14  52
BRANCH  12  56
HETATM   56  C27 UNL     1       2.096  56.220  -5.474  1.00  0.00     0.120 C 
HETATM   57  C28 UNL     1       0.715  56.578  -4.938  1.00  0.00     0.040 C 
BRANCH  56  58
HETATM   58  O1  UNL     1       3.037  57.086  -4.851  1.00  0.00    -0.396 OA
HETATM   59  H34 UNL     1       3.892  56.918  -5.303  1.00  0.00     0.210 HD
ENDBRANCH  56  58
ENDBRANCH  12  56
TORSDOF 10
ENDMDL
MODEL 3
REMARK minimizedAffinity -9.4153862
REMARK CNNscore 0.301423013
REMARK CNNaffinity 7.78812933
REMARK  10 active torsions:
REMARK  status: ('A' for Active; 'I' for Inactive)
REMARK    1  A    between atoms: C16_18  and  C17_19 
REMARK    2  A    between atoms: C26_30  and  C27_31 
REMARK    3  A    between atoms: C27_31  and  O1_33 
REMARK    4  A    between atoms: C30_35  and  C31_36 
REMARK    5  A    between atoms: C31_36  and  O3_38 
REMARK    6  A    between atoms: C37_44  and  O4_45 
REMARK    7  A    between atoms: C40_48  and  C41_49 
REMARK    8  A    between atoms: C40_48  and  C42_51 
REMARK    9  A    between atoms: C41_49  and  O5_50 
REMARK   10  A    between atoms: C42_51  and  O7_53 
ROOT
HETATM    1  C17 UNL     1       0.108  51.191 -16.219  1.00  0.00     0.013 A 
HETATM    2  C18 UNL     1      -0.456  50.769 -17.457  1.00  0.00     0.053 A 
HETATM    3  N3  UNL     1      -1.188  49.643 -17.745  1.00  0.00    -0.357 N 
HETATM    4  C19 UNL     1      -1.630  49.625 -19.049  1.00  0.00     0.038 A 
HETATM    5  C20 UNL     1      -1.069  50.733 -19.665  1.00  0.00    -0.020 A 
HETATM    6  C21 UNL     1      -1.138  51.121 -21.107  1.00  0.00     0.072 C 
HETATM    7  C22 UNL     1      -2.475  50.865 -21.805  1.00  0.00     0.277 C 
HETATM    8  N4  UNL     1      -2.989  49.497 -21.867  1.00  0.00     0.096 N 
HETATM    9  C23 UNL     1      -2.064  48.511 -22.453  1.00  0.00     0.277 C 
HETATM   10  C24 UNL     1      -2.183  47.171 -21.708  1.00  0.00     0.016 C 
HETATM   11  C25 UNL     1      -3.655  46.730 -21.712  1.00  0.00     0.015 C 
HETATM   12  C26 UNL     1      -4.532  47.810 -21.038  1.00  0.00     0.049 C 
HETATM   13  C29 UNL     1      -3.601  49.004 -20.604  1.00  0.00     0.253 C 
HETATM   14  C30 UNL     1      -2.542  48.494 -19.560  1.00  0.00     0.122 C 
HETATM   15  C33 UNL     1      -1.713  47.373 -20.249  1.00  0.00     0.035 C 
HETATM   16  C34 UNL     1      -0.343  51.461 -18.657  1.00  0.00    -0.000 A 
HETATM   17  C35 UNL     1       0.402  52.651 -18.673  1.00  0.00     0.017 A 
HETATM   18  C36 UNL     1       0.963  53.124 -17.488  1.00  0.00     0.038 A 
HETATM   19  C37 UNL     1       0.806  52.415 -16.296  1.00  0.00     0.075 A 
HETATM   20  H19 UNL     1      -1.387  48.924 -17.063  1.00  0.00     0.166 HD
ENDROOT
BRANCH   1  21
HETATM   21  C16 UNL     1      -0.070  50.331 -14.959  1.00  0.00     0.075 C 
HETATM   22  C9  UNL     1      -0.789  50.896 -13.758  1.00  0.00     0.025 A 
HETATM   23  C8  UNL     1      -0.711  50.662 -12.386  1.00  0.00    -0.020 A 
HETATM   24  N2  UNL     1      -1.823  51.785 -13.955  1.00  0.00    -0.358 N 
HETATM   25  C7  UNL     1       0.195  49.734 -11.618  1.00  0.00     0.079 C 
HETATM   26  C15 UNL     1      -1.772  51.433 -11.774  1.00  0.00    -0.001 A 
HETATM   27  C6  UNL     1       1.728  50.020 -11.492  1.00  0.00     0.248 C 
HETATM   28  N1  UNL     1       2.195  51.419 -11.410  1.00  0.00     0.094 N 
HETATM   29  C40 UNL     1       2.633  49.269 -12.525  1.00  0.00     0.107 C 
HETATM   30  C4  UNL     1       2.115  52.157 -12.670  1.00  0.00     0.306 C 
HETATM   31  C5  UNL     1       1.617  52.184 -10.310  1.00  0.00     0.310 C 
HETATM   32  C3  UNL     1       2.670  51.403 -13.874  1.00  0.00    -0.051 C 
HETATM   33  C2  UNL     1       3.415  52.065 -14.785  1.00  0.00    -0.026 C 
HETATM   34  C39 UNL     1       2.420  49.902 -13.934  1.00  0.00     0.039 C 
HETATM   35  C1  UNL     1       4.026  51.535 -16.043  1.00  0.00     0.036 C 
HETATM   36  C38 UNL     1       1.133  49.418 -14.657  1.00  0.00     0.026 C 
HETATM   37  C10 UNL     1      -2.439  52.119 -12.782  1.00  0.00     0.043 A 
HETATM   38  C14 UNL     1      -2.231  51.600 -10.449  1.00  0.00     0.014 A 
HETATM   39  C11 UNL     1      -3.528  52.968 -12.544  1.00  0.00     0.030 A 
HETATM   40  C12 UNL     1      -3.953  53.116 -11.222  1.00  0.00     0.002 A 
HETATM   41  C13 UNL     1      -3.316  52.443 -10.186  1.00  0.00     0.001 A 
HETATM   42  H13 UNL     1      -2.077  52.162 -14.858  1.00  0.00     0.166 HD
BRANCH  29  43
HETATM   43  C41 UNL     1       4.135  49.373 -12.080  1.00  0.00     0.186 C 
BRANCH  43  44
HETATM   44  O5  UNL     1       5.051  49.470 -13.175  1.00  0.00    -0.399 OA
HETATM   45  H49 UNL     1       4.967  48.665 -13.722  1.00  0.00     0.209 HD
ENDBRANCH  43  44
ENDBRANCH  29  43
BRANCH  29  46
HETATM   46  C42 UNL     1       2.365  47.762 -12.439  1.00  0.00     0.272 C 
HETATM   47  O6  UNL     1       1.549  47.243 -11.686  1.00  0.00    -0.264 OA
BRANCH  46  48
HETATM   48  O7  UNL     1       3.199  47.051 -13.252  1.00  0.00    -0.326 OA
HETATM   49  C43 UNL     1       2.749  45.735 -13.578  1.00  0.00     0.213 C 
ENDBRANCH  46  48
ENDBRANCH  29  46
ENDBRANCH   1  21
BRANCH  19  50
HETATM   50  O4  UNL     1       1.341  52.963 -15.166  1.00  0.00    -0.360 OA
HETATM   51  H43 UNL     1       2.017  53.616 -15.410  1.00  0.00     0.217 HD
ENDBRANCH  19  50
BRANCH  14  52
HETATM   52  C31 UNL     1      -3.333  47.962 -18.327  1.00  0.00     0.275 C 
HETATM   53  O2  UNL     1      -4.165  48.600 -17.697  1.00  0.00    -0.264 OA
BRANCH  52  54
HETATM   54  O3  UNL     1      -2.887  46.725 -17.944  1.00  0.00    -0.326 OA
HETATM   55  C32 UNL     1      -2.954  46.482 -16.538  1.00  0.00     0.213 C 
ENDBRANCH  52  54
ENDBRANCH  14  52
BRANCH  12  56
HETATM   56  C27 UNL     1      -5.729  48.272 -21.906  1.00  0.00     0.120 C 
HETATM   57  C28 UNL     1      -5.518  47.990 -23.389  1.00  0.00     0.040 C 
BRANCH  56  58
HETATM   58  O1  UNL     1      -5.969  49.667 -21.763  1.00  0.00    -0.396 OA
HETATM   59  H34 UNL     1      -5.978  49.838 -20.797  1.00  0.00     0.210 HD
ENDBRANCH  56  58
ENDBRANCH  12  56
TORSDOF 10
ENDMDL
MODEL 4
REMARK minimizedAffinity -7.34123898
REMARK CNNscore 0.162570357
REMARK CNNaffinity 5.7973609
REMARK  10 active torsions:
REMARK  status: ('A' for Active; 'I' for Inactive)
REMARK    1  A    between atoms: C16_18  and  C17_19 
REMARK    2  A    between atoms: C26_30  and  C27_31 
REMARK    3  A    between atoms: C27_31  and  O1_33 
REMARK    4  A    between atoms: C30_35  and  C31_36 
REMARK    5  A    between atoms: C31_36  and  O3_38 
REMARK    6  A    between atoms: C37_44  and  O4_45 
REMARK    7  A    between atoms: C40_48  and  C41_49 
REMARK    8  A    between atoms: C40_48  and  C42_51 
REMARK    9  A    between atoms: C41_49  and  O5_50 
REMARK   10  A    between atoms: C42_51  and  O7_53 
ROOT
HETATM    1  C17 UNL     1      -9.899  46.527 -27.506  1.00  0.00     0.013 A 
HETATM    2  C18 UNL     1     -10.955  45.604 -27.255  1.00  0.00     0.053 A 
HETATM    3  N3  UNL     1     -10.972  44.237 -27.396  1.00  0.00    -0.357 N 
HETATM    4  C19 UNL     1     -12.160  43.682 -26.975  1.00  0.00     0.038 A 
HETATM    5  C20 UNL     1     -12.990  44.744 -26.649  1.00  0.00    -0.020 A 
HETATM    6  C21 UNL     1     -14.428  44.698 -26.243  1.00  0.00     0.072 C 
HETATM    7  C22 UNL     1     -14.831  43.535 -25.334  1.00  0.00     0.277 C 
HETATM    8  N4  UNL     1     -14.641  42.166 -25.813  1.00  0.00     0.096 N 
HETATM    9  C23 UNL     1     -15.274  41.867 -27.109  1.00  0.00     0.277 C 
HETATM   10  C24 UNL     1     -14.373  40.929 -27.930  1.00  0.00     0.016 C 
HETATM   11  C25 UNL     1     -14.052  39.686 -27.088  1.00  0.00     0.015 C 
HETATM   12  C26 UNL     1     -13.352  40.104 -25.774  1.00  0.00     0.049 C 
HETATM   13  C29 UNL     1     -13.238  41.674 -25.753  1.00  0.00     0.253 C 
HETATM   14  C30 UNL     1     -12.360  42.155 -26.965  1.00  0.00     0.122 C 
HETATM   15  C33 UNL     1     -13.061  41.673 -28.267  1.00  0.00     0.035 C 
HETATM   16  C34 UNL     1     -12.225  45.952 -26.811  1.00  0.00    -0.000 A 
HETATM   17  C35 UNL     1     -12.514  47.312 -26.617  1.00  0.00     0.017 A 
HETATM   18  C36 UNL     1     -11.516  48.261 -26.829  1.00  0.00     0.038 A 
HETATM   19  C37 UNL     1     -10.244  47.871 -27.249  1.00  0.00     0.075 A 
HETATM   20  H19 UNL     1     -10.188  43.710 -27.754  1.00  0.00     0.166 HD
ENDROOT
BRANCH   1  21
HETATM   21  C16 UNL     1      -8.540  46.024 -28.012  1.00  0.00     0.075 C 
HETATM   22  C9  UNL     1      -7.286  46.807 -27.705  1.00  0.00     0.025 A 
HETATM   23  C8  UNL     1      -6.060  46.961 -28.351  1.00  0.00    -0.020 A 
HETATM   24  N2  UNL     1      -7.199  47.488 -26.510  1.00  0.00    -0.358 N 
HETATM   25  C7  UNL     1      -5.581  46.382 -29.657  1.00  0.00     0.079 C 
HETATM   26  C15 UNL     1      -5.224  47.744 -27.467  1.00  0.00    -0.001 A 
HETATM   27  C6  UNL     1      -6.176  46.862 -31.022  1.00  0.00     0.248 C 
HETATM   28  N1  UNL     1      -6.580  48.274 -31.174  1.00  0.00     0.094 N 
HETATM   29  C40 UNL     1      -7.324  45.967 -31.600  1.00  0.00     0.107 C 
HETATM   30  C4  UNL     1      -7.806  48.632 -30.462  1.00  0.00     0.306 C 
HETATM   31  C5  UNL     1      -5.516  49.237 -30.914  1.00  0.00     0.310 C 
HETATM   32  C3  UNL     1      -8.956  47.649 -30.661  1.00  0.00    -0.051 C 
HETATM   33  C2  UNL     1     -10.208  48.121 -30.840  1.00  0.00    -0.026 C 
HETATM   34  C39 UNL     1      -8.604  46.169 -30.733  1.00  0.00     0.039 C 
HETATM   35  C1  UNL     1     -11.473  47.343 -31.021  1.00  0.00     0.036 C 
HETATM   36  C38 UNL     1      -8.601  45.367 -29.403  1.00  0.00     0.026 C 
HETATM   37  C10 UNL     1      -5.967  48.054 -26.335  1.00  0.00     0.043 A 
HETATM   38  C14 UNL     1      -3.891  48.209 -27.527  1.00  0.00     0.014 A 
HETATM   39  C11 UNL     1      -5.465  48.808 -25.267  1.00  0.00     0.030 A 
HETATM   40  C12 UNL     1      -4.146  49.258 -25.359  1.00  0.00     0.002 A 
HETATM   41  C13 UNL     1      -3.367  48.965 -26.473  1.00  0.00     0.001 A 
HETATM   42  H13 UNL     1      -7.964  47.577 -25.856  1.00  0.00     0.166 HD
BRANCH  29  43
HETATM   43  C41 UNL     1      -7.587  46.355 -33.098  1.00  0.00     0.186 C 
BRANCH  43  44
HETATM   44  O5  UNL     1      -6.419  46.819 -33.783  1.00  0.00    -0.399 OA
HETATM   45  H49 UNL     1      -6.093  47.621 -33.330  1.00  0.00     0.209 HD
ENDBRANCH  43  44
ENDBRANCH  29  43
BRANCH  29  46
HETATM   46  C42 UNL     1      -6.834  44.519 -31.714  1.00  0.00     0.272 C 
HETATM   47  O6  UNL     1      -7.097  43.631 -30.910  1.00  0.00    -0.264 OA
BRANCH  46  48
HETATM   48  O7  UNL     1      -6.003  44.346 -32.782  1.00  0.00    -0.326 OA
HETATM   49  C43 UNL     1      -4.946  43.407 -32.581  1.00  0.00     0.213 C 
ENDBRANCH  46  48
ENDBRANCH  29  46
ENDBRANCH   1  21
BRANCH  19  50
HETATM   50  O4  UNL     1      -9.302  48.851 -27.390  1.00  0.00    -0.360 OA
HETATM   51  H43 UNL     1      -9.741  49.714 -27.470  1.00  0.00     0.217 HD
ENDBRANCH  19  50
BRANCH  14  52
HETATM   52  C31 UNL     1     -10.948  41.518 -26.790  1.00  0.00     0.275 C 
HETATM   53  O2  UNL     1     -10.476  40.648 -27.508  1.00  0.00    -0.264 OA
BRANCH  52  54
HETATM   54  O3  UNL     1     -10.341  41.960 -25.645  1.00  0.00    -0.326 OA
HETATM   55  C32 UNL     1      -9.524  40.984 -24.997  1.00  0.00     0.213 C 
ENDBRANCH  52  54
ENDBRANCH  14  52
BRANCH  12  56
HETATM   56  C27 UNL     1     -14.028  39.537 -24.501  1.00  0.00     0.120 C 
HETATM   57  C28 UNL     1     -15.499  39.206 -24.718  1.00  0.00     0.040 C 
BRANCH  56  58
HETATM   58  O1  UNL     1     -13.949  40.455 -23.416  1.00  0.00    -0.396 OA
HETATM   59  H34 UNL     1     -13.012  40.744 -23.380  1.00  0.00     0.210 HD
ENDBRANCH  56  58
ENDBRANCH  12  56
TORSDOF 10
ENDMDL
MODEL 5
REMARK minimizedAffinity -7.61204863
REMARK CNNscore 0.140165716
REMARK CNNaffinity 6.75816536
REMARK  10 active torsions:
REMARK  status: ('A' for Active; 'I' for Inactive)
REMARK    1  A    between atoms: C16_18  and  C17_19 
REMARK    2  A    between atoms: C26_30  and  C27_31 
REMARK    3  A    between atoms: C27_31  and  O1_33 
REMARK    4  A    between atoms: C30_35  and  C31_36 
REMARK    5  A    between atoms: C31_36  and  O3_38 
REMARK    6  A    between atoms: C37_44  and  O4_45 
REMARK    7  A    between atoms: C40_48  and  C41_49 
REMARK    8  A    between atoms: C40_48  and  C42_51 
REMARK    9  A    between atoms: C41_49  and  O5_50 
REMARK   10  A    between atoms: C42_51  and  O7_53 
ROOT
HETATM    1  C17 UNL     1       0.910  54.436  -8.337  1.00  0.00     0.013 A 
HETATM    2  C18 UNL     1       0.957  53.613  -9.499  1.00  0.00     0.053 A 
HETATM    3  N3  UNL     1       1.763  52.535  -9.775  1.00  0.00    -0.357 N 
HETATM    4  C19 UNL     1       1.454  51.945 -10.980  1.00  0.00     0.038 A 
HETATM    5  C20 UNL     1       0.479  52.739 -11.563  1.00  0.00    -0.020 A 
HETATM    6  C21 UNL     1      -0.125  52.609 -12.924  1.00  0.00     0.072 C 
HETATM    7  C22 UNL     1      -0.380  51.180 -13.409  1.00  0.00     0.277 C 
HETATM    8  N4  UNL     1       0.753  50.261 -13.526  1.00  0.00     0.096 N 
HETATM    9  C23 UNL     1       1.867  50.748 -14.358  1.00  0.00     0.277 C 
HETATM   10  C24 UNL     1       3.209  50.314 -13.747  1.00  0.00     0.016 C 
HETATM   11  C25 UNL     1       3.195  48.791 -13.548  1.00  0.00     0.015 C 
HETATM   12  C26 UNL     1       2.020  48.390 -12.627  1.00  0.00     0.049 C 
HETATM   13  C29 UNL     1       1.230  49.695 -12.235  1.00  0.00     0.253 C 
HETATM   14  C30 UNL     1       2.179  50.668 -11.445  1.00  0.00     0.122 C 
HETATM   15  C33 UNL     1       3.376  51.009 -12.376  1.00  0.00     0.035 C 
HETATM   16  C34 UNL     1       0.156  53.780 -10.622  1.00  0.00    -0.000 A 
HETATM   17  C35 UNL     1      -0.753  54.851 -10.640  1.00  0.00     0.017 A 
HETATM   18  C36 UNL     1      -0.856  55.679  -9.525  1.00  0.00     0.038 A 
HETATM   19  C37 UNL     1      -0.053  55.464  -8.404  1.00  0.00     0.075 A 
HETATM   20  H19 UNL     1       2.486  52.212  -9.148  1.00  0.00     0.166 HD
ENDROOT
BRANCH   1  21
HETATM   21  C16 UNL     1       1.860  54.163  -7.162  1.00  0.00     0.075 C 
HETATM   22  C9  UNL     1       1.681  54.907  -5.861  1.00  0.00     0.025 A 
HETATM   23  C8  UNL     1       2.549  55.296  -4.842  1.00  0.00    -0.020 A 
HETATM   24  N2  UNL     1       0.409  55.252  -5.459  1.00  0.00    -0.358 N 
HETATM   25  C7  UNL     1       4.039  55.111  -4.725  1.00  0.00     0.079 C 
HETATM   26  C15 UNL     1       1.727  55.864  -3.795  1.00  0.00    -0.001 A 
HETATM   27  C6  UNL     1       5.028  55.899  -5.646  1.00  0.00     0.248 C 
HETATM   28  N1  UNL     1       4.686  57.277  -6.057  1.00  0.00     0.094 N 
HETATM   29  C40 UNL     1       5.517  55.125  -6.917  1.00  0.00     0.107 C 
HETATM   30  C4  UNL     1       3.618  57.363  -7.052  1.00  0.00     0.306 C 
HETATM   31  C5  UNL     1       4.453  58.196  -4.948  1.00  0.00     0.310 C 
HETATM   32  C3  UNL     1       3.778  56.403  -8.227  1.00  0.00    -0.051 C 
HETATM   33  C2  UNL     1       3.501  56.833  -9.476  1.00  0.00    -0.026 C 
HETATM   34  C39 UNL     1       4.333  55.017  -7.926  1.00  0.00     0.039 C 
HETATM   35  C1  UNL     1       3.558  56.059 -10.756  1.00  0.00     0.036 C 
HETATM   36  C38 UNL     1       3.314  53.894  -7.590  1.00  0.00     0.026 C 
HETATM   37  C10 UNL     1       0.404  55.822  -4.216  1.00  0.00     0.043 A 
HETATM   38  C14 UNL     1       1.995  56.404  -2.517  1.00  0.00     0.014 A 
HETATM   39  C11 UNL     1      -0.665  56.294  -3.444  1.00  0.00     0.030 A 
HETATM   40  C12 UNL     1      -0.367  56.828  -2.188  1.00  0.00     0.002 A 
HETATM   41  C13 UNL     1       0.944  56.883  -1.727  1.00  0.00     0.001 A 
HETATM   42  H13 UNL     1      -0.416  55.122  -6.027  1.00  0.00     0.166 HD
BRANCH  29  43
HETATM   43  C41 UNL     1       6.737  55.879  -7.554  1.00  0.00     0.186 C 
BRANCH  43  44
HETATM   44  O5  UNL     1       7.064  55.427  -8.872  1.00  0.00    -0.399 OA
HETATM   45  H49 UNL     1       7.301  54.481  -8.826  1.00  0.00     0.209 HD
ENDBRANCH  43  44
ENDBRANCH  29  43
BRANCH  29  46
HETATM   46  C42 UNL     1       6.137  53.789  -6.493  1.00  0.00     0.272 C 
HETATM   47  O6  UNL     1       6.406  53.483  -5.336  1.00  0.00    -0.264 OA
BRANCH  46  48
HETATM   48  O7  UNL     1       6.426  53.000  -7.568  1.00  0.00    -0.326 OA
HETATM   49  C43 UNL     1       6.444  51.596  -7.301  1.00  0.00     0.213 C 
ENDBRANCH  46  48
ENDBRANCH  29  46
ENDBRANCH   1  21
BRANCH  19  50
HETATM   50  O4  UNL     1      -0.244  56.285  -7.329  1.00  0.00    -0.360 OA
HETATM   51  H43 UNL     1      -0.700  57.094  -7.615  1.00  0.00     0.217 HD
ENDBRANCH  19  50
BRANCH  14  52
HETATM   52  C31 UNL     1       2.635  49.917 -10.157  1.00  0.00     0.275 C 
HETATM   53  O2  UNL     1       1.885  49.394  -9.345  1.00  0.00    -0.264 OA
BRANCH  52  54
HETATM   54  O3  UNL     1       3.987  50.024  -9.970  1.00  0.00    -0.326 OA
HETATM   55  C32 UNL     1       4.645  48.787  -9.694  1.00  0.00     0.213 C 
ENDBRANCH  52  54
ENDBRANCH  14  52
BRANCH  12  56
HETATM   56  C27 UNL     1       1.103  47.296 -13.228  1.00  0.00     0.120 C 
HETATM   57  C28 UNL     1       1.308  47.119 -14.727  1.00  0.00     0.040 C 
BRANCH  56  58
HETATM   58  O1  UNL     1      -0.272  47.592 -13.014  1.00  0.00    -0.396 OA
HETATM   59  H34 UNL     1      -0.350  47.821 -12.063  1.00  0.00     0.210 HD
ENDBRANCH  56  58
ENDBRANCH  12  56
TORSDOF 10
ENDMDL
MODEL 6
REMARK minimizedAffinity -6.90603828
REMARK CNNscore 0.117084019
REMARK CNNaffinity 5.50310946
REMARK  10 active torsions:
REMARK  status: ('A' for Active; 'I' for Inactive)
REMARK    1  A    between atoms: C16_18  and  C17_19 
REMARK    2  A    between atoms: C26_30  and  C27_31 
REMARK    3  A    between atoms: C27_31  and  O1_33 
REMARK    4  A    between atoms: C30_35  and  C31_36 
REMARK    5  A    between atoms: C31_36  and  O3_38 
REMARK    6  A    between atoms: C37_44  and  O4_45 
REMARK    7  A    between atoms: C40_48  and  C41_49 
REMARK    8  A    between atoms: C40_48  and  C42_51 
REMARK    9  A    between atoms: C41_49  and  O5_50 
REMARK   10  A    between atoms: C42_51  and  O7_53 
ROOT
HETATM    1  C17 UNL     1      -7.736  44.961 -22.424  1.00  0.00     0.013 A 
HETATM    2  C18 UNL     1      -8.825  44.543 -23.241  1.00  0.00     0.053 A 
HETATM    3  N3  UNL     1     -10.005  45.189 -23.520  1.00  0.00    -0.357 N 
HETATM    4  C19 UNL     1     -10.780  44.496 -24.424  1.00  0.00     0.038 A 
HETATM    5  C20 UNL     1     -10.125  43.297 -24.658  1.00  0.00    -0.020 A 
HETATM    6  C21 UNL     1     -10.592  42.134 -25.474  1.00  0.00     0.072 C 
HETATM    7  C22 UNL     1     -11.343  42.479 -26.761  1.00  0.00     0.277 C 
HETATM    8  N4  UNL     1     -12.577  43.262 -26.672  1.00  0.00     0.096 N 
HETATM    9  C23 UNL     1     -13.604  42.703 -25.776  1.00  0.00     0.277 C 
HETATM   10  C24 UNL     1     -14.328  43.840 -25.035  1.00  0.00     0.016 C 
HETATM   11  C25 UNL     1     -14.873  44.838 -26.068  1.00  0.00     0.015 C 
HETATM   12  C26 UNL     1     -13.713  45.397 -26.925  1.00  0.00     0.049 C 
HETATM   13  C29 UNL     1     -12.374  44.718 -26.448  1.00  0.00     0.253 C 
HETATM   14  C30 UNL     1     -12.107  45.082 -24.942  1.00  0.00     0.122 C 
HETATM   15  C33 UNL     1     -13.314  44.556 -24.115  1.00  0.00     0.035 C 
HETATM   16  C34 UNL     1      -8.887  43.335 -23.925  1.00  0.00    -0.000 A 
HETATM   17  C35 UNL     1      -7.816  42.436 -23.788  1.00  0.00     0.017 A 
HETATM   18  C36 UNL     1      -6.715  42.796 -23.016  1.00  0.00     0.038 A 
HETATM   19  C37 UNL     1      -6.677  44.030 -22.365  1.00  0.00     0.075 A 
HETATM   20  H19 UNL     1     -10.257  46.079 -23.114  1.00  0.00     0.166 HD
ENDROOT
BRANCH   1  21
HETATM   21  C16 UNL     1      -7.789  46.315 -21.702  1.00  0.00     0.075 C 
HETATM   22  C9  UNL     1      -6.529  47.130 -21.539  1.00  0.00     0.025 A 
HETATM   23  C8  UNL     1      -6.094  48.059 -20.594  1.00  0.00    -0.020 A 
HETATM   24  N2  UNL     1      -5.569  47.082 -22.526  1.00  0.00    -0.358 N 
HETATM   25  C7  UNL     1      -6.775  48.550 -19.343  1.00  0.00     0.079 C 
HETATM   26  C15 UNL     1      -4.839  48.587 -21.083  1.00  0.00    -0.001 A 
HETATM   27  C6  UNL     1      -6.958  47.616 -18.101  1.00  0.00     0.248 C 
HETATM   28  N1  UNL     1      -5.914  46.618 -17.791  1.00  0.00     0.094 N 
HETATM   29  C40 UNL     1      -8.349  46.904 -18.001  1.00  0.00     0.107 C 
HETATM   30  C4  UNL     1      -5.880  45.475 -18.703  1.00  0.00     0.306 C 
HETATM   31  C5  UNL     1      -4.582  47.180 -17.596  1.00  0.00     0.310 C 
HETATM   32  C3  UNL     1      -7.246  44.855 -18.981  1.00  0.00    -0.051 C 
HETATM   33  C2  UNL     1      -7.366  43.511 -19.030  1.00  0.00    -0.026 C 
HETATM   34  C39 UNL     1      -8.432  45.804 -19.102  1.00  0.00     0.039 C 
HETATM   35  C1  UNL     1      -8.591  42.701 -19.315  1.00  0.00     0.036 C 
HETATM   36  C38 UNL     1      -8.772  46.347 -20.517  1.00  0.00     0.026 C 
HETATM   37  C10 UNL     1      -4.545  47.954 -22.284  1.00  0.00     0.043 A 
HETATM   38  C14 UNL     1      -3.928  49.559 -20.610  1.00  0.00     0.014 A 
HETATM   39  C11 UNL     1      -3.394  48.224 -23.035  1.00  0.00     0.030 A 
HETATM   40  C12 UNL     1      -2.511  49.185 -22.538  1.00  0.00     0.002 A 
HETATM   41  C13 UNL     1      -2.771  49.846 -21.342  1.00  0.00     0.001 A 
HETATM   42  H13 UNL     1      -5.609  46.457 -23.319  1.00  0.00     0.166 HD
BRANCH  29  43
HETATM   43  C41 UNL     1      -8.521  46.286 -16.569  1.00  0.00     0.186 C 
BRANCH  43  44
HETATM   44  O5  UNL     1      -8.466  47.255 -15.517  1.00  0.00    -0.399 OA
HETATM   45  H49 UNL     1      -7.592  47.690 -15.541  1.00  0.00     0.209 HD
ENDBRANCH  43  44
ENDBRANCH  29  43
BRANCH  29  46
HETATM   46  C42 UNL     1      -9.464  47.955 -18.044  1.00  0.00     0.272 C 
HETATM   47  O6  UNL     1      -9.339  49.118 -17.676  1.00  0.00    -0.264 OA
BRANCH  46  48
HETATM   48  O7  UNL     1     -10.646  47.424 -18.474  1.00  0.00    -0.326 OA
HETATM   49  C43 UNL     1     -11.710  47.466 -17.522  1.00  0.00     0.213 C 
ENDBRANCH  46  48
ENDBRANCH  29  46
ENDBRANCH   1  21
BRANCH  19  50
HETATM   50  O4  UNL     1      -5.544  44.336 -21.665  1.00  0.00    -0.360 OA
HETATM   51  H43 UNL     1      -5.053  43.520 -21.471  1.00  0.00     0.217 HD
ENDBRANCH  19  50
BRANCH  14  52
HETATM   52  C31 UNL     1     -11.974  46.633 -24.862  1.00  0.00     0.275 C 
HETATM   53  O2  UNL     1     -12.791  47.383 -24.346  1.00  0.00    -0.264 OA
BRANCH  52  54
HETATM   54  O3  UNL     1     -10.882  47.077 -25.560  1.00  0.00    -0.326 OA
HETATM   55  C32 UNL     1     -11.168  48.099 -26.515  1.00  0.00     0.213 C 
ENDBRANCH  52  54
ENDBRANCH  14  52
BRANCH  12  56
HETATM   56  C27 UNL     1     -13.943  45.256 -28.450  1.00  0.00     0.120 C 
HETATM   57  C28 UNL     1     -13.322  46.401 -29.242  1.00  0.00     0.040 C 
BRANCH  56  58
HETATM   58  O1  UNL     1     -15.329  45.216 -28.768  1.00  0.00    -0.396 OA
HETATM   59  H34 UNL     1     -15.723  44.556 -28.156  1.00  0.00     0.210 HD
ENDBRANCH  56  58
ENDBRANCH  12  56
TORSDOF 10
ENDMDL
MODEL 7
REMARK minimizedAffinity -7.57719374
REMARK CNNscore 0.11493364
REMARK CNNaffinity 6.23696136
REMARK  10 active torsions:
REMARK  status: ('A' for Active; 'I' for Inactive)
REMARK    1  A    between atoms: C16_18  and  C17_19 
REMARK    2  A    between atoms: C26_30  and  C27_31 
REMARK    3  A    between atoms: C27_31  and  O1_33 
REMARK    4  A    between atoms: C30_35  and  C31_36 
REMARK    5  A    between atoms: C31_36  and  O3_38 
REMARK    6  A    between atoms: C37_44  and  O4_45 
REMARK    7  A    between atoms: C40_48  and  C41_49 
REMARK    8  A    between atoms: C40_48  and  C42_51 
REMARK    9  A    between atoms: C41_49  and  O5_50 
REMARK   10  A    between atoms: C42_51  and  O7_53 
ROOT
HETATM    1  C17 UNL     1      -9.133  44.472 -32.028  1.00  0.00     0.013 A 
HETATM    2  C18 UNL     1      -9.960  45.035 -31.014  1.00  0.00     0.053 A 
HETATM    3  N3  UNL     1     -10.618  44.415 -29.979  1.00  0.00    -0.357 N 
HETATM    4  C19 UNL     1     -11.258  45.312 -29.153  1.00  0.00     0.038 A 
HETATM    5  C20 UNL     1     -11.099  46.559 -29.737  1.00  0.00    -0.020 A 
HETATM    6  C21 UNL     1     -11.693  47.862 -29.306  1.00  0.00     0.072 C 
HETATM    7  C22 UNL     1     -11.771  48.095 -27.796  1.00  0.00     0.277 C 
HETATM    8  N4  UNL     1     -12.542  47.160 -26.976  1.00  0.00     0.096 N 
HETATM    9  C23 UNL     1     -13.940  46.968 -27.399  1.00  0.00     0.277 C 
HETATM   10  C24 UNL     1     -14.350  45.499 -27.205  1.00  0.00     0.016 C 
HETATM   11  C25 UNL     1     -14.075  45.094 -25.749  1.00  0.00     0.015 C 
HETATM   12  C26 UNL     1     -12.577  45.291 -25.421  1.00  0.00     0.049 C 
HETATM   13  C29 UNL     1     -11.861  45.867 -26.700  1.00  0.00     0.253 C 
HETATM   14  C30 UNL     1     -11.986  44.837 -27.882  1.00  0.00     0.122 C 
HETATM   15  C33 UNL     1     -13.502  44.620 -28.151  1.00  0.00     0.035 C 
HETATM   16  C34 UNL     1     -10.269  46.385 -30.900  1.00  0.00    -0.000 A 
HETATM   17  C35 UNL     1      -9.758  47.270 -31.864  1.00  0.00     0.017 A 
HETATM   18  C36 UNL     1      -8.929  46.780 -32.871  1.00  0.00     0.038 A 
HETATM   19  C37 UNL     1      -8.619  45.421 -32.937  1.00  0.00     0.075 A 
HETATM   20  H19 UNL     1     -10.612  43.414 -29.842  1.00  0.00     0.166 HD
ENDROOT
BRANCH   1  21
HETATM   21  C16 UNL     1      -8.876  42.959 -32.060  1.00  0.00     0.075 C 
HETATM   22  C9  UNL     1      -7.574  42.428 -32.608  1.00  0.00     0.025 A 
HETATM   23  C8  UNL     1      -7.200  41.239 -33.233  1.00  0.00    -0.020 A 
HETATM   24  N2  UNL     1      -6.424  43.167 -32.431  1.00  0.00    -0.358 N 
HETATM   25  C7  UNL     1      -8.039  40.045 -33.609  1.00  0.00     0.079 C 
HETATM   26  C15 UNL     1      -5.763  41.291 -33.392  1.00  0.00    -0.001 A 
HETATM   27  C6  UNL     1      -9.095  40.129 -34.761  1.00  0.00     0.248 C 
HETATM   28  N1  UNL     1      -8.815  40.983 -35.933  1.00  0.00     0.094 N 
HETATM   29  C40 UNL     1     -10.564  40.410 -34.299  1.00  0.00     0.107 C 
HETATM   30  C4  UNL     1      -8.918  42.419 -35.673  1.00  0.00     0.306 C 
HETATM   31  C5  UNL     1      -7.577  40.659 -36.634  1.00  0.00     0.310 C 
HETATM   32  C3  UNL     1     -10.175  42.828 -34.912  1.00  0.00    -0.051 C 
HETATM   33  C2  UNL     1     -10.838  43.945 -35.279  1.00  0.00    -0.026 C 
HETATM   34  C39 UNL     1     -10.666  41.889 -33.817  1.00  0.00     0.039 C 
HETATM   35  C1  UNL     1     -12.061  44.542 -34.658  1.00  0.00     0.036 C 
HETATM   36  C38 UNL     1     -10.131  42.125 -32.378  1.00  0.00     0.026 C 
HETATM   37  C10 UNL     1      -5.317  42.505 -32.884  1.00  0.00     0.043 A 
HETATM   38  C14 UNL     1      -4.797  40.403 -33.918  1.00  0.00     0.014 A 
HETATM   39  C11 UNL     1      -3.971  42.889 -32.879  1.00  0.00     0.030 A 
HETATM   40  C12 UNL     1      -3.042  41.993 -33.412  1.00  0.00     0.002 A 
HETATM   41  C13 UNL     1      -3.446  40.765 -33.925  1.00  0.00     0.001 A 
HETATM   42  H13 UNL     1      -6.408  44.097 -32.035  1.00  0.00     0.166 HD
BRANCH  29  43
HETATM   43  C41 UNL     1     -11.550  40.133 -35.489  1.00  0.00     0.186 C 
BRANCH  43  44
HETATM   44  O5  UNL     1     -12.930  40.223 -35.121  1.00  0.00    -0.399 OA
HETATM   45  H49 UNL     1     -13.112  39.553 -34.433  1.00  0.00     0.209 HD
ENDBRANCH  43  44
ENDBRANCH  29  43
BRANCH  29  46
HETATM   46  C42 UNL     1     -10.985  39.357 -33.268  1.00  0.00     0.272 C 
HETATM   47  O6  UNL     1     -11.688  39.585 -32.289  1.00  0.00    -0.264 OA
BRANCH  46  48
HETATM   48  O7  UNL     1     -10.423  38.141 -33.526  1.00  0.00    -0.326 OA
HETATM   49  C43 UNL     1     -10.933  37.060 -32.743  1.00  0.00     0.213 C 
ENDBRANCH  46  48
ENDBRANCH  29  46
ENDBRANCH   1  21
BRANCH  19  50
HETATM   50  O4  UNL     1      -7.760  45.021 -33.921  1.00  0.00    -0.360 OA
HETATM   51  H43 UNL     1      -7.730  45.695 -34.619  1.00  0.00     0.217 HD
ENDBRANCH  19  50
BRANCH  14  52
HETATM   52  C31 UNL     1     -11.279  43.525 -27.423  1.00  0.00     0.275 C 
HETATM   53  O2  UNL     1     -11.851  42.489 -27.117  1.00  0.00    -0.264 OA
BRANCH  52  54
HETATM   54  O3  UNL     1      -9.931  43.711 -27.277  1.00  0.00    -0.326 OA
HETATM   55  C32 UNL     1      -9.399  43.228 -26.043  1.00  0.00     0.213 C 
ENDBRANCH  52  54
ENDBRANCH  14  52
BRANCH  12  56
HETATM   56  C27 UNL     1     -12.324  46.151 -24.158  1.00  0.00     0.120 C 
HETATM   57  C28 UNL     1     -13.587  46.841 -23.658  1.00  0.00     0.040 C 
BRANCH  56  58
HETATM   58  O1  UNL     1     -11.350  47.160 -24.400  1.00  0.00    -0.396 OA
HETATM   59  H34 UNL     1     -10.597  46.704 -24.835  1.00  0.00     0.210 HD
ENDBRANCH  56  58
ENDBRANCH  12  56
TORSDOF 10
ENDMDL
MODEL 8
REMARK minimizedAffinity -7.74420881
REMARK CNNscore 0.112065248
REMARK CNNaffinity 5.51543474
REMARK  10 active torsions:
REMARK  status: ('A' for Active; 'I' for Inactive)
REMARK    1  A    between atoms: C16_18  and  C17_19 
REMARK    2  A    between atoms: C26_30  and  C27_31 
REMARK    3  A    between atoms: C27_31  and  O1_33 
REMARK    4  A    between atoms: C30_35  and  C31_36 
REMARK    5  A    between atoms: C31_36  and  O3_38 
REMARK    6  A    between atoms: C37_44  and  O4_45 
REMARK    7  A    between atoms: C40_48  and  C41_49 
REMARK    8  A    between atoms: C40_48  and  C42_51 
REMARK    9  A    between atoms: C41_49  and  O5_50 
REMARK   10  A    between atoms: C42_51  and  O7_53 
ROOT
HETATM    1  C17 UNL     1      -7.136  45.046 -22.403  1.00  0.00     0.013 A 
HETATM    2  C18 UNL     1      -8.018  44.868 -23.507  1.00  0.00     0.053 A 
HETATM    3  N3  UNL     1      -8.881  45.765 -24.088  1.00  0.00    -0.357 N 
HETATM    4  C19 UNL     1      -9.513  45.241 -25.195  1.00  0.00     0.038 A 
HETATM    5  C20 UNL     1      -9.126  43.912 -25.270  1.00  0.00    -0.020 A 
HETATM    6  C21 UNL     1      -9.609  42.863 -26.220  1.00  0.00     0.072 C 
HETATM    7  C22 UNL     1      -9.862  43.326 -27.656  1.00  0.00     0.277 C 
HETATM    8  N4  UNL     1     -10.846  44.382 -27.895  1.00  0.00     0.096 N 
HETATM    9  C23 UNL     1     -12.186  44.121 -27.342  1.00  0.00     0.277 C 
HETATM   10  C24 UNL     1     -12.795  45.425 -26.802  1.00  0.00     0.016 C 
HETATM   11  C25 UNL     1     -12.772  46.483 -27.916  1.00  0.00     0.015 C 
HETATM   12  C26 UNL     1     -11.319  46.715 -28.394  1.00  0.00     0.049 C 
HETATM   13  C29 UNL     1     -10.372  45.756 -27.579  1.00  0.00     0.253 C 
HETATM   14  C30 UNL     1     -10.460  46.105 -26.048  1.00  0.00     0.122 C 
HETATM   15  C33 UNL     1     -11.940  45.915 -25.612  1.00  0.00     0.035 C 
HETATM   16  C34 UNL     1      -8.173  43.683 -24.216  1.00  0.00    -0.000 A 
HETATM   17  C35 UNL     1      -7.432  42.561 -23.810  1.00  0.00     0.017 A 
HETATM   18  C36 UNL     1      -6.539  42.679 -22.747  1.00  0.00     0.038 A 
HETATM   19  C37 UNL     1      -6.391  43.893 -22.075  1.00  0.00     0.075 A 
HETATM   20  H19 UNL     1      -9.016  46.705 -23.743  1.00  0.00     0.166 HD
ENDROOT
BRANCH   1  21
HETATM   21  C16 UNL     1      -7.063  46.402 -21.685  1.00  0.00     0.075 C 
HETATM   22  C9  UNL     1      -5.749  46.887 -21.125  1.00  0.00     0.025 A 
HETATM   23  C8  UNL     1      -5.399  47.720 -20.062  1.00  0.00    -0.020 A 
HETATM   24  N2  UNL     1      -4.581  46.560 -21.780  1.00  0.00    -0.358 N 
HETATM   25  C7  UNL     1      -6.278  48.418 -19.057  1.00  0.00     0.079 C 
HETATM   26  C15 UNL     1      -3.965  47.900 -20.134  1.00  0.00    -0.001 A 
HETATM   27  C6  UNL     1      -7.049  47.612 -17.959  1.00  0.00     0.248 C 
HETATM   28  N1  UNL     1      -6.427  46.402 -17.384  1.00  0.00     0.094 N 
HETATM   29  C40 UNL     1      -8.537  47.271 -18.305  1.00  0.00     0.107 C 
HETATM   30  C4  UNL     1      -6.408  45.248 -18.282  1.00  0.00     0.306 C 
HETATM   31  C5  UNL     1      -5.118  46.626 -16.781  1.00  0.00     0.310 C 
HETATM   32  C3  UNL     1      -7.737  44.973 -18.977  1.00  0.00    -0.051 C 
HETATM   33  C2  UNL     1      -8.167  43.699 -19.105  1.00  0.00    -0.026 C 
HETATM   34  C39 UNL     1      -8.558  46.178 -19.416  1.00  0.00     0.039 C 
HETATM   35  C1  UNL     1      -9.413  43.205 -19.771  1.00  0.00     0.036 C 
HETATM   36  C38 UNL     1      -8.314  46.727 -20.849  1.00  0.00     0.026 C 
HETATM   37  C10 UNL     1      -3.493  47.162 -21.212  1.00  0.00     0.043 A 
HETATM   38  C14 UNL     1      -3.025  48.636 -19.378  1.00  0.00     0.014 A 
HETATM   39  C11 UNL     1      -2.141  47.107 -21.574  1.00  0.00     0.030 A 
HETATM   40  C12 UNL     1      -1.236  47.841 -20.804  1.00  0.00     0.002 A 
HETATM   41  C13 UNL     1      -1.669  48.596 -19.720  1.00  0.00     0.001 A 
HETATM   42  H13 UNL     1      -4.536  45.931 -22.569  1.00  0.00     0.166 HD
BRANCH  29  43
HETATM   43  C41 UNL     1      -9.277  46.777 -17.011  1.00  0.00     0.186 C 
BRANCH  43  44
HETATM   44  O5  UNL     1      -9.446  47.799 -16.023  1.00  0.00    -0.399 OA
HETATM   45  H49 UNL     1      -8.563  48.114 -15.748  1.00  0.00     0.209 HD
ENDBRANCH  43  44
ENDBRANCH  29  43
BRANCH  29  46
HETATM   46  C42 UNL     1      -9.291  48.562 -18.644  1.00  0.00     0.272 C 
HETATM   47  O6  UNL     1      -9.150  49.626 -18.052  1.00  0.00    -0.264 OA
BRANCH  46  48
HETATM   48  O7  UNL     1     -10.200  48.371 -19.644  1.00  0.00    -0.326 OA
HETATM   49  C43 UNL     1     -11.557  48.251 -19.213  1.00  0.00     0.213 C 
ENDBRANCH  46  48
ENDBRANCH  29  46
ENDBRANCH   1  21
BRANCH  19  50
HETATM   50  O4  UNL     1      -5.462  43.947 -21.075  1.00  0.00    -0.360 OA
HETATM   51  H43 UNL     1      -5.255  43.047 -20.775  1.00  0.00     0.217 HD
ENDBRANCH  19  50
BRANCH  14  52
HETATM   52  C31 UNL     1      -9.987  47.582 -25.887  1.00  0.00     0.275 C 
HETATM   53  O2  UNL     1     -10.725  48.542 -25.717  1.00  0.00    -0.264 OA
BRANCH  52  54
HETATM   54  O3  UNL     1      -8.638  47.699 -26.090  1.00  0.00    -0.326 OA
HETATM   55  C32 UNL     1      -8.274  48.169 -27.389  1.00  0.00     0.213 C 
ENDBRANCH  52  54
ENDBRANCH  14  52
BRANCH  12  56
HETATM   56  C27 UNL     1     -11.137  46.573 -29.925  1.00  0.00     0.120 C 
HETATM   57  C28 UNL     1     -10.220  47.642 -30.506  1.00  0.00     0.040 C 
BRANCH  56  58
HETATM   58  O1  UNL     1     -12.382  46.656 -30.609  1.00  0.00    -0.396 OA
HETATM   59  H34 UNL     1     -12.987  46.046 -30.135  1.00  0.00     0.210 HD
ENDBRANCH  56  58
ENDBRANCH  12  56
TORSDOF 10
ENDMDL
MODEL 9
REMARK minimizedAffinity -7.80278444
REMARK CNNscore 0.111772187
REMARK CNNaffinity 6.81925535
REMARK  10 active torsions:
REMARK  status: ('A' for Active; 'I' for Inactive)
REMARK    1  A    between atoms: C16_18  and  C17_19 
REMARK    2  A    between atoms: C26_30  and  C27_31 
REMARK    3  A    between atoms: C27_31  and  O1_33 
REMARK    4  A    between atoms: C30_35  and  C31_36 
REMARK    5  A    between atoms: C31_36  and  O3_38 
REMARK    6  A    between atoms: C37_44  and  O4_45 
REMARK    7  A    between atoms: C40_48  and  C41_49 
REMARK    8  A    between atoms: C40_48  and  C42_51 
REMARK    9  A    between atoms: C41_49  and  O5_50 
REMARK   10  A    between atoms: C42_51  and  O7_53 
ROOT
HETATM    1  C17 UNL     1      -2.042  53.573 -10.347  1.00  0.00     0.013 A 
HETATM    2  C18 UNL     1      -1.316  52.832 -11.323  1.00  0.00     0.053 A 
HETATM    3  N3  UNL     1       0.009  52.471 -11.337  1.00  0.00    -0.357 N 
HETATM    4  C19 UNL     1       0.325  51.681 -12.420  1.00  0.00     0.038 A 
HETATM    5  C20 UNL     1      -0.819  51.618 -13.201  1.00  0.00    -0.020 A 
HETATM    6  C21 UNL     1      -0.984  50.981 -14.544  1.00  0.00     0.072 C 
HETATM    7  C22 UNL     1      -0.238  49.662 -14.756  1.00  0.00     0.277 C 
HETATM    8  N4  UNL     1       1.219  49.646 -14.626  1.00  0.00     0.096 N 
HETATM    9  C23 UNL     1       1.930  50.620 -15.473  1.00  0.00     0.277 C 
HETATM   10  C24 UNL     1       3.136  51.195 -14.713  1.00  0.00     0.016 C 
HETATM   11  C25 UNL     1       4.014  50.033 -14.223  1.00  0.00     0.015 C 
HETATM   12  C26 UNL     1       3.189  49.096 -13.310  1.00  0.00     0.049 C 
HETATM   13  C29 UNL     1       1.719  49.657 -13.225  1.00  0.00     0.253 C 
HETATM   14  C30 UNL     1       1.739  51.093 -12.586  1.00  0.00     0.122 C 
HETATM   15  C33 UNL     1       2.620  51.995 -13.496  1.00  0.00     0.035 C 
HETATM   16  C34 UNL     1      -1.855  52.330 -12.501  1.00  0.00    -0.000 A 
HETATM   17  C35 UNL     1      -3.208  52.587 -12.779  1.00  0.00     0.017 A 
HETATM   18  C36 UNL     1      -3.974  53.292 -11.853  1.00  0.00     0.038 A 
HETATM   19  C37 UNL     1      -3.404  53.758 -10.668  1.00  0.00     0.075 A 
HETATM   20  H19 UNL     1       0.664  52.746 -10.619  1.00  0.00     0.166 HD
ENDROOT
BRANCH   1  21
HETATM   21  C16 UNL     1      -1.332  54.093  -9.089  1.00  0.00     0.075 C 
HETATM   22  C9  UNL     1       0.151  54.370  -9.122  1.00  0.00     0.025 A 
HETATM   23  C8  UNL     1       1.161  54.350  -8.161  1.00  0.00    -0.020 A 
HETATM   24  N2  UNL     1       0.719  54.830 -10.291  1.00  0.00    -0.358 N 
HETATM   25  C7  UNL     1       1.090  53.992  -6.699  1.00  0.00     0.079 C 
HETATM   26  C15 UNL     1       2.355  54.851  -8.806  1.00  0.00    -0.001 A 
HETATM   27  C6  UNL     1       0.845  52.517  -6.238  1.00  0.00     0.248 C 
HETATM   28  N1  UNL     1       1.407  51.410  -7.038  1.00  0.00     0.094 N 
HETATM   29  C40 UNL     1      -0.643  52.162  -5.902  1.00  0.00     0.107 C 
HETATM   30  C4  UNL     1       0.722  51.174  -8.309  1.00  0.00     0.306 C 
HETATM   31  C5  UNL     1       2.853  51.470  -7.219  1.00  0.00     0.310 C 
HETATM   32  C3  UNL     1      -0.799  51.133  -8.202  1.00  0.00    -0.051 C 
HETATM   33  C2  UNL     1      -1.487  50.204  -8.900  1.00  0.00    -0.026 C 
HETATM   34  C39 UNL     1      -1.458  52.103  -7.230  1.00  0.00     0.039 C 
HETATM   35  C1  UNL     1      -2.969  50.006  -8.966  1.00  0.00     0.036 C 
HETATM   36  C38 UNL     1      -1.877  53.494  -7.779  1.00  0.00     0.026 C 
HETATM   37  C10 UNL     1       2.041  55.136 -10.129  1.00  0.00     0.043 A 
HETATM   38  C14 UNL     1       3.679  55.096  -8.376  1.00  0.00     0.014 A 
HETATM   39  C11 UNL     1       2.970  55.640 -11.049  1.00  0.00     0.030 A 
HETATM   40  C12 UNL     1       4.270  55.866 -10.595  1.00  0.00     0.002 A 
HETATM   41  C13 UNL     1       4.624  55.599  -9.277  1.00  0.00     0.001 A 
HETATM   42  H13 UNL     1       0.220  54.907 -11.166  1.00  0.00     0.166 HD
BRANCH  29  43
HETATM   43  C41 UNL     1      -0.696  50.789  -5.143  1.00  0.00     0.186 C 
BRANCH  43  44
HETATM   44  O5  UNL     1      -1.907  50.059  -5.366  1.00  0.00    -0.399 OA
HETATM   45  H49 UNL     1      -2.657  50.596  -5.044  1.00  0.00     0.209 HD
ENDBRANCH  43  44
ENDBRANCH  29  43
BRANCH  29  46
HETATM   46  C42 UNL     1      -1.177  53.143  -4.852  1.00  0.00     0.272 C 
HETATM   47  O6  UNL     1      -1.994  54.029  -5.079  1.00  0.00    -0.264 OA
BRANCH  46  48
HETATM   48  O7  UNL     1      -0.578  52.963  -3.639  1.00  0.00    -0.326 OA
HETATM   49  C43 UNL     1      -0.706  54.060  -2.733  1.00  0.00     0.213 C 
ENDBRANCH  46  48
ENDBRANCH  29  46
ENDBRANCH   1  21
BRANCH  19  50
HETATM   50  O4  UNL     1      -4.227  54.399  -9.786  1.00  0.00    -0.360 OA
HETATM   51  H43 UNL     1      -5.024  54.705 -10.249  1.00  0.00     0.217 HD
ENDBRANCH  19  50
BRANCH  14  52
HETATM   52  C31 UNL     1       2.335  50.948 -11.152  1.00  0.00     0.275 C 
HETATM   53  O2  UNL     1       2.089  50.035 -10.377  1.00  0.00    -0.264 OA
BRANCH  52  54
HETATM   54  O3  UNL     1       3.078  52.046 -10.808  1.00  0.00    -0.326 OA
HETATM   55  C32 UNL     1       4.349  51.743 -10.232  1.00  0.00     0.213 C 
ENDBRANCH  52  54
ENDBRANCH  14  52
BRANCH  12  56
HETATM   56  C27 UNL     1       3.236  47.609 -13.738  1.00  0.00     0.120 C 
HETATM   57  C28 UNL     1       2.010  47.193 -14.543  1.00  0.00     0.040 C 
BRANCH  56  58
HETATM   58  O1  UNL     1       3.324  46.744 -12.612  1.00  0.00    -0.396 OA
HETATM   59  H34 UNL     1       4.042  47.110 -12.051  1.00  0.00     0.210 HD
ENDBRANCH  56  58
ENDBRANCH  12  56
TORSDOF 10
ENDMDL
