MODEL 1
REMARK minimizedAffinity -7.14878368
REMARK CNNscore 0.699988365
REMARK CNNaffinity 6.93429375
REMARK  13 active torsions:
REMARK  status: ('A' for Active; 'I' for Inactive)
REMARK    1  A    between atoms: C2_2  and  C3_3 
REMARK    2  A    between atoms: C2_2  and  C9_11 
REMARK    3  A    between atoms: C3_3  and  C4_4 
REMARK    4  A    between atoms: C4_4  and  C5_6 
REMARK    5  A    between atoms: C5_6  and  C6_7 
REMARK    6  A    between atoms: C6_7  and  O2_10 
REMARK    7  A    between atoms: C20_23  and  C21_24 
REMARK    8  A    between atoms: C21_24  and  O4_25 
REMARK    9  A    between atoms: C27_31  and  O5_32 
REMARK   10  A    between atoms: O5_32  and  C28_33 
REMARK   11  A    between atoms: C30_36  and  O7_37 
REMARK   12  A    between atoms: C31_38  and  O8_39 
REMARK   13  A    between atoms: C32_40  and  O9_41 
ROOT
HETATM    1  C9  UNL     1      -1.232   6.310  12.049  1.00  0.00     0.068 C 
HETATM    2  C10 UNL     1      -2.523   5.657  12.571  1.00  0.00     0.133 C 
HETATM    3  O3  UNL     1      -3.122   4.750  12.005  1.00  0.00    -0.298 OA
HETATM    4  C11 UNL     1      -3.051   6.316  13.829  1.00  0.00     0.089 C 
HETATM    5  C12 UNL     1      -2.358   7.682  13.753  1.00  0.00    -0.022 C 
HETATM    6  C13 UNL     1      -3.172   8.545  12.721  1.00  0.00     0.017 C 
HETATM    7  C14 UNL     1      -2.259   8.449  15.101  1.00  0.00     0.024 C 
HETATM    8  C15 UNL     1      -3.647   8.682  15.727  1.00  0.00     0.010 C 
HETATM    9  C16 UNL     1      -3.518   9.548  16.965  1.00  0.00     0.010 C 
HETATM   10  C17 UNL     1      -2.969  10.940  16.603  1.00  0.00     0.025 C 
HETATM   11  C18 UNL     1      -1.847  10.894  15.550  1.00  0.00    -0.072 C 
HETATM   12  C19 UNL     1      -1.454   9.749  14.927  1.00  0.00    -0.066 C 
HETATM   13  C20 UNL     1      -0.230   9.697  13.981  1.00  0.00     0.039 C 
HETATM   14  C22 UNL     1      -0.203   8.596  12.873  1.00  0.00     0.021 C 
HETATM   15  C23 UNL     1      -0.920   7.287  13.246  1.00  0.00    -0.024 C 
HETATM   16  C24 UNL     1      -0.064   6.529  14.301  1.00  0.00     0.017 C 
HETATM   17  C25 UNL     1      -1.281  12.268  15.227  1.00  0.00     0.037 C 
HETATM   18  C26 UNL     1      -0.926  13.100  16.449  1.00  0.00     0.037 C 
HETATM   19  C27 UNL     1      -2.096  13.186  17.427  1.00  0.00     0.133 C 
HETATM   20  C33 UNL     1      -2.568  11.769  17.881  1.00  0.00    -0.014 C 
HETATM   21  C34 UNL     1      -1.463  11.068  18.710  1.00  0.00     0.018 C 
HETATM   22  C35 UNL     1      -3.798  11.947  18.807  1.00  0.00     0.018 C 
ENDROOT
BRANCH  19  23
HETATM   23  O5  UNL     1      -1.729  13.959  18.574  1.00  0.00    -0.353 OA
BRANCH  23  24
HETATM   24  C28 UNL     1      -0.468  14.629  18.461  1.00  0.00     0.291 C 
HETATM   25  O6  UNL     1       0.426  14.106  19.452  1.00  0.00    -0.356 OA
HETATM   26  C29 UNL     1       0.874  15.055  20.415  1.00  0.00     0.205 C 
HETATM   27  C30 UNL     1       1.553  16.225  19.709  1.00  0.00     0.173 C 
HETATM   28  C31 UNL     1       0.564  16.932  18.770  1.00  0.00     0.182 C 
HETATM   29  C32 UNL     1      -0.734  16.148  18.572  1.00  0.00     0.204 C 
BRANCH  27  30
HETATM   30  O7  UNL     1       2.117  17.167  20.627  1.00  0.00    -0.391 OA
HETATM   31  H46 UNL     1       2.922  16.761  20.990  1.00  0.00     0.210 HD
ENDBRANCH  27  30
BRANCH  28  32
HETATM   32  O8  UNL     1       0.220  18.237  19.272  1.00  0.00    -0.390 OA
HETATM   33  H48 UNL     1       0.961  18.483  19.867  1.00  0.00     0.210 HD
ENDBRANCH  28  32
BRANCH  29  34
HETATM   34  O9  UNL     1      -1.399  16.653  17.403  1.00  0.00    -0.388 OA
HETATM   35  H50 UNL     1      -1.518  17.608  17.570  1.00  0.00     0.210 HD
ENDBRANCH  29  34
ENDBRANCH  23  24
ENDBRANCH  19  23
BRANCH  13  36
HETATM   36  C21 UNL     1       1.086   9.722  14.793  1.00  0.00     0.173 C 
BRANCH  36  37
HETATM   37  O4  UNL     1       0.846   9.283  16.127  1.00  0.00    -0.400 OA
HETATM   38  H31 UNL     1       1.706   9.307  16.592  1.00  0.00     0.209 HD
ENDBRANCH  36  37
ENDBRANCH  13  36
BRANCH   1  39
HETATM   39  C2  UNL     1      -0.134   5.301  11.596  1.00  0.00     0.000 C 
HETATM   40  C1  UNL     1      -0.488   3.874  12.034  1.00  0.00     0.011 C 
BRANCH  39  41
HETATM   41  C3  UNL     1       1.271   5.639  12.158  1.00  0.00     0.083 C 
BRANCH  41  42
HETATM   42  C4  UNL     1       2.133   6.453  11.193  1.00  0.00     0.130 C 
HETATM   43  O1  UNL     1       2.904   7.333  11.586  1.00  0.00    -0.298 OA
BRANCH  42  44
HETATM   44  C5  UNL     1       1.960   6.136   9.715  1.00  0.00     0.115 C 
BRANCH  44  45
HETATM   45  C6  UNL     1       1.899   7.371   8.799  1.00  0.00     0.057 C 
HETATM   46  C7  UNL     1       0.644   8.220   9.047  1.00  0.00     0.045 C 
HETATM   47  C8  UNL     1       1.923   6.914   7.336  1.00  0.00     0.045 C 
BRANCH  45  48
HETATM   48  O2  UNL     1       3.058   8.189   8.984  1.00  0.00    -0.390 OA
HETATM   49  H15 UNL     1       3.084   8.426   9.936  1.00  0.00     0.210 HD
ENDBRANCH  45  48
ENDBRANCH  44  45
ENDBRANCH  42  44
ENDBRANCH  41  42
ENDBRANCH  39  41
ENDBRANCH   1  39
TORSDOF 13
ENDMDL
MODEL 2
REMARK minimizedAffinity -7.22074509
REMARK CNNscore 0.558818579
REMARK CNNaffinity 6.6207962
REMARK  13 active torsions:
REMARK  status: ('A' for Active; 'I' for Inactive)
REMARK    1  A    between atoms: C2_2  and  C3_3 
REMARK    2  A    between atoms: C2_2  and  C9_11 
REMARK    3  A    between atoms: C3_3  and  C4_4 
REMARK    4  A    between atoms: C4_4  and  C5_6 
REMARK    5  A    between atoms: C5_6  and  C6_7 
REMARK    6  A    between atoms: C6_7  and  O2_10 
REMARK    7  A    between atoms: C20_23  and  C21_24 
REMARK    8  A    between atoms: C21_24  and  O4_25 
REMARK    9  A    between atoms: C27_31  and  O5_32 
REMARK   10  A    between atoms: O5_32  and  C28_33 
REMARK   11  A    between atoms: C30_36  and  O7_37 
REMARK   12  A    between atoms: C31_38  and  O8_39 
REMARK   13  A    between atoms: C32_40  and  O9_41 
ROOT
HETATM    1  C9  UNL     1     -16.389  -0.436  16.383  1.00  0.00     0.068 C 
HETATM    2  C10 UNL     1     -16.436  -1.682  17.284  1.00  0.00     0.133 C 
HETATM    3  O3  UNL     1     -16.433  -1.654  18.510  1.00  0.00    -0.298 OA
HETATM    4  C11 UNL     1     -16.388  -2.979  16.502  1.00  0.00     0.089 C 
HETATM    5  C12 UNL     1     -15.791  -2.494  15.176  1.00  0.00    -0.022 C 
HETATM    6  C13 UNL     1     -14.242  -2.345  15.405  1.00  0.00     0.017 C 
HETATM    7  C14 UNL     1     -16.044  -3.427  13.958  1.00  0.00     0.024 C 
HETATM    8  C15 UNL     1     -15.500  -4.847  14.205  1.00  0.00     0.010 C 
HETATM    9  C16 UNL     1     -15.644  -5.683  12.948  1.00  0.00     0.010 C 
HETATM   10  C17 UNL     1     -14.803  -5.092  11.802  1.00  0.00     0.025 C 
HETATM   11  C18 UNL     1     -14.856  -3.555  11.739  1.00  0.00    -0.072 C 
HETATM   12  C19 UNL     1     -15.497  -2.793  12.667  1.00  0.00    -0.066 C 
HETATM   13  C20 UNL     1     -15.663  -1.261  12.510  1.00  0.00     0.039 C 
HETATM   14  C22 UNL     1     -15.827  -0.403  13.806  1.00  0.00     0.021 C 
HETATM   15  C23 UNL     1     -16.532  -1.119  14.970  1.00  0.00    -0.024 C 
HETATM   16  C24 UNL     1     -18.044  -1.261  14.632  1.00  0.00     0.017 C 
HETATM   17  C25 UNL     1     -14.056  -2.982  10.580  1.00  0.00     0.037 C 
HETATM   18  C26 UNL     1     -14.331  -3.648   9.241  1.00  0.00     0.037 C 
HETATM   19  C27 UNL     1     -14.186  -5.166   9.331  1.00  0.00     0.133 C 
HETATM   20  C33 UNL     1     -15.133  -5.767  10.417  1.00  0.00    -0.014 C 
HETATM   21  C34 UNL     1     -16.616  -5.576  10.011  1.00  0.00     0.018 C 
HETATM   22  C35 UNL     1     -14.868  -7.293  10.492  1.00  0.00     0.018 C 
ENDROOT
BRANCH  19  23
HETATM   23  O5  UNL     1     -14.467  -5.768   8.063  1.00  0.00    -0.353 OA
BRANCH  23  24
HETATM   24  C28 UNL     1     -13.333  -5.886   7.197  1.00  0.00     0.291 C 
HETATM   25  O6  UNL     1     -13.179  -4.661   6.467  1.00  0.00    -0.356 OA
HETATM   26  C29 UNL     1     -13.309  -4.786   5.054  1.00  0.00     0.205 C 
HETATM   27  C30 UNL     1     -12.298  -5.803   4.531  1.00  0.00     0.173 C 
HETATM   28  C31 UNL     1     -12.552  -7.183   5.154  1.00  0.00     0.182 C 
HETATM   29  C32 UNL     1     -13.547  -7.137   6.315  1.00  0.00     0.204 C 
BRANCH  27  30
HETATM   30  O7  UNL     1     -12.308  -5.900   3.103  1.00  0.00    -0.391 OA
HETATM   31  H46 UNL     1     -11.867  -5.104   2.762  1.00  0.00     0.210 HD
ENDBRANCH  27  30
BRANCH  28  32
HETATM   32  O8  UNL     1     -13.060  -8.106   4.173  1.00  0.00    -0.390 OA
HETATM   33  H48 UNL     1     -12.773  -7.740   3.309  1.00  0.00     0.210 HD
ENDBRANCH  28  32
BRANCH  29  34
HETATM   34  O9  UNL     1     -13.413  -8.348   7.078  1.00  0.00    -0.388 OA
HETATM   35  H50 UNL     1     -13.561  -9.070   6.439  1.00  0.00     0.210 HD
ENDBRANCH  29  34
ENDBRANCH  23  24
ENDBRANCH  19  23
BRANCH  13  36
HETATM   36  C21 UNL     1     -16.760  -0.938  11.468  1.00  0.00     0.173 C 
BRANCH  36  37
HETATM   37  O4  UNL     1     -17.015   0.464  11.445  1.00  0.00    -0.400 OA
HETATM   38  H31 UNL     1     -17.702   0.615  10.767  1.00  0.00     0.209 HD
ENDBRANCH  36  37
ENDBRANCH  13  36
BRANCH   1  39
HETATM   39  C2  UNL     1     -17.394   0.687  16.779  1.00  0.00     0.000 C 
HETATM   40  C1  UNL     1     -18.776   0.099  17.094  1.00  0.00     0.011 C 
BRANCH  39  41
HETATM   41  C3  UNL     1     -17.573   1.761  15.675  1.00  0.00     0.083 C 
BRANCH  41  42
HETATM   42  C4  UNL     1     -16.442   2.789  15.638  1.00  0.00     0.130 C 
HETATM   43  O1  UNL     1     -15.291   2.485  15.316  1.00  0.00    -0.298 OA
BRANCH  42  44
HETATM   44  C5  UNL     1     -16.814   4.205  16.052  1.00  0.00     0.115 C 
BRANCH  44  45
HETATM   45  C6  UNL     1     -16.466   5.287  15.015  1.00  0.00     0.057 C 
HETATM   46  C7  UNL     1     -16.830   6.698  15.499  1.00  0.00     0.045 C 
HETATM   47  C8  UNL     1     -17.210   4.990  13.709  1.00  0.00     0.045 C 
BRANCH  45  48
HETATM   48  O2  UNL     1     -15.071   5.249  14.702  1.00  0.00    -0.390 OA
HETATM   49  H15 UNL     1     -14.590   5.369  15.549  1.00  0.00     0.210 HD
ENDBRANCH  45  48
ENDBRANCH  44  45
ENDBRANCH  42  44
ENDBRANCH  41  42
ENDBRANCH  39  41
ENDBRANCH   1  39
TORSDOF 13
ENDMDL
MODEL 3
REMARK minimizedAffinity -9.5438509
REMARK CNNscore 0.527285218
REMARK CNNaffinity 7.34370279
REMARK  13 active torsions:
REMARK  status: ('A' for Active; 'I' for Inactive)
REMARK    1  A    between atoms: C2_2  and  C3_3 
REMARK    2  A    between atoms: C2_2  and  C9_11 
REMARK    3  A    between atoms: C3_3  and  C4_4 
REMARK    4  A    between atoms: C4_4  and  C5_6 
REMARK    5  A    between atoms: C5_6  and  C6_7 
REMARK    6  A    between atoms: C6_7  and  O2_10 
REMARK    7  A    between atoms: C20_23  and  C21_24 
REMARK    8  A    between atoms: C21_24  and  O4_25 
REMARK    9  A    between atoms: C27_31  and  O5_32 
REMARK   10  A    between atoms: O5_32  and  C28_33 
REMARK   11  A    between atoms: C30_36  and  O7_37 
REMARK   12  A    between atoms: C31_38  and  O8_39 
REMARK   13  A    between atoms: C32_40  and  O9_41 
ROOT
HETATM    1  C9  UNL     1      -6.218   6.742  14.061  1.00  0.00     0.068 C 
HETATM    2  C10 UNL     1      -6.531   8.083  14.747  1.00  0.00     0.133 C 
HETATM    3  O3  UNL     1      -7.655   8.559  14.862  1.00  0.00    -0.298 OA
HETATM    4  C11 UNL     1      -5.287   8.824  15.192  1.00  0.00     0.089 C 
HETATM    5  C12 UNL     1      -4.225   8.164  14.306  1.00  0.00    -0.022 C 
HETATM    6  C13 UNL     1      -4.348   8.824  12.883  1.00  0.00     0.017 C 
HETATM    7  C14 UNL     1      -2.762   8.303  14.813  1.00  0.00     0.024 C 
HETATM    8  C15 UNL     1      -2.355   9.780  14.980  1.00  0.00     0.010 C 
HETATM    9  C16 UNL     1      -0.886   9.874  15.343  1.00  0.00     0.010 C 
HETATM   10  C17 UNL     1      -0.007   9.310  14.211  1.00  0.00     0.025 C 
HETATM   11  C18 UNL     1      -0.583   8.033  13.576  1.00  0.00    -0.072 C 
HETATM   12  C19 UNL     1      -1.798   7.515  13.909  1.00  0.00    -0.066 C 
HETATM   13  C20 UNL     1      -2.296   6.154  13.366  1.00  0.00     0.039 C 
HETATM   14  C22 UNL     1      -3.838   5.920  13.272  1.00  0.00     0.021 C 
HETATM   15  C23 UNL     1      -4.669   6.653  14.339  1.00  0.00    -0.024 C 
HETATM   16  C24 UNL     1      -4.446   5.959  15.713  1.00  0.00     0.017 C 
HETATM   17  C25 UNL     1       0.310   7.459  12.487  1.00  0.00     0.037 C 
HETATM   18  C26 UNL     1       1.772   7.326  12.883  1.00  0.00     0.037 C 
HETATM   19  C27 UNL     1       2.324   8.641  13.432  1.00  0.00     0.133 C 
HETATM   20  C33 UNL     1       1.494   9.142  14.657  1.00  0.00    -0.014 C 
HETATM   21  C34 UNL     1       1.645   8.167  15.851  1.00  0.00     0.018 C 
HETATM   22  C35 UNL     1       2.075  10.510  15.100  1.00  0.00     0.018 C 
ENDROOT
BRANCH  19  23
HETATM   23  O5  UNL     1       3.694   8.483  13.814  1.00  0.00    -0.353 OA
BRANCH  23  24
HETATM   24  C28 UNL     1       4.585   9.448  13.243  1.00  0.00     0.291 C 
HETATM   25  O6  UNL     1       4.237   9.641  11.865  1.00  0.00    -0.356 OA
HETATM   26  C29 UNL     1       5.255   9.283  10.935  1.00  0.00     0.205 C 
HETATM   27  C30 UNL     1       6.529  10.068  11.236  1.00  0.00     0.173 C 
HETATM   28  C31 UNL     1       7.039   9.741  12.647  1.00  0.00     0.182 C 
HETATM   29  C32 UNL     1       6.028   8.949  13.478  1.00  0.00     0.204 C 
BRANCH  27  30
HETATM   30  O7  UNL     1       7.560   9.828  10.274  1.00  0.00    -0.391 OA
HETATM   31  H46 UNL     1       7.310  10.308   9.466  1.00  0.00     0.210 HD
ENDBRANCH  27  30
BRANCH  28  32
HETATM   32  O8  UNL     1       8.259   8.979  12.590  1.00  0.00    -0.390 OA
HETATM   33  H48 UNL     1       8.639   9.175  11.707  1.00  0.00     0.210 HD
ENDBRANCH  28  32
BRANCH  29  34
HETATM   34  O9  UNL     1       6.400   9.045  14.863  1.00  0.00    -0.388 OA
HETATM   35  H50 UNL     1       7.317   8.712  14.904  1.00  0.00     0.210 HD
ENDBRANCH  29  34
ENDBRANCH  23  24
ENDBRANCH  19  23
BRANCH  13  36
HETATM   36  C21 UNL     1      -1.585   4.986  14.091  1.00  0.00     0.173 C 
BRANCH  36  37
HETATM   37  O4  UNL     1      -0.962   5.458  15.282  1.00  0.00    -0.400 OA
HETATM   38  H31 UNL     1      -0.539   4.685  15.705  1.00  0.00     0.209 HD
ENDBRANCH  36  37
ENDBRANCH  13  36
BRANCH   1  39
HETATM   39  C2  UNL     1      -7.131   5.560  14.504  1.00  0.00     0.000 C 
HETATM   40  C1  UNL     1      -7.361   5.586  16.021  1.00  0.00     0.011 C 
BRANCH  39  41
HETATM   41  C3  UNL     1      -6.550   4.171  14.133  1.00  0.00     0.083 C 
BRANCH  41  42
HETATM   42  C4  UNL     1      -7.192   3.556  12.889  1.00  0.00     0.130 C 
HETATM   43  O1  UNL     1      -8.220   2.876  12.950  1.00  0.00    -0.298 OA
BRANCH  42  44
HETATM   44  C5  UNL     1      -6.469   3.805  11.573  1.00  0.00     0.115 C 
BRANCH  44  45
HETATM   45  C6  UNL     1      -5.579   2.643  11.102  1.00  0.00     0.057 C 
HETATM   46  C7  UNL     1      -6.210   1.273  11.384  1.00  0.00     0.045 C 
HETATM   47  C8  UNL     1      -4.221   2.732  11.806  1.00  0.00     0.045 C 
BRANCH  45  48
HETATM   48  O2  UNL     1      -5.313   2.753   9.701  1.00  0.00    -0.390 OA
HETATM   49  H15 UNL     1      -6.185   2.768   9.250  1.00  0.00     0.210 HD
ENDBRANCH  45  48
ENDBRANCH  44  45
ENDBRANCH  42  44
ENDBRANCH  41  42
ENDBRANCH  39  41
ENDBRANCH   1  39
TORSDOF 13
ENDMDL
MODEL 4
REMARK minimizedAffinity -7.57502508
REMARK CNNscore 0.525173068
REMARK CNNaffinity 7.06824112
REMARK  13 active torsions:
REMARK  status: ('A' for Active; 'I' for Inactive)
REMARK    1  A    between atoms: C2_2  and  C3_3 
REMARK    2  A    between atoms: C2_2  and  C9_11 
REMARK    3  A    between atoms: C3_3  and  C4_4 
REMARK    4  A    between atoms: C4_4  and  C5_6 
REMARK    5  A    between atoms: C5_6  and  C6_7 
REMARK    6  A    between atoms: C6_7  and  O2_10 
REMARK    7  A    between atoms: C20_23  and  C21_24 
REMARK    8  A    between atoms: C21_24  and  O4_25 
REMARK    9  A    between atoms: C27_31  and  O5_32 
REMARK   10  A    between atoms: O5_32  and  C28_33 
REMARK   11  A    between atoms: C30_36  and  O7_37 
REMARK   12  A    between atoms: C31_38  and  O8_39 
REMARK   13  A    between atoms: C32_40  and  O9_41 
ROOT
HETATM    1  C9  UNL     1     -15.248  10.434  15.322  1.00  0.00     0.068 C 
HETATM    2  C10 UNL     1     -14.536  11.464  16.216  1.00  0.00     0.133 C 
HETATM    3  O3  UNL     1     -15.023  12.531  16.571  1.00  0.00    -0.298 OA
HETATM    4  C11 UNL     1     -13.109  11.074  16.547  1.00  0.00     0.089 C 
HETATM    5  C12 UNL     1     -12.816  10.073  15.424  1.00  0.00    -0.022 C 
HETATM    6  C13 UNL     1     -12.496  10.917  14.136  1.00  0.00     0.017 C 
HETATM    7  C14 UNL     1     -11.642   9.093  15.702  1.00  0.00     0.024 C 
HETATM    8  C15 UNL     1     -10.328   9.845  15.990  1.00  0.00     0.010 C 
HETATM    9  C16 UNL     1      -9.184   8.859  16.120  1.00  0.00     0.010 C 
HETATM   10  C17 UNL     1      -8.966   8.099  14.799  1.00  0.00     0.025 C 
HETATM   11  C18 UNL     1     -10.280   7.697  14.106  1.00  0.00    -0.072 C 
HETATM   12  C19 UNL     1     -11.508   8.069  14.562  1.00  0.00    -0.066 C 
HETATM   13  C20 UNL     1     -12.820   7.537  13.936  1.00  0.00     0.039 C 
HETATM   14  C22 UNL     1     -14.105   8.418  14.062  1.00  0.00     0.021 C 
HETATM   15  C23 UNL     1     -14.175   9.279  15.334  1.00  0.00    -0.024 C 
HETATM   16  C24 UNL     1     -14.447   8.354  16.554  1.00  0.00     0.017 C 
HETATM   17  C25 UNL     1     -10.056   6.912  12.823  1.00  0.00     0.037 C 
HETATM   18  C26 UNL     1      -9.072   5.761  12.959  1.00  0.00     0.037 C 
HETATM   19  C27 UNL     1      -7.753   6.223  13.576  1.00  0.00     0.133 C 
HETATM   20  C33 UNL     1      -7.976   6.886  14.972  1.00  0.00    -0.014 C 
HETATM   21  C34 UNL     1      -8.499   5.843  15.991  1.00  0.00     0.018 C 
HETATM   22  C35 UNL     1      -6.603   7.388  15.487  1.00  0.00     0.018 C 
ENDROOT
BRANCH  19  23
HETATM   23  O5  UNL     1      -6.853   5.117  13.708  1.00  0.00    -0.353 OA
BRANCH  23  24
HETATM   24  C28 UNL     1      -6.065   4.850  12.543  1.00  0.00     0.291 C 
HETATM   25  O6  UNL     1      -6.535   3.639  11.934  1.00  0.00    -0.356 OA
HETATM   26  C29 UNL     1      -5.580   2.584  11.885  1.00  0.00     0.205 C 
HETATM   27  C30 UNL     1      -4.329   3.053  11.148  1.00  0.00     0.173 C 
HETATM   28  C31 UNL     1      -3.687   4.240  11.881  1.00  0.00     0.182 C 
HETATM   29  C32 UNL     1      -4.583   4.816  12.978  1.00  0.00     0.204 C 
BRANCH  27  30
HETATM   30  O7  UNL     1      -3.369   2.006  10.976  1.00  0.00    -0.391 OA
HETATM   31  H46 UNL     1      -3.710   1.422  10.276  1.00  0.00     0.210 HD
ENDBRANCH  27  30
BRANCH  28  32
HETATM   32  O8  UNL     1      -2.438   3.858  12.485  1.00  0.00    -0.390 OA
HETATM   33  H48 UNL     1      -2.143   3.069  11.980  1.00  0.00     0.210 HD
ENDBRANCH  28  32
BRANCH  29  34
HETATM   34  O9  UNL     1      -4.103   6.129  13.316  1.00  0.00    -0.388 OA
HETATM   35  H50 UNL     1      -3.170   6.001  13.573  1.00  0.00     0.210 HD
ENDBRANCH  29  34
ENDBRANCH  23  24
ENDBRANCH  19  23
BRANCH  13  36
HETATM   36  C21 UNL     1     -13.082   6.078  14.381  1.00  0.00     0.173 C 
BRANCH  36  37
HETATM   37  O4  UNL     1     -14.453   5.745  14.184  1.00  0.00    -0.400 OA
HETATM   38  H31 UNL     1     -14.562   4.817  14.468  1.00  0.00     0.209 HD
ENDBRANCH  36  37
ENDBRANCH  13  36
BRANCH   1  39
HETATM   39  C2  UNL     1     -16.709  10.105  15.752  1.00  0.00     0.000 C 
HETATM   40  C1  UNL     1     -16.804   9.919  17.272  1.00  0.00     0.011 C 
BRANCH  39  41
HETATM   41  C3  UNL     1     -17.268   8.826  15.078  1.00  0.00     0.083 C 
BRANCH  41  42
HETATM   42  C4  UNL     1     -18.018   9.103  13.774  1.00  0.00     0.130 C 
HETATM   43  O1  UNL     1     -18.987   9.864  13.725  1.00  0.00    -0.298 OA
BRANCH  42  44
HETATM   44  C5  UNL     1     -17.515   8.359  12.545  1.00  0.00     0.115 C 
BRANCH  44  45
HETATM   45  C6  UNL     1     -16.980   9.266  11.423  1.00  0.00     0.057 C 
HETATM   46  C7  UNL     1     -16.372  10.567  11.964  1.00  0.00     0.045 C 
HETATM   47  C8  UNL     1     -18.124   9.602  10.459  1.00  0.00     0.045 C 
BRANCH  45  48
HETATM   48  O2  UNL     1     -15.993   8.576  10.651  1.00  0.00    -0.390 OA
HETATM   49  H15 UNL     1     -15.292   8.298  11.278  1.00  0.00     0.210 HD
ENDBRANCH  45  48
ENDBRANCH  44  45
ENDBRANCH  42  44
ENDBRANCH  41  42
ENDBRANCH  39  41
ENDBRANCH   1  39
TORSDOF 13
ENDMDL
MODEL 5
REMARK minimizedAffinity -10.6597242
REMARK CNNscore 0.442700148
REMARK CNNaffinity 7.39564133
REMARK  13 active torsions:
REMARK  status: ('A' for Active; 'I' for Inactive)
REMARK    1  A    between atoms: C2_2  and  C3_3 
REMARK    2  A    between atoms: C2_2  and  C9_11 
REMARK    3  A    between atoms: C3_3  and  C4_4 
REMARK    4  A    between atoms: C4_4  and  C5_6 
REMARK    5  A    between atoms: C5_6  and  C6_7 
REMARK    6  A    between atoms: C6_7  and  O2_10 
REMARK    7  A    between atoms: C20_23  and  C21_24 
REMARK    8  A    between atoms: C21_24  and  O4_25 
REMARK    9  A    between atoms: C27_31  and  O5_32 
REMARK   10  A    between atoms: O5_32  and  C28_33 
REMARK   11  A    between atoms: C30_36  and  O7_37 
REMARK   12  A    between atoms: C31_38  and  O8_39 
REMARK   13  A    between atoms: C32_40  and  O9_41 
ROOT
HETATM    1  C9  UNL     1       1.661   6.607  11.631  1.00  0.00     0.068 C 
HETATM    2  C10 UNL     1       1.500   5.123  11.258  1.00  0.00     0.133 C 
HETATM    3  O3  UNL     1       2.282   4.494  10.553  1.00  0.00    -0.298 OA
HETATM    4  C11 UNL     1       0.208   4.521  11.773  1.00  0.00     0.089 C 
HETATM    5  C12 UNL     1      -0.628   5.785  12.002  1.00  0.00    -0.022 C 
HETATM    6  C13 UNL     1      -1.167   6.234  10.594  1.00  0.00     0.017 C 
HETATM    7  C14 UNL     1      -1.823   5.618  12.982  1.00  0.00     0.024 C 
HETATM    8  C15 UNL     1      -2.792   4.515  12.515  1.00  0.00     0.010 C 
HETATM    9  C16 UNL     1      -4.009   4.477  13.419  1.00  0.00     0.010 C 
HETATM   10  C17 UNL     1      -4.790   5.801  13.338  1.00  0.00     0.025 C 
HETATM   11  C18 UNL     1      -3.880   7.041  13.290  1.00  0.00    -0.072 C 
HETATM   12  C19 UNL     1      -2.522   6.968  13.220  1.00  0.00    -0.066 C 
HETATM   13  C20 UNL     1      -1.618   8.220  13.319  1.00  0.00     0.039 C 
HETATM   14  C22 UNL     1      -0.211   8.167  12.642  1.00  0.00     0.021 C 
HETATM   15  C23 UNL     1       0.438   6.773  12.611  1.00  0.00    -0.024 C 
HETATM   16  C24 UNL     1       0.895   6.399  14.051  1.00  0.00     0.017 C 
HETATM   17  C25 UNL     1      -4.659   8.346  13.252  1.00  0.00     0.037 C 
HETATM   18  C26 UNL     1      -5.760   8.449  14.296  1.00  0.00     0.037 C 
HETATM   19  C27 UNL     1      -6.687   7.236  14.252  1.00  0.00     0.133 C 
HETATM   20  C33 UNL     1      -5.897   5.904  14.455  1.00  0.00    -0.014 C 
HETATM   21  C34 UNL     1      -5.297   5.840  15.881  1.00  0.00     0.018 C 
HETATM   22  C35 UNL     1      -6.898   4.728  14.322  1.00  0.00     0.018 C 
ENDROOT
BRANCH  19  23
HETATM   23  O5  UNL     1      -7.701   7.349  15.256  1.00  0.00    -0.353 OA
BRANCH  23  24
HETATM   24  C28 UNL     1      -8.912   7.969  14.810  1.00  0.00     0.291 C 
HETATM   25  O6  UNL     1      -9.243   9.038  15.706  1.00  0.00    -0.356 OA
HETATM   26  C29 UNL     1     -10.478   8.881  16.396  1.00  0.00     0.205 C 
HETATM   27  C30 UNL     1     -11.614   8.713  15.390  1.00  0.00     0.173 C 
HETATM   28  C31 UNL     1     -11.388   7.461  14.529  1.00  0.00     0.182 C 
HETATM   29  C32 UNL     1      -9.989   6.866  14.700  1.00  0.00     0.204 C 
BRANCH  27  30
HETATM   30  O7  UNL     1     -12.898   8.651  16.018  1.00  0.00    -0.391 OA
HETATM   31  H46 UNL     1     -13.119   9.555  16.300  1.00  0.00     0.210 HD
ENDBRANCH  27  30
BRANCH  28  32
HETATM   32  O8  UNL     1     -12.346   6.436  14.849  1.00  0.00    -0.390 OA
HETATM   33  H48 UNL     1     -13.102   6.914  15.253  1.00  0.00     0.210 HD
ENDBRANCH  28  32
BRANCH  29  34
HETATM   34  O9  UNL     1      -9.730   5.985  13.595  1.00  0.00    -0.388 OA
HETATM   35  H50 UNL     1     -10.458   5.334  13.611  1.00  0.00     0.210 HD
ENDBRANCH  29  34
ENDBRANCH  23  24
ENDBRANCH  19  23
BRANCH  13  36
HETATM   36  C21 UNL     1      -1.529   8.713  14.783  1.00  0.00     0.173 C 
BRANCH  36  37
HETATM   37  O4  UNL     1      -1.601   7.605  15.676  1.00  0.00    -0.400 OA
HETATM   38  H31 UNL     1      -1.530   7.967  16.581  1.00  0.00     0.209 HD
ENDBRANCH  36  37
ENDBRANCH  13  36
BRANCH   1  39
HETATM   39  C2  UNL     1       3.085   6.996  12.133  1.00  0.00     0.000 C 
HETATM   40  C1  UNL     1       3.134   8.472  12.547  1.00  0.00     0.011 C 
BRANCH  39  41
HETATM   41  C3  UNL     1       4.189   6.761  11.069  1.00  0.00     0.083 C 
BRANCH  41  42
HETATM   42  C4  UNL     1       4.003   7.599   9.804  1.00  0.00     0.130 C 
HETATM   43  O1  UNL     1       4.442   8.748   9.709  1.00  0.00    -0.298 OA
BRANCH  42  44
HETATM   44  C5  UNL     1       3.217   6.942   8.679  1.00  0.00     0.115 C 
BRANCH  44  45
HETATM   45  C6  UNL     1       2.312   7.902   7.886  1.00  0.00     0.057 C 
HETATM   46  C7  UNL     1       1.111   8.385   8.710  1.00  0.00     0.045 C 
HETATM   47  C8  UNL     1       1.812   7.193   6.623  1.00  0.00     0.045 C 
BRANCH  45  48
HETATM   48  O2  UNL     1       3.059   9.038   7.441  1.00  0.00    -0.390 OA
HETATM   49  H15 UNL     1       3.440   9.455   8.244  1.00  0.00     0.210 HD
ENDBRANCH  45  48
ENDBRANCH  44  45
ENDBRANCH  42  44
ENDBRANCH  41  42
ENDBRANCH  39  41
ENDBRANCH   1  39
TORSDOF 13
ENDMDL
MODEL 6
REMARK minimizedAffinity -8.55589008
REMARK CNNscore 0.430958569
REMARK CNNaffinity 6.91927862
REMARK  13 active torsions:
REMARK  status: ('A' for Active; 'I' for Inactive)
REMARK    1  A    between atoms: C2_2  and  C3_3 
REMARK    2  A    between atoms: C2_2  and  C9_11 
REMARK    3  A    between atoms: C3_3  and  C4_4 
REMARK    4  A    between atoms: C4_4  and  C5_6 
REMARK    5  A    between atoms: C5_6  and  C6_7 
REMARK    6  A    between atoms: C6_7  and  O2_10 
REMARK    7  A    between atoms: C20_23  and  C21_24 
REMARK    8  A    between atoms: C21_24  and  O4_25 
REMARK    9  A    between atoms: C27_31  and  O5_32 
REMARK   10  A    between atoms: O5_32  and  C28_33 
REMARK   11  A    between atoms: C30_36  and  O7_37 
REMARK   12  A    between atoms: C31_38  and  O8_39 
REMARK   13  A    between atoms: C32_40  and  O9_41 
ROOT
HETATM    1  C9  UNL     1      -5.343   6.726  13.825  1.00  0.00     0.068 C 
HETATM    2  C10 UNL     1      -5.875   8.050  14.402  1.00  0.00     0.133 C 
HETATM    3  O3  UNL     1      -7.041   8.421  14.331  1.00  0.00    -0.298 OA
HETATM    4  C11 UNL     1      -4.782   8.915  14.998  1.00  0.00     0.089 C 
HETATM    5  C12 UNL     1      -3.544   8.333  14.306  1.00  0.00    -0.022 C 
HETATM    6  C13 UNL     1      -3.508   8.941  12.856  1.00  0.00     0.017 C 
HETATM    7  C14 UNL     1      -2.193   8.621  15.019  1.00  0.00     0.024 C 
HETATM    8  C15 UNL     1      -1.948  10.134  15.186  1.00  0.00     0.010 C 
HETATM    9  C16 UNL     1      -0.565  10.374  15.758  1.00  0.00     0.010 C 
HETATM   10  C17 UNL     1       0.521   9.865  14.794  1.00  0.00     0.025 C 
HETATM   11  C18 UNL     1       0.163   8.523  14.131  1.00  0.00    -0.072 C 
HETATM   12  C19 UNL     1      -1.037   7.904  14.301  1.00  0.00    -0.066 C 
HETATM   13  C20 UNL     1      -1.326   6.488  13.745  1.00  0.00     0.039 C 
HETATM   14  C22 UNL     1      -2.809   6.109  13.432  1.00  0.00     0.021 C 
HETATM   15  C23 UNL     1      -3.853   6.789  14.333  1.00  0.00    -0.024 C 
HETATM   16  C24 UNL     1      -3.781   6.155  15.752  1.00  0.00     0.017 C 
HETATM   17  C25 UNL     1       1.258   8.007  13.211  1.00  0.00     0.037 C 
HETATM   18  C26 UNL     1       2.649   8.022  13.825  1.00  0.00     0.037 C 
HETATM   19  C27 UNL     1       2.993   9.396  14.397  1.00  0.00     0.133 C 
HETATM   20  C33 UNL     1       1.947   9.850  15.463  1.00  0.00    -0.014 C 
HETATM   21  C34 UNL     1       2.001   8.925  16.705  1.00  0.00     0.018 C 
HETATM   22  C35 UNL     1       2.331  11.276  15.933  1.00  0.00     0.018 C 
ENDROOT
BRANCH  19  23
HETATM   23  O5  UNL     1       4.299   9.376  14.983  1.00  0.00    -0.353 OA
BRANCH  23  24
HETATM   24  C28 UNL     1       5.365   9.152  14.054  1.00  0.00     0.291 C 
HETATM   25  O6  UNL     1       5.110   9.911  12.864  1.00  0.00    -0.356 OA
HETATM   26  C29 UNL     1       4.941   9.134  11.684  1.00  0.00     0.205 C 
HETATM   27  C30 UNL     1       6.173   8.262  11.457  1.00  0.00     0.173 C 
HETATM   28  C31 UNL     1       6.372   7.297  12.636  1.00  0.00     0.182 C 
HETATM   29  C32 UNL     1       5.478   7.627  13.832  1.00  0.00     0.204 C 
BRANCH  27  30
HETATM   30  O7  UNL     1       6.109   7.530  10.229  1.00  0.00    -0.391 OA
HETATM   31  H46 UNL     1       6.276   8.165   9.512  1.00  0.00     0.210 HD
ENDBRANCH  27  30
BRANCH  28  32
HETATM   32  O8  UNL     1       6.101   5.940  12.241  1.00  0.00    -0.390 OA
HETATM   33  H48 UNL     1       6.218   5.931  11.267  1.00  0.00     0.210 HD
ENDBRANCH  28  32
BRANCH  29  34
HETATM   34  O9  UNL     1       6.005   6.962  14.992  1.00  0.00    -0.388 OA
HETATM   35  H50 UNL     1       6.038   6.017  14.752  1.00  0.00     0.210 HD
ENDBRANCH  29  34
ENDBRANCH  23  24
ENDBRANCH  19  23
BRANCH  13  36
HETATM   36  C21 UNL     1      -0.632   5.411  14.613  1.00  0.00     0.173 C 
BRANCH  36  37
HETATM   37  O4  UNL     1       0.373   4.745  13.855  1.00  0.00    -0.400 OA
HETATM   38  H31 UNL     1       0.785   4.087  14.449  1.00  0.00     0.209 HD
ENDBRANCH  36  37
ENDBRANCH  13  36
BRANCH   1  39
HETATM   39  C2  UNL     1      -6.205   5.476  14.175  1.00  0.00     0.000 C 
HETATM   40  C1  UNL     1      -6.280   4.512  12.984  1.00  0.00     0.011 C 
BRANCH  39  41
HETATM   41  C3  UNL     1      -7.656   5.834  14.591  1.00  0.00     0.083 C 
BRANCH  41  42
HETATM   42  C4  UNL     1      -8.699   5.472  13.534  1.00  0.00     0.130 C 
HETATM   43  O1  UNL     1      -8.962   4.302  13.247  1.00  0.00    -0.298 OA
BRANCH  42  44
HETATM   44  C5  UNL     1      -9.372   6.643  12.833  1.00  0.00     0.115 C 
BRANCH  44  45
HETATM   45  C6  UNL     1     -10.672   7.127  13.500  1.00  0.00     0.057 C 
HETATM   46  C7  UNL     1     -11.722   7.577  12.475  1.00  0.00     0.045 C 
HETATM   47  C8  UNL     1     -10.350   8.291  14.443  1.00  0.00     0.045 C 
BRANCH  45  48
HETATM   48  O2  UNL     1     -11.230   6.092  14.315  1.00  0.00    -0.390 OA
HETATM   49  H15 UNL     1     -11.372   5.319  13.727  1.00  0.00     0.210 HD
ENDBRANCH  45  48
ENDBRANCH  44  45
ENDBRANCH  42  44
ENDBRANCH  41  42
ENDBRANCH  39  41
ENDBRANCH   1  39
TORSDOF 13
ENDMDL
MODEL 7
REMARK minimizedAffinity -8.53617573
REMARK CNNscore 0.407746434
REMARK CNNaffinity 7.30461311
REMARK  13 active torsions:
REMARK  status: ('A' for Active; 'I' for Inactive)
REMARK    1  A    between atoms: C2_2  and  C3_3 
REMARK    2  A    between atoms: C2_2  and  C9_11 
REMARK    3  A    between atoms: C3_3  and  C4_4 
REMARK    4  A    between atoms: C4_4  and  C5_6 
REMARK    5  A    between atoms: C5_6  and  C6_7 
REMARK    6  A    between atoms: C6_7  and  O2_10 
REMARK    7  A    between atoms: C20_23  and  C21_24 
REMARK    8  A    between atoms: C21_24  and  O4_25 
REMARK    9  A    between atoms: C27_31  and  O5_32 
REMARK   10  A    between atoms: O5_32  and  C28_33 
REMARK   11  A    between atoms: C30_36  and  O7_37 
REMARK   12  A    between atoms: C31_38  and  O8_39 
REMARK   13  A    between atoms: C32_40  and  O9_41 
ROOT
HETATM    1  C9  UNL     1      -4.764   6.329  15.076  1.00  0.00     0.068 C 
HETATM    2  C10 UNL     1      -4.496   7.699  15.721  1.00  0.00     0.133 C 
HETATM    3  O3  UNL     1      -3.484   7.985  16.351  1.00  0.00    -0.298 OA
HETATM    4  C11 UNL     1      -5.665   8.655  15.586  1.00  0.00     0.089 C 
HETATM    5  C12 UNL     1      -6.811   7.673  15.316  1.00  0.00    -0.022 C 
HETATM    6  C13 UNL     1      -7.218   7.059  16.706  1.00  0.00     0.017 C 
HETATM    7  C14 UNL     1      -8.066   8.292  14.639  1.00  0.00     0.024 C 
HETATM    8  C15 UNL     1      -8.650   9.449  15.472  1.00  0.00     0.010 C 
HETATM    9  C16 UNL     1      -9.945   9.933  14.850  1.00  0.00     0.010 C 
HETATM   10  C17 UNL     1     -11.005   8.816  14.859  1.00  0.00     0.025 C 
HETATM   11  C18 UNL     1     -10.431   7.432  14.512  1.00  0.00    -0.072 C 
HETATM   12  C19 UNL     1      -9.103   7.201  14.320  1.00  0.00    -0.066 C 
HETATM   13  C20 UNL     1      -8.560   5.836  13.830  1.00  0.00     0.039 C 
HETATM   14  C22 UNL     1      -7.095   5.448  14.210  1.00  0.00     0.021 C 
HETATM   15  C23 UNL     1      -6.127   6.635  14.347  1.00  0.00    -0.024 C 
HETATM   16  C24 UNL     1      -5.822   7.201  12.930  1.00  0.00     0.017 C 
HETATM   17  C25 UNL     1     -11.491   6.342  14.483  1.00  0.00     0.037 C 
HETATM   18  C26 UNL     1     -12.731   6.697  13.678  1.00  0.00     0.037 C 
HETATM   19  C27 UNL     1     -13.314   8.040  14.113  1.00  0.00     0.133 C 
HETATM   20  C33 UNL     1     -12.263   9.188  13.986  1.00  0.00    -0.014 C 
HETATM   21  C34 UNL     1     -11.895   9.426  12.501  1.00  0.00     0.018 C 
HETATM   22  C35 UNL     1     -12.912  10.493  14.516  1.00  0.00     0.018 C 
ENDROOT
BRANCH  19  23
HETATM   23  O5  UNL     1     -14.468   8.359  13.329  1.00  0.00    -0.353 OA
BRANCH  23  24
HETATM   24  C28 UNL     1     -15.711   7.938  13.902  1.00  0.00     0.291 C 
HETATM   25  O6  UNL     1     -15.533   7.763  15.315  1.00  0.00    -0.356 OA
HETATM   26  C29 UNL     1     -15.746   6.436  15.784  1.00  0.00     0.205 C 
HETATM   27  C30 UNL     1     -17.148   5.971  15.403  1.00  0.00     0.173 C 
HETATM   28  C31 UNL     1     -17.316   5.966  13.876  1.00  0.00     0.182 C 
HETATM   29  C32 UNL     1     -16.167   6.668  13.150  1.00  0.00     0.204 C 
BRANCH  27  30
HETATM   30  O7  UNL     1     -17.461   4.680  15.935  1.00  0.00    -0.391 OA
HETATM   31  H46 UNL     1     -17.628   4.798  16.886  1.00  0.00     0.210 HD
ENDBRANCH  27  30
BRANCH  28  32
HETATM   32  O8  UNL     1     -17.401   4.621  13.372  1.00  0.00    -0.390 OA
HETATM   33  H48 UNL     1     -17.696   4.081  14.137  1.00  0.00     0.210 HD
ENDBRANCH  28  32
BRANCH  29  34
HETATM   34  O9  UNL     1     -16.593   6.973  11.811  1.00  0.00    -0.388 OA
HETATM   35  H50 UNL     1     -16.860   6.116  11.427  1.00  0.00     0.210 HD
ENDBRANCH  29  34
ENDBRANCH  23  24
ENDBRANCH  19  23
BRANCH  13  36
HETATM   36  C21 UNL     1      -8.824   5.659  12.316  1.00  0.00     0.173 C 
BRANCH  36  37
HETATM   37  O4  UNL     1      -7.938   4.682  11.776  1.00  0.00    -0.400 OA
HETATM   38  H31 UNL     1      -8.152   4.601  10.826  1.00  0.00     0.209 HD
ENDBRANCH  36  37
ENDBRANCH  13  36
BRANCH   1  39
HETATM   39  C2  UNL     1      -3.576   5.764  14.240  1.00  0.00     0.000 C 
HETATM   40  C1  UNL     1      -2.415   6.766  14.193  1.00  0.00     0.011 C 
BRANCH  39  41
HETATM   41  C3  UNL     1      -3.969   5.419  12.780  1.00  0.00     0.083 C 
BRANCH  41  42
HETATM   42  C4  UNL     1      -4.069   3.917  12.516  1.00  0.00     0.130 C 
HETATM   43  O1  UNL     1      -5.156   3.339  12.424  1.00  0.00    -0.298 OA
BRANCH  42  44
HETATM   44  C5  UNL     1      -2.749   3.169  12.405  1.00  0.00     0.115 C 
BRANCH  44  45
HETATM   45  C6  UNL     1      -1.986   3.409  11.090  1.00  0.00     0.057 C 
HETATM   46  C7  UNL     1      -1.059   4.630  11.168  1.00  0.00     0.045 C 
HETATM   47  C8  UNL     1      -2.994   3.608   9.953  1.00  0.00     0.045 C 
BRANCH  45  48
HETATM   48  O2  UNL     1      -1.211   2.258  10.745  1.00  0.00    -0.390 OA
HETATM   49  H15 UNL     1      -0.612   2.086  11.503  1.00  0.00     0.210 HD
ENDBRANCH  45  48
ENDBRANCH  44  45
ENDBRANCH  42  44
ENDBRANCH  41  42
ENDBRANCH  39  41
ENDBRANCH   1  39
TORSDOF 13
ENDMDL
MODEL 8
REMARK minimizedAffinity -7.37935257
REMARK CNNscore 0.406814396
REMARK CNNaffinity 6.74291611
REMARK  13 active torsions:
REMARK  status: ('A' for Active; 'I' for Inactive)
REMARK    1  A    between atoms: C2_2  and  C3_3 
REMARK    2  A    between atoms: C2_2  and  C9_11 
REMARK    3  A    between atoms: C3_3  and  C4_4 
REMARK    4  A    between atoms: C4_4  and  C5_6 
REMARK    5  A    between atoms: C5_6  and  C6_7 
REMARK    6  A    between atoms: C6_7  and  O2_10 
REMARK    7  A    between atoms: C20_23  and  C21_24 
REMARK    8  A    between atoms: C21_24  and  O4_25 
REMARK    9  A    between atoms: C27_31  and  O5_32 
REMARK   10  A    between atoms: O5_32  and  C28_33 
REMARK   11  A    between atoms: C30_36  and  O7_37 
REMARK   12  A    between atoms: C31_38  and  O8_39 
REMARK   13  A    between atoms: C32_40  and  O9_41 
ROOT
HETATM    1  C9  UNL     1      -1.767   6.429  12.849  1.00  0.00     0.068 C 
HETATM    2  C10 UNL     1      -3.227   6.718  13.239  1.00  0.00     0.133 C 
HETATM    3  O3  UNL     1      -4.204   6.316  12.618  1.00  0.00    -0.298 OA
HETATM    4  C11 UNL     1      -3.348   7.643  14.432  1.00  0.00     0.089 C 
HETATM    5  C12 UNL     1      -1.968   8.311  14.421  1.00  0.00    -0.022 C 
HETATM    6  C13 UNL     1      -2.010   9.420  13.306  1.00  0.00     0.017 C 
HETATM    7  C14 UNL     1      -1.533   8.952  15.769  1.00  0.00     0.024 C 
HETATM    8  C15 UNL     1      -2.544  10.013  16.247  1.00  0.00     0.010 C 
HETATM    9  C16 UNL     1      -2.017  10.708  17.487  1.00  0.00     0.010 C 
HETATM   10  C17 UNL     1      -0.712  11.463  17.176  1.00  0.00     0.025 C 
HETATM   11  C18 UNL     1       0.234  10.684  16.246  1.00  0.00    -0.072 C 
HETATM   12  C19 UNL     1      -0.097   9.494  15.673  1.00  0.00    -0.066 C 
HETATM   13  C20 UNL     1       0.919   8.655  14.859  1.00  0.00     0.039 C 
HETATM   14  C22 UNL     1       0.363   7.688  13.765  1.00  0.00     0.021 C 
HETATM   15  C23 UNL     1      -1.025   7.099  14.068  1.00  0.00    -0.024 C 
HETATM   16  C24 UNL     1      -0.888   6.051  15.210  1.00  0.00     0.017 C 
HETATM   17  C25 UNL     1       1.538  11.418  15.977  1.00  0.00     0.037 C 
HETATM   18  C26 UNL     1       2.225  11.949  17.225  1.00  0.00     0.037 C 
HETATM   19  C27 UNL     1       1.271  12.785  18.076  1.00  0.00     0.133 C 
HETATM   20  C33 UNL     1       0.005  11.968  18.485  1.00  0.00    -0.014 C 
HETATM   21  C34 UNL     1       0.392  10.802  19.428  1.00  0.00     0.018 C 
HETATM   22  C35 UNL     1      -0.937  12.911  19.279  1.00  0.00     0.018 C 
ENDROOT
BRANCH  19  23
HETATM   23  O5  UNL     1       1.938  13.257  19.252  1.00  0.00    -0.353 OA
BRANCH  23  24
HETATM   24  C28 UNL     1       2.223  14.660  19.251  1.00  0.00     0.291 C 
HETATM   25  O6  UNL     1       3.470  14.879  18.578  1.00  0.00    -0.356 OA
HETATM   26  C29 UNL     1       4.494  15.450  19.386  1.00  0.00     0.205 C 
HETATM   27  C30 UNL     1       4.012  16.774  19.973  1.00  0.00     0.173 C 
HETATM   28  C31 UNL     1       2.777  16.550  20.859  1.00  0.00     0.182 C 
HETATM   29  C32 UNL     1       2.190  15.145  20.718  1.00  0.00     0.204 C 
BRANCH  27  30
HETATM   30  O7  UNL     1       5.032  17.448  20.715  1.00  0.00    -0.391 OA
HETATM   31  H46 UNL     1       5.653  17.822  20.067  1.00  0.00     0.210 HD
ENDBRANCH  27  30
BRANCH  28  32
HETATM   32  O8  UNL     1       3.094  16.760  22.247  1.00  0.00    -0.390 OA
HETATM   33  H48 UNL     1       3.891  17.333  22.241  1.00  0.00     0.210 HD
ENDBRANCH  28  32
BRANCH  29  34
HETATM   34  O9  UNL     1       0.851  15.156  21.239  1.00  0.00    -0.388 OA
HETATM   35  H50 UNL     1       0.937  15.475  22.158  1.00  0.00     0.210 HD
ENDBRANCH  29  34
ENDBRANCH  23  24
ENDBRANCH  19  23
BRANCH  13  36
HETATM   36  C21 UNL     1       1.913   7.939  15.803  1.00  0.00     0.173 C 
BRANCH  36  37
HETATM   37  O4  UNL     1       2.473   6.802  15.152  1.00  0.00    -0.400 OA
HETATM   38  H31 UNL     1       3.098   6.394  15.783  1.00  0.00     0.209 HD
ENDBRANCH  36  37
ENDBRANCH  13  36
BRANCH   1  39
HETATM   39  C2  UNL     1      -1.469   4.935  12.518  1.00  0.00     0.000 C 
HETATM   40  C1  UNL     1       0.038   4.699  12.362  1.00  0.00     0.011 C 
BRANCH  39  41
HETATM   41  C3  UNL     1      -2.166   4.451  11.220  1.00  0.00     0.083 C 
BRANCH  41  42
HETATM   42  C4  UNL     1      -2.237   2.928  11.099  1.00  0.00     0.130 C 
HETATM   43  O1  UNL     1      -1.445   2.288  10.403  1.00  0.00    -0.298 OA
BRANCH  42  44
HETATM   44  C5  UNL     1      -3.364   2.251  11.866  1.00  0.00     0.115 C 
BRANCH  44  45
HETATM   45  C6  UNL     1      -4.771   2.524  11.307  1.00  0.00     0.057 C 
HETATM   46  C7  UNL     1      -4.735   3.317   9.994  1.00  0.00     0.045 C 
HETATM   47  C8  UNL     1      -5.584   3.301  12.348  1.00  0.00     0.045 C 
BRANCH  45  48
HETATM   48  O2  UNL     1      -5.469   1.294  11.089  1.00  0.00    -0.390 OA
HETATM   49  H15 UNL     1      -4.916   0.763  10.476  1.00  0.00     0.210 HD
ENDBRANCH  45  48
ENDBRANCH  44  45
ENDBRANCH  42  44
ENDBRANCH  41  42
ENDBRANCH  39  41
ENDBRANCH   1  39
TORSDOF 13
ENDMDL
MODEL 9
REMARK minimizedAffinity -7.2437253
REMARK CNNscore 0.335505843
REMARK CNNaffinity 6.03086519
REMARK  13 active torsions:
REMARK  status: ('A' for Active; 'I' for Inactive)
REMARK    1  A    between atoms: C2_2  and  C3_3 
REMARK    2  A    between atoms: C2_2  and  C9_11 
REMARK    3  A    between atoms: C3_3  and  C4_4 
REMARK    4  A    between atoms: C4_4  and  C5_6 
REMARK    5  A    between atoms: C5_6  and  C6_7 
REMARK    6  A    between atoms: C6_7  and  O2_10 
REMARK    7  A    between atoms: C20_23  and  C21_24 
REMARK    8  A    between atoms: C21_24  and  O4_25 
REMARK    9  A    between atoms: C27_31  and  O5_32 
REMARK   10  A    between atoms: O5_32  and  C28_33 
REMARK   11  A    between atoms: C30_36  and  O7_37 
REMARK   12  A    between atoms: C31_38  and  O8_39 
REMARK   13  A    between atoms: C32_40  and  O9_41 
ROOT
HETATM    1  C9  UNL     1      -6.843 -12.418  -0.885  1.00  0.00     0.068 C 
HETATM    2  C10 UNL     1      -5.592 -13.312  -0.927  1.00  0.00     0.133 C 
HETATM    3  O3  UNL     1      -5.331 -14.101  -1.829  1.00  0.00    -0.298 OA
HETATM    4  C11 UNL     1      -4.741 -13.197   0.321  1.00  0.00     0.089 C 
HETATM    5  C12 UNL     1      -5.761 -12.628   1.314  1.00  0.00    -0.022 C 
HETATM    6  C13 UNL     1      -6.650 -13.834   1.792  1.00  0.00     0.017 C 
HETATM    7  C14 UNL     1      -5.150 -11.915   2.554  1.00  0.00     0.024 C 
HETATM    8  C15 UNL     1      -4.221 -12.853   3.349  1.00  0.00     0.010 C 
HETATM    9  C16 UNL     1      -3.756 -12.167   4.619  1.00  0.00     0.010 C 
HETATM   10  C17 UNL     1      -4.950 -11.858   5.540  1.00  0.00     0.025 C 
HETATM   11  C18 UNL     1      -6.190 -11.355   4.779  1.00  0.00    -0.072 C 
HETATM   12  C19 UNL     1      -6.257 -11.292   3.421  1.00  0.00    -0.066 C 
HETATM   13  C20 UNL     1      -7.455 -10.650   2.679  1.00  0.00     0.039 C 
HETATM   14  C22 UNL     1      -7.767 -11.136   1.227  1.00  0.00     0.021 C 
HETATM   15  C23 UNL     1      -6.538 -11.589   0.420  1.00  0.00    -0.024 C 
HETATM   16  C24 UNL     1      -5.701 -10.336   0.035  1.00  0.00     0.017 C 
HETATM   17  C25 UNL     1      -7.351 -11.013   5.700  1.00  0.00     0.037 C 
HETATM   18  C26 UNL     1      -6.974 -10.134   6.882  1.00  0.00     0.037 C 
HETATM   19  C27 UNL     1      -5.791 -10.714   7.655  1.00  0.00     0.133 C 
HETATM   20  C33 UNL     1      -4.546 -10.912   6.733  1.00  0.00    -0.014 C 
HETATM   21  C34 UNL     1      -4.012  -9.544   6.241  1.00  0.00     0.018 C 
HETATM   22  C35 UNL     1      -3.425 -11.569   7.578  1.00  0.00     0.018 C 
ENDROOT
BRANCH  19  23
HETATM   23  O5  UNL     1      -5.446  -9.858   8.750  1.00  0.00    -0.353 OA
BRANCH  23  24
HETATM   24  C28 UNL     1      -6.136 -10.148   9.971  1.00  0.00     0.291 C 
HETATM   25  O6  UNL     1      -7.548 -10.063   9.736  1.00  0.00    -0.356 OA
HETATM   26  C29 UNL     1      -8.220  -9.059  10.489  1.00  0.00     0.205 C 
HETATM   27  C30 UNL     1      -7.981  -9.283  11.979  1.00  0.00     0.173 C 
HETATM   28  C31 UNL     1      -6.482  -9.193  12.302  1.00  0.00     0.182 C 
HETATM   29  C32 UNL     1      -5.604  -9.177  11.050  1.00  0.00     0.204 C 
BRANCH  27  30
HETATM   30  O7  UNL     1      -8.714  -8.364  12.796  1.00  0.00    -0.391 OA
HETATM   31  H46 UNL     1      -9.644  -8.650  12.778  1.00  0.00     0.210 HD
ENDBRANCH  27  30
BRANCH  28  32
HETATM   32  O8  UNL     1      -6.189  -8.007  13.062  1.00  0.00    -0.390 OA
HETATM   33  H48 UNL     1      -7.040  -7.760  13.485  1.00  0.00     0.210 HD
ENDBRANCH  28  32
BRANCH  29  34
HETATM   34  O9  UNL     1      -4.257  -9.502  11.433  1.00  0.00    -0.388 OA
HETATM   35  H50 UNL     1      -4.019  -8.841  12.111  1.00  0.00     0.210 HD
ENDBRANCH  29  34
ENDBRANCH  23  24
ENDBRANCH  19  23
BRANCH  13  36
HETATM   36  C21 UNL     1      -7.380  -9.107   2.761  1.00  0.00     0.173 C 
BRANCH  36  37
HETATM   37  O4  UNL     1      -8.693  -8.557   2.826  1.00  0.00    -0.400 OA
HETATM   38  H31 UNL     1      -8.590  -7.587   2.887  1.00  0.00     0.209 HD
ENDBRANCH  36  37
ENDBRANCH  13  36
BRANCH   1  39
HETATM   39  C2  UNL     1      -7.134 -11.652  -2.211  1.00  0.00     0.000 C 
HETATM   40  C1  UNL     1      -5.898 -11.640  -3.119  1.00  0.00     0.011 C 
BRANCH  39  41
HETATM   41  C3  UNL     1      -7.572 -10.182  -1.980  1.00  0.00     0.083 C 
BRANCH  41  42
HETATM   42  C4  UNL     1      -8.858  -9.807  -2.717  1.00  0.00     0.130 C 
HETATM   43  O1  UNL     1      -9.270 -10.451  -3.685  1.00  0.00    -0.298 OA
BRANCH  42  44
HETATM   44  C5  UNL     1      -9.585  -8.572  -2.204  1.00  0.00     0.115 C 
BRANCH  44  45
HETATM   45  C6  UNL     1      -9.425  -7.323  -3.087  1.00  0.00     0.057 C 
HETATM   46  C7  UNL     1     -10.485  -7.252  -4.195  1.00  0.00     0.045 C 
HETATM   47  C8  UNL     1      -8.029  -7.329  -3.719  1.00  0.00     0.045 C 
BRANCH  45  48
HETATM   48  O2  UNL     1      -9.503  -6.136  -2.293  1.00  0.00    -0.390 OA
HETATM   49  H15 UNL     1     -10.368  -6.164  -1.831  1.00  0.00     0.210 HD
ENDBRANCH  45  48
ENDBRANCH  44  45
ENDBRANCH  42  44
ENDBRANCH  41  42
ENDBRANCH  39  41
ENDBRANCH   1  39
TORSDOF 13
ENDMDL
