MODEL 1
REMARK minimizedAffinity -7.76705694
REMARK CNNscore 0.436283529
REMARK CNNaffinity 6.82301664
REMARK  12 active torsions:
REMARK  status: ('A' for Active; 'I' for Inactive)
REMARK    1  A    between atoms: O1_2  and  C2_3 
REMARK    2  A    between atoms: C2_3  and  C5_6 
REMARK    3  A    between atoms: C6_7  and  C7_8 
REMARK    4  A    between atoms: C7_8  and  C8_9 
REMARK    5  A    between atoms: C8_9  and  C10_11 
REMARK    6  A    between atoms: C28_31  and  O4_32 
REMARK    7  A    between atoms: O4_32  and  C29_33 
REMARK    8  A    between atoms: C30_35  and  C31_36 
REMARK    9  A    between atoms: C31_36  and  O6_37 
REMARK   10  A    between atoms: C32_38  and  O7_39 
REMARK   11  A    between atoms: C33_40  and  O8_41 
REMARK   12  A    between atoms: C34_42  and  O9_43 
ROOT
HETATM    1  C10 UNL     1      -9.078  47.241 -23.162  1.00  0.00    -0.002 C 
HETATM    2  C11 UNL     1      -7.688  47.904 -22.915  1.00  0.00     0.006 C 
HETATM    3  C12 UNL     1      -6.928  47.921 -24.262  1.00  0.00     0.011 C 
HETATM    4  C13 UNL     1      -7.973  47.488 -25.306  1.00  0.00    -0.028 C 
HETATM    5  C14 UNL     1      -8.776  48.779 -25.665  1.00  0.00     0.016 C 
HETATM    6  C15 UNL     1      -7.394  46.833 -26.595  1.00  0.00     0.035 C 
HETATM    7  C16 UNL     1      -6.511  47.772 -27.392  1.00  0.00    -0.021 C 
HETATM    8  C17 UNL     1      -6.691  47.950 -28.708  1.00  0.00     0.009 C 
HETATM    9  C18 UNL     1      -7.832  47.275 -29.469  1.00  0.00     0.102 C 
HETATM   10  O2  UNL     1      -7.429  45.901 -29.606  1.00  0.00    -0.304 OA
HETATM   11  C19 UNL     1      -7.747  45.228 -28.449  1.00  0.00     0.270 C 
HETATM   12  O3  UNL     1      -7.430  44.069 -28.235  1.00  0.00    -0.264 OA
HETATM   13  C20 UNL     1      -8.503  46.162 -27.492  1.00  0.00     0.062 C 
HETATM   14  C21 UNL     1      -9.549  45.361 -26.667  1.00  0.00     0.022 C 
HETATM   15  C22 UNL     1      -9.998  45.984 -25.330  1.00  0.00     0.011 C 
HETATM   16  C23 UNL     1      -8.798  46.432 -24.477  1.00  0.00    -0.032 C 
HETATM   17  C24 UNL     1      -7.987  45.146 -24.100  1.00  0.00     0.016 C 
HETATM   18  C25 UNL     1      -9.069  47.141 -28.556  1.00  0.00     0.045 C 
HETATM   19  C26 UNL     1     -10.313  46.599 -29.286  1.00  0.00     0.012 C 
HETATM   20  C27 UNL     1     -10.602  47.345 -30.577  1.00  0.00     0.033 C 
HETATM   21  C28 UNL     1      -9.403  47.325 -31.528  1.00  0.00     0.136 C 
HETATM   22  C35 UNL     1      -8.131  47.944 -30.860  1.00  0.00     0.015 C 
HETATM   23  C36 UNL     1      -8.359  49.470 -30.698  1.00  0.00     0.021 C 
HETATM   24  C37 UNL     1      -6.941  47.756 -31.838  1.00  0.00     0.021 C 
ENDROOT
BRANCH  21  25
HETATM   25  O4  UNL     1      -9.097  45.990 -31.938  1.00  0.00    -0.352 OA
BRANCH  25  26
HETATM   26  C29 UNL     1      -9.265  45.726 -33.332  1.00  0.00     0.292 C 
HETATM   27  O5  UNL     1     -10.646  45.723 -33.682  1.00  0.00    -0.348 OA
HETATM   28  C30 UNL     1     -10.846  45.636 -35.113  1.00  0.00     0.179 C 
HETATM   29  C32 UNL     1      -9.777  44.797 -35.840  1.00  0.00     0.180 C 
HETATM   30  C33 UNL     1      -9.195  43.727 -34.910  1.00  0.00     0.183 C 
HETATM   31  C34 UNL     1      -8.687  44.319 -33.581  1.00  0.00     0.204 C 
BRANCH  28  32
HETATM   32  C31 UNL     1     -12.245  45.041 -35.308  1.00  0.00     0.198 C 
BRANCH  32  33
HETATM   33  O6  UNL     1     -12.295  43.736 -34.733  1.00  0.00    -0.398 OA
HETATM   34  H46 UNL     1     -11.456  43.304 -34.984  1.00  0.00     0.209 HD
ENDBRANCH  32  33
ENDBRANCH  28  32
BRANCH  29  35
HETATM   35  O7  UNL     1      -8.705  45.657 -36.265  1.00  0.00    -0.390 OA
HETATM   36  H48 UNL     1      -8.000  45.044 -36.573  1.00  0.00     0.210 HD
ENDBRANCH  29  35
BRANCH  30  37
HETATM   37  O8  UNL     1      -8.127  43.045 -35.591  1.00  0.00    -0.390 OA
HETATM   38  H50 UNL     1      -7.325  43.225 -35.053  1.00  0.00     0.210 HD
ENDBRANCH  30  37
BRANCH  31  39
HETATM   39  O9  UNL     1      -7.241  44.331 -33.568  1.00  0.00    -0.388 OA
HETATM   40  H52 UNL     1      -6.998  44.724 -32.702  1.00  0.00     0.210 HD
ENDBRANCH  31  39
ENDBRANCH  25  26
ENDBRANCH  21  25
BRANCH   1  41
HETATM   41  C8  UNL     1      -9.674  46.486 -21.933  1.00  0.00    -0.010 C 
HETATM   42  C9  UNL     1      -8.571  45.821 -21.093  1.00  0.00     0.010 C 
BRANCH  41  43
HETATM   43  C7  UNL     1     -10.769  45.436 -22.258  1.00  0.00     0.031 C 
BRANCH  43  44
HETATM   44  C6  UNL     1     -12.179  45.947 -22.353  1.00  0.00    -0.027 C 
HETATM   45  C5  UNL     1     -12.823  46.564 -21.344  1.00  0.00     0.006 C 
BRANCH  45  46
HETATM   46  C2  UNL     1     -14.205  47.187 -21.429  1.00  0.00     0.070 C 
HETATM   47  C3  UNL     1     -15.220  46.404 -20.585  1.00  0.00     0.050 C 
HETATM   48  C4  UNL     1     -14.663  47.161 -22.894  1.00  0.00     0.050 C 
BRANCH  46  49
HETATM   49  O1  UNL     1     -14.168  48.578 -21.058  1.00  0.00    -0.382 OA
HETATM   50  C1  UNL     1     -13.787  48.860 -19.718  1.00  0.00     0.202 C 
ENDBRANCH  46  49
ENDBRANCH  45  46
ENDBRANCH  43  44
ENDBRANCH  41  43
ENDBRANCH   1  41
TORSDOF 12
ENDMDL
MODEL 2
REMARK minimizedAffinity -8.81795216
REMARK CNNscore 0.39443469
REMARK CNNaffinity 7.18222475
REMARK  12 active torsions:
REMARK  status: ('A' for Active; 'I' for Inactive)
REMARK    1  A    between atoms: O1_2  and  C2_3 
REMARK    2  A    between atoms: C2_3  and  C5_6 
REMARK    3  A    between atoms: C6_7  and  C7_8 
REMARK    4  A    between atoms: C7_8  and  C8_9 
REMARK    5  A    between atoms: C8_9  and  C10_11 
REMARK    6  A    between atoms: C28_31  and  O4_32 
REMARK    7  A    between atoms: O4_32  and  C29_33 
REMARK    8  A    between atoms: C30_35  and  C31_36 
REMARK    9  A    between atoms: C31_36  and  O6_37 
REMARK   10  A    between atoms: C32_38  and  O7_39 
REMARK   11  A    between atoms: C33_40  and  O8_41 
REMARK   12  A    between atoms: C34_42  and  O9_43 
ROOT
HETATM    1  C10 UNL     1       0.137  51.523 -20.594  1.00  0.00    -0.002 C 
HETATM    2  C11 UNL     1      -0.171  52.356 -19.311  1.00  0.00     0.006 C 
HETATM    3  C12 UNL     1      -1.477  51.805 -18.694  1.00  0.00     0.011 C 
HETATM    4  C13 UNL     1      -1.773  50.521 -19.488  1.00  0.00    -0.028 C 
HETATM    5  C14 UNL     1      -0.908  49.401 -18.826  1.00  0.00     0.016 C 
HETATM    6  C15 UNL     1      -3.272  50.095 -19.530  1.00  0.00     0.035 C 
HETATM    7  C16 UNL     1      -3.833  49.765 -18.161  1.00  0.00    -0.021 C 
HETATM    8  C17 UNL     1      -4.500  48.624 -17.937  1.00  0.00     0.009 C 
HETATM    9  C18 UNL     1      -4.677  47.562 -19.022  1.00  0.00     0.102 C 
HETATM   10  O2  UNL     1      -5.678  48.094 -19.907  1.00  0.00    -0.304 OA
HETATM   11  C19 UNL     1      -5.074  48.958 -20.793  1.00  0.00     0.270 C 
HETATM   12  O3  UNL     1      -5.691  49.638 -21.596  1.00  0.00    -0.264 OA
HETATM   13  C20 UNL     1      -3.553  48.949 -20.576  1.00  0.00     0.062 C 
HETATM   14  C21 UNL     1      -2.812  49.163 -21.924  1.00  0.00     0.022 C 
HETATM   15  C22 UNL     1      -1.374  49.711 -21.843  1.00  0.00     0.011 C 
HETATM   16  C23 UNL     1      -1.283  50.942 -20.925  1.00  0.00    -0.032 C 
HETATM   17  C24 UNL     1      -2.139  52.078 -21.580  1.00  0.00     0.016 C 
HETATM   18  C25 UNL     1      -3.438  47.536 -19.943  1.00  0.00     0.045 C 
HETATM   19  C26 UNL     1      -3.471  46.397 -20.979  1.00  0.00     0.012 C 
HETATM   20  C27 UNL     1      -3.778  45.047 -20.354  1.00  0.00     0.033 C 
HETATM   21  C28 UNL     1      -5.096  45.067 -19.576  1.00  0.00     0.136 C 
HETATM   22  C35 UNL     1      -5.083  46.155 -18.452  1.00  0.00     0.015 C 
HETATM   23  C36 UNL     1      -4.090  45.703 -17.348  1.00  0.00     0.021 C 
HETATM   24  C37 UNL     1      -6.495  46.196 -17.812  1.00  0.00     0.021 C 
ENDROOT
BRANCH  21  25
HETATM   25  O4  UNL     1      -6.200  45.325 -20.445  1.00  0.00    -0.352 OA
BRANCH  25  26
HETATM   26  C29 UNL     1      -6.913  44.169 -20.888  1.00  0.00     0.292 C 
HETATM   27  O5  UNL     1      -6.326  42.983 -20.363  1.00  0.00    -0.348 OA
HETATM   28  C30 UNL     1      -7.124  41.808 -20.644  1.00  0.00     0.179 C 
HETATM   29  C32 UNL     1      -7.869  41.871 -21.993  1.00  0.00     0.180 C 
HETATM   30  C33 UNL     1      -7.113  42.751 -22.995  1.00  0.00     0.183 C 
HETATM   31  C34 UNL     1      -6.793  44.146 -22.425  1.00  0.00     0.204 C 
BRANCH  28  32
HETATM   32  C31 UNL     1      -6.157  40.620 -20.600  1.00  0.00     0.198 C 
BRANCH  32  33
HETATM   33  O6  UNL     1      -4.893  41.049 -20.096  1.00  0.00    -0.398 OA
HETATM   34  H46 UNL     1      -4.715  41.909 -20.524  1.00  0.00     0.209 HD
ENDBRANCH  32  33
ENDBRANCH  28  32
BRANCH  29  35
HETATM   35  O7  UNL     1      -9.175  42.439 -21.789  1.00  0.00    -0.390 OA
HETATM   36  H48 UNL     1      -9.524  42.593 -22.695  1.00  0.00     0.210 HD
ENDBRANCH  29  35
BRANCH  30  37
HETATM   37  O8  UNL     1      -7.897  42.872 -24.195  1.00  0.00    -0.390 OA
HETATM   38  H50 UNL     1      -8.094  43.832 -24.275  1.00  0.00     0.210 HD
ENDBRANCH  30  37
BRANCH  31  39
HETATM   39  O9  UNL     1      -7.647  45.137 -23.038  1.00  0.00    -0.388 OA
HETATM   40  H52 UNL     1      -7.389  45.988 -22.622  1.00  0.00     0.210 HD
ENDBRANCH  31  39
ENDBRANCH  25  26
ENDBRANCH  21  25
BRANCH   1  41
HETATM   41  C8  UNL     1       0.906  52.295 -21.710  1.00  0.00    -0.010 C 
HETATM   42  C9  UNL     1       1.657  53.510 -21.138  1.00  0.00     0.010 C 
BRANCH  41  43
HETATM   43  C7  UNL     1       0.051  52.752 -22.921  1.00  0.00     0.031 C 
BRANCH  43  44
HETATM   44  C6  UNL     1       0.282  52.024 -24.216  1.00  0.00    -0.027 C 
HETATM   45  C5  UNL     1       0.458  52.639 -25.400  1.00  0.00     0.006 C 
BRANCH  45  46
HETATM   46  C2  UNL     1       0.797  51.951 -26.711  1.00  0.00     0.070 C 
HETATM   47  C3  UNL     1       0.080  50.599 -26.831  1.00  0.00     0.050 C 
HETATM   48  C4  UNL     1       2.313  51.706 -26.756  1.00  0.00     0.050 C 
BRANCH  46  49
HETATM   49  O1  UNL     1       0.508  52.806 -27.834  1.00  0.00    -0.382 OA
HETATM   50  C1  UNL     1      -0.153  54.028 -27.537  1.00  0.00     0.202 C 
ENDBRANCH  46  49
ENDBRANCH  45  46
ENDBRANCH  43  44
ENDBRANCH  41  43
ENDBRANCH   1  41
TORSDOF 12
ENDMDL
MODEL 3
REMARK minimizedAffinity -9.15608883
REMARK CNNscore 0.314906418
REMARK CNNaffinity 6.81643152
REMARK  12 active torsions:
REMARK  status: ('A' for Active; 'I' for Inactive)
REMARK    1  A    between atoms: O1_2  and  C2_3 
REMARK    2  A    between atoms: C2_3  and  C5_6 
REMARK    3  A    between atoms: C6_7  and  C7_8 
REMARK    4  A    between atoms: C7_8  and  C8_9 
REMARK    5  A    between atoms: C8_9  and  C10_11 
REMARK    6  A    between atoms: C28_31  and  O4_32 
REMARK    7  A    between atoms: O4_32  and  C29_33 
REMARK    8  A    between atoms: C30_35  and  C31_36 
REMARK    9  A    between atoms: C31_36  and  O6_37 
REMARK   10  A    between atoms: C32_38  and  O7_39 
REMARK   11  A    between atoms: C33_40  and  O8_41 
REMARK   12  A    between atoms: C34_42  and  O9_43 
ROOT
HETATM    1  C10 UNL     1      -6.384  45.771 -19.033  1.00  0.00    -0.002 C 
HETATM    2  C11 UNL     1      -6.763  46.795 -17.919  1.00  0.00     0.006 C 
HETATM    3  C12 UNL     1      -6.068  48.134 -18.253  1.00  0.00     0.011 C 
HETATM    4  C13 UNL     1      -5.496  47.936 -19.668  1.00  0.00    -0.028 C 
HETATM    5  C14 UNL     1      -6.677  48.225 -20.650  1.00  0.00     0.016 C 
HETATM    6  C15 UNL     1      -4.268  48.826 -20.020  1.00  0.00     0.035 C 
HETATM    7  C16 UNL     1      -4.585  50.308 -20.006  1.00  0.00    -0.021 C 
HETATM    8  C17 UNL     1      -4.254  51.103 -21.033  1.00  0.00     0.009 C 
HETATM    9  C18 UNL     1      -3.602  50.556 -22.303  1.00  0.00     0.102 C 
HETATM   10  O2  UNL     1      -2.237  50.288 -21.938  1.00  0.00    -0.304 OA
HETATM   11  C19 UNL     1      -2.175  49.057 -21.327  1.00  0.00     0.270 C 
HETATM   12  O3  UNL     1      -1.161  48.609 -20.816  1.00  0.00    -0.264 OA
HETATM   13  C20 UNL     1      -3.557  48.387 -21.358  1.00  0.00     0.062 C 
HETATM   14  C21 UNL     1      -3.410  46.846 -21.490  1.00  0.00     0.022 C 
HETATM   15  C22 UNL     1      -4.601  45.994 -21.006  1.00  0.00     0.011 C 
HETATM   16  C23 UNL     1      -5.074  46.419 -19.606  1.00  0.00    -0.032 C 
HETATM   17  C24 UNL     1      -3.904  46.126 -18.607  1.00  0.00     0.016 C 
HETATM   18  C25 UNL     1      -4.125  49.133 -22.596  1.00  0.00     0.045 C 
HETATM   19  C26 UNL     1      -3.627  48.562 -23.937  1.00  0.00     0.012 C 
HETATM   20  C27 UNL     1      -3.834  49.523 -25.094  1.00  0.00     0.033 C 
HETATM   21  C28 UNL     1      -3.168  50.877 -24.837  1.00  0.00     0.136 C 
HETATM   22  C35 UNL     1      -3.703  51.540 -23.525  1.00  0.00     0.015 C 
HETATM   23  C36 UNL     1      -5.175  51.971 -23.762  1.00  0.00     0.021 C 
HETATM   24  C37 UNL     1      -2.880  52.831 -23.273  1.00  0.00     0.021 C 
ENDROOT
BRANCH  21  25
HETATM   25  O4  UNL     1      -1.750  50.737 -24.729  1.00  0.00    -0.352 OA
BRANCH  25  26
HETATM   26  C29 UNL     1      -1.007  51.136 -25.882  1.00  0.00     0.292 C 
HETATM   27  O5  UNL     1       0.380  50.860 -25.710  1.00  0.00    -0.348 OA
HETATM   28  C30 UNL     1       1.136  51.085 -26.923  1.00  0.00     0.179 C 
HETATM   29  C32 UNL     1       0.594  52.241 -27.788  1.00  0.00     0.180 C 
HETATM   30  C33 UNL     1      -0.118  53.286 -26.922  1.00  0.00     0.183 C 
HETATM   31  C34 UNL     1      -1.198  52.660 -26.018  1.00  0.00     0.204 C 
BRANCH  28  32
HETATM   32  C31 UNL     1       2.578  51.355 -26.478  1.00  0.00     0.198 C 
BRANCH  32  33
HETATM   33  O6  UNL     1       3.281  52.032 -27.518  1.00  0.00    -0.398 OA
HETATM   34  H46 UNL     1       3.018  51.589 -28.348  1.00  0.00     0.209 HD
ENDBRANCH  32  33
ENDBRANCH  28  32
BRANCH  29  35
HETATM   35  O7  UNL     1      -0.354  51.720 -28.738  1.00  0.00    -0.390 OA
HETATM   36  H48 UNL     1      -0.768  52.517 -29.139  1.00  0.00     0.210 HD
ENDBRANCH  29  35
BRANCH  30  37
HETATM   37  O8  UNL     1      -0.703  54.283 -27.777  1.00  0.00    -0.390 OA
HETATM   38  H50 UNL     1      -1.670  54.227 -27.610  1.00  0.00     0.210 HD
ENDBRANCH  30  37
BRANCH  31  39
HETATM   39  O9  UNL     1      -2.512  52.986 -26.521  1.00  0.00    -0.388 OA
HETATM   40  H52 UNL     1      -3.137  52.551 -25.902  1.00  0.00     0.210 HD
ENDBRANCH  31  39
ENDBRANCH  25  26
ENDBRANCH  21  25
BRANCH   1  41
HETATM   41  C8  UNL     1      -6.340  44.282 -18.570  1.00  0.00    -0.010 C 
HETATM   42  C9  UNL     1      -5.120  44.007 -17.674  1.00  0.00     0.010 C 
BRANCH  41  43
HETATM   43  C7  UNL     1      -6.385  43.225 -19.705  1.00  0.00     0.031 C 
BRANCH  43  44
HETATM   44  C6  UNL     1      -5.895  41.847 -19.357  1.00  0.00    -0.027 C 
HETATM   45  C5  UNL     1      -5.820  40.834 -20.240  1.00  0.00     0.006 C 
BRANCH  45  46
HETATM   46  C2  UNL     1      -5.236  39.460 -19.960  1.00  0.00     0.070 C 
HETATM   47  C3  UNL     1      -4.100  39.539 -18.930  1.00  0.00     0.050 C 
HETATM   48  C4  UNL     1      -4.669  38.895 -21.271  1.00  0.00     0.050 C 
BRANCH  46  49
HETATM   49  O1  UNL     1      -6.261  38.536 -19.550  1.00  0.00    -0.382 OA
HETATM   50  C1  UNL     1      -6.784  37.688 -20.563  1.00  0.00     0.202 C 
ENDBRANCH  46  49
ENDBRANCH  45  46
ENDBRANCH  43  44
ENDBRANCH  41  43
ENDBRANCH   1  41
TORSDOF 12
ENDMDL
MODEL 4
REMARK minimizedAffinity -7.61458206
REMARK CNNscore 0.267612398
REMARK CNNaffinity 6.57460642
REMARK  12 active torsions:
REMARK  status: ('A' for Active; 'I' for Inactive)
REMARK    1  A    between atoms: O1_2  and  C2_3 
REMARK    2  A    between atoms: C2_3  and  C5_6 
REMARK    3  A    between atoms: C6_7  and  C7_8 
REMARK    4  A    between atoms: C7_8  and  C8_9 
REMARK    5  A    between atoms: C8_9  and  C10_11 
REMARK    6  A    between atoms: C28_31  and  O4_32 
REMARK    7  A    between atoms: O4_32  and  C29_33 
REMARK    8  A    between atoms: C30_35  and  C31_36 
REMARK    9  A    between atoms: C31_36  and  O6_37 
REMARK   10  A    between atoms: C32_38  and  O7_39 
REMARK   11  A    between atoms: C33_40  and  O8_41 
REMARK   12  A    between atoms: C34_42  and  O9_43 
ROOT
HETATM    1  C10 UNL     1      -3.374  50.543 -22.354  1.00  0.00    -0.002 C 
HETATM    2  C11 UNL     1      -3.877  51.493 -21.223  1.00  0.00     0.006 C 
HETATM    3  C12 UNL     1      -5.153  50.867 -20.615  1.00  0.00     0.011 C 
HETATM    4  C13 UNL     1      -5.233  49.461 -21.237  1.00  0.00    -0.028 C 
HETATM    5  C14 UNL     1      -4.296  48.558 -20.372  1.00  0.00     0.016 C 
HETATM    6  C15 UNL     1      -6.663  48.846 -21.310  1.00  0.00     0.035 C 
HETATM    7  C16 UNL     1      -7.286  48.631 -19.945  1.00  0.00    -0.021 C 
HETATM    8  C17 UNL     1      -7.830  47.455 -19.603  1.00  0.00     0.009 C 
HETATM    9  C18 UNL     1      -7.795  46.244 -20.536  1.00  0.00     0.102 C 
HETATM   10  O2  UNL     1      -8.779  46.522 -21.548  1.00  0.00    -0.304 OA
HETATM   11  C19 UNL     1      -8.214  47.330 -22.507  1.00  0.00     0.270 C 
HETATM   12  O3  UNL     1      -8.842  47.814 -23.435  1.00  0.00    -0.264 OA
HETATM   13  C20 UNL     1      -6.725  47.545 -22.199  1.00  0.00     0.062 C 
HETATM   14  C21 UNL     1      -5.910  47.671 -23.516  1.00  0.00     0.022 C 
HETATM   15  C22 UNL     1      -4.558  48.404 -23.425  1.00  0.00     0.011 C 
HETATM   16  C23 UNL     1      -4.685  49.747 -22.686  1.00  0.00    -0.032 C 
HETATM   17  C24 UNL     1      -5.616  50.668 -23.546  1.00  0.00     0.016 C 
HETATM   18  C25 UNL     1      -6.493  46.255 -21.367  1.00  0.00     0.045 C 
HETATM   19  C26 UNL     1      -6.310  44.993 -22.232  1.00  0.00     0.012 C 
HETATM   20  C27 UNL     1      -6.503  43.710 -21.442  1.00  0.00     0.033 C 
HETATM   21  C28 UNL     1      -7.871  43.664 -20.757  1.00  0.00     0.136 C 
HETATM   22  C35 UNL     1      -8.074  44.884 -19.799  1.00  0.00     0.015 C 
HETATM   23  C36 UNL     1      -7.125  44.714 -18.584  1.00  0.00     0.021 C 
HETATM   24  C37 UNL     1      -9.528  44.830 -19.260  1.00  0.00     0.021 C 
ENDROOT
BRANCH  21  25
HETATM   25  O4  UNL     1      -8.927  43.662 -21.720  1.00  0.00    -0.352 OA
BRANCH  25  26
HETATM   26  C29 UNL     1      -8.754  42.760 -22.814  1.00  0.00     0.292 C 
HETATM   27  O5  UNL     1      -8.906  43.439 -24.057  1.00  0.00    -0.348 OA
HETATM   28  C30 UNL     1      -8.563  42.599 -25.184  1.00  0.00     0.179 C 
HETATM   29  C32 UNL     1      -8.903  41.109 -24.975  1.00  0.00     0.180 C 
HETATM   30  C33 UNL     1     -10.085  40.947 -24.012  1.00  0.00     0.183 C 
HETATM   31  C34 UNL     1      -9.868  41.702 -22.686  1.00  0.00     0.204 C 
BRANCH  28  32
HETATM   32  C31 UNL     1      -9.318  43.176 -26.387  1.00  0.00     0.198 C 
BRANCH  32  33
HETATM   33  O6  UNL     1     -10.320  44.084 -25.932  1.00  0.00    -0.398 OA
HETATM   34  H46 UNL     1     -10.732  43.659 -25.156  1.00  0.00     0.209 HD
ENDBRANCH  32  33
ENDBRANCH  28  32
BRANCH  29  35
HETATM   35  O7  UNL     1      -7.764  40.436 -24.409  1.00  0.00    -0.390 OA
HETATM   36  H48 UNL     1      -8.099  39.546 -24.159  1.00  0.00     0.210 HD
ENDBRANCH  29  35
BRANCH  30  37
HETATM   37  O8  UNL     1     -10.293  39.547 -23.758  1.00  0.00    -0.390 OA
HETATM   38  H50 UNL     1     -10.148  39.438 -22.793  1.00  0.00     0.210 HD
ENDBRANCH  30  37
BRANCH  31  39
HETATM   39  O9  UNL     1      -9.586  40.763 -21.624  1.00  0.00    -0.388 OA
HETATM   40  H52 UNL     1      -9.455  41.315 -20.824  1.00  0.00     0.210 HD
ENDBRANCH  31  39
ENDBRANCH  25  26
ENDBRANCH  21  25
BRANCH   1  41
HETATM   41  C8  UNL     1      -2.616  51.253 -23.519  1.00  0.00    -0.010 C 
HETATM   42  C9  UNL     1      -3.529  52.241 -24.265  1.00  0.00     0.010 C 
BRANCH  41  43
HETATM   43  C7  UNL     1      -1.938  50.312 -24.549  1.00  0.00     0.031 C 
BRANCH  43  44
HETATM   44  C6  UNL     1      -0.652  50.799 -25.156  1.00  0.00    -0.027 C 
HETATM   45  C5  UNL     1      -0.580  51.478 -26.316  1.00  0.00     0.006 C 
BRANCH  45  46
HETATM   46  C2  UNL     1       0.681  52.078 -26.912  1.00  0.00     0.070 C 
HETATM   47  C3  UNL     1       0.842  51.683 -28.386  1.00  0.00     0.050 C 
HETATM   48  C4  UNL     1       1.891  51.548 -26.128  1.00  0.00     0.050 C 
BRANCH  46  49
HETATM   49  O1  UNL     1       0.704  53.508 -26.741  1.00  0.00    -0.382 OA
HETATM   50  C1  UNL     1      -0.213  54.249 -27.534  1.00  0.00     0.202 C 
ENDBRANCH  46  49
ENDBRANCH  45  46
ENDBRANCH  43  44
ENDBRANCH  41  43
ENDBRANCH   1  41
TORSDOF 12
ENDMDL
MODEL 5
REMARK minimizedAffinity -8.28394413
REMARK CNNscore 0.255306005
REMARK CNNaffinity 6.77109385
REMARK  12 active torsions:
REMARK  status: ('A' for Active; 'I' for Inactive)
REMARK    1  A    between atoms: O1_2  and  C2_3 
REMARK    2  A    between atoms: C2_3  and  C5_6 
REMARK    3  A    between atoms: C6_7  and  C7_8 
REMARK    4  A    between atoms: C7_8  and  C8_9 
REMARK    5  A    between atoms: C8_9  and  C10_11 
REMARK    6  A    between atoms: C28_31  and  O4_32 
REMARK    7  A    between atoms: O4_32  and  C29_33 
REMARK    8  A    between atoms: C30_35  and  C31_36 
REMARK    9  A    between atoms: C31_36  and  O6_37 
REMARK   10  A    between atoms: C32_38  and  O7_39 
REMARK   11  A    between atoms: C33_40  and  O8_41 
REMARK   12  A    between atoms: C34_42  and  O9_43 
ROOT
HETATM    1  C10 UNL     1      -0.743  52.168  -8.533  1.00  0.00    -0.002 C 
HETATM    2  C11 UNL     1      -1.800  51.235  -7.866  1.00  0.00     0.006 C 
HETATM    3  C12 UNL     1      -2.578  50.522  -8.996  1.00  0.00     0.011 C 
HETATM    4  C13 UNL     1      -1.807  50.871 -10.282  1.00  0.00    -0.028 C 
HETATM    5  C14 UNL     1      -0.626  49.852 -10.360  1.00  0.00     0.016 C 
HETATM    6  C15 UNL     1      -2.647  50.829 -11.593  1.00  0.00     0.035 C 
HETATM    7  C16 UNL     1      -3.190  49.449 -11.906  1.00  0.00    -0.021 C 
HETATM    8  C17 UNL     1      -3.031  48.894 -13.117  1.00  0.00     0.009 C 
HETATM    9  C18 UNL     1      -2.239  49.585 -14.227  1.00  0.00     0.102 C 
HETATM   10  O2  UNL     1      -3.102  50.632 -14.707  1.00  0.00    -0.304 OA
HETATM   11  C19 UNL     1      -2.976  51.725 -13.880  1.00  0.00     0.270 C 
HETATM   12  O3  UNL     1      -3.665  52.728 -13.979  1.00  0.00    -0.264 OA
HETATM   13  C20 UNL     1      -1.891  51.460 -12.825  1.00  0.00     0.062 C 
HETATM   14  C21 UNL     1      -1.147  52.777 -12.470  1.00  0.00     0.022 C 
HETATM   15  C22 UNL     1      -0.437  52.823 -11.102  1.00  0.00     0.011 C 
HETATM   16  C23 UNL     1      -1.358  52.347  -9.966  1.00  0.00    -0.032 C 
HETATM   17  C24 UNL     1      -2.544  53.365  -9.868  1.00  0.00     0.016 C 
HETATM   18  C25 UNL     1      -1.078  50.402 -13.619  1.00  0.00     0.045 C 
HETATM   19  C26 UNL     1      -0.143  51.016 -14.677  1.00  0.00     0.012 C 
HETATM   20  C27 UNL     1       0.318  50.001 -15.709  1.00  0.00     0.033 C 
HETATM   21  C28 UNL     1      -0.864  49.321 -16.406  1.00  0.00     0.136 C 
HETATM   22  C35 UNL     1      -1.802  48.608 -15.377  1.00  0.00     0.015 C 
HETATM   23  C36 UNL     1      -1.049  47.381 -14.799  1.00  0.00     0.021 C 
HETATM   24  C37 UNL     1      -3.035  48.069 -16.151  1.00  0.00     0.021 C 
ENDROOT
BRANCH  21  25
HETATM   25  O4  UNL     1      -1.637  50.268 -17.145  1.00  0.00    -0.352 OA
BRANCH  25  26
HETATM   26  C29 UNL     1      -1.126  50.596 -18.439  1.00  0.00     0.292 C 
HETATM   27  O5  UNL     1      -0.545  51.896 -18.438  1.00  0.00    -0.348 OA
HETATM   28  C30 UNL     1       0.138  52.189 -19.680  1.00  0.00     0.179 C 
HETATM   29  C32 UNL     1      -0.518  51.546 -20.918  1.00  0.00     0.180 C 
HETATM   30  C33 UNL     1      -2.023  51.353 -20.701  1.00  0.00     0.183 C 
HETATM   31  C34 UNL     1      -2.334  50.592 -19.397  1.00  0.00     0.204 C 
BRANCH  28  32
HETATM   32  C31 UNL     1       0.164  53.717 -19.797  1.00  0.00     0.198 C 
BRANCH  32  33
HETATM   33  O6  UNL     1       1.515  54.170 -19.868  1.00  0.00    -0.398 OA
HETATM   34  H46 UNL     1       2.005  53.644 -19.207  1.00  0.00     0.209 HD
ENDBRANCH  32  33
ENDBRANCH  28  32
BRANCH  29  35
HETATM   35  O7  UNL     1       0.073  50.255 -21.154  1.00  0.00    -0.390 OA
HETATM   36  H48 UNL     1      -0.493  49.844 -21.846  1.00  0.00     0.210 HD
ENDBRANCH  29  35
BRANCH  30  37
HETATM   37  O8  UNL     1      -2.573  50.650 -21.829  1.00  0.00    -0.390 OA
HETATM   38  H50 UNL     1      -2.927  49.811 -21.460  1.00  0.00     0.210 HD
ENDBRANCH  30  37
BRANCH  31  39
HETATM   39  O9  UNL     1      -2.765  49.246 -19.702  1.00  0.00    -0.388 OA
HETATM   40  H52 UNL     1      -2.935  48.830 -18.830  1.00  0.00     0.210 HD
ENDBRANCH  31  39
ENDBRANCH  25  26
ENDBRANCH  21  25
BRANCH   1  41
HETATM   41  C8  UNL     1      -0.381  53.444  -7.711  1.00  0.00    -0.010 C 
HETATM   42  C9  UNL     1      -1.296  53.601  -6.485  1.00  0.00     0.010 C 
BRANCH  41  43
HETATM   43  C7  UNL     1      -0.368  54.774  -8.508  1.00  0.00     0.031 C 
BRANCH  43  44
HETATM   44  C6  UNL     1       0.957  55.477  -8.617  1.00  0.00    -0.027 C 
HETATM   45  C5  UNL     1       2.009  54.989  -9.300  1.00  0.00     0.006 C 
BRANCH  45  46
HETATM   46  C2  UNL     1       3.328  55.710  -9.524  1.00  0.00     0.070 C 
HETATM   47  C3  UNL     1       3.517  56.848  -8.511  1.00  0.00     0.050 C 
HETATM   48  C4  UNL     1       3.321  56.309 -10.938  1.00  0.00     0.050 C 
BRANCH  46  49
HETATM   49  O1  UNL     1       4.433  54.786  -9.498  1.00  0.00    -0.382 OA
HETATM   50  C1  UNL     1       5.314  54.894  -8.388  1.00  0.00     0.202 C 
ENDBRANCH  46  49
ENDBRANCH  45  46
ENDBRANCH  43  44
ENDBRANCH  41  43
ENDBRANCH   1  41
TORSDOF 12
ENDMDL
MODEL 6
REMARK minimizedAffinity -9.3021307
REMARK CNNscore 0.252673507
REMARK CNNaffinity 6.58678055
REMARK  12 active torsions:
REMARK  status: ('A' for Active; 'I' for Inactive)
REMARK    1  A    between atoms: O1_2  and  C2_3 
REMARK    2  A    between atoms: C2_3  and  C5_6 
REMARK    3  A    between atoms: C6_7  and  C7_8 
REMARK    4  A    between atoms: C7_8  and  C8_9 
REMARK    5  A    between atoms: C8_9  and  C10_11 
REMARK    6  A    between atoms: C28_31  and  O4_32 
REMARK    7  A    between atoms: O4_32  and  C29_33 
REMARK    8  A    between atoms: C30_35  and  C31_36 
REMARK    9  A    between atoms: C31_36  and  O6_37 
REMARK   10  A    between atoms: C32_38  and  O7_39 
REMARK   11  A    between atoms: C33_40  and  O8_41 
REMARK   12  A    between atoms: C34_42  and  O9_43 
ROOT
HETATM    1  C10 UNL     1      -5.998  45.593 -18.870  1.00  0.00    -0.002 C 
HETATM    2  C11 UNL     1      -6.417  46.601 -17.757  1.00  0.00     0.006 C 
HETATM    3  C12 UNL     1      -5.805  47.976 -18.110  1.00  0.00     0.011 C 
HETATM    4  C13 UNL     1      -5.245  47.800 -19.533  1.00  0.00    -0.028 C 
HETATM    5  C14 UNL     1      -6.455  48.014 -20.498  1.00  0.00     0.016 C 
HETATM    6  C15 UNL     1      -4.074  48.756 -19.911  1.00  0.00     0.035 C 
HETATM    7  C16 UNL     1      -4.475  50.217 -19.901  1.00  0.00    -0.021 C 
HETATM    8  C17 UNL     1      -4.206  51.022 -20.938  1.00  0.00     0.009 C 
HETATM    9  C18 UNL     1      -3.544  50.504 -22.215  1.00  0.00     0.102 C 
HETATM   10  O2  UNL     1      -2.160  50.317 -21.870  1.00  0.00    -0.304 OA
HETATM   11  C19 UNL     1      -2.018  49.095 -21.252  1.00  0.00     0.270 C 
HETATM   12  O3  UNL     1      -0.973  48.709 -20.755  1.00  0.00    -0.264 OA
HETATM   13  C20 UNL     1      -3.361  48.348 -21.257  1.00  0.00     0.062 C 
HETATM   14  C21 UNL     1      -3.129  46.817 -21.381  1.00  0.00     0.022 C 
HETATM   15  C22 UNL     1      -4.261  45.903 -20.873  1.00  0.00     0.011 C 
HETATM   16  C23 UNL     1      -4.736  46.310 -19.468  1.00  0.00    -0.032 C 
HETATM   17  C24 UNL     1      -3.535  46.091 -18.487  1.00  0.00     0.016 C 
HETATM   18  C25 UNL     1      -3.990  49.052 -22.490  1.00  0.00     0.045 C 
HETATM   19  C26 UNL     1      -3.480  48.500 -23.835  1.00  0.00     0.012 C 
HETATM   20  C27 UNL     1      -3.760  49.440 -24.995  1.00  0.00     0.033 C 
HETATM   21  C28 UNL     1      -3.168  50.831 -24.757  1.00  0.00     0.136 C 
HETATM   22  C35 UNL     1      -3.720  51.472 -23.441  1.00  0.00     0.015 C 
HETATM   23  C36 UNL     1      -5.217  51.817 -23.658  1.00  0.00     0.021 C 
HETATM   24  C37 UNL     1      -2.967  52.809 -23.211  1.00  0.00     0.021 C 
ENDROOT
BRANCH  21  25
HETATM   25  O4  UNL     1      -1.743  50.773 -24.671  1.00  0.00    -0.352 OA
BRANCH  25  26
HETATM   26  C29 UNL     1      -1.042  51.172 -25.850  1.00  0.00     0.292 C 
HETATM   27  O5  UNL     1       0.362  50.996 -25.688  1.00  0.00    -0.348 OA
HETATM   28  C30 UNL     1       1.086  51.221 -26.920  1.00  0.00     0.179 C 
HETATM   29  C32 UNL     1       0.457  52.302 -27.823  1.00  0.00     0.180 C 
HETATM   30  C33 UNL     1      -0.312  53.332 -26.988  1.00  0.00     0.183 C 
HETATM   31  C34 UNL     1      -1.336  52.673 -26.043  1.00  0.00     0.204 C 
BRANCH  28  32
HETATM   32  C31 UNL     1       2.512  51.604 -26.508  1.00  0.00     0.198 C 
BRANCH  32  33
HETATM   33  O6  UNL     1       3.364  51.580 -27.652  1.00  0.00    -0.398 OA
HETATM   34  H46 UNL     1       3.115  50.778 -28.151  1.00  0.00     0.209 HD
ENDBRANCH  32  33
ENDBRANCH  28  32
BRANCH  29  35
HETATM   35  O7  UNL     1      -0.465  51.682 -28.736  1.00  0.00    -0.390 OA
HETATM   36  H48 UNL     1      -0.937  52.433 -29.162  1.00  0.00     0.210 HD
ENDBRANCH  29  35
BRANCH  30  37
HETATM   37  O8  UNL     1      -0.973  54.253 -27.873  1.00  0.00    -0.390 OA
HETATM   38  H50 UNL     1      -1.931  54.141 -27.689  1.00  0.00     0.210 HD
ENDBRANCH  30  37
BRANCH  31  39
HETATM   39  O9  UNL     1      -2.676  52.891 -26.540  1.00  0.00    -0.388 OA
HETATM   40  H52 UNL     1      -3.262  52.441 -25.895  1.00  0.00     0.210 HD
ENDBRANCH  31  39
ENDBRANCH  25  26
ENDBRANCH  21  25
BRANCH   1  41
HETATM   41  C8  UNL     1      -5.862  44.112 -18.399  1.00  0.00    -0.010 C 
HETATM   42  C9  UNL     1      -4.869  43.982 -17.231  1.00  0.00     0.010 C 
BRANCH  41  43
HETATM   43  C7  UNL     1      -5.484  43.089 -19.502  1.00  0.00     0.031 C 
BRANCH  43  44
HETATM   44  C6  UNL     1      -6.553  42.763 -20.508  1.00  0.00    -0.027 C 
HETATM   45  C5  UNL     1      -6.989  43.628 -21.443  1.00  0.00     0.006 C 
BRANCH  45  46
HETATM   46  C2  UNL     1      -7.988  43.309 -22.542  1.00  0.00     0.070 C 
HETATM   47  C3  UNL     1      -9.283  42.723 -21.963  1.00  0.00     0.050 C 
HETATM   48  C4  UNL     1      -7.361  42.272 -23.485  1.00  0.00     0.050 C 
BRANCH  46  49
HETATM   49  O1  UNL     1      -8.248  44.468 -23.356  1.00  0.00    -0.382 OA
HETATM   50  C1  UNL     1      -8.783  44.220 -24.650  1.00  0.00     0.202 C 
ENDBRANCH  46  49
ENDBRANCH  45  46
ENDBRANCH  43  44
ENDBRANCH  41  43
ENDBRANCH   1  41
TORSDOF 12
ENDMDL
MODEL 7
REMARK minimizedAffinity -7.81060219
REMARK CNNscore 0.22456193
REMARK CNNaffinity 6.15896368
REMARK  12 active torsions:
REMARK  status: ('A' for Active; 'I' for Inactive)
REMARK    1  A    between atoms: O1_2  and  C2_3 
REMARK    2  A    between atoms: C2_3  and  C5_6 
REMARK    3  A    between atoms: C6_7  and  C7_8 
REMARK    4  A    between atoms: C7_8  and  C8_9 
REMARK    5  A    between atoms: C8_9  and  C10_11 
REMARK    6  A    between atoms: C28_31  and  O4_32 
REMARK    7  A    between atoms: O4_32  and  C29_33 
REMARK    8  A    between atoms: C30_35  and  C31_36 
REMARK    9  A    between atoms: C31_36  and  O6_37 
REMARK   10  A    between atoms: C32_38  and  O7_39 
REMARK   11  A    between atoms: C33_40  and  O8_41 
REMARK   12  A    between atoms: C34_42  and  O9_43 
ROOT
HETATM    1  C10 UNL     1      -7.441  47.654 -25.564  1.00  0.00    -0.002 C 
HETATM    2  C11 UNL     1      -6.972  46.826 -26.801  1.00  0.00     0.006 C 
HETATM    3  C12 UNL     1      -8.093  45.818 -27.145  1.00  0.00     0.011 C 
HETATM    4  C13 UNL     1      -9.280  46.236 -26.259  1.00  0.00    -0.028 C 
HETATM    5  C14 UNL     1      -9.995  47.396 -27.024  1.00  0.00     0.016 C 
HETATM    6  C15 UNL     1     -10.293  45.100 -25.926  1.00  0.00     0.035 C 
HETATM    7  C16 UNL     1     -10.986  44.544 -27.154  1.00  0.00    -0.021 C 
HETATM    8  C17 UNL     1     -12.320  44.419 -27.206  1.00  0.00     0.009 C 
HETATM    9  C18 UNL     1     -13.223  44.889 -26.066  1.00  0.00     0.102 C 
HETATM   10  O2  UNL     1     -13.068  43.899 -25.033  1.00  0.00    -0.304 OA
HETATM   11  C19 UNL     1     -11.934  44.187 -24.309  1.00  0.00     0.270 C 
HETATM   12  O3  UNL     1     -11.491  43.462 -23.433  1.00  0.00    -0.264 OA
HETATM   13  C20 UNL     1     -11.321  45.507 -24.801  1.00  0.00     0.062 C 
HETATM   14  C21 UNL     1     -10.658  46.271 -23.622  1.00  0.00     0.022 C 
HETATM   15  C22 UNL     1      -9.564  47.294 -23.988  1.00  0.00     0.011 C 
HETATM   16  C23 UNL     1      -8.527  46.699 -24.955  1.00  0.00    -0.032 C 
HETATM   17  C24 UNL     1      -7.794  45.539 -24.200  1.00  0.00     0.016 C 
HETATM   18  C25 UNL     1     -12.614  46.135 -25.388  1.00  0.00     0.045 C 
HETATM   19  C26 UNL     1     -13.531  46.759 -24.319  1.00  0.00     0.012 C 
HETATM   20  C27 UNL     1     -14.946  46.985 -24.823  1.00  0.00     0.033 C 
HETATM   21  C28 UNL     1     -15.578  45.693 -25.345  1.00  0.00     0.136 C 
HETATM   22  C35 UNL     1     -14.725  45.061 -26.495  1.00  0.00     0.015 C 
HETATM   23  C36 UNL     1     -14.837  45.976 -27.744  1.00  0.00     0.021 C 
HETATM   24  C37 UNL     1     -15.362  43.696 -26.865  1.00  0.00     0.021 C 
ENDROOT
BRANCH  21  25
HETATM   25  O4  UNL     1     -15.713  44.729 -24.299  1.00  0.00    -0.352 OA
BRANCH  25  26
HETATM   26  C29 UNL     1     -17.002  44.672 -23.685  1.00  0.00     0.292 C 
HETATM   27  O5  UNL     1     -18.010  45.125 -24.583  1.00  0.00    -0.348 OA
HETATM   28  C30 UNL     1     -19.343  44.913 -24.060  1.00  0.00     0.179 C 
HETATM   29  C32 UNL     1     -19.438  45.050 -22.527  1.00  0.00     0.180 C 
HETATM   30  C33 UNL     1     -18.365  46.006 -21.995  1.00  0.00     0.183 C 
HETATM   31  C34 UNL     1     -16.950  45.625 -22.474  1.00  0.00     0.204 C 
BRANCH  28  32
HETATM   32  C31 UNL     1     -20.240  45.937 -24.765  1.00  0.00     0.198 C 
BRANCH  32  33
HETATM   33  O6  UNL     1     -19.491  47.118 -25.044  1.00  0.00    -0.398 OA
HETATM   34  H46 UNL     1     -18.957  47.289 -24.244  1.00  0.00     0.209 HD
ENDBRANCH  32  33
ENDBRANCH  28  32
BRANCH  29  35
HETATM   35  O7  UNL     1     -19.234  43.761 -21.921  1.00  0.00    -0.390 OA
HETATM   36  H48 UNL     1     -19.150  43.948 -20.959  1.00  0.00     0.210 HD
ENDBRANCH  29  35
BRANCH  30  37
HETATM   37  O8  UNL     1     -18.417  46.016 -20.558  1.00  0.00    -0.390 OA
HETATM   38  H50 UNL     1     -17.540  45.681 -20.268  1.00  0.00     0.210 HD
ENDBRANCH  30  37
BRANCH  31  39
HETATM   39  O9  UNL     1     -16.198  45.052 -21.381  1.00  0.00    -0.388 OA
HETATM   40  H52 UNL     1     -15.322  44.831 -21.764  1.00  0.00     0.210 HD
ENDBRANCH  31  39
ENDBRANCH  25  26
ENDBRANCH  21  25
BRANCH   1  41
HETATM   41  C8  UNL     1      -6.292  48.163 -24.640  1.00  0.00    -0.010 C 
HETATM   42  C9  UNL     1      -6.638  49.523 -24.009  1.00  0.00     0.010 C 
BRANCH  41  43
HETATM   43  C7  UNL     1      -4.891  48.253 -25.300  1.00  0.00     0.031 C 
BRANCH  43  44
HETATM   44  C6  UNL     1      -4.105  49.507 -25.036  1.00  0.00    -0.027 C 
HETATM   45  C5  UNL     1      -2.776  49.527 -24.823  1.00  0.00     0.006 C 
BRANCH  45  46
HETATM   46  C2  UNL     1      -1.927  50.775 -24.657  1.00  0.00     0.070 C 
HETATM   47  C3  UNL     1      -0.887  50.892 -25.780  1.00  0.00     0.050 C 
HETATM   48  C4  UNL     1      -1.189  50.688 -23.314  1.00  0.00     0.050 C 
BRANCH  46  49
HETATM   49  O1  UNL     1      -2.751  51.953 -24.573  1.00  0.00    -0.382 OA
HETATM   50  C1  UNL     1      -2.922  52.508 -23.275  1.00  0.00     0.202 C 
ENDBRANCH  46  49
ENDBRANCH  45  46
ENDBRANCH  43  44
ENDBRANCH  41  43
ENDBRANCH   1  41
TORSDOF 12
ENDMDL
MODEL 8
REMARK minimizedAffinity -8.92248917
REMARK CNNscore 0.22423248
REMARK CNNaffinity 6.88630533
REMARK  12 active torsions:
REMARK  status: ('A' for Active; 'I' for Inactive)
REMARK    1  A    between atoms: O1_2  and  C2_3 
REMARK    2  A    between atoms: C2_3  and  C5_6 
REMARK    3  A    between atoms: C6_7  and  C7_8 
REMARK    4  A    between atoms: C7_8  and  C8_9 
REMARK    5  A    between atoms: C8_9  and  C10_11 
REMARK    6  A    between atoms: C28_31  and  O4_32 
REMARK    7  A    between atoms: O4_32  and  C29_33 
REMARK    8  A    between atoms: C30_35  and  C31_36 
REMARK    9  A    between atoms: C31_36  and  O6_37 
REMARK   10  A    between atoms: C32_38  and  O7_39 
REMARK   11  A    between atoms: C33_40  and  O8_41 
REMARK   12  A    between atoms: C34_42  and  O9_43 
ROOT
HETATM    1  C10 UNL     1      -0.827  50.094 -21.485  1.00  0.00    -0.002 C 
HETATM    2  C11 UNL     1      -0.409  49.390 -20.157  1.00  0.00     0.006 C 
HETATM    3  C12 UNL     1      -1.645  48.638 -19.613  1.00  0.00     0.011 C 
HETATM    4  C13 UNL     1      -2.683  48.721 -20.747  1.00  0.00    -0.028 C 
HETATM    5  C14 UNL     1      -2.329  47.564 -21.735  1.00  0.00     0.016 C 
HETATM    6  C15 UNL     1      -4.171  48.613 -20.296  1.00  0.00     0.035 C 
HETATM    7  C16 UNL     1      -4.501  47.280 -19.654  1.00  0.00    -0.021 C 
HETATM    8  C17 UNL     1      -5.560  46.559 -20.047  1.00  0.00     0.009 C 
HETATM    9  C18 UNL     1      -6.455  47.000 -21.206  1.00  0.00     0.102 C 
HETATM   10  O2  UNL     1      -7.253  48.073 -20.676  1.00  0.00    -0.304 OA
HETATM   11  C19 UNL     1      -6.527  49.240 -20.739  1.00  0.00     0.270 C 
HETATM   12  O3  UNL     1      -6.908  50.297 -20.265  1.00  0.00    -0.264 OA
HETATM   13  C20 UNL     1      -5.186  48.983 -21.445  1.00  0.00     0.062 C 
HETATM   14  C21 UNL     1      -4.753  50.234 -22.258  1.00  0.00     0.022 C 
HETATM   15  C22 UNL     1      -3.249  50.369 -22.570  1.00  0.00     0.011 C 
HETATM   16  C23 UNL     1      -2.385  50.160 -21.315  1.00  0.00    -0.032 C 
HETATM   17  C24 UNL     1      -2.722  51.319 -20.316  1.00  0.00     0.016 C 
HETATM   18  C25 UNL     1      -5.616  47.740 -22.270  1.00  0.00     0.045 C 
HETATM   19  C26 UNL     1      -6.414  48.094 -23.539  1.00  0.00     0.012 C 
HETATM   20  C27 UNL     1      -7.176  46.906 -24.101  1.00  0.00     0.033 C 
HETATM   21  C28 UNL     1      -8.117  46.291 -23.062  1.00  0.00     0.136 C 
HETATM   22  C35 UNL     1      -7.340  45.836 -21.782  1.00  0.00     0.015 C 
HETATM   23  C36 UNL     1      -6.463  44.611 -22.154  1.00  0.00     0.021 C 
HETATM   24  C37 UNL     1      -8.382  45.356 -20.738  1.00  0.00     0.021 C 
ENDROOT
BRANCH  21  25
HETATM   25  O4  UNL     1      -9.128  47.221 -22.672  1.00  0.00    -0.352 OA
BRANCH  25  26
HETATM   26  C29 UNL     1     -10.429  46.970 -23.208  1.00  0.00     0.292 C 
HETATM   27  O5  UNL     1     -11.308  46.490 -22.195  1.00  0.00    -0.348 OA
HETATM   28  C30 UNL     1     -12.675  46.394 -22.659  1.00  0.00     0.179 C 
HETATM   29  C32 UNL     1     -12.801  46.020 -24.150  1.00  0.00     0.180 C 
HETATM   30  C33 UNL     1     -11.596  45.191 -24.610  1.00  0.00     0.183 C 
HETATM   31  C34 UNL     1     -10.255  45.872 -24.276  1.00  0.00     0.204 C 
BRANCH  28  32
HETATM   32  C31 UNL     1     -13.352  45.348 -21.766  1.00  0.00     0.198 C 
BRANCH  32  33
HETATM   33  O6  UNL     1     -13.197  45.715 -20.397  1.00  0.00    -0.398 OA
HETATM   34  H46 UNL     1     -12.275  46.024 -20.308  1.00  0.00     0.209 HD
ENDBRANCH  32  33
ENDBRANCH  28  32
BRANCH  29  35
HETATM   35  O7  UNL     1     -12.850  47.222 -24.939  1.00  0.00    -0.390 OA
HETATM   36  H48 UNL     1     -12.770  46.912 -25.870  1.00  0.00     0.210 HD
ENDBRANCH  29  35
BRANCH  30  37
HETATM   37  O8  UNL     1     -11.699  44.962 -26.026  1.00  0.00    -0.390 OA
HETATM   38  H50 UNL     1     -10.905  45.394 -26.413  1.00  0.00     0.210 HD
ENDBRANCH  30  37
BRANCH  31  39
HETATM   39  O9  UNL     1      -9.655  46.398 -25.482  1.00  0.00    -0.388 OA
HETATM   40  H52 UNL     1      -8.818  46.817 -25.188  1.00  0.00     0.210 HD
ENDBRANCH  31  39
ENDBRANCH  25  26
ENDBRANCH  21  25
BRANCH   1  41
HETATM   41  C8  UNL     1      -0.053  51.412 -21.801  1.00  0.00    -0.010 C 
HETATM   42  C9  UNL     1       0.476  52.075 -20.519  1.00  0.00     0.010 C 
BRANCH  41  43
HETATM   43  C7  UNL     1      -0.833  52.464 -22.632  1.00  0.00     0.031 C 
BRANCH  43  44
HETATM   44  C6  UNL     1      -0.548  52.497 -24.108  1.00  0.00    -0.027 C 
HETATM   45  C5  UNL     1       0.589  52.035 -24.662  1.00  0.00     0.006 C 
BRANCH  45  46
HETATM   46  C2  UNL     1       0.875  51.952 -26.151  1.00  0.00     0.070 C 
HETATM   47  C3  UNL     1      -0.112  51.011 -26.855  1.00  0.00     0.050 C 
HETATM   48  C4  UNL     1       2.296  51.404 -26.345  1.00  0.00     0.050 C 
BRANCH  46  49
HETATM   49  O1  UNL     1       0.878  53.262 -26.751  1.00  0.00    -0.382 OA
HETATM   50  C1  UNL     1      -0.208  53.557 -27.619  1.00  0.00     0.202 C 
ENDBRANCH  46  49
ENDBRANCH  45  46
ENDBRANCH  43  44
ENDBRANCH  41  43
ENDBRANCH   1  41
TORSDOF 12
ENDMDL
MODEL 9
REMARK minimizedAffinity -8.69184875
REMARK CNNscore 0.222052097
REMARK CNNaffinity 6.69608116
REMARK  12 active torsions:
REMARK  status: ('A' for Active; 'I' for Inactive)
REMARK    1  A    between atoms: O1_2  and  C2_3 
REMARK    2  A    between atoms: C2_3  and  C5_6 
REMARK    3  A    between atoms: C6_7  and  C7_8 
REMARK    4  A    between atoms: C7_8  and  C8_9 
REMARK    5  A    between atoms: C8_9  and  C10_11 
REMARK    6  A    between atoms: C28_31  and  O4_32 
REMARK    7  A    between atoms: O4_32  and  C29_33 
REMARK    8  A    between atoms: C30_35  and  C31_36 
REMARK    9  A    between atoms: C31_36  and  O6_37 
REMARK   10  A    between atoms: C32_38  and  O7_39 
REMARK   11  A    between atoms: C33_40  and  O8_41 
REMARK   12  A    between atoms: C34_42  and  O9_43 
ROOT
HETATM    1  C10 UNL     1      -4.613  46.495 -17.428  1.00  0.00    -0.002 C 
HETATM    2  C11 UNL     1      -5.965  47.180 -17.056  1.00  0.00     0.006 C 
HETATM    3  C12 UNL     1      -6.175  48.365 -18.026  1.00  0.00     0.011 C 
HETATM    4  C13 UNL     1      -5.069  48.205 -19.085  1.00  0.00    -0.028 C 
HETATM    5  C14 UNL     1      -5.618  47.172 -20.121  1.00  0.00     0.016 C 
HETATM    6  C15 UNL     1      -4.641  49.519 -19.804  1.00  0.00     0.035 C 
HETATM    7  C16 UNL     1      -5.763  50.151 -20.602  1.00  0.00    -0.021 C 
HETATM    8  C17 UNL     1      -5.590  50.519 -21.879  1.00  0.00     0.009 C 
HETATM    9  C18 UNL     1      -4.280  50.264 -22.626  1.00  0.00     0.102 C 
HETATM   10  O2  UNL     1      -3.359  51.242 -22.111  1.00  0.00    -0.304 OA
HETATM   11  C19 UNL     1      -2.827  50.774 -20.932  1.00  0.00     0.270 C 
HETATM   12  O3  UNL     1      -2.092  51.434 -20.215  1.00  0.00    -0.264 OA
HETATM   13  C20 UNL     1      -3.329  49.347 -20.662  1.00  0.00     0.062 C 
HETATM   14  C21 UNL     1      -2.235  48.515 -19.938  1.00  0.00     0.022 C 
HETATM   15  C22 UNL     1      -2.717  47.295 -19.128  1.00  0.00     0.011 C 
HETATM   16  C23 UNL     1      -3.889  47.655 -18.198  1.00  0.00    -0.032 C 
HETATM   17  C24 UNL     1      -3.352  48.684 -17.146  1.00  0.00     0.016 C 
HETATM   18  C25 UNL     1      -3.638  48.950 -22.131  1.00  0.00     0.045 C 
HETATM   19  C26 UNL     1      -2.385  48.543 -22.930  1.00  0.00     0.012 C 
HETATM   20  C27 UNL     1      -2.618  48.565 -24.431  1.00  0.00     0.033 C 
HETATM   21  C28 UNL     1      -3.107  49.934 -24.911  1.00  0.00     0.136 C 
HETATM   22  C35 UNL     1      -4.428  50.357 -24.188  1.00  0.00     0.015 C 
HETATM   23  C36 UNL     1      -5.574  49.438 -24.686  1.00  0.00     0.021 C 
HETATM   24  C37 UNL     1      -4.771  51.804 -24.631  1.00  0.00     0.021 C 
ENDROOT
BRANCH  21  25
HETATM   25  O4  UNL     1      -2.120  50.941 -24.681  1.00  0.00    -0.352 OA
BRANCH  25  26
HETATM   26  C29 UNL     1      -1.281  51.241 -25.797  1.00  0.00     0.292 C 
HETATM   27  O5  UNL     1       0.079  50.940 -25.502  1.00  0.00    -0.348 OA
HETATM   28  C30 UNL     1       0.931  51.063 -26.666  1.00  0.00     0.179 C 
HETATM   29  C32 UNL     1       0.492  52.173 -27.643  1.00  0.00     0.180 C 
HETATM   30  C33 UNL     1      -0.249  53.292 -26.903  1.00  0.00     0.183 C 
HETATM   31  C34 UNL     1      -1.412  52.757 -26.045  1.00  0.00     0.204 C 
BRANCH  28  32
HETATM   32  C31 UNL     1       2.343  51.323 -26.130  1.00  0.00     0.198 C 
BRANCH  32  33
HETATM   33  O6  UNL     1       3.253  51.451 -27.221  1.00  0.00    -0.398 OA
HETATM   34  H46 UNL     1       3.008  50.750 -27.855  1.00  0.00     0.209 HD
ENDBRANCH  32  33
ENDBRANCH  28  32
BRANCH  29  35
HETATM   35  O7  UNL     1      -0.398  51.616 -28.626  1.00  0.00    -0.390 OA
HETATM   36  H48 UNL     1      -0.757  52.395 -29.108  1.00  0.00     0.210 HD
ENDBRANCH  29  35
BRANCH  30  37
HETATM   37  O8  UNL     1      -0.736  54.245 -27.863  1.00  0.00    -0.390 OA
HETATM   38  H50 UNL     1      -1.714  54.228 -27.766  1.00  0.00     0.210 HD
ENDBRANCH  30  37
BRANCH  31  39
HETATM   39  O9  UNL     1      -2.675  53.085 -26.667  1.00  0.00    -0.388 OA
HETATM   40  H52 UNL     1      -3.357  52.709 -26.071  1.00  0.00     0.210 HD
ENDBRANCH  31  39
ENDBRANCH  25  26
ENDBRANCH  21  25
BRANCH   1  41
HETATM   41  C8  UNL     1      -3.872  45.814 -16.236  1.00  0.00    -0.010 C 
HETATM   42  C9  UNL     1      -4.832  45.522 -15.070  1.00  0.00     0.010 C 
BRANCH  41  43
HETATM   43  C7  UNL     1      -2.632  46.573 -15.694  1.00  0.00     0.031 C 
BRANCH  43  44
HETATM   44  C6  UNL     1      -2.598  46.829 -14.214  1.00  0.00    -0.027 C 
HETATM   45  C5  UNL     1      -2.600  48.058 -13.666  1.00  0.00     0.006 C 
BRANCH  45  46
HETATM   46  C2  UNL     1      -2.672  48.363 -12.179  1.00  0.00     0.070 C 
HETATM   47  C3  UNL     1      -2.743  47.072 -11.351  1.00  0.00     0.050 C 
HETATM   48  C4  UNL     1      -3.939  49.187 -11.911  1.00  0.00     0.050 C 
BRANCH  46  49
HETATM   49  O1  UNL     1      -1.572  49.197 -11.769  1.00  0.00    -0.382 OA
HETATM   50  C1  UNL     1      -1.643  50.563 -12.153  1.00  0.00     0.202 C 
ENDBRANCH  46  49
ENDBRANCH  45  46
ENDBRANCH  43  44
ENDBRANCH  41  43
ENDBRANCH   1  41
TORSDOF 12
ENDMDL
