MODEL 1
REMARK minimizedAffinity -8.70583725
REMARK CNNscore 0.678414404
REMARK CNNaffinity 7.24779272
REMARK  12 active torsions:
REMARK  status: ('A' for Active; 'I' for Inactive)
REMARK    1  A    between atoms: C19_20  and  O2_21 
REMARK    2  A    between atoms: C19_20  and  C20_22 
REMARK    3  A    between atoms: C20_22  and  C21_24 
REMARK    4  A    between atoms: C21_24  and  O4_25 
REMARK    5  A    between atoms: O4_25  and  C22_26 
REMARK    6  A    between atoms: C22_26  and  C23_28 
REMARK    7  A    between atoms: C23_28  and  C24_29 
REMARK    8  A    between atoms: C24_29  and  C25_30 
REMARK       I    between atoms: C25_30  and  N1_32 
REMARK    9  A    between atoms: N1_32  and  C26_33 
REMARK   10  A    between atoms: C26_33  and  C27_34 
REMARK   11  A    between atoms: C30_37  and  C31_38 
REMARK   12  A    between atoms: C31_38  and  O8_40 
ROOT
HETATM    1  C20 UNL     1      -1.462   8.210  15.870  1.00  0.00     0.185 C 
HETATM    2  O3  UNL     1      -0.236   8.140  16.018  1.00  0.00    -0.292 OA
ENDROOT
BRANCH   1   3
HETATM    3  C19 UNL     1      -2.188   7.506  14.675  1.00  0.00     0.128 C 
HETATM    4  C14 UNL     1      -3.625   8.046  14.351  1.00  0.00    -0.002 C 
HETATM    5  C13 UNL     1      -4.147   7.542  12.972  1.00  0.00     0.013 C 
HETATM    6  C15 UNL     1      -3.716   9.582  14.341  1.00  0.00     0.019 C 
HETATM    7  C16 UNL     1      -4.444   7.455  15.522  1.00  0.00     0.002 C 
HETATM    8  C12 UNL     1      -5.363   6.620  13.023  1.00  0.00     0.007 C 
HETATM    9  C11 UNL     1      -6.498   7.148  13.914  1.00  0.00     0.002 C 
HETATM   10  C2  UNL     1      -7.791   6.250  13.920  1.00  0.00    -0.016 C 
HETATM   11  C10 UNL     1      -5.977   7.523  15.343  1.00  0.00    -0.004 C 
HETATM   12  C1  UNL     1      -9.008   7.113  14.366  1.00  0.00     0.020 C 
HETATM   13  C3  UNL     1      -8.206   5.730  12.505  1.00  0.00     0.022 C 
HETATM   14  C7  UNL     1      -7.559   5.102  14.891  1.00  0.00    -0.068 C 
HETATM   15  C4  UNL     1      -7.590   4.411  12.060  1.00  0.00     0.084 C 
HETATM   16  C5  UNL     1      -7.702   3.368  13.136  1.00  0.00     0.149 C 
HETATM   17  O1  UNL     1      -7.821   2.171  12.884  1.00  0.00    -0.293 OA
HETATM   18  C6  UNL     1      -7.555   3.804  14.539  1.00  0.00     0.053 C 
HETATM   19  C8  UNL     1      -7.253   5.460  16.323  1.00  0.00     0.035 C 
HETATM   20  C9  UNL     1      -6.701   6.866  16.539  1.00  0.00     0.010 C 
HETATM   21  C17 UNL     1      -3.845   6.058  15.771  1.00  0.00     0.009 C 
HETATM   22  C18 UNL     1      -2.486   6.042  15.065  1.00  0.00     0.047 C 
BRANCH   3  23
HETATM   23  O2  UNL     1      -1.346   7.467  13.528  1.00  0.00    -0.381 OA
HETATM   24  H27 UNL     1      -1.136   8.385  13.284  1.00  0.00     0.211 HD
ENDBRANCH   3  23
ENDBRANCH   1   3
BRANCH   1  25
HETATM   25  C21 UNL     1      -2.293   8.939  16.932  1.00  0.00     0.260 C 
BRANCH  25  26
HETATM   26  O4  UNL     1      -1.600   9.969  17.637  1.00  0.00    -0.314 OA
BRANCH  26  27
HETATM   27  C22 UNL     1      -2.058  11.235  17.430  1.00  0.00     0.259 C 
HETATM   28  O5  UNL     1      -1.454  12.102  16.817  1.00  0.00    -0.265 OA
BRANCH  27  29
HETATM   29  C23 UNL     1      -3.347  11.484  18.182  1.00  0.00     0.120 C 
BRANCH  29  30
HETATM   30  C24 UNL     1      -4.323  12.414  17.468  1.00  0.00     0.112 C 
BRANCH  30  31
HETATM   31  C25 UNL     1      -4.838  13.507  18.384  1.00  0.00     0.218 C 
HETATM   32  O6  UNL     1      -5.116  14.634  17.988  1.00  0.00    -0.274 OA
HETATM   33  N1  UNL     1      -4.972  13.099  19.690  1.00  0.00    -0.357 N 
HETATM   34  H34 UNL     1      -4.596  12.203  19.970  1.00  0.00     0.162 HD
BRANCH  33  35
HETATM   35  C26 UNL     1      -5.344  14.022  20.740  1.00  0.00     0.161 C 
BRANCH  35  36
HETATM   36  C27 UNL     1      -6.609  13.569  21.425  1.00  0.00    -0.040 A 
HETATM   37  C28 UNL     1      -7.775  13.316  20.688  1.00  0.00     0.010 A 
HETATM   38  C29 UNL     1      -8.940  12.886  21.328  1.00  0.00     0.019 A 
HETATM   39  C30 UNL     1      -8.953  12.694  22.714  1.00  0.00     0.037 A 
HETATM   40  C32 UNL     1      -7.791  12.935  23.455  1.00  0.00     0.019 A 
HETATM   41  C33 UNL     1      -6.627  13.369  22.814  1.00  0.00     0.010 A 
BRANCH  39  42
HETATM   42  C31 UNL     1     -10.165  12.237  23.436  1.00  0.00     0.176 C 
HETATM   43  O7  UNL     1     -11.299  12.233  22.994  1.00  0.00    -0.646 OA
BRANCH  42  44
HETATM   44  O8  UNL     1      -9.899  11.803  24.681  1.00  0.00    -0.773 OA
HETATM   45  H39 UNL     1     -10.778  11.528  25.022  1.00  0.00     0.167 HD
ENDBRANCH  42  44
ENDBRANCH  39  42
ENDBRANCH  35  36
ENDBRANCH  33  35
ENDBRANCH  30  31
ENDBRANCH  29  30
ENDBRANCH  27  29
ENDBRANCH  26  27
ENDBRANCH  25  26
ENDBRANCH   1  25
TORSDOF 12
ENDMDL
MODEL 2
REMARK minimizedAffinity -7.86306
REMARK CNNscore 0.548873365
REMARK CNNaffinity 6.79179621
REMARK  12 active torsions:
REMARK  status: ('A' for Active; 'I' for Inactive)
REMARK    1  A    between atoms: C19_20  and  O2_21 
REMARK    2  A    between atoms: C19_20  and  C20_22 
REMARK    3  A    between atoms: C20_22  and  C21_24 
REMARK    4  A    between atoms: C21_24  and  O4_25 
REMARK    5  A    between atoms: O4_25  and  C22_26 
REMARK    6  A    between atoms: C22_26  and  C23_28 
REMARK    7  A    between atoms: C23_28  and  C24_29 
REMARK    8  A    between atoms: C24_29  and  C25_30 
REMARK       I    between atoms: C25_30  and  N1_32 
REMARK    9  A    between atoms: N1_32  and  C26_33 
REMARK   10  A    between atoms: C26_33  and  C27_34 
REMARK   11  A    between atoms: C30_37  and  C31_38 
REMARK   12  A    between atoms: C31_38  and  O8_40 
ROOT
HETATM    1  C20 UNL     1      -3.330   5.181  13.958  1.00  0.00     0.185 C 
HETATM    2  O3  UNL     1      -2.928   5.386  15.110  1.00  0.00    -0.292 OA
ENDROOT
BRANCH   1   3
HETATM    3  C19 UNL     1      -2.366   4.695  12.826  1.00  0.00     0.128 C 
HETATM    4  C14 UNL     1      -0.835   4.830  13.144  1.00  0.00    -0.002 C 
HETATM    5  C13 UNL     1       0.049   4.037  12.135  1.00  0.00     0.013 C 
HETATM    6  C15 UNL     1      -0.457   4.352  14.556  1.00  0.00     0.019 C 
HETATM    7  C16 UNL     1      -0.629   6.356  13.007  1.00  0.00     0.002 C 
HETATM    8  C12 UNL     1       0.963   4.882  11.251  1.00  0.00     0.007 C 
HETATM    9  C11 UNL     1       1.773   5.931  12.030  1.00  0.00     0.002 C 
HETATM   10  C2  UNL     1       2.778   6.761  11.149  1.00  0.00    -0.016 C 
HETATM   11  C10 UNL     1       0.847   6.810  12.938  1.00  0.00    -0.004 C 
HETATM   12  C1  UNL     1       3.888   7.355  12.066  1.00  0.00     0.020 C 
HETATM   13  C3  UNL     1       3.575   5.900  10.116  1.00  0.00     0.022 C 
HETATM   14  C7  UNL     1       1.994   7.871  10.464  1.00  0.00    -0.068 C 
HETATM   15  C4  UNL     1       2.925   5.703   8.753  1.00  0.00     0.084 C 
HETATM   16  C5  UNL     1       2.436   7.009   8.190  1.00  0.00     0.149 C 
HETATM   17  O1  UNL     1       2.410   7.238   6.983  1.00  0.00    -0.293 OA
HETATM   18  C6  UNL     1       1.873   7.998   9.130  1.00  0.00     0.053 C 
HETATM   19  C8  UNL     1       1.259   8.846  11.349  1.00  0.00     0.035 C 
HETATM   20  C9  UNL     1       0.945   8.340  12.753  1.00  0.00     0.010 C 
HETATM   21  C17 UNL     1      -1.531   6.783  11.833  1.00  0.00     0.009 C 
HETATM   22  C18 UNL     1      -2.514   5.631  11.607  1.00  0.00     0.047 C 
BRANCH   3  23
HETATM   23  O2  UNL     1      -2.721   3.387  12.391  1.00  0.00    -0.381 OA
HETATM   24  H27 UNL     1      -2.649   2.791  13.155  1.00  0.00     0.211 HD
ENDBRANCH   3  23
ENDBRANCH   1   3
BRANCH   1  25
HETATM   25  C21 UNL     1      -4.826   5.333  13.661  1.00  0.00     0.260 C 
BRANCH  25  26
HETATM   26  O4  UNL     1      -5.342   4.425  12.688  1.00  0.00    -0.314 OA
BRANCH  26  27
HETATM   27  C22 UNL     1      -6.561   3.887  12.971  1.00  0.00     0.259 C 
HETATM   28  O5  UNL     1      -6.862   2.715  12.800  1.00  0.00    -0.265 OA
BRANCH  27  29
HETATM   29  C23 UNL     1      -7.550   4.954  13.389  1.00  0.00     0.120 C 
BRANCH  29  30
HETATM   30  C24 UNL     1      -7.725   5.094  14.898  1.00  0.00     0.112 C 
BRANCH  30  31
HETATM   31  C25 UNL     1      -8.353   6.422  15.275  1.00  0.00     0.218 C 
HETATM   32  O6  UNL     1      -7.776   7.264  15.953  1.00  0.00    -0.274 OA
HETATM   33  N1  UNL     1      -9.621   6.583  14.767  1.00  0.00    -0.357 N 
HETATM   34  H34 UNL     1     -10.085   5.795  14.335  1.00  0.00     0.162 HD
BRANCH  33  35
HETATM   35  C26 UNL     1     -10.433   7.732  15.103  1.00  0.00     0.161 C 
BRANCH  35  36
HETATM   36  C27 UNL     1     -11.758   7.678  14.382  1.00  0.00    -0.040 A 
HETATM   37  C28 UNL     1     -12.261   8.805  13.717  1.00  0.00     0.010 A 
HETATM   38  C29 UNL     1     -13.483   8.744  13.042  1.00  0.00     0.019 A 
HETATM   39  C30 UNL     1     -14.214   7.551  13.015  1.00  0.00     0.037 A 
HETATM   40  C32 UNL     1     -13.713   6.420  13.669  1.00  0.00     0.019 A 
HETATM   41  C33 UNL     1     -12.493   6.483  14.347  1.00  0.00     0.010 A 
BRANCH  39  42
HETATM   42  C31 UNL     1     -15.514   7.439  12.311  1.00  0.00     0.176 C 
HETATM   43  O7  UNL     1     -15.673   7.420  11.104  1.00  0.00    -0.646 OA
BRANCH  42  44
HETATM   44  O8  UNL     1     -16.559   7.350  13.155  1.00  0.00    -0.773 OA
HETATM   45  H39 UNL     1     -17.333   7.271  12.555  1.00  0.00     0.167 HD
ENDBRANCH  42  44
ENDBRANCH  39  42
ENDBRANCH  35  36
ENDBRANCH  33  35
ENDBRANCH  30  31
ENDBRANCH  29  30
ENDBRANCH  27  29
ENDBRANCH  26  27
ENDBRANCH  25  26
ENDBRANCH   1  25
TORSDOF 12
ENDMDL
MODEL 3
REMARK minimizedAffinity -9.08669758
REMARK CNNscore 0.510709167
REMARK CNNaffinity 7.03631258
REMARK  12 active torsions:
REMARK  status: ('A' for Active; 'I' for Inactive)
REMARK    1  A    between atoms: C19_20  and  O2_21 
REMARK    2  A    between atoms: C19_20  and  C20_22 
REMARK    3  A    between atoms: C20_22  and  C21_24 
REMARK    4  A    between atoms: C21_24  and  O4_25 
REMARK    5  A    between atoms: O4_25  and  C22_26 
REMARK    6  A    between atoms: C22_26  and  C23_28 
REMARK    7  A    between atoms: C23_28  and  C24_29 
REMARK    8  A    between atoms: C24_29  and  C25_30 
REMARK       I    between atoms: C25_30  and  N1_32 
REMARK    9  A    between atoms: N1_32  and  C26_33 
REMARK   10  A    between atoms: C26_33  and  C27_34 
REMARK   11  A    between atoms: C30_37  and  C31_38 
REMARK   12  A    between atoms: C31_38  and  O8_40 
ROOT
HETATM    1  C20 UNL     1      -1.633   8.424  15.960  1.00  0.00     0.185 C 
HETATM    2  O3  UNL     1      -2.221   8.585  17.037  1.00  0.00    -0.292 OA
ENDROOT
BRANCH   1   3
HETATM    3  C19 UNL     1      -2.312   7.691  14.755  1.00  0.00     0.128 C 
HETATM    4  C14 UNL     1      -3.763   8.175  14.406  1.00  0.00    -0.002 C 
HETATM    5  C13 UNL     1      -4.243   7.649  13.020  1.00  0.00     0.013 C 
HETATM    6  C15 UNL     1      -3.913   9.706  14.391  1.00  0.00     0.019 C 
HETATM    7  C16 UNL     1      -4.578   7.555  15.565  1.00  0.00     0.002 C 
HETATM    8  C12 UNL     1      -5.424   6.680  13.053  1.00  0.00     0.007 C 
HETATM    9  C11 UNL     1      -6.593   7.166  13.924  1.00  0.00     0.002 C 
HETATM   10  C2  UNL     1      -7.850   6.220  13.911  1.00  0.00    -0.016 C 
HETATM   11  C10 UNL     1      -6.110   7.563  15.361  1.00  0.00    -0.004 C 
HETATM   12  C1  UNL     1      -9.106   7.036  14.335  1.00  0.00     0.020 C 
HETATM   13  C3  UNL     1      -8.221   5.682  12.491  1.00  0.00     0.022 C 
HETATM   14  C7  UNL     1      -7.590   5.083  14.889  1.00  0.00    -0.068 C 
HETATM   15  C4  UNL     1      -7.548   4.386  12.059  1.00  0.00     0.084 C 
HETATM   16  C5  UNL     1      -7.638   3.341  13.135  1.00  0.00     0.149 C 
HETATM   17  O1  UNL     1      -7.707   2.140  12.885  1.00  0.00    -0.293 OA
HETATM   18  C6  UNL     1      -7.531   3.785  14.540  1.00  0.00     0.053 C 
HETATM   19  C8  UNL     1      -7.321   5.454  16.325  1.00  0.00     0.035 C 
HETATM   20  C9  UNL     1      -6.827   6.881  16.546  1.00  0.00     0.010 C 
HETATM   21  C17 UNL     1      -3.930   6.182  15.828  1.00  0.00     0.009 C 
HETATM   22  C18 UNL     1      -2.560   6.217  15.143  1.00  0.00     0.047 C 
BRANCH   3  23
HETATM   23  O2  UNL     1      -1.451   7.683  13.622  1.00  0.00    -0.381 OA
HETATM   24  H27 UNL     1      -1.272   8.607  13.379  1.00  0.00     0.211 HD
ENDBRANCH   3  23
ENDBRANCH   1   3
BRANCH   1  25
HETATM   25  C21 UNL     1      -0.238   9.032  15.783  1.00  0.00     0.260 C 
BRANCH  25  26
HETATM   26  O4  UNL     1       0.513   9.180  16.988  1.00  0.00    -0.314 OA
BRANCH  26  27
HETATM   27  C22 UNL     1       0.675  10.459  17.428  1.00  0.00     0.259 C 
HETATM   28  O5  UNL     1      -0.218  11.157  17.883  1.00  0.00    -0.265 OA
BRANCH  27  29
HETATM   29  C23 UNL     1       2.074  10.964  17.146  1.00  0.00     0.120 C 
BRANCH  29  30
HETATM   30  C24 UNL     1       2.516  12.122  18.036  1.00  0.00     0.112 C 
BRANCH  30  31
HETATM   31  C25 UNL     1       2.914  11.653  19.421  1.00  0.00     0.218 C 
HETATM   32  O6  UNL     1       3.421  10.558  19.635  1.00  0.00    -0.274 OA
HETATM   33  N1  UNL     1       2.661  12.585  20.401  1.00  0.00    -0.357 N 
HETATM   34  H34 UNL     1       2.117  13.407  20.173  1.00  0.00     0.162 HD
BRANCH  33  35
HETATM   35  C26 UNL     1       2.866  12.290  21.802  1.00  0.00     0.161 C 
BRANCH  35  36
HETATM   36  C27 UNL     1       4.329  12.381  22.157  1.00  0.00    -0.040 A 
HETATM   37  C28 UNL     1       4.958  11.357  22.881  1.00  0.00     0.010 A 
HETATM   38  C29 UNL     1       6.317  11.442  23.196  1.00  0.00     0.019 A 
HETATM   39  C30 UNL     1       7.068  12.549  22.785  1.00  0.00     0.037 A 
HETATM   40  C32 UNL     1       6.449  13.570  22.054  1.00  0.00     0.019 A 
HETATM   41  C33 UNL     1       5.089  13.485  21.742  1.00  0.00     0.010 A 
BRANCH  39  42
HETATM   42  C31 UNL     1       8.511  12.682  23.095  1.00  0.00     0.176 C 
HETATM   43  O7  UNL     1       9.006  13.498  23.852  1.00  0.00    -0.646 OA
BRANCH  42  44
HETATM   44  O8  UNL     1       9.271  11.782  22.444  1.00  0.00    -0.773 OA
HETATM   45  H39 UNL     1      10.182  11.983  22.753  1.00  0.00     0.167 HD
ENDBRANCH  42  44
ENDBRANCH  39  42
ENDBRANCH  35  36
ENDBRANCH  33  35
ENDBRANCH  30  31
ENDBRANCH  29  30
ENDBRANCH  27  29
ENDBRANCH  26  27
ENDBRANCH  25  26
ENDBRANCH   1  25
TORSDOF 12
ENDMDL
MODEL 4
REMARK minimizedAffinity -8.36439037
REMARK CNNscore 0.498908073
REMARK CNNaffinity 7.00054359
REMARK  12 active torsions:
REMARK  status: ('A' for Active; 'I' for Inactive)
REMARK    1  A    between atoms: C19_20  and  O2_21 
REMARK    2  A    between atoms: C19_20  and  C20_22 
REMARK    3  A    between atoms: C20_22  and  C21_24 
REMARK    4  A    between atoms: C21_24  and  O4_25 
REMARK    5  A    between atoms: O4_25  and  C22_26 
REMARK    6  A    between atoms: C22_26  and  C23_28 
REMARK    7  A    between atoms: C23_28  and  C24_29 
REMARK    8  A    between atoms: C24_29  and  C25_30 
REMARK       I    between atoms: C25_30  and  N1_32 
REMARK    9  A    between atoms: N1_32  and  C26_33 
REMARK   10  A    between atoms: C26_33  and  C27_34 
REMARK   11  A    between atoms: C30_37  and  C31_38 
REMARK   12  A    between atoms: C31_38  and  O8_40 
ROOT
HETATM    1  C20 UNL     1      -1.481   8.049  15.784  1.00  0.00     0.185 C 
HETATM    2  O3  UNL     1      -0.270   7.850  15.939  1.00  0.00    -0.292 OA
ENDROOT
BRANCH   1   3
HETATM    3  C19 UNL     1      -2.268   7.433  14.580  1.00  0.00     0.128 C 
HETATM    4  C14 UNL     1      -3.711   8.008  14.356  1.00  0.00    -0.002 C 
HETATM    5  C13 UNL     1      -4.300   7.601  12.972  1.00  0.00     0.013 C 
HETATM    6  C15 UNL     1      -3.782   9.542  14.450  1.00  0.00     0.019 C 
HETATM    7  C16 UNL     1      -4.486   7.350  15.522  1.00  0.00     0.002 C 
HETATM    8  C12 UNL     1      -5.525   6.690  13.017  1.00  0.00     0.007 C 
HETATM    9  C11 UNL     1      -6.613   7.171  13.991  1.00  0.00     0.002 C 
HETATM   10  C2  UNL     1      -7.915   6.288  13.996  1.00  0.00    -0.016 C 
HETATM   11  C10 UNL     1      -6.024   7.445  15.416  1.00  0.00    -0.004 C 
HETATM   12  C1  UNL     1      -9.100   7.132  14.551  1.00  0.00     0.020 C 
HETATM   13  C3  UNL     1      -8.399   5.866  12.570  1.00  0.00     0.022 C 
HETATM   14  C7  UNL     1      -7.656   5.076  14.878  1.00  0.00    -0.068 C 
HETATM   15  C4  UNL     1      -7.821   4.573  12.013  1.00  0.00     0.084 C 
HETATM   16  C5  UNL     1      -7.900   3.462  13.022  1.00  0.00     0.149 C 
HETATM   17  O1  UNL     1      -8.046   2.286  12.699  1.00  0.00    -0.293 OA
HETATM   18  C6  UNL     1      -7.686   3.804  14.443  1.00  0.00     0.053 C 
HETATM   19  C8  UNL     1      -7.282   5.335  16.316  1.00  0.00     0.035 C 
HETATM   20  C9  UNL     1      -6.703   6.718  16.598  1.00  0.00     0.010 C 
HETATM   21  C17 UNL     1      -3.894   5.933  15.652  1.00  0.00     0.009 C 
HETATM   22  C18 UNL     1      -2.568   5.950  14.885  1.00  0.00     0.047 C 
BRANCH   3  23
HETATM   23  O2  UNL     1      -1.479   7.461  13.395  1.00  0.00    -0.381 OA
HETATM   24  H27 UNL     1      -1.267   8.390  13.203  1.00  0.00     0.211 HD
ENDBRANCH   3  23
ENDBRANCH   1   3
BRANCH   1  25
HETATM   25  C21 UNL     1      -2.239   8.854  16.846  1.00  0.00     0.260 C 
BRANCH  25  26
HETATM   26  O4  UNL     1      -1.829  10.215  16.977  1.00  0.00    -0.314 OA
BRANCH  26  27
HETATM   27  C22 UNL     1      -0.581  10.502  16.513  1.00  0.00     0.259 C 
HETATM   28  O5  UNL     1       0.452  10.013  16.944  1.00  0.00    -0.265 OA
BRANCH  27  29
HETATM   29  C23 UNL     1      -0.618  11.619  15.492  1.00  0.00     0.120 C 
BRANCH  29  30
HETATM   30  C24 UNL     1       0.525  12.622  15.614  1.00  0.00     0.112 C 
BRANCH  30  31
HETATM   31  C25 UNL     1       0.522  13.325  16.957  1.00  0.00     0.218 C 
HETATM   32  O6  UNL     1       1.153  14.354  17.173  1.00  0.00    -0.274 OA
HETATM   33  N1  UNL     1      -0.269  12.701  17.893  1.00  0.00    -0.357 N 
HETATM   34  H34 UNL     1      -0.649  11.785  17.688  1.00  0.00     0.162 HD
BRANCH  33  35
HETATM   35  C26 UNL     1      -0.322  13.151  19.266  1.00  0.00     0.161 C 
BRANCH  35  36
HETATM   36  C27 UNL     1       0.699  12.424  20.106  1.00  0.00    -0.040 A 
HETATM   37  C28 UNL     1       1.680  13.131  20.816  1.00  0.00     0.010 A 
HETATM   38  C29 UNL     1       2.616  12.451  21.601  1.00  0.00     0.019 A 
HETATM   39  C30 UNL     1       2.578  11.056  21.693  1.00  0.00     0.037 A 
HETATM   40  C32 UNL     1       1.596  10.345  20.994  1.00  0.00     0.019 A 
HETATM   41  C33 UNL     1       0.662  11.025  20.206  1.00  0.00     0.010 A 
BRANCH  39  42
HETATM   42  C31 UNL     1       3.548  10.292  22.513  1.00  0.00     0.176 C 
HETATM   43  O7  UNL     1       4.445  10.769  23.185  1.00  0.00    -0.646 OA
BRANCH  42  44
HETATM   44  O8  UNL     1       3.348   8.963  22.458  1.00  0.00    -0.773 OA
HETATM   45  H39 UNL     1       4.044   8.600  23.047  1.00  0.00     0.167 HD
ENDBRANCH  42  44
ENDBRANCH  39  42
ENDBRANCH  35  36
ENDBRANCH  33  35
ENDBRANCH  30  31
ENDBRANCH  29  30
ENDBRANCH  27  29
ENDBRANCH  26  27
ENDBRANCH  25  26
ENDBRANCH   1  25
TORSDOF 12
ENDMDL
MODEL 5
REMARK minimizedAffinity -8.13209629
REMARK CNNscore 0.456764609
REMARK CNNaffinity 6.81270838
REMARK  12 active torsions:
REMARK  status: ('A' for Active; 'I' for Inactive)
REMARK    1  A    between atoms: C19_20  and  O2_21 
REMARK    2  A    between atoms: C19_20  and  C20_22 
REMARK    3  A    between atoms: C20_22  and  C21_24 
REMARK    4  A    between atoms: C21_24  and  O4_25 
REMARK    5  A    between atoms: O4_25  and  C22_26 
REMARK    6  A    between atoms: C22_26  and  C23_28 
REMARK    7  A    between atoms: C23_28  and  C24_29 
REMARK    8  A    between atoms: C24_29  and  C25_30 
REMARK       I    between atoms: C25_30  and  N1_32 
REMARK    9  A    between atoms: N1_32  and  C26_33 
REMARK   10  A    between atoms: C26_33  and  C27_34 
REMARK   11  A    between atoms: C30_37  and  C31_38 
REMARK   12  A    between atoms: C31_38  and  O8_40 
ROOT
HETATM    1  C20 UNL     1      -2.149   6.630  14.143  1.00  0.00     0.185 C 
HETATM    2  O3  UNL     1      -2.203   5.440  13.809  1.00  0.00    -0.292 OA
ENDROOT
BRANCH   1   3
HETATM    3  C19 UNL     1      -0.793   7.408  14.197  1.00  0.00     0.128 C 
HETATM    4  C14 UNL     1      -0.346   8.072  12.847  1.00  0.00    -0.002 C 
HETATM    5  C13 UNL     1       0.818   9.089  13.047  1.00  0.00     0.013 C 
HETATM    6  C15 UNL     1      -1.481   8.813  12.121  1.00  0.00     0.019 C 
HETATM    7  C16 UNL     1       0.110   6.836  12.037  1.00  0.00     0.002 C 
HETATM    8  C12 UNL     1       2.144   8.713  12.389  1.00  0.00     0.007 C 
HETATM    9  C11 UNL     1       2.001   8.279  10.922  1.00  0.00     0.002 C 
HETATM   10  C2  UNL     1       3.364   7.961  10.202  1.00  0.00    -0.016 C 
HETATM   11  C10 UNL     1       0.919   7.156  10.761  1.00  0.00    -0.004 C 
HETATM   12  C1  UNL     1       3.166   8.081   8.662  1.00  0.00     0.020 C 
HETATM   13  C3  UNL     1       4.497   8.993  10.511  1.00  0.00     0.022 C 
HETATM   14  C7  UNL     1       3.776   6.547  10.584  1.00  0.00    -0.068 C 
HETATM   15  C4  UNL     1       5.359   8.708  11.733  1.00  0.00     0.084 C 
HETATM   16  C5  UNL     1       5.831   7.281  11.745  1.00  0.00     0.149 C 
HETATM   17  O1  UNL     1       6.909   6.947  12.230  1.00  0.00    -0.293 OA
HETATM   18  C6  UNL     1       4.906   6.243  11.248  1.00  0.00     0.053 C 
HETATM   19  C8  UNL     1       2.818   5.433  10.246  1.00  0.00     0.035 C 
HETATM   20  C9  UNL     1       1.367   5.860  10.051  1.00  0.00     0.010 C 
HETATM   21  C17 UNL     1       0.787   5.906  13.062  1.00  0.00     0.009 C 
HETATM   22  C18 UNL     1       0.351   6.402  14.444  1.00  0.00     0.047 C 
BRANCH   3  23
HETATM   23  O2  UNL     1      -0.781   8.325  15.286  1.00  0.00    -0.381 OA
HETATM   24  H27 UNL     1      -1.511   8.954  15.152  1.00  0.00     0.211 HD
ENDBRANCH   3  23
ENDBRANCH   1   3
BRANCH   1  25
HETATM   25  C21 UNL     1      -3.457   7.375  14.431  1.00  0.00     0.260 C 
BRANCH  25  26
HETATM   26  O4  UNL     1      -4.477   7.207  13.447  1.00  0.00    -0.314 OA
BRANCH  26  27
HETATM   27  C22 UNL     1      -5.749   7.117  13.925  1.00  0.00     0.259 C 
HETATM   28  O5  UNL     1      -6.357   8.029  14.465  1.00  0.00    -0.265 OA
BRANCH  27  29
HETATM   29  C23 UNL     1      -6.270   5.698  13.839  1.00  0.00     0.120 C 
BRANCH  29  30
HETATM   30  C24 UNL     1      -7.710   5.526  14.310  1.00  0.00     0.112 C 
BRANCH  30  31
HETATM   31  C25 UNL     1      -8.704   6.093  13.316  1.00  0.00     0.218 C 
HETATM   32  O6  UNL     1      -8.712   5.783  12.129  1.00  0.00    -0.274 OA
HETATM   33  N1  UNL     1      -9.597   6.971  13.884  1.00  0.00    -0.357 N 
HETATM   34  H34 UNL     1      -9.446   7.284  14.835  1.00  0.00     0.162 HD
BRANCH  33  35
HETATM   35  C26 UNL     1     -10.555   7.705  13.087  1.00  0.00     0.161 C 
BRANCH  35  36
HETATM   36  C27 UNL     1     -11.961   7.252  13.393  1.00  0.00    -0.040 A 
HETATM   37  C28 UNL     1     -13.064   7.875  12.792  1.00  0.00     0.010 A 
HETATM   38  C29 UNL     1     -14.363   7.443  13.071  1.00  0.00     0.019 A 
HETATM   39  C30 UNL     1     -14.577   6.374  13.949  1.00  0.00     0.037 A 
HETATM   40  C32 UNL     1     -13.480   5.741  14.545  1.00  0.00     0.019 A 
HETATM   41  C33 UNL     1     -12.181   6.177  14.268  1.00  0.00     0.010 A 
BRANCH  39  42
HETATM   42  C31 UNL     1     -15.936   5.880  14.274  1.00  0.00     0.176 C 
HETATM   43  O7  UNL     1     -16.636   5.192  13.554  1.00  0.00    -0.646 OA
BRANCH  42  44
HETATM   44  O8  UNL     1     -16.356   6.269  15.492  1.00  0.00    -0.773 OA
HETATM   45  H39 UNL     1     -17.248   5.864  15.568  1.00  0.00     0.167 HD
ENDBRANCH  42  44
ENDBRANCH  39  42
ENDBRANCH  35  36
ENDBRANCH  33  35
ENDBRANCH  30  31
ENDBRANCH  29  30
ENDBRANCH  27  29
ENDBRANCH  26  27
ENDBRANCH  25  26
ENDBRANCH   1  25
TORSDOF 12
ENDMDL
MODEL 6
REMARK minimizedAffinity -8.33827782
REMARK CNNscore 0.427273065
REMARK CNNaffinity 6.94765282
REMARK  12 active torsions:
REMARK  status: ('A' for Active; 'I' for Inactive)
REMARK    1  A    between atoms: C19_20  and  O2_21 
REMARK    2  A    between atoms: C19_20  and  C20_22 
REMARK    3  A    between atoms: C20_22  and  C21_24 
REMARK    4  A    between atoms: C21_24  and  O4_25 
REMARK    5  A    between atoms: O4_25  and  C22_26 
REMARK    6  A    between atoms: C22_26  and  C23_28 
REMARK    7  A    between atoms: C23_28  and  C24_29 
REMARK    8  A    between atoms: C24_29  and  C25_30 
REMARK       I    between atoms: C25_30  and  N1_32 
REMARK    9  A    between atoms: N1_32  and  C26_33 
REMARK   10  A    between atoms: C26_33  and  C27_34 
REMARK   11  A    between atoms: C30_37  and  C31_38 
REMARK   12  A    between atoms: C31_38  and  O8_40 
ROOT
HETATM    1  C20 UNL     1      -1.894   8.169  14.753  1.00  0.00     0.185 C 
HETATM    2  O3  UNL     1      -0.971   7.816  15.497  1.00  0.00    -0.292 OA
ENDROOT
BRANCH   1   3
HETATM    3  C19 UNL     1      -1.716   8.242  13.200  1.00  0.00     0.128 C 
HETATM    4  C14 UNL     1      -1.008   7.002  12.548  1.00  0.00    -0.002 C 
HETATM    5  C13 UNL     1      -1.158   6.986  10.996  1.00  0.00     0.013 C 
HETATM    6  C15 UNL     1      -1.528   5.652  13.071  1.00  0.00     0.019 C 
HETATM    7  C16 UNL     1       0.460   7.228  12.977  1.00  0.00     0.002 C 
HETATM    8  C12 UNL     1       0.139   7.148  10.206  1.00  0.00     0.007 C 
HETATM    9  C11 UNL     1       1.271   6.227  10.687  1.00  0.00     0.002 C 
HETATM   10  C2  UNL     1       2.592   6.323   9.837  1.00  0.00    -0.016 C 
HETATM   11  C10 UNL     1       1.498   6.359  12.232  1.00  0.00    -0.004 C 
HETATM   12  C1  UNL     1       3.421   5.021  10.038  1.00  0.00     0.020 C 
HETATM   13  C3  UNL     1       2.348   6.371   8.293  1.00  0.00     0.022 C 
HETATM   14  C7  UNL     1       3.371   7.538  10.318  1.00  0.00    -0.068 C 
HETATM   15  C4  UNL     1       2.146   7.751   7.682  1.00  0.00     0.084 C 
HETATM   16  C5  UNL     1       3.202   8.713   8.150  1.00  0.00     0.149 C 
HETATM   17  O1  UNL     1       3.612   9.635   7.448  1.00  0.00    -0.293 OA
HETATM   18  C6  UNL     1       3.674   8.596   9.544  1.00  0.00     0.053 C 
HETATM   19  C8  UNL     1       3.768   7.574  11.772  1.00  0.00     0.035 C 
HETATM   20  C9  UNL     1       2.932   6.694  12.696  1.00  0.00     0.010 C 
HETATM   21  C17 UNL     1       0.671   8.754  12.910  1.00  0.00     0.009 C 
HETATM   22  C18 UNL     1      -0.727   9.378  12.863  1.00  0.00     0.047 C 
BRANCH   3  23
HETATM   23  O2  UNL     1      -2.949   8.563  12.566  1.00  0.00    -0.381 OA
HETATM   24  H27 UNL     1      -3.587   7.863  12.787  1.00  0.00     0.211 HD
ENDBRANCH   3  23
ENDBRANCH   1   3
BRANCH   1  25
HETATM   25  C21 UNL     1      -3.266   8.464  15.368  1.00  0.00     0.260 C 
BRANCH  25  26
HETATM   26  O4  UNL     1      -4.380   7.966  14.627  1.00  0.00    -0.314 OA
BRANCH  26  27
HETATM   27  C22 UNL     1      -4.577   6.619  14.693  1.00  0.00     0.259 C 
HETATM   28  O5  UNL     1      -4.180   5.901  15.598  1.00  0.00    -0.265 OA
BRANCH  27  29
HETATM   29  C23 UNL     1      -5.224   6.096  13.429  1.00  0.00     0.120 C 
BRANCH  29  30
HETATM   30  C24 UNL     1      -5.827   4.700  13.562  1.00  0.00     0.112 C 
BRANCH  30  31
HETATM   31  C25 UNL     1      -7.086   4.704  14.407  1.00  0.00     0.218 C 
HETATM   32  O6  UNL     1      -7.828   3.733  14.503  1.00  0.00    -0.274 OA
HETATM   33  N1  UNL     1      -7.296   5.897  15.058  1.00  0.00    -0.357 N 
HETATM   34  H34 UNL     1      -6.722   6.696  14.825  1.00  0.00     0.162 HD
BRANCH  33  35
HETATM   35  C26 UNL     1      -8.497   6.142  15.826  1.00  0.00     0.161 C 
BRANCH  35  36
HETATM   36  C27 UNL     1      -9.465   6.997  15.045  1.00  0.00    -0.040 A 
HETATM   37  C28 UNL     1      -9.928   6.590  13.785  1.00  0.00     0.010 A 
HETATM   38  C29 UNL     1     -10.833   7.381  13.073  1.00  0.00     0.019 A 
HETATM   39  C30 UNL     1     -11.294   8.586  13.614  1.00  0.00     0.037 A 
HETATM   40  C32 UNL     1     -10.843   8.994  14.875  1.00  0.00     0.019 A 
HETATM   41  C33 UNL     1      -9.935   8.204  15.585  1.00  0.00     0.010 A 
BRANCH  39  42
HETATM   42  C31 UNL     1     -12.255   9.458  12.896  1.00  0.00     0.176 C 
HETATM   43  O7  UNL     1     -13.172   9.079  12.191  1.00  0.00    -0.646 OA
BRANCH  42  44
HETATM   44  O8  UNL     1     -12.023  10.768  13.097  1.00  0.00    -0.773 OA
HETATM   45  H39 UNL     1     -12.731  11.209  12.578  1.00  0.00     0.167 HD
ENDBRANCH  42  44
ENDBRANCH  39  42
ENDBRANCH  35  36
ENDBRANCH  33  35
ENDBRANCH  30  31
ENDBRANCH  29  30
ENDBRANCH  27  29
ENDBRANCH  26  27
ENDBRANCH  25  26
ENDBRANCH   1  25
TORSDOF 12
ENDMDL
MODEL 7
REMARK minimizedAffinity -8.76244926
REMARK CNNscore 0.389085174
REMARK CNNaffinity 6.91274595
REMARK  12 active torsions:
REMARK  status: ('A' for Active; 'I' for Inactive)
REMARK    1  A    between atoms: C19_20  and  O2_21 
REMARK    2  A    between atoms: C19_20  and  C20_22 
REMARK    3  A    between atoms: C20_22  and  C21_24 
REMARK    4  A    between atoms: C21_24  and  O4_25 
REMARK    5  A    between atoms: O4_25  and  C22_26 
REMARK    6  A    between atoms: C22_26  and  C23_28 
REMARK    7  A    between atoms: C23_28  and  C24_29 
REMARK    8  A    between atoms: C24_29  and  C25_30 
REMARK       I    between atoms: C25_30  and  N1_32 
REMARK    9  A    between atoms: N1_32  and  C26_33 
REMARK   10  A    between atoms: C26_33  and  C27_34 
REMARK   11  A    between atoms: C30_37  and  C31_38 
REMARK   12  A    between atoms: C31_38  and  O8_40 
ROOT
HETATM    1  C20 UNL     1      -1.731   6.523  13.877  1.00  0.00     0.185 C 
HETATM    2  O3  UNL     1      -1.801   5.330  13.560  1.00  0.00    -0.292 OA
ENDROOT
BRANCH   1   3
HETATM    3  C19 UNL     1      -0.361   7.276  13.949  1.00  0.00     0.128 C 
HETATM    4  C14 UNL     1       0.052   8.044  12.644  1.00  0.00    -0.002 C 
HETATM    5  C13 UNL     1       1.238   9.025  12.888  1.00  0.00     0.013 C 
HETATM    6  C15 UNL     1      -1.095   8.859  12.022  1.00  0.00     0.019 C 
HETATM    7  C16 UNL     1       0.460   6.875  11.718  1.00  0.00     0.002 C 
HETATM    8  C12 UNL     1       2.535   8.688  12.155  1.00  0.00     0.007 C 
HETATM    9  C11 UNL     1       2.336   8.381  10.663  1.00  0.00     0.002 C 
HETATM   10  C2  UNL     1       3.669   8.106   9.873  1.00  0.00    -0.016 C 
HETATM   11  C10 UNL     1       1.232   7.290  10.446  1.00  0.00    -0.004 C 
HETATM   12  C1  UNL     1       3.422   8.358   8.356  1.00  0.00     0.020 C 
HETATM   13  C3  UNL     1       4.829   9.093  10.227  1.00  0.00     0.022 C 
HETATM   14  C7  UNL     1       4.071   6.660  10.120  1.00  0.00    -0.068 C 
HETATM   15  C4  UNL     1       5.726   8.695  11.391  1.00  0.00     0.084 C 
HETATM   16  C5  UNL     1       6.175   7.266  11.267  1.00  0.00     0.149 C 
HETATM   17  O1  UNL     1       7.263   6.878  11.685  1.00  0.00    -0.293 OA
HETATM   18  C6  UNL     1       5.217   6.286  10.717  1.00  0.00     0.053 C 
HETATM   19  C8  UNL     1       3.084   5.590   9.724  1.00  0.00     0.035 C 
HETATM   20  C9  UNL     1       1.634   6.052   9.616  1.00  0.00     0.010 C 
HETATM   21  C17 UNL     1       1.156   5.853  12.638  1.00  0.00     0.009 C 
HETATM   22  C18 UNL     1       0.774   6.237  14.071  1.00  0.00     0.047 C 
BRANCH   3  23
HETATM   23  O2  UNL     1      -0.298   8.098  15.110  1.00  0.00    -0.381 OA
HETATM   24  H27 UNL     1      -1.021   8.745  15.054  1.00  0.00     0.211 HD
ENDBRANCH   3  23
ENDBRANCH   1   3
BRANCH   1  25
HETATM   25  C21 UNL     1      -3.030   7.298  14.125  1.00  0.00     0.260 C 
BRANCH  25  26
HETATM   26  O4  UNL     1      -3.982   7.234  13.064  1.00  0.00    -0.314 OA
BRANCH  26  27
HETATM   27  C22 UNL     1      -5.258   6.929  13.434  1.00  0.00     0.259 C 
HETATM   28  O5  UNL     1      -6.041   7.714  13.947  1.00  0.00    -0.265 OA
BRANCH  27  29
HETATM   29  C23 UNL     1      -5.540   5.452  13.267  1.00  0.00     0.120 C 
BRANCH  29  30
HETATM   30  C24 UNL     1      -6.602   4.903  14.215  1.00  0.00     0.112 C 
BRANCH  30  31
HETATM   31  C25 UNL     1      -8.002   5.079  13.661  1.00  0.00     0.218 C 
HETATM   32  O6  UNL     1      -8.441   4.413  12.730  1.00  0.00    -0.274 OA
HETATM   33  N1  UNL     1      -8.726   6.046  14.318  1.00  0.00    -0.357 N 
HETATM   34  H34 UNL     1      -8.257   6.649  14.983  1.00  0.00     0.162 HD
BRANCH  33  35
HETATM   35  C26 UNL     1     -10.044   6.444  13.874  1.00  0.00     0.161 C 
BRANCH  35  36
HETATM   36  C27 UNL     1     -10.262   7.919  14.104  1.00  0.00    -0.040 A 
HETATM   37  C28 UNL     1     -11.347   8.585  13.517  1.00  0.00     0.010 A 
HETATM   38  C29 UNL     1     -11.549   9.950  13.743  1.00  0.00     0.019 A 
HETATM   39  C30 UNL     1     -10.673  10.664  14.568  1.00  0.00     0.037 A 
HETATM   40  C32 UNL     1      -9.594  10.003  15.165  1.00  0.00     0.019 A 
HETATM   41  C33 UNL     1      -9.390   8.640  14.935  1.00  0.00     0.010 A 
BRANCH  39  42
HETATM   42  C31 UNL     1     -10.848  12.111  14.838  1.00  0.00     0.176 C 
HETATM   43  O7  UNL     1     -11.659  12.601  15.603  1.00  0.00    -0.646 OA
BRANCH  42  44
HETATM   44  O8  UNL     1      -9.993  12.881  14.139  1.00  0.00    -0.773 OA
HETATM   45  H39 UNL     1     -10.217  13.793  14.426  1.00  0.00     0.167 HD
ENDBRANCH  42  44
ENDBRANCH  39  42
ENDBRANCH  35  36
ENDBRANCH  33  35
ENDBRANCH  30  31
ENDBRANCH  29  30
ENDBRANCH  27  29
ENDBRANCH  26  27
ENDBRANCH  25  26
ENDBRANCH   1  25
TORSDOF 12
ENDMDL
MODEL 8
REMARK minimizedAffinity -9.97910023
REMARK CNNscore 0.367708862
REMARK CNNaffinity 7.06174469
REMARK  12 active torsions:
REMARK  status: ('A' for Active; 'I' for Inactive)
REMARK    1  A    between atoms: C19_20  and  O2_21 
REMARK    2  A    between atoms: C19_20  and  C20_22 
REMARK    3  A    between atoms: C20_22  and  C21_24 
REMARK    4  A    between atoms: C21_24  and  O4_25 
REMARK    5  A    between atoms: O4_25  and  C22_26 
REMARK    6  A    between atoms: C22_26  and  C23_28 
REMARK    7  A    between atoms: C23_28  and  C24_29 
REMARK    8  A    between atoms: C24_29  and  C25_30 
REMARK       I    between atoms: C25_30  and  N1_32 
REMARK    9  A    between atoms: N1_32  and  C26_33 
REMARK   10  A    between atoms: C26_33  and  C27_34 
REMARK   11  A    between atoms: C30_37  and  C31_38 
REMARK   12  A    between atoms: C31_38  and  O8_40 
ROOT
HETATM    1  C20 UNL     1      -1.506   7.126  14.725  1.00  0.00     0.185 C 
HETATM    2  O3  UNL     1      -1.565   5.891  14.677  1.00  0.00    -0.292 OA
ENDROOT
BRANCH   1   3
HETATM    3  C19 UNL     1      -0.168   7.895  14.467  1.00  0.00     0.128 C 
HETATM    4  C14 UNL     1       0.065   8.357  12.985  1.00  0.00    -0.002 C 
HETATM    5  C13 UNL     1       1.230   9.385  12.864  1.00  0.00     0.013 C 
HETATM    6  C15 UNL     1      -1.176   8.994  12.338  1.00  0.00     0.019 C 
HETATM    7  C16 UNL     1       0.414   7.015  12.300  1.00  0.00     0.002 C 
HETATM    8  C12 UNL     1       2.450   8.911  12.077  1.00  0.00     0.007 C 
HETATM    9  C11 UNL     1       2.098   8.273  10.724  1.00  0.00     0.002 C 
HETATM   10  C2  UNL     1       3.345   7.848   9.863  1.00  0.00    -0.016 C 
HETATM   11  C10 UNL     1       1.022   7.146  10.885  1.00  0.00    -0.004 C 
HETATM   12  C1  UNL     1       2.920   7.749   8.368  1.00  0.00     0.020 C 
HETATM   13  C3  UNL     1       4.496   8.906   9.850  1.00  0.00     0.022 C 
HETATM   14  C7  UNL     1       3.830   6.500  10.376  1.00  0.00    -0.068 C 
HETATM   15  C4  UNL     1       5.532   8.793  10.960  1.00  0.00     0.084 C 
HETATM   16  C5  UNL     1       6.023   7.379  11.104  1.00  0.00     0.149 C 
HETATM   17  O1  UNL     1       7.166   7.111  11.466  1.00  0.00    -0.293 OA
HETATM   18  C6  UNL     1       5.050   6.287  10.901  1.00  0.00     0.053 C 
HETATM   19  C8  UNL     1       2.850   5.355  10.345  1.00  0.00     0.035 C 
HETATM   20  C9  UNL     1       1.379   5.759  10.309  1.00  0.00     0.010 C 
HETATM   21  C17 UNL     1       1.250   6.237  13.335  1.00  0.00     0.009 C 
HETATM   22  C18 UNL     1       1.015   6.927  14.681  1.00  0.00     0.047 C 
BRANCH   3  23
HETATM   23  O2  UNL     1      -0.010   8.958  15.401  1.00  0.00    -0.381 OA
HETATM   24  H27 UNL     1      -0.761   9.565  15.289  1.00  0.00     0.211 HD
ENDBRANCH   3  23
ENDBRANCH   1   3
BRANCH   1  25
HETATM   25  C21 UNL     1      -2.796   7.917  14.964  1.00  0.00     0.260 C 
BRANCH  25  26
HETATM   26  O4  UNL     1      -3.993   7.258  14.552  1.00  0.00    -0.314 OA
BRANCH  26  27
HETATM   27  C22 UNL     1      -4.904   8.039  13.906  1.00  0.00     0.259 C 
HETATM   28  O5  UNL     1      -4.715   8.585  12.829  1.00  0.00    -0.265 OA
BRANCH  27  29
HETATM   29  C23 UNL     1      -6.132   8.272  14.759  1.00  0.00     0.120 C 
BRANCH  29  30
HETATM   30  C24 UNL     1      -6.918   7.006  15.088  1.00  0.00     0.112 C 
BRANCH  30  31
HETATM   31  C25 UNL     1      -7.138   6.140  13.864  1.00  0.00     0.218 C 
HETATM   32  O6  UNL     1      -7.970   6.401  13.002  1.00  0.00    -0.274 OA
HETATM   33  N1  UNL     1      -6.303   5.049  13.817  1.00  0.00    -0.357 N 
HETATM   34  H34 UNL     1      -5.740   4.821  14.626  1.00  0.00     0.162 HD
BRANCH  33  35
HETATM   35  C26 UNL     1      -6.427   4.040  12.788  1.00  0.00     0.161 C 
BRANCH  35  36
HETATM   36  C27 UNL     1      -5.067   3.570  12.334  1.00  0.00    -0.040 A 
HETATM   37  C28 UNL     1      -3.946   4.407  12.437  1.00  0.00     0.010 A 
HETATM   38  C29 UNL     1      -2.687   3.961  12.026  1.00  0.00     0.019 A 
HETATM   39  C30 UNL     1      -2.531   2.668  11.513  1.00  0.00     0.037 A 
HETATM   40  C32 UNL     1      -3.643   1.825  11.416  1.00  0.00     0.019 A 
HETATM   41  C33 UNL     1      -4.902   2.273  11.825  1.00  0.00     0.010 A 
BRANCH  39  42
HETATM   42  C31 UNL     1      -1.215   2.152  11.065  1.00  0.00     0.176 C 
HETATM   43  O7  UNL     1      -0.130   2.481  11.509  1.00  0.00    -0.646 OA
BRANCH  42  44
HETATM   44  O8  UNL     1      -1.320   1.240  10.080  1.00  0.00    -0.773 OA
HETATM   45  H39 UNL     1      -0.388   0.987   9.901  1.00  0.00     0.167 HD
ENDBRANCH  42  44
ENDBRANCH  39  42
ENDBRANCH  35  36
ENDBRANCH  33  35
ENDBRANCH  30  31
ENDBRANCH  29  30
ENDBRANCH  27  29
ENDBRANCH  26  27
ENDBRANCH  25  26
ENDBRANCH   1  25
TORSDOF 12
ENDMDL
MODEL 9
REMARK minimizedAffinity -9.65481663
REMARK CNNscore 0.338881701
REMARK CNNaffinity 7.03528166
REMARK  12 active torsions:
REMARK  status: ('A' for Active; 'I' for Inactive)
REMARK    1  A    between atoms: C19_20  and  O2_21 
REMARK    2  A    between atoms: C19_20  and  C20_22 
REMARK    3  A    between atoms: C20_22  and  C21_24 
REMARK    4  A    between atoms: C21_24  and  O4_25 
REMARK    5  A    between atoms: O4_25  and  C22_26 
REMARK    6  A    between atoms: C22_26  and  C23_28 
REMARK    7  A    between atoms: C23_28  and  C24_29 
REMARK    8  A    between atoms: C24_29  and  C25_30 
REMARK       I    between atoms: C25_30  and  N1_32 
REMARK    9  A    between atoms: N1_32  and  C26_33 
REMARK   10  A    between atoms: C26_33  and  C27_34 
REMARK   11  A    between atoms: C30_37  and  C31_38 
REMARK   12  A    between atoms: C31_38  and  O8_40 
ROOT
HETATM    1  C20 UNL     1      -2.488   7.380  13.406  1.00  0.00     0.185 C 
HETATM    2  O3  UNL     1      -2.712   8.596  13.454  1.00  0.00    -0.292 OA
ENDROOT
BRANCH   1   3
HETATM    3  C19 UNL     1      -1.033   6.808  13.474  1.00  0.00     0.128 C 
HETATM    4  C14 UNL     1       0.092   7.775  12.963  1.00  0.00    -0.002 C 
HETATM    5  C13 UNL     1       1.517   7.284  13.360  1.00  0.00     0.013 C 
HETATM    6  C15 UNL     1      -0.055   9.216  13.479  1.00  0.00     0.019 C 
HETATM    7  C16 UNL     1      -0.126   7.715  11.433  1.00  0.00     0.002 C 
HETATM    8  C12 UNL     1       2.426   6.886  12.199  1.00  0.00     0.007 C 
HETATM    9  C11 UNL     1       2.467   7.924  11.067  1.00  0.00     0.002 C 
HETATM   10  C2  UNL     1       3.457   7.570   9.896  1.00  0.00    -0.016 C 
HETATM   11  C10 UNL     1       1.024   8.304  10.587  1.00  0.00    -0.004 C 
HETATM   12  C1  UNL     1       3.828   8.875   9.132  1.00  0.00     0.020 C 
HETATM   13  C3  UNL     1       4.838   7.020  10.380  1.00  0.00     0.022 C 
HETATM   14  C7  UNL     1       2.756   6.585   8.972  1.00  0.00    -0.068 C 
HETATM   15  C4  UNL     1       4.933   5.514  10.587  1.00  0.00     0.084 C 
HETATM   16  C5  UNL     1       4.372   4.767   9.410  1.00  0.00     0.149 C 
HETATM   17  O1  UNL     1       4.803   3.671   9.058  1.00  0.00    -0.293 OA
HETATM   18  C6  UNL     1       3.192   5.336   8.729  1.00  0.00     0.053 C 
HETATM   19  C8  UNL     1       1.458   7.028   8.346  1.00  0.00     0.035 C 
HETATM   20  C9  UNL     1       0.733   8.153   9.078  1.00  0.00     0.010 C 
HETATM   21  C17 UNL     1      -0.514   6.253  11.136  1.00  0.00     0.009 C 
HETATM   22  C18 UNL     1      -0.910   5.634  12.480  1.00  0.00     0.047 C 
BRANCH   3  23
HETATM   23  O2  UNL     1      -0.758   6.286  14.770  1.00  0.00    -0.381 OA
HETATM   24  H27 UNL     1      -0.851   7.014  15.408  1.00  0.00     0.211 HD
ENDBRANCH   3  23
ENDBRANCH   1   3
BRANCH   1  25
HETATM   25  C21 UNL     1      -3.677   6.413  13.359  1.00  0.00     0.260 C 
BRANCH  25  26
HETATM   26  O4  UNL     1      -4.498   6.409  14.526  1.00  0.00    -0.314 OA
BRANCH  26  27
HETATM   27  C22 UNL     1      -5.705   7.028  14.401  1.00  0.00     0.259 C 
HETATM   28  O5  UNL     1      -5.926   7.980  13.668  1.00  0.00    -0.265 OA
BRANCH  27  29
HETATM   29  C23 UNL     1      -6.708   6.484  15.394  1.00  0.00     0.120 C 
BRANCH  29  30
HETATM   30  C24 UNL     1      -7.263   5.108  15.039  1.00  0.00     0.112 C 
BRANCH  30  31
HETATM   31  C25 UNL     1      -7.261   4.864  13.542  1.00  0.00     0.218 C 
HETATM   32  O6  UNL     1      -8.028   5.432  12.773  1.00  0.00    -0.274 OA
HETATM   33  N1  UNL     1      -6.306   3.959  13.143  1.00  0.00    -0.357 N 
HETATM   34  H34 UNL     1      -5.802   3.430  13.844  1.00  0.00     0.162 HD
BRANCH  33  35
HETATM   35  C26 UNL     1      -6.212   3.507  11.772  1.00  0.00     0.161 C 
BRANCH  35  36
HETATM   36  C27 UNL     1      -4.830   2.980  11.478  1.00  0.00    -0.040 A 
HETATM   37  C28 UNL     1      -4.439   1.705  11.913  1.00  0.00     0.010 A 
HETATM   38  C29 UNL     1      -3.160   1.219  11.626  1.00  0.00     0.019 A 
HETATM   39  C30 UNL     1      -2.258   1.997  10.893  1.00  0.00     0.037 A 
HETATM   40  C32 UNL     1      -2.645   3.266  10.448  1.00  0.00     0.019 A 
HETATM   41  C33 UNL     1      -3.922   3.754  10.738  1.00  0.00     0.010 A 
BRANCH  39  42
HETATM   42  C31 UNL     1      -0.892   1.523  10.564  1.00  0.00     0.176 C 
HETATM   43  O7  UNL     1       0.125   1.800  11.173  1.00  0.00    -0.646 OA
BRANCH  42  44
HETATM   44  O8  UNL     1      -0.865   0.717   9.487  1.00  0.00    -0.773 OA
HETATM   45  H39 UNL     1       0.085   0.479   9.402  1.00  0.00     0.167 HD
ENDBRANCH  42  44
ENDBRANCH  39  42
ENDBRANCH  35  36
ENDBRANCH  33  35
ENDBRANCH  30  31
ENDBRANCH  29  30
ENDBRANCH  27  29
ENDBRANCH  26  27
ENDBRANCH  25  26
ENDBRANCH   1  25
TORSDOF 12
ENDMDL
