MODEL 1
REMARK minimizedAffinity -7.99594021
REMARK CNNscore 0.564810812
REMARK CNNaffinity 6.69105673
REMARK  5 active torsions:
REMARK  status: ('A' for Active; 'I' for Inactive)
REMARK    1  A    between atoms: C2_2  and  C4_4 
REMARK    2  A    between atoms: C10_11  and  O2_12 
REMARK    3  A    between atoms: C13_15  and  O3_16 
REMARK    4  A    between atoms: C32_39  and  O6_40 
REMARK    5  A    between atoms: C37_46  and  O8_47 
ROOT
HETATM    1  C4  UNL     1      -0.578   7.464  14.101  1.00  0.00     0.181 C 
HETATM    2  O1  UNL     1      -1.904   8.018  14.169  1.00  0.00    -0.370 OA
HETATM    3  C5  UNL     1      -1.977   9.466  14.161  1.00  0.00     0.163 C 
HETATM    4  C6  UNL     1      -3.381   9.761  14.656  1.00  0.00     0.036 C 
HETATM    5  C7  UNL     1      -3.629  11.225  15.011  1.00  0.00     0.016 C 
HETATM    6  C8  UNL     1      -2.607  11.818  16.012  1.00  0.00     0.008 C 
HETATM    7  C9  UNL     1      -2.630  10.953  17.311  1.00  0.00     0.020 C 
HETATM    8  C10 UNL     1      -1.178  11.624  15.373  1.00  0.00     0.103 C 
HETATM    9  C11 UNL     1      -0.103  12.223  16.302  1.00  0.00     0.047 C 
HETATM   10  C12 UNL     1      -0.330  13.668  16.743  1.00  0.00     0.073 C 
HETATM   11  C13 UNL     1      -1.628  14.328  16.248  1.00  0.00     0.179 C 
HETATM   12  O4  UNL     1      -1.777  15.614  16.871  1.00  0.00    -0.320 OA
HETATM   13  C14 UNL     1      -2.119  15.641  18.264  1.00  0.00     0.302 C 
HETATM   14  O5  UNL     1      -0.960  15.441  19.062  1.00  0.00    -0.346 OA
HETATM   15  C15 UNL     1      -0.650  16.419  20.072  1.00  0.00     0.064 C 
HETATM   16  C16 UNL     1       0.747  15.994  20.562  1.00  0.00     0.046 C 
HETATM   17  C17 UNL     1      -0.504  17.830  19.504  1.00  0.00     0.046 C 
HETATM   18  C18 UNL     1      -1.620  16.289  21.251  1.00  0.00     0.060 C 
HETATM   19  C19 UNL     1      -1.558  17.325  22.394  1.00  0.00     0.023 C 
HETATM   20  C20 UNL     1      -3.071  17.141  22.628  1.00  0.00     0.054 C 
HETATM   21  C21 UNL     1      -3.568  16.200  23.677  1.00  0.00    -0.077 C 
HETATM   22  C22 UNL     1      -2.924  16.064  24.850  1.00  0.00     0.015 C 
HETATM   23  C23 UNL     1      -4.869  15.488  23.371  1.00  0.00     0.074 C 
HETATM   24  C24 UNL     1      -4.878  14.759  22.037  1.00  0.00    -0.022 A 
HETATM   25  C25 UNL     1      -5.688  13.642  21.809  1.00  0.00     0.043 A 
HETATM   26 CL1  UNL     1      -6.745  13.044  23.039  1.00  0.00    -0.084 Cl
HETATM   27  C26 UNL     1      -5.690  12.975  20.578  1.00  0.00     0.054 A 
HETATM   28  C27 UNL     1      -4.814  13.443  19.589  1.00  0.00     0.045 A 
HETATM   29  N1  UNL     1      -4.608  12.981  18.304  1.00  0.00    -0.357 N 
HETATM   30  C28 UNL     1      -3.547  13.623  17.736  1.00  0.00     0.036 C 
HETATM   31  C29 UNL     1      -3.176  14.644  18.597  1.00  0.00     0.033 C 
HETATM   32  C30 UNL     1      -3.970  14.540  19.779  1.00  0.00     0.014 A 
HETATM   33  C31 UNL     1      -4.055  15.262  20.995  1.00  0.00    -0.001 A 
HETATM   34  C32 UNL     1      -3.172  16.565  21.152  1.00  0.00     0.100 C 
HETATM   35  C33 UNL     1      -2.949  13.397  16.337  1.00  0.00     0.066 C 
HETATM   36  C34 UNL     1      -4.015  14.024  15.360  1.00  0.00     0.028 C 
HETATM   37  C35 UNL     1      -0.916  10.150  15.016  1.00  0.00     0.147 A 
HETATM   38  O7  UNL     1       0.420  10.024  14.445  1.00  0.00    -0.360 OA
HETATM   39  C36 UNL     1       0.175   9.299  15.634  1.00  0.00     0.194 A 
HETATM   40  C37 UNL     1       0.087   7.803  15.465  1.00  0.00     0.183 C 
HETATM   41  H37 UNL     1      -5.136  12.231  17.888  1.00  0.00     0.166 HD
ENDROOT
BRANCH   1  42
HETATM   42  C2  UNL     1      -0.743   5.994  13.736  1.00  0.00    -0.062 C 
HETATM   43  C1  UNL     1       0.243   5.188  13.287  1.00  0.00     0.016 C 
HETATM   44  C3  UNL     1      -2.135   5.439  13.882  1.00  0.00     0.045 C 
ENDBRANCH   1  42
BRANCH  40  45
HETATM   45  O8  UNL     1      -0.728   7.313  16.552  1.00  0.00    -0.390 OA
HETATM   46  H44 UNL     1      -1.629   7.255  16.176  1.00  0.00     0.210 HD
ENDBRANCH  40  45
BRANCH   8  47
HETATM   47  O2  UNL     1      -1.086  12.305  14.130  1.00  0.00    -0.386 OA
HETATM   48  H15 UNL     1      -0.233  12.052  13.723  1.00  0.00     0.210 HD
ENDBRANCH   8  47
BRANCH  11  49
HETATM   49  O3  UNL     1      -1.459  14.694  14.864  1.00  0.00    -0.364 OA
HETATM   50  H20 UNL     1      -0.569  14.459  14.581  1.00  0.00     0.213 HD
ENDBRANCH  11  49
BRANCH  34  51
HETATM   51  O6  UNL     1      -3.580  17.590  20.208  1.00  0.00    -0.384 OA
HETATM   52  H38 UNL     1      -4.535  17.670  20.369  1.00  0.00     0.211 HD
ENDBRANCH  34  51
TORSDOF 5
ENDMDL
MODEL 2
REMARK minimizedAffinity -7.74494171
REMARK CNNscore 0.465820193
REMARK CNNaffinity 6.18764448
REMARK  5 active torsions:
REMARK  status: ('A' for Active; 'I' for Inactive)
REMARK    1  A    between atoms: C2_2  and  C4_4 
REMARK    2  A    between atoms: C10_11  and  O2_12 
REMARK    3  A    between atoms: C13_15  and  O3_16 
REMARK    4  A    between atoms: C32_39  and  O6_40 
REMARK    5  A    between atoms: C37_46  and  O8_47 
ROOT
HETATM    1  C4  UNL     1     -14.152   2.804  24.764  1.00  0.00     0.181 C 
HETATM    2  O1  UNL     1     -14.254   4.076  25.429  1.00  0.00    -0.370 OA
HETATM    3  C5  UNL     1     -14.804   5.154  24.632  1.00  0.00     0.163 C 
HETATM    4  C6  UNL     1     -14.412   6.406  25.396  1.00  0.00     0.036 C 
HETATM    5  C7  UNL     1     -14.625   7.708  24.626  1.00  0.00     0.016 C 
HETATM    6  C8  UNL     1     -13.954   7.737  23.230  1.00  0.00     0.008 C 
HETATM    7  C9  UNL     1     -12.425   7.482  23.413  1.00  0.00     0.020 C 
HETATM    8  C10 UNL     1     -14.520   6.503  22.426  1.00  0.00     0.103 C 
HETATM    9  C11 UNL     1     -13.919   6.484  21.007  1.00  0.00     0.047 C 
HETATM   10  C12 UNL     1     -14.047   7.781  20.209  1.00  0.00     0.073 C 
HETATM   11  C13 UNL     1     -14.712   8.960  20.940  1.00  0.00     0.179 C 
HETATM   12  O4  UNL     1     -14.613  10.140  20.128  1.00  0.00    -0.320 OA
HETATM   13  C14 UNL     1     -13.323  10.754  20.001  1.00  0.00     0.302 C 
HETATM   14  O5  UNL     1     -12.547  10.075  19.025  1.00  0.00    -0.346 OA
HETATM   15  C15 UNL     1     -11.989  10.843  17.942  1.00  0.00     0.064 C 
HETATM   16  C16 UNL     1     -11.420   9.767  16.998  1.00  0.00     0.046 C 
HETATM   17  C17 UNL     1     -13.050  11.604  17.149  1.00  0.00     0.046 C 
HETATM   18  C18 UNL     1     -10.816  11.693  18.443  1.00  0.00     0.060 C 
HETATM   19  C19 UNL     1     -10.150  12.698  17.480  1.00  0.00     0.023 C 
HETATM   20  C20 UNL     1      -9.815  13.608  18.679  1.00  0.00     0.054 C 
HETATM   21  C21 UNL     1      -8.474  13.538  19.333  1.00  0.00    -0.077 C 
HETATM   22  C22 UNL     1      -7.357  13.338  18.611  1.00  0.00     0.015 C 
HETATM   23  C23 UNL     1      -8.447  13.790  20.827  1.00  0.00     0.074 C 
HETATM   24  C24 UNL     1      -9.408  12.918  21.619  1.00  0.00    -0.022 A 
HETATM   25  C25 UNL     1      -9.173  12.583  22.956  1.00  0.00     0.043 A 
HETATM   26 CL1  UNL     1      -7.775  13.170  23.787  1.00  0.00    -0.084 Cl
HETATM   27  C26 UNL     1     -10.062  11.779  23.679  1.00  0.00     0.054 A 
HETATM   28  C27 UNL     1     -11.182  11.282  23.000  1.00  0.00     0.045 A 
HETATM   29  N1  UNL     1     -12.204  10.475  23.457  1.00  0.00    -0.357 N 
HETATM   30  C28 UNL     1     -13.007  10.095  22.422  1.00  0.00     0.036 C 
HETATM   31  C29 UNL     1     -12.605  10.815  21.307  1.00  0.00     0.033 C 
HETATM   32  C30 UNL     1     -11.446  11.570  21.658  1.00  0.00     0.014 A 
HETATM   33  C31 UNL     1     -10.589  12.466  20.973  1.00  0.00    -0.001 A 
HETATM   34  C32 UNL     1     -10.962  12.868  19.489  1.00  0.00     0.100 C 
HETATM   35  C33 UNL     1     -14.236   9.173  22.472  1.00  0.00     0.066 C 
HETATM   36  C34 UNL     1     -15.343  10.049  23.175  1.00  0.00     0.028 C 
HETATM   37  C35 UNL     1     -14.303   5.185  23.192  1.00  0.00     0.147 A 
HETATM   38  O7  UNL     1     -14.829   4.078  22.402  1.00  0.00    -0.360 OA
HETATM   39  C36 UNL     1     -13.446   4.037  22.698  1.00  0.00     0.194 A 
HETATM   40  C37 UNL     1     -13.038   2.981  23.694  1.00  0.00     0.183 C 
HETATM   41  H37 UNL     1     -12.291  10.170  24.414  1.00  0.00     0.166 HD
ENDROOT
BRANCH   1  42
HETATM   42  C2  UNL     1     -13.931   1.764  25.855  1.00  0.00    -0.062 C 
HETATM   43  C1  UNL     1     -14.852   0.870  26.276  1.00  0.00     0.016 C 
HETATM   44  C3  UNL     1     -12.574   1.779  26.505  1.00  0.00     0.045 C 
ENDBRANCH   1  42
BRANCH  40  45
HETATM   45  O8  UNL     1     -11.821   3.449  24.315  1.00  0.00    -0.390 OA
HETATM   46  H44 UNL     1     -12.118   3.889  25.136  1.00  0.00     0.210 HD
ENDBRANCH  40  45
BRANCH   8  47
HETATM   47  O2  UNL     1     -15.930   6.597  22.286  1.00  0.00    -0.386 OA
HETATM   48  H15 UNL     1     -16.238   5.756  21.893  1.00  0.00     0.210 HD
ENDBRANCH   8  47
BRANCH  11  49
HETATM   49  O3  UNL     1     -16.137   8.741  20.964  1.00  0.00    -0.364 OA
HETATM   50  H20 UNL     1     -16.339   7.922  20.500  1.00  0.00     0.213 HD
ENDBRANCH  11  49
BRANCH  34  51
HETATM   51  O6  UNL     1     -12.208  13.611  19.447  1.00  0.00    -0.384 OA
HETATM   52  H38 UNL     1     -12.059  14.329  20.084  1.00  0.00     0.211 HD
ENDBRANCH  34  51
TORSDOF 5
ENDMDL
MODEL 3
REMARK minimizedAffinity -8.13161087
REMARK CNNscore 0.329041094
REMARK CNNaffinity 6.44682693
REMARK  5 active torsions:
REMARK  status: ('A' for Active; 'I' for Inactive)
REMARK    1  A    between atoms: C2_2  and  C4_4 
REMARK    2  A    between atoms: C10_11  and  O2_12 
REMARK    3  A    between atoms: C13_15  and  O3_16 
REMARK    4  A    between atoms: C32_39  and  O6_40 
REMARK    5  A    between atoms: C37_46  and  O8_47 
ROOT
HETATM    1  C4  UNL     1      -1.764   6.350  14.213  1.00  0.00     0.181 C 
HETATM    2  O1  UNL     1      -1.727   7.625  13.545  1.00  0.00    -0.370 OA
HETATM    3  C5  UNL     1      -1.356   8.754  14.375  1.00  0.00     0.163 C 
HETATM    4  C6  UNL     1      -1.799   9.959  13.566  1.00  0.00     0.036 C 
HETATM    5  C7  UNL     1      -1.781  11.277  14.337  1.00  0.00     0.016 C 
HETATM    6  C8  UNL     1      -2.572  11.245  15.668  1.00  0.00     0.008 C 
HETATM    7  C9  UNL     1      -4.047  10.843  15.355  1.00  0.00     0.020 C 
HETATM    8  C10 UNL     1      -1.964  10.074  16.532  1.00  0.00     0.103 C 
HETATM    9  C11 UNL     1      -2.682  10.001  17.894  1.00  0.00     0.047 C 
HETATM   10  C12 UNL     1      -2.751  11.305  18.685  1.00  0.00     0.073 C 
HETATM   11  C13 UNL     1      -2.142  12.541  18.002  1.00  0.00     0.179 C 
HETATM   12  O4  UNL     1      -2.425  13.709  18.789  1.00  0.00    -0.320 OA
HETATM   13  C14 UNL     1      -3.775  14.195  18.795  1.00  0.00     0.302 C 
HETATM   14  O5  UNL     1      -4.565  13.446  19.707  1.00  0.00    -0.346 OA
HETATM   15  C15 UNL     1      -5.288  14.159  20.728  1.00  0.00     0.064 C 
HETATM   16  C16 UNL     1      -5.832  13.036  21.631  1.00  0.00     0.046 C 
HETATM   17  C17 UNL     1      -4.380  15.022  21.603  1.00  0.00     0.046 C 
HETATM   18  C18 UNL     1      -6.488  14.890  20.117  1.00  0.00     0.060 C 
HETATM   19  C19 UNL     1      -7.331  15.828  21.006  1.00  0.00     0.023 C 
HETATM   20  C20 UNL     1      -7.645  16.698  19.772  1.00  0.00     0.054 C 
HETATM   21  C21 UNL     1      -8.910  16.497  19.003  1.00  0.00    -0.077 C 
HETATM   22  C22 UNL     1     -10.062  16.191  19.627  1.00  0.00     0.015 C 
HETATM   23  C23 UNL     1      -8.829  16.741  17.510  1.00  0.00     0.074 C 
HETATM   24  C24 UNL     1      -7.722  15.964  16.816  1.00  0.00    -0.022 A 
HETATM   25  C25 UNL     1      -7.804  15.604  15.467  1.00  0.00     0.043 A 
HETATM   26 CL1  UNL     1      -9.173  16.050  14.509  1.00  0.00    -0.084 Cl
HETATM   27  C26 UNL     1      -6.781  14.889  14.833  1.00  0.00     0.054 A 
HETATM   28  C27 UNL     1      -5.683  14.504  15.615  1.00  0.00     0.045 A 
HETATM   29  N1  UNL     1      -4.551  13.800  15.257  1.00  0.00    -0.357 N 
HETATM   30  C28 UNL     1      -3.811  13.502  16.364  1.00  0.00     0.036 C 
HETATM   31  C29 UNL     1      -4.377  14.182  17.431  1.00  0.00     0.033 C 
HETATM   32  C30 UNL     1      -5.567  14.820  16.970  1.00  0.00     0.014 A 
HETATM   33  C31 UNL     1      -6.565  15.630  17.568  1.00  0.00    -0.001 A 
HETATM   34  C32 UNL     1      -6.365  16.071  19.075  1.00  0.00     0.100 C 
HETATM   35  C33 UNL     1      -2.498  12.703  16.432  1.00  0.00     0.066 C 
HETATM   36  C34 UNL     1      -1.423  13.681  15.819  1.00  0.00     0.028 C 
HETATM   37  C35 UNL     1      -1.983   8.739  15.765  1.00  0.00     0.147 A 
HETATM   38  O7  UNL     1      -1.425   7.691  16.611  1.00  0.00    -0.360 OA
HETATM   39  C36 UNL     1      -2.765   7.515  16.194  1.00  0.00     0.194 A 
HETATM   40  C37 UNL     1      -2.980   6.421  15.178  1.00  0.00     0.183 C 
HETATM   41  H37 UNL     1      -4.351  13.502  14.316  1.00  0.00     0.166 HD
ENDROOT
BRANCH   1  42
HETATM   42  C2  UNL     1      -1.786   5.291  13.118  1.00  0.00    -0.062 C 
HETATM   43  C1  UNL     1      -0.848   5.145  12.157  1.00  0.00     0.016 C 
HETATM   44  C3  UNL     1      -2.973   4.365  13.131  1.00  0.00     0.045 C 
ENDBRANCH   1  42
BRANCH  40  45
HETATM   45  O8  UNL     1      -4.177   6.767  14.448  1.00  0.00    -0.390 OA
HETATM   46  H44 UNL     1      -3.853   7.232  13.652  1.00  0.00     0.210 HD
ENDBRANCH  40  45
BRANCH   8  47
HETATM   47  O2  UNL     1      -0.587  10.305  16.795  1.00  0.00    -0.386 OA
HETATM   48  H15 UNL     1      -0.235   9.499  17.222  1.00  0.00     0.210 HD
ENDBRANCH   8  47
BRANCH  11  49
HETATM   49  O3  UNL     1      -0.706  12.462  18.106  1.00  0.00    -0.364 OA
HETATM   50  H20 UNL     1      -0.467  11.668  18.595  1.00  0.00     0.213 HD
ENDBRANCH  11  49
BRANCH  34  51
HETATM   51  O6  UNL     1      -5.205  16.931  19.218  1.00  0.00    -0.384 OA
HETATM   52  H38 UNL     1      -5.365  17.630  18.562  1.00  0.00     0.211 HD
ENDBRANCH  34  51
TORSDOF 5
ENDMDL
MODEL 4
REMARK minimizedAffinity -7.95843601
REMARK CNNscore 0.321019262
REMARK CNNaffinity 6.45348597
REMARK  5 active torsions:
REMARK  status: ('A' for Active; 'I' for Inactive)
REMARK    1  A    between atoms: C2_2  and  C4_4 
REMARK    2  A    between atoms: C10_11  and  O2_12 
REMARK    3  A    between atoms: C13_15  and  O3_16 
REMARK    4  A    between atoms: C32_39  and  O6_40 
REMARK    5  A    between atoms: C37_46  and  O8_47 
ROOT
HETATM    1  C4  UNL     1     -10.707  13.022  23.076  1.00  0.00     0.181 C 
HETATM    2  O1  UNL     1     -10.635  11.868  22.220  1.00  0.00    -0.370 OA
HETATM    3  C5  UNL     1     -11.896  11.204  21.959  1.00  0.00     0.163 C 
HETATM    4  C6  UNL     1     -11.488   9.846  21.418  1.00  0.00     0.036 C 
HETATM    5  C7  UNL     1     -12.628   8.835  21.325  1.00  0.00     0.016 C 
HETATM    6  C8  UNL     1     -13.411   8.637  22.646  1.00  0.00     0.008 C 
HETATM    7  C9  UNL     1     -12.406   8.190  23.753  1.00  0.00     0.020 C 
HETATM    8  C10 UNL     1     -13.946  10.057  23.076  1.00  0.00     0.103 C 
HETATM    9  C11 UNL     1     -14.769   9.935  24.374  1.00  0.00     0.047 C 
HETATM   10  C12 UNL     1     -15.887   8.894  24.362  1.00  0.00     0.073 C 
HETATM   11  C13 UNL     1     -16.018   8.060  23.076  1.00  0.00     0.179 C 
HETATM   12  O4  UNL     1     -16.995   7.026  23.276  1.00  0.00    -0.320 OA
HETATM   13  C14 UNL     1     -16.636   5.929  24.127  1.00  0.00     0.302 C 
HETATM   14  O5  UNL     1     -16.804   6.286  25.492  1.00  0.00    -0.346 OA
HETATM   15  C15 UNL     1     -17.631   5.447  26.319  1.00  0.00     0.064 C 
HETATM   16  C16 UNL     1     -17.752   6.247  27.630  1.00  0.00     0.046 C 
HETATM   17  C17 UNL     1     -19.049   5.289  25.771  1.00  0.00     0.046 C 
HETATM   18  C18 UNL     1     -16.906   4.135  26.637  1.00  0.00     0.060 C 
HETATM   19  C19 UNL     1     -17.658   3.026  27.403  1.00  0.00     0.023 C 
HETATM   20  C20 UNL     1     -16.821   1.963  26.663  1.00  0.00     0.054 C 
HETATM   21  C21 UNL     1     -15.593   1.391  27.294  1.00  0.00    -0.077 C 
HETATM   22  C22 UNL     1     -15.538   1.149  28.616  1.00  0.00     0.015 C 
HETATM   23  C23 UNL     1     -14.466   1.027  26.349  1.00  0.00     0.074 C 
HETATM   24  C24 UNL     1     -14.044   2.157  25.425  1.00  0.00    -0.022 A 
HETATM   25  C25 UNL     1     -12.748   2.243  24.905  1.00  0.00     0.043 A 
HETATM   26 CL1  UNL     1     -11.560   1.042  25.275  1.00  0.00    -0.084 Cl
HETATM   27  C26 UNL     1     -12.365   3.288  24.056  1.00  0.00     0.054 A 
HETATM   28  C27 UNL     1     -13.320   4.276  23.777  1.00  0.00     0.045 A 
HETATM   29  N1  UNL     1     -13.216   5.403  22.986  1.00  0.00    -0.357 N 
HETATM   30  C28 UNL     1     -14.330   6.179  23.121  1.00  0.00     0.036 C 
HETATM   31  C29 UNL     1     -15.247   5.453  23.866  1.00  0.00     0.033 C 
HETATM   32  C30 UNL     1     -14.618   4.245  24.291  1.00  0.00     0.014 A 
HETATM   33  C31 UNL     1     -15.016   3.128  25.067  1.00  0.00    -0.001 A 
HETATM   34  C32 UNL     1     -16.521   3.054  25.551  1.00  0.00     0.100 C 
HETATM   35  C33 UNL     1     -14.620   7.534  22.454  1.00  0.00     0.066 C 
HETATM   36  C34 UNL     1     -14.903   7.166  20.947  1.00  0.00     0.028 C 
HETATM   37  C35 UNL     1     -12.802  11.082  23.179  1.00  0.00     0.147 A 
HETATM   38  O7  UNL     1     -13.347  12.370  23.593  1.00  0.00    -0.360 OA
HETATM   39  C36 UNL     1     -12.393  11.785  24.458  1.00  0.00     0.194 A 
HETATM   40  C37 UNL     1     -11.051  12.472  24.489  1.00  0.00     0.183 C 
HETATM   41  H37 UNL     1     -12.398   5.634  22.445  1.00  0.00     0.166 HD
ENDROOT
BRANCH   1  42
HETATM   42  C2  UNL     1      -9.390  13.768  22.905  1.00  0.00    -0.062 C 
HETATM   43  C1  UNL     1      -9.272  15.073  22.574  1.00  0.00     0.016 C 
HETATM   44  C3  UNL     1      -8.144  12.948  23.110  1.00  0.00     0.045 C 
ENDBRANCH   1  42
BRANCH  40  45
HETATM   45  O8  UNL     1     -10.086  11.474  24.884  1.00  0.00    -0.390 OA
HETATM   46  H44 UNL     1      -9.722  11.137  24.041  1.00  0.00     0.210 HD
ENDBRANCH  40  45
BRANCH   8  47
HETATM   47  O2  UNL     1     -14.806  10.594  22.082  1.00  0.00    -0.386 OA
HETATM   48  H15 UNL     1     -15.008  11.516  22.340  1.00  0.00     0.210 HD
ENDBRANCH   8  47
BRANCH  11  49
HETATM   49  O3  UNL     1     -16.654   8.870  22.067  1.00  0.00    -0.364 OA
HETATM   50  H20 UNL     1     -16.866   9.732  22.440  1.00  0.00     0.213 HD
ENDBRANCH  11  49
BRANCH  34  51
HETATM   51  O6  UNL     1     -17.426   2.929  24.424  1.00  0.00    -0.384 OA
HETATM   52  H38 UNL     1     -17.071   2.166  23.939  1.00  0.00     0.211 HD
ENDBRANCH  34  51
TORSDOF 5
ENDMDL
MODEL 5
REMARK minimizedAffinity -8.466609
REMARK CNNscore 0.317537695
REMARK CNNaffinity 6.6031127
REMARK  5 active torsions:
REMARK  status: ('A' for Active; 'I' for Inactive)
REMARK    1  A    between atoms: C2_2  and  C4_4 
REMARK    2  A    between atoms: C10_11  and  O2_12 
REMARK    3  A    between atoms: C13_15  and  O3_16 
REMARK    4  A    between atoms: C32_39  and  O6_40 
REMARK    5  A    between atoms: C37_46  and  O8_47 
ROOT
HETATM    1  C4  UNL     1      -5.239  14.591  16.568  1.00  0.00     0.181 C 
HETATM    2  O1  UNL     1      -5.304  13.203  16.196  1.00  0.00    -0.370 OA
HETATM    3  C5  UNL     1      -4.244  12.366  16.722  1.00  0.00     0.163 C 
HETATM    4  C6  UNL     1      -4.310  11.115  15.865  1.00  0.00     0.036 C 
HETATM    5  C7  UNL     1      -3.115  10.178  16.023  1.00  0.00     0.016 C 
HETATM    6  C8  UNL     1      -1.740  10.861  15.813  1.00  0.00     0.008 C 
HETATM    7  C9  UNL     1      -1.719  11.500  14.390  1.00  0.00     0.020 C 
HETATM    8  C10 UNL     1      -1.664  12.056  16.841  1.00  0.00     0.103 C 
HETATM    9  C11 UNL     1      -0.303  12.768  16.715  1.00  0.00     0.047 C 
HETATM   10  C12 UNL     1       0.932  11.872  16.803  1.00  0.00     0.073 C 
HETATM   11  C13 UNL     1       0.662  10.365  16.953  1.00  0.00     0.179 C 
HETATM   12  O4  UNL     1       1.902   9.647  16.859  1.00  0.00    -0.320 OA
HETATM   13  C14 UNL     1       2.522   9.558  15.568  1.00  0.00     0.302 C 
HETATM   14  O5  UNL     1       3.244  10.748  15.283  1.00  0.00    -0.346 OA
HETATM   15  C15 UNL     1       4.635  10.634  14.930  1.00  0.00     0.064 C 
HETATM   16  C16 UNL     1       5.119  12.096  14.911  1.00  0.00     0.046 C 
HETATM   17  C17 UNL     1       5.459   9.914  15.997  1.00  0.00     0.046 C 
HETATM   18  C18 UNL     1       4.778  10.075  13.511  1.00  0.00     0.060 C 
HETATM   19  C19 UNL     1       6.185   9.744  12.971  1.00  0.00     0.023 C 
HETATM   20  C20 UNL     1       5.578   8.620  12.107  1.00  0.00     0.054 C 
HETATM   21  C21 UNL     1       5.225   8.869  10.676  1.00  0.00    -0.077 C 
HETATM   22  C22 UNL     1       5.991   9.654   9.898  1.00  0.00     0.015 C 
HETATM   23  C23 UNL     1       4.017   8.123  10.148  1.00  0.00     0.074 C 
HETATM   24  C24 UNL     1       2.762   8.306  10.986  1.00  0.00    -0.022 A 
HETATM   25  C25 UNL     1       1.481   8.197  10.434  1.00  0.00     0.043 A 
HETATM   26 CL1  UNL     1       1.263   7.823   8.760  1.00  0.00    -0.084 Cl
HETATM   27  C26 UNL     1       0.329   8.367  11.211  1.00  0.00     0.054 A 
HETATM   28  C27 UNL     1       0.505   8.695  12.562  1.00  0.00     0.045 A 
HETATM   29  N1  UNL     1      -0.439   8.920  13.544  1.00  0.00    -0.357 N 
HETATM   30  C28 UNL     1       0.161   9.373  14.682  1.00  0.00     0.036 C 
HETATM   31  C29 UNL     1       1.531   9.264  14.494  1.00  0.00     0.033 C 
HETATM   32  C30 UNL     1       1.763   8.838  13.152  1.00  0.00     0.014 A 
HETATM   33  C31 UNL     1       2.914   8.564  12.374  1.00  0.00    -0.001 A 
HETATM   34  C32 UNL     1       4.327   8.622  13.084  1.00  0.00     0.100 C 
HETATM   35  C33 UNL     1      -0.511   9.780  16.003  1.00  0.00     0.066 C 
HETATM   36  C34 UNL     1      -0.969   8.411  16.638  1.00  0.00     0.028 C 
HETATM   37  C35 UNL     1      -2.863  13.010  16.684  1.00  0.00     0.147 A 
HETATM   38  O7  UNL     1      -2.736  14.101  17.643  1.00  0.00    -0.360 OA
HETATM   39  C36 UNL     1      -2.753  14.465  16.277  1.00  0.00     0.194 A 
HETATM   40  C37 UNL     1      -4.006  15.167  15.818  1.00  0.00     0.183 C 
HETATM   41  H37 UNL     1      -1.431   8.821  13.400  1.00  0.00     0.166 HD
ENDROOT
BRANCH   1  42
HETATM   42  C2  UNL     1      -6.606  15.186  16.252  1.00  0.00    -0.062 C 
HETATM   43  C1  UNL     1      -7.591  15.395  17.152  1.00  0.00     0.016 C 
HETATM   44  C3  UNL     1      -6.845  15.538  14.808  1.00  0.00     0.045 C 
ENDBRANCH   1  42
BRANCH  40  45
HETATM   45  O8  UNL     1      -4.123  14.916  14.401  1.00  0.00    -0.390 OA
HETATM   46  H44 UNL     1      -4.717  14.142  14.337  1.00  0.00     0.210 HD
ENDBRANCH  40  45
BRANCH   8  47
HETATM   47  O2  UNL     1      -1.768  11.581  18.175  1.00  0.00    -0.386 OA
HETATM   48  H15 UNL     1      -1.839  12.364  18.756  1.00  0.00     0.210 HD
ENDBRANCH   8  47
BRANCH  11  49
HETATM   49  O3  UNL     1       0.276  10.102  18.317  1.00  0.00    -0.364 OA
HETATM   50  H20 UNL     1       0.298  10.925  18.817  1.00  0.00     0.213 HD
ENDBRANCH  11  49
BRANCH  34  51
HETATM   51  O6  UNL     1       4.444   7.593  14.100  1.00  0.00    -0.384 OA
HETATM   52  H38 UNL     1       4.215   6.780  13.619  1.00  0.00     0.211 HD
ENDBRANCH  34  51
TORSDOF 5
ENDMDL
MODEL 6
REMARK minimizedAffinity -7.72779465
REMARK CNNscore 0.315856546
REMARK CNNaffinity 6.49824667
REMARK  5 active torsions:
REMARK  status: ('A' for Active; 'I' for Inactive)
REMARK    1  A    between atoms: C2_2  and  C4_4 
REMARK    2  A    between atoms: C10_11  and  O2_12 
REMARK    3  A    between atoms: C13_15  and  O3_16 
REMARK    4  A    between atoms: C32_39  and  O6_40 
REMARK    5  A    between atoms: C37_46  and  O8_47 
ROOT
HETATM    1  C4  UNL     1       7.282  19.194  -3.892  1.00  0.00     0.181 C 
HETATM    2  O1  UNL     1       7.928  18.710  -2.701  1.00  0.00    -0.370 OA
HETATM    3  C5  UNL     1       7.397  17.475  -2.160  1.00  0.00     0.163 C 
HETATM    4  C6  UNL     1       7.945  17.433  -0.746  1.00  0.00     0.036 C 
HETATM    5  C7  UNL     1       7.308  16.369   0.146  1.00  0.00     0.016 C 
HETATM    6  C8  UNL     1       5.762  16.433   0.205  1.00  0.00     0.008 C 
HETATM    7  C9  UNL     1       5.345  17.851   0.706  1.00  0.00     0.020 C 
HETATM    8  C10 UNL     1       5.243  16.313  -1.280  1.00  0.00     0.103 C 
HETATM    9  C11 UNL     1       3.702  16.335  -1.299  1.00  0.00     0.047 C 
HETATM   10  C12 UNL     1       3.006  15.333  -0.379  1.00  0.00     0.073 C 
HETATM   11  C13 UNL     1       3.930  14.464   0.491  1.00  0.00     0.179 C 
HETATM   12  O4  UNL     1       3.135  13.696   1.409  1.00  0.00    -0.320 OA
HETATM   13  C14 UNL     1       2.520  14.395   2.501  1.00  0.00     0.302 C 
HETATM   14  O5  UNL     1       1.324  15.029   2.070  1.00  0.00    -0.346 OA
HETATM   15  C15 UNL     1       0.106  14.745   2.783  1.00  0.00     0.064 C 
HETATM   16  C16 UNL     1      -0.978  15.416   1.919  1.00  0.00     0.046 C 
HETATM   17  C17 UNL     1      -0.224  13.253   2.818  1.00  0.00     0.046 C 
HETATM   18  C18 UNL     1       0.115  15.441   4.148  1.00  0.00     0.060 C 
HETATM   19  C19 UNL     1      -1.035  15.168   5.140  1.00  0.00     0.023 C 
HETATM   20  C20 UNL     1      -0.061  15.390   6.314  1.00  0.00     0.054 C 
HETATM   21  C21 UNL     1       0.029  16.724   6.982  1.00  0.00    -0.077 C 
HETATM   22  C22 UNL     1      -1.065  17.483   7.171  1.00  0.00     0.015 C 
HETATM   23  C23 UNL     1       1.397  17.118   7.501  1.00  0.00     0.074 C 
HETATM   24  C24 UNL     1       2.502  17.032   6.460  1.00  0.00    -0.022 A 
HETATM   25  C25 UNL     1       3.649  17.829   6.530  1.00  0.00     0.043 A 
HETATM   26 CL1  UNL     1       3.877  18.946   7.830  1.00  0.00    -0.084 Cl
HETATM   27  C26 UNL     1       4.662  17.745   5.568  1.00  0.00     0.054 A 
HETATM   28  C27 UNL     1       4.466  16.859   4.500  1.00  0.00     0.045 A 
HETATM   29  N1  UNL     1       5.285  16.580   3.424  1.00  0.00    -0.357 N 
HETATM   30  C28 UNL     1       4.638  15.775   2.533  1.00  0.00     0.036 C 
HETATM   31  C29 UNL     1       3.450  15.378   3.127  1.00  0.00     0.033 C 
HETATM   32  C30 UNL     1       3.327  16.060   4.375  1.00  0.00     0.014 A 
HETATM   33  C31 UNL     1       2.360  16.086   5.410  1.00  0.00    -0.001 A 
HETATM   34  C32 UNL     1       1.130  15.096   5.308  1.00  0.00     0.100 C 
HETATM   35  C33 UNL     1       5.161  15.252   1.185  1.00  0.00     0.066 C 
HETATM   36  C34 UNL     1       6.229  14.163   1.586  1.00  0.00     0.028 C 
HETATM   37  C35 UNL     1       5.875  17.386  -2.185  1.00  0.00     0.147 A 
HETATM   38  O7  UNL     1       5.352  17.241  -3.538  1.00  0.00    -0.360 OA
HETATM   39  C36 UNL     1       5.097  18.475  -2.896  1.00  0.00     0.194 A 
HETATM   40  C37 UNL     1       5.866  19.651  -3.442  1.00  0.00     0.183 C 
HETATM   41  H37 UNL     1       6.203  16.977   3.302  1.00  0.00     0.166 HD
ENDROOT
BRANCH   1  42
HETATM   42  C2  UNL     1       8.211  20.242  -4.491  1.00  0.00    -0.062 C 
HETATM   43  C1  UNL     1       8.121  20.738  -5.745  1.00  0.00     0.016 C 
HETATM   44  C3  UNL     1       9.316  20.725  -3.590  1.00  0.00     0.045 C 
ENDBRANCH   1  42
BRANCH  40  45
HETATM   45  O8  UNL     1       5.970  20.610  -2.368  1.00  0.00    -0.390 OA
HETATM   46  H44 UNL     1       6.839  20.428  -1.959  1.00  0.00     0.210 HD
ENDBRANCH  40  45
BRANCH   8  47
HETATM   47  O2  UNL     1       5.653  15.083  -1.859  1.00  0.00    -0.386 OA
HETATM   48  H15 UNL     1       5.413  15.115  -2.807  1.00  0.00     0.210 HD
ENDBRANCH   8  47
BRANCH  11  49
HETATM   49  O3  UNL     1       4.499  13.429  -0.336  1.00  0.00    -0.364 OA
HETATM   50  H20 UNL     1       4.153  13.512  -1.230  1.00  0.00     0.213 HD
ENDBRANCH  11  49
BRANCH  34  51
HETATM   51  O6  UNL     1       1.565  13.713   5.388  1.00  0.00    -0.384 OA
HETATM   52  H38 UNL     1       2.092  13.694   6.203  1.00  0.00     0.211 HD
ENDBRANCH  34  51
TORSDOF 5
ENDMDL
MODEL 7
REMARK minimizedAffinity -10.2264166
REMARK CNNscore 0.309666067
REMARK CNNaffinity 6.46317434
REMARK  5 active torsions:
REMARK  status: ('A' for Active; 'I' for Inactive)
REMARK    1  A    between atoms: C2_2  and  C4_4 
REMARK    2  A    between atoms: C10_11  and  O2_12 
REMARK    3  A    between atoms: C13_15  and  O3_16 
REMARK    4  A    between atoms: C32_39  and  O6_40 
REMARK    5  A    between atoms: C37_46  and  O8_47 
ROOT
HETATM    1  C4  UNL     1      -1.380   7.150  12.595  1.00  0.00     0.181 C 
HETATM    2  O1  UNL     1      -1.822   7.010  13.957  1.00  0.00    -0.370 OA
HETATM    3  C5  UNL     1      -2.173   8.245  14.629  1.00  0.00     0.163 C 
HETATM    4  C6  UNL     1      -2.184   7.868  16.099  1.00  0.00     0.036 C 
HETATM    5  C7  UNL     1      -2.250   9.057  17.055  1.00  0.00     0.016 C 
HETATM    6  C8  UNL     1      -1.155  10.126  16.816  1.00  0.00     0.008 C 
HETATM    7  C9  UNL     1       0.241   9.437  16.935  1.00  0.00     0.020 C 
HETATM    8  C10 UNL     1      -1.294  10.595  15.316  1.00  0.00     0.103 C 
HETATM    9  C11 UNL     1      -0.252  11.689  15.011  1.00  0.00     0.047 C 
HETATM   10  C12 UNL     1      -0.229  12.877  15.971  1.00  0.00     0.073 C 
HETATM   11  C13 UNL     1      -1.211  12.809  17.153  1.00  0.00     0.179 C 
HETATM   12  O4  UNL     1      -0.960  13.905  18.046  1.00  0.00    -0.320 OA
HETATM   13  C14 UNL     1       0.232  13.854  18.842  1.00  0.00     0.302 C 
HETATM   14  O5  UNL     1       1.354  14.278  18.081  1.00  0.00    -0.346 OA
HETATM   15  C15 UNL     1       2.166  15.347  18.601  1.00  0.00     0.064 C 
HETATM   16  C16 UNL     1       3.121  15.668  17.436  1.00  0.00     0.046 C 
HETATM   17  C17 UNL     1       1.366  16.619  18.875  1.00  0.00     0.046 C 
HETATM   18  C18 UNL     1       3.014  14.846  19.775  1.00  0.00     0.060 C 
HETATM   19  C19 UNL     1       3.864  15.855  20.574  1.00  0.00     0.023 C 
HETATM   20  C20 UNL     1       3.687  14.990  21.838  1.00  0.00     0.054 C 
HETATM   21  C21 UNL     1       4.730  13.993  22.228  1.00  0.00    -0.077 C 
HETATM   22  C22 UNL     1       6.038  14.253  22.056  1.00  0.00     0.015 C 
HETATM   23  C23 UNL     1       4.228  12.730  22.898  1.00  0.00     0.074 C 
HETATM   24  C24 UNL     1       3.145  12.004  22.116  1.00  0.00    -0.022 A 
HETATM   25  C25 UNL     1       2.947  10.624  22.233  1.00  0.00     0.043 A 
HETATM   26 CL1  UNL     1       3.921   9.674  23.300  1.00  0.00    -0.084 Cl
HETATM   27  C26 UNL     1       1.949   9.961  21.510  1.00  0.00     0.054 A 
HETATM   28  C27 UNL     1       1.177  10.726  20.625  1.00  0.00     0.045 A 
HETATM   29  N1  UNL     1       0.143  10.339  19.796  1.00  0.00    -0.357 N 
HETATM   30  C28 UNL     1      -0.223  11.371  18.983  1.00  0.00     0.036 C 
HETATM   31  C29 UNL     1       0.459  12.497  19.417  1.00  0.00     0.033 C 
HETATM   32  C30 UNL     1       1.353  12.102  20.457  1.00  0.00     0.014 A 
HETATM   33  C31 UNL     1       2.300  12.771  21.271  1.00  0.00    -0.001 A 
HETATM   34  C32 UNL     1       2.411  14.344  21.147  1.00  0.00     0.100 C 
HETATM   35  C33 UNL     1      -1.302  11.369  17.887  1.00  0.00     0.066 C 
HETATM   36  C34 UNL     1      -2.660  11.352  18.688  1.00  0.00     0.028 C 
HETATM   37  C35 UNL     1      -1.222   9.403  14.345  1.00  0.00     0.147 A 
HETATM   38  O7  UNL     1      -1.341   9.891  12.976  1.00  0.00    -0.360 OA
HETATM   39  C36 UNL     1      -0.142   9.213  13.299  1.00  0.00     0.194 A 
HETATM   40  C37 UNL     1       0.007   7.848  12.677  1.00  0.00     0.183 C 
HETATM   41  H37 UNL     1      -0.230   9.403  19.767  1.00  0.00     0.166 HD
ENDROOT
BRANCH   1  42
HETATM   42  C2  UNL     1      -1.440   5.758  11.977  1.00  0.00    -0.062 C 
HETATM   43  C1  UNL     1      -2.381   4.828  12.245  1.00  0.00     0.016 C 
HETATM   44  C3  UNL     1      -0.333   5.425  11.012  1.00  0.00     0.045 C 
ENDBRANCH   1  42
BRANCH  40  45
HETATM   45  O8  UNL     1       0.893   7.099  13.536  1.00  0.00    -0.390 OA
HETATM   46  H44 UNL     1       0.296   6.596  14.125  1.00  0.00     0.210 HD
ENDBRANCH  40  45
BRANCH   8  47
HETATM   47  O2  UNL     1      -2.577  11.158  15.082  1.00  0.00    -0.386 OA
HETATM   48  H15 UNL     1      -2.652  11.316  14.120  1.00  0.00     0.210 HD
ENDBRANCH   8  47
BRANCH  11  49
HETATM   49  O3  UNL     1      -2.533  13.123  16.670  1.00  0.00    -0.364 OA
HETATM   50  H20 UNL     1      -2.487  13.323  15.729  1.00  0.00     0.213 HD
ENDBRANCH  11  49
BRANCH  34  51
HETATM   51  O6  UNL     1       1.187  14.990  21.582  1.00  0.00    -0.384 OA
HETATM   52  H38 UNL     1       1.042  14.617  22.468  1.00  0.00     0.211 HD
ENDBRANCH  34  51
TORSDOF 5
ENDMDL
MODEL 8
REMARK minimizedAffinity -8.16928196
REMARK CNNscore 0.274415523
REMARK CNNaffinity 6.1469059
REMARK  5 active torsions:
REMARK  status: ('A' for Active; 'I' for Inactive)
REMARK    1  A    between atoms: C2_2  and  C4_4 
REMARK    2  A    between atoms: C10_11  and  O2_12 
REMARK    3  A    between atoms: C13_15  and  O3_16 
REMARK    4  A    between atoms: C32_39  and  O6_40 
REMARK    5  A    between atoms: C37_46  and  O8_47 
ROOT
HETATM    1  C4  UNL     1      -3.561   8.919  14.768  1.00  0.00     0.181 C 
HETATM    2  O1  UNL     1      -3.659   9.257  16.164  1.00  0.00    -0.370 OA
HETATM    3  C5  UNL     1      -3.186  10.580  16.520  1.00  0.00     0.163 C 
HETATM    4  C6  UNL     1      -3.010  10.509  18.026  1.00  0.00     0.036 C 
HETATM    5  C7  UNL     1      -2.250  11.688  18.628  1.00  0.00     0.016 C 
HETATM    6  C8  UNL     1      -0.873  11.959  17.972  1.00  0.00     0.008 C 
HETATM    7  C9  UNL     1      -0.008  10.665  18.088  1.00  0.00     0.020 C 
HETATM    8  C10 UNL     1      -1.138  12.181  16.432  1.00  0.00     0.103 C 
HETATM    9  C11 UNL     1       0.189  12.491  15.713  1.00  0.00     0.047 C 
HETATM   10  C12 UNL     1       1.025  13.623  16.308  1.00  0.00     0.073 C 
HETATM   11  C13 UNL     1       0.464  14.277  17.582  1.00  0.00     0.179 C 
HETATM   12  O4  UNL     1       1.430  15.201  18.108  1.00  0.00    -0.320 OA
HETATM   13  C14 UNL     1       2.604  14.655  18.727  1.00  0.00     0.302 C 
HETATM   14  O5  UNL     1       3.559  14.291  17.741  1.00  0.00    -0.346 OA
HETATM   15  C15 UNL     1       4.888  14.834  17.845  1.00  0.00     0.064 C 
HETATM   16  C16 UNL     1       5.552  14.408  16.523  1.00  0.00     0.046 C 
HETATM   17  C17 UNL     1       4.903  16.362  17.870  1.00  0.00     0.046 C 
HETATM   18  C18 UNL     1       5.649  14.157  18.990  1.00  0.00     0.060 C 
HETATM   19  C19 UNL     1       7.051  14.675  19.372  1.00  0.00     0.023 C 
HETATM   20  C20 UNL     1       6.799  14.253  20.833  1.00  0.00     0.054 C 
HETATM   21  C21 UNL     1       7.288  12.934  21.336  1.00  0.00    -0.077 C 
HETATM   22  C22 UNL     1       8.467  12.429  20.933  1.00  0.00     0.015 C 
HETATM   23  C23 UNL     1       6.422  12.256  22.379  1.00  0.00     0.074 C 
HETATM   24  C24 UNL     1       4.967  12.099  21.969  1.00  0.00    -0.022 A 
HETATM   25  C25 UNL     1       4.162  11.074  22.475  1.00  0.00     0.043 A 
HETATM   26 CL1  UNL     1       4.784   9.939  23.622  1.00  0.00    -0.084 Cl
HETATM   27  C26 UNL     1       2.823  10.934  22.092  1.00  0.00     0.054 A 
HETATM   28  C27 UNL     1       2.325  11.838  21.143  1.00  0.00     0.045 A 
HETATM   29  N1  UNL     1       1.063  11.929  20.591  1.00  0.00    -0.357 N 
HETATM   30  C28 UNL     1       1.053  12.851  19.585  1.00  0.00     0.036 C 
HETATM   31  C29 UNL     1       2.280  13.497  19.610  1.00  0.00     0.033 C 
HETATM   32  C30 UNL     1       3.098  12.863  20.592  1.00  0.00     0.014 A 
HETATM   33  C31 UNL     1       4.420  13.049  21.066  1.00  0.00    -0.001 A 
HETATM   34  C32 UNL     1       5.245  14.280  20.512  1.00  0.00     0.100 C 
HETATM   35  C33 UNL     1      -0.126  13.245  18.681  1.00  0.00     0.066 C 
HETATM   36  C34 UNL     1      -1.072  14.080  19.627  1.00  0.00     0.028 C 
HETATM   37  C35 UNL     1      -1.899  10.994  15.815  1.00  0.00     0.147 A 
HETATM   38  O7  UNL     1      -2.104  11.243  14.393  1.00  0.00    -0.360 OA
HETATM   39  C36 UNL     1      -1.348  10.096  14.726  1.00  0.00     0.194 A 
HETATM   40  C37 UNL     1      -2.040   8.779  14.479  1.00  0.00     0.183 C 
HETATM   41  H37 UNL     1       0.290  11.343  20.862  1.00  0.00     0.166 HD
ENDROOT
BRANCH   1  42
HETATM   42  C2  UNL     1      -4.441   7.693  14.559  1.00  0.00    -0.062 C 
HETATM   43  C1  UNL     1      -4.572   6.671  15.433  1.00  0.00     0.016 C 
HETATM   44  C3  UNL     1      -5.192   7.644  13.255  1.00  0.00     0.045 C 
ENDBRANCH   1  42
BRANCH  40  45
HETATM   45  O8  UNL     1      -1.446   7.824  15.384  1.00  0.00    -0.390 OA
HETATM   46  H44 UNL     1      -2.043   7.817  16.159  1.00  0.00     0.210 HD
ENDBRANCH  40  45
BRANCH   8  47
HETATM   47  O2  UNL     1      -1.998  13.292  16.225  1.00  0.00    -0.386 OA
HETATM   48  H15 UNL     1      -2.226  13.309  15.274  1.00  0.00     0.210 HD
ENDBRANCH   8  47
BRANCH  11  49
HETATM   49  O3  UNL     1      -0.611  15.162  17.209  1.00  0.00    -0.364 OA
HETATM   50  H20 UNL     1      -0.712  15.151  16.252  1.00  0.00     0.213 HD
ENDBRANCH  11  49
BRANCH  34  51
HETATM   51  O6  UNL     1       4.641  15.537  20.914  1.00  0.00    -0.384 OA
HETATM   52  H38 UNL     1       4.560  15.446  21.878  1.00  0.00     0.211 HD
ENDBRANCH  34  51
TORSDOF 5
ENDMDL
MODEL 9
REMARK minimizedAffinity -7.31865311
REMARK CNNscore 0.258321881
REMARK CNNaffinity 5.72051382
REMARK  5 active torsions:
REMARK  status: ('A' for Active; 'I' for Inactive)
REMARK    1  A    between atoms: C2_2  and  C4_4 
REMARK    2  A    between atoms: C10_11  and  O2_12 
REMARK    3  A    between atoms: C13_15  and  O3_16 
REMARK    4  A    between atoms: C32_39  and  O6_40 
REMARK    5  A    between atoms: C37_46  and  O8_47 
ROOT
HETATM    1  C4  UNL     1     -16.517  -8.174   7.756  1.00  0.00     0.181 C 
HETATM    2  O1  UNL     1     -15.754  -6.955   7.710  1.00  0.00    -0.370 OA
HETATM    3  C5  UNL     1     -15.147  -6.551   8.962  1.00  0.00     0.163 C 
HETATM    4  C6  UNL     1     -14.792  -5.092   8.740  1.00  0.00     0.036 C 
HETATM    5  C7  UNL     1     -14.390  -4.340  10.006  1.00  0.00     0.016 C 
HETATM    6  C8  UNL     1     -15.421  -4.439  11.157  1.00  0.00     0.008 C 
HETATM    7  C9  UNL     1     -16.791  -3.896  10.640  1.00  0.00     0.020 C 
HETATM    8  C10 UNL     1     -15.632  -5.974  11.451  1.00  0.00     0.103 C 
HETATM    9  C11 UNL     1     -16.627  -6.153  12.615  1.00  0.00     0.047 C 
HETATM   10  C12 UNL     1     -16.310  -5.375  13.892  1.00  0.00     0.073 C 
HETATM   11  C13 UNL     1     -15.068  -4.469  13.839  1.00  0.00     0.179 C 
HETATM   12  O4  UNL     1     -14.995  -3.689  15.042  1.00  0.00    -0.320 OA
HETATM   13  C14 UNL     1     -15.946  -2.626  15.203  1.00  0.00     0.302 C 
HETATM   14  O5  UNL     1     -17.187  -3.138  15.666  1.00  0.00    -0.346 OA
HETATM   15  C15 UNL     1     -17.752  -2.576  16.865  1.00  0.00     0.064 C 
HETATM   16  C16 UNL     1     -18.944  -3.504  17.167  1.00  0.00     0.046 C 
HETATM   17  C17 UNL     1     -16.810  -2.669  18.064  1.00  0.00     0.046 C 
HETATM   18  C18 UNL     1     -18.310  -1.177  16.583  1.00  0.00     0.060 C 
HETATM   19  C19 UNL     1     -18.846  -0.329  17.755  1.00  0.00     0.023 C 
HETATM   20  C20 UNL     1     -18.421   0.952  17.010  1.00  0.00     0.054 C 
HETATM   21  C21 UNL     1     -19.406   1.708  16.179  1.00  0.00    -0.077 C 
HETATM   22  C22 UNL     1     -20.690   1.829  16.560  1.00  0.00     0.015 C 
HETATM   23  C23 UNL     1     -18.852   2.390  14.945  1.00  0.00     0.074 C 
HETATM   24  C24 UNL     1     -18.066   1.467  14.028  1.00  0.00    -0.022 A 
HETATM   25  C25 UNL     1     -17.955   1.706  12.655  1.00  0.00     0.043 A 
HETATM   26 CL1  UNL     1     -18.696   3.090  11.931  1.00  0.00    -0.084 Cl
HETATM   27  C26 UNL     1     -17.230   0.852  11.816  1.00  0.00     0.054 A 
HETATM   28  C27 UNL     1     -16.650  -0.285  12.397  1.00  0.00     0.045 A 
HETATM   29  N1  UNL     1     -15.896  -1.284  11.816  1.00  0.00    -0.357 N 
HETATM   30  C28 UNL     1     -15.668  -2.287  12.713  1.00  0.00     0.036 C 
HETATM   31  C29 UNL     1     -16.126  -1.845  13.945  1.00  0.00     0.033 C 
HETATM   32  C30 UNL     1     -16.753  -0.577  13.759  1.00  0.00     0.014 A 
HETATM   33  C31 UNL     1     -17.406   0.351  14.607  1.00  0.00    -0.001 A 
HETATM   34  C32 UNL     1     -17.420   0.059  16.163  1.00  0.00     0.100 C 
HETATM   35  C33 UNL     1     -14.908  -3.602  12.481  1.00  0.00     0.066 C 
HETATM   36  C34 UNL     1     -13.396  -3.161  12.399  1.00  0.00     0.028 C 
HETATM   37  C35 UNL     1     -16.043  -6.739  10.181  1.00  0.00     0.147 A 
HETATM   38  O7  UNL     1     -16.239  -8.147  10.510  1.00  0.00    -0.360 OA
HETATM   39  C36 UNL     1     -17.366  -7.458  10.003  1.00  0.00     0.194 A 
HETATM   40  C37 UNL     1     -17.777  -7.846   8.605  1.00  0.00     0.183 C 
HETATM   41  H37 UNL     1     -15.618  -1.284  10.848  1.00  0.00     0.166 HD
ENDROOT
BRANCH   1  42
HETATM   42  C2  UNL     1     -16.726  -8.606   6.310  1.00  0.00    -0.062 C 
HETATM   43  C1  UNL     1     -15.780  -9.152   5.515  1.00  0.00     0.016 C 
HETATM   44  C3  UNL     1     -18.105  -8.370   5.753  1.00  0.00     0.045 C 
ENDBRANCH   1  42
BRANCH  40  45
HETATM   45  O8  UNL     1     -18.471  -6.709   8.049  1.00  0.00    -0.390 OA
HETATM   46  H44 UNL     1     -17.785  -6.224   7.548  1.00  0.00     0.210 HD
ENDBRANCH  40  45
BRANCH   8  47
HETATM   47  O2  UNL     1     -14.411  -6.584  11.845  1.00  0.00    -0.386 OA
HETATM   48  H15 UNL     1     -14.570  -7.547  11.894  1.00  0.00     0.210 HD
ENDBRANCH   8  47
BRANCH  11  49
HETATM   49  O3  UNL     1     -13.892  -5.295  13.957  1.00  0.00    -0.364 OA
HETATM   50  H20 UNL     1     -14.160  -6.214  14.062  1.00  0.00     0.213 HD
ENDBRANCH  11  49
BRANCH  34  51
HETATM   51  O6  UNL     1     -16.077   0.097  16.713  1.00  0.00    -0.384 OA
HETATM   52  H38 UNL     1     -15.742   0.960  16.419  1.00  0.00     0.211 HD
ENDBRANCH  34  51
TORSDOF 5
ENDMDL
