MODEL 1
REMARK minimizedAffinity -8.25208092
REMARK CNNscore 0.50440222
REMARK CNNaffinity 7.03920031
REMARK  19 active torsions:
REMARK  status: ('A' for Active; 'I' for Inactive)
REMARK    1  A    between atoms: C19_20  and  O2_21 
REMARK    2  A    between atoms: C19_20  and  C20_22 
REMARK    3  A    between atoms: C20_22  and  C21_24 
REMARK    4  A    between atoms: C21_24  and  O4_25 
REMARK    5  A    between atoms: O4_25  and  C22_26 
REMARK    6  A    between atoms: C22_26  and  C23_28 
REMARK    7  A    between atoms: C23_28  and  C24_29 
REMARK    8  A    between atoms: C24_29  and  C25_30 
REMARK       I    between atoms: C25_30  and  N1_32 
REMARK    9  A    between atoms: N1_32  and  C26_33 
REMARK   10  A    between atoms: C26_33  and  C27_34 
REMARK   11  A    between atoms: C27_34  and  C28_35 
REMARK   12  A    between atoms: C28_35  and  C29_36 
REMARK   13  A    between atoms: C29_36  and  C30_37 
REMARK   14  A    between atoms: C30_37  and  C31_38 
REMARK       I    between atoms: C31_38  and  N2_40 
REMARK   15  A    between atoms: N2_40  and  C32_41 
REMARK   16  A    between atoms: C32_41  and  C33_42 
REMARK   17  A    between atoms: C32_41  and  C40_49 
REMARK   18  A    between atoms: C33_42  and  C34_43 
REMARK   19  A    between atoms: C40_49  and  O9_51 
ROOT
HETATM    1  C22 UNL     1      -1.603  49.253 -15.297  1.00  0.00     0.259 C 
HETATM    2  O5  UNL     1      -0.390  49.386 -15.403  1.00  0.00    -0.265 OA
ENDROOT
BRANCH   1   3
HETATM    3  O4  UNL     1      -2.418  48.786 -16.277  1.00  0.00    -0.314 OA
BRANCH   3   4
HETATM    4  C21 UNL     1      -1.841  48.818 -17.582  1.00  0.00     0.260 C 
BRANCH   4   5
HETATM    5  C20 UNL     1      -2.795  49.506 -18.554  1.00  0.00     0.185 C 
HETATM    6  O3  UNL     1      -3.969  49.145 -18.674  1.00  0.00    -0.292 OA
BRANCH   5   7
HETATM    7  C19 UNL     1      -2.219  50.695 -19.355  1.00  0.00     0.128 C 
HETATM    8  C14 UNL     1      -1.982  50.412 -20.872  1.00  0.00    -0.002 C 
HETATM    9  C13 UNL     1      -3.204  50.532 -21.800  1.00  0.00     0.013 C 
HETATM   10  C15 UNL     1      -1.326  49.020 -21.065  1.00  0.00     0.019 C 
HETATM   11  C16 UNL     1      -1.033  51.589 -21.213  1.00  0.00     0.002 C 
HETATM   12  C12 UNL     1      -2.804  50.556 -23.286  1.00  0.00     0.007 C 
HETATM   13  C11 UNL     1      -1.744  51.635 -23.625  1.00  0.00     0.002 C 
HETATM   14  C2  UNL     1      -1.326  51.659 -25.145  1.00  0.00    -0.016 C 
HETATM   15  C10 UNL     1      -0.524  51.565 -22.660  1.00  0.00    -0.004 C 
HETATM   16  C1  UNL     1      -0.768  50.299 -25.618  1.00  0.00     0.020 C 
HETATM   17  C3  UNL     1      -2.585  52.009 -25.994  1.00  0.00     0.022 C 
HETATM   18  C7  UNL     1      -0.240  52.722 -25.360  1.00  0.00    -0.068 C 
HETATM   19  C4  UNL     1      -2.267  52.437 -27.419  1.00  0.00     0.084 C 
HETATM   20  C5  UNL     1      -1.297  53.587 -27.417  1.00  0.00     0.149 C 
HETATM   21  O1  UNL     1      -1.306  54.455 -28.284  1.00  0.00    -0.293 OA
HETATM   22  C6  UNL     1      -0.253  53.614 -26.367  1.00  0.00     0.053 C 
HETATM   23  C8  UNL     1       0.910  52.728 -24.381  1.00  0.00     0.035 C 
HETATM   24  C9  UNL     1       0.434  52.734 -22.933  1.00  0.00     0.010 C 
HETATM   25  C17 UNL     1      -0.007  51.564 -20.087  1.00  0.00     0.009 C 
HETATM   26  C18 UNL     1      -0.799  51.092 -18.852  1.00  0.00     0.047 C 
BRANCH   7  27
HETATM   27  O2  UNL     1      -3.109  51.808 -19.205  1.00  0.00    -0.381 OA
HETATM   28  H27 UNL     1      -2.654  52.543 -18.753  1.00  0.00     0.211 HD
ENDBRANCH   7  27
ENDBRANCH   5   7
ENDBRANCH   4   5
ENDBRANCH   3   4
ENDBRANCH   1   3
BRANCH   1  29
HETATM   29  C23 UNL     1      -2.382  49.690 -14.077  1.00  0.00     0.120 C 
BRANCH  29  30
HETATM   30  C24 UNL     1      -2.398  51.199 -13.855  1.00  0.00     0.112 C 
BRANCH  30  31
HETATM   31  C25 UNL     1      -3.182  51.578 -12.615  1.00  0.00     0.217 C 
HETATM   32  O6  UNL     1      -3.674  50.756 -11.853  1.00  0.00    -0.274 OA
HETATM   33  N1  UNL     1      -3.274  52.940 -12.431  1.00  0.00    -0.361 N 
HETATM   34  H34 UNL     1      -2.784  53.560 -13.063  1.00  0.00     0.162 HD
BRANCH  33  35
HETATM   35  C26 UNL     1      -3.896  53.505 -11.250  1.00  0.00     0.122 C 
BRANCH  35  36
HETATM   36  C27 UNL     1      -2.862  54.201 -10.368  1.00  0.00     0.020 C 
BRANCH  36  37
HETATM   37  C28 UNL     1      -1.421  53.786 -10.675  1.00  0.00     0.002 C 
BRANCH  37  38
HETATM   38  C29 UNL     1      -0.733  53.097  -9.491  1.00  0.00     0.009 C 
BRANCH  38  39
HETATM   39  C30 UNL     1      -0.890  53.879  -8.186  1.00  0.00     0.103 C 
BRANCH  39  40
HETATM   40  C31 UNL     1       0.063  55.053  -8.059  1.00  0.00     0.218 C 
HETATM   41  O7  UNL     1      -0.086  56.126  -8.634  1.00  0.00    -0.274 OA
HETATM   42  N2  UNL     1       1.124  54.784  -7.219  1.00  0.00    -0.346 N 
HETATM   43  H45 UNL     1       1.355  53.802  -7.114  1.00  0.00     0.163 HD
BRANCH  42  44
HETATM   44  C32 UNL     1       2.279  55.698  -7.177  1.00  0.00     0.186 C 
BRANCH  44  45
HETATM   45  C33 UNL     1       2.831  55.891  -8.597  1.00  0.00     0.074 C 
BRANCH  45  46
HETATM   46  C34 UNL     1       4.079  55.089  -8.880  1.00  0.00    -0.056 A 
HETATM   47  C35 UNL     1       5.341  55.697  -8.872  1.00  0.00     0.007 A 
HETATM   48  C36 UNL     1       6.490  54.945  -9.123  1.00  0.00     0.001 A 
HETATM   49  C37 UNL     1       6.388  53.581  -9.386  1.00  0.00     0.000 A 
HETATM   50  C38 UNL     1       5.136  52.967  -9.404  1.00  0.00     0.001 A 
HETATM   51  C39 UNL     1       3.987  53.716  -9.150  1.00  0.00     0.007 A 
ENDBRANCH  45  46
ENDBRANCH  44  45
BRANCH  44  52
HETATM   52  C40 UNL     1       1.840  57.049  -6.593  1.00  0.00     0.163 C 
HETATM   53  O8  UNL     1       2.314  58.147  -6.840  1.00  0.00    -0.648 OA
BRANCH  52  54
HETATM   54  O9  UNL     1       0.758  56.967  -5.779  1.00  0.00    -0.775 OA
HETATM   55  H54 UNL     1       0.635  57.893  -5.474  1.00  0.00     0.167 HD
ENDBRANCH  52  54
ENDBRANCH  44  52
ENDBRANCH  42  44
ENDBRANCH  39  40
ENDBRANCH  38  39
ENDBRANCH  37  38
ENDBRANCH  36  37
ENDBRANCH  35  36
ENDBRANCH  33  35
ENDBRANCH  30  31
ENDBRANCH  29  30
ENDBRANCH   1  29
TORSDOF 19
ENDMDL
MODEL 2
REMARK minimizedAffinity -8.8604908
REMARK CNNscore 0.466038585
REMARK CNNaffinity 7.03038406
REMARK  19 active torsions:
REMARK  status: ('A' for Active; 'I' for Inactive)
REMARK    1  A    between atoms: C19_20  and  O2_21 
REMARK    2  A    between atoms: C19_20  and  C20_22 
REMARK    3  A    between atoms: C20_22  and  C21_24 
REMARK    4  A    between atoms: C21_24  and  O4_25 
REMARK    5  A    between atoms: O4_25  and  C22_26 
REMARK    6  A    between atoms: C22_26  and  C23_28 
REMARK    7  A    between atoms: C23_28  and  C24_29 
REMARK    8  A    between atoms: C24_29  and  C25_30 
REMARK       I    between atoms: C25_30  and  N1_32 
REMARK    9  A    between atoms: N1_32  and  C26_33 
REMARK   10  A    between atoms: C26_33  and  C27_34 
REMARK   11  A    between atoms: C27_34  and  C28_35 
REMARK   12  A    between atoms: C28_35  and  C29_36 
REMARK   13  A    between atoms: C29_36  and  C30_37 
REMARK   14  A    between atoms: C30_37  and  C31_38 
REMARK       I    between atoms: C31_38  and  N2_40 
REMARK   15  A    between atoms: N2_40  and  C32_41 
REMARK   16  A    between atoms: C32_41  and  C33_42 
REMARK   17  A    between atoms: C32_41  and  C40_49 
REMARK   18  A    between atoms: C33_42  and  C34_43 
REMARK   19  A    between atoms: C40_49  and  O9_51 
ROOT
HETATM    1  C22 UNL     1       0.161  50.897 -17.121  1.00  0.00     0.259 C 
HETATM    2  O5  UNL     1       0.399  51.920 -17.750  1.00  0.00    -0.265 OA
ENDROOT
BRANCH   1   3
HETATM    3  O4  UNL     1      -0.066  49.680 -17.680  1.00  0.00    -0.314 OA
BRANCH   3   4
HETATM    4  C21 UNL     1      -1.150  48.961 -17.094  1.00  0.00     0.260 C 
BRANCH   4   5
HETATM    5  C20 UNL     1      -2.384  49.069 -17.985  1.00  0.00     0.185 C 
HETATM    6  O3  UNL     1      -3.454  49.515 -17.560  1.00  0.00    -0.292 OA
BRANCH   5   7
HETATM    7  C19 UNL     1      -2.213  48.617 -19.453  1.00  0.00     0.128 C 
HETATM    8  C14 UNL     1      -2.138  49.777 -20.494  1.00  0.00    -0.002 C 
HETATM    9  C13 UNL     1      -0.772  50.464 -20.671  1.00  0.00     0.013 C 
HETATM   10  C15 UNL     1      -3.216  50.850 -20.185  1.00  0.00     0.019 C 
HETATM   11  C16 UNL     1      -2.419  48.982 -21.794  1.00  0.00     0.002 C 
HETATM   12  C12 UNL     1      -0.727  51.353 -21.927  1.00  0.00     0.007 C 
HETATM   13  C11 UNL     1      -1.146  50.613 -23.223  1.00  0.00     0.002 C 
HETATM   14  C2  UNL     1      -1.108  51.521 -24.512  1.00  0.00    -0.016 C 
HETATM   15  C10 UNL     1      -2.500  49.864 -23.046  1.00  0.00    -0.004 C 
HETATM   16  C1  UNL     1      -2.014  52.765 -24.376  1.00  0.00     0.020 C 
HETATM   17  C3  UNL     1       0.361  51.990 -24.738  1.00  0.00     0.022 C 
HETATM   18  C7  UNL     1      -1.589  50.710 -25.723  1.00  0.00    -0.068 C 
HETATM   19  C4  UNL     1       0.621  52.548 -26.129  1.00  0.00     0.084 C 
HETATM   20  C5  UNL     1       0.221  51.548 -27.178  1.00  0.00     0.149 C 
HETATM   21  O1  UNL     1       0.797  51.462 -28.258  1.00  0.00    -0.293 OA
HETATM   22  C6  UNL     1      -0.962  50.697 -26.914  1.00  0.00     0.053 C 
HETATM   23  C8  UNL     1      -2.855  49.906 -25.544  1.00  0.00     0.035 C 
HETATM   24  C9  UNL     1      -2.811  49.031 -24.297  1.00  0.00     0.010 C 
HETATM   25  C17 UNL     1      -3.627  48.123 -21.438  1.00  0.00     0.009 C 
HETATM   26  C18 UNL     1      -3.438  47.790 -19.945  1.00  0.00     0.047 C 
BRANCH   7  27
HETATM   27  O2  UNL     1      -1.028  47.814 -19.538  1.00  0.00    -0.381 OA
HETATM   28  H27 UNL     1      -1.257  46.907 -19.812  1.00  0.00     0.211 HD
ENDBRANCH   7  27
ENDBRANCH   5   7
ENDBRANCH   4   5
ENDBRANCH   3   4
ENDBRANCH   1   3
BRANCH   1  29
HETATM   29  C23 UNL     1      -0.012  50.868 -15.619  1.00  0.00     0.120 C 
BRANCH  29  30
HETATM   30  C24 UNL     1       0.533  52.100 -14.905  1.00  0.00     0.112 C 
BRANCH  30  31
HETATM   31  C25 UNL     1       0.502  51.939 -13.399  1.00  0.00     0.217 C 
HETATM   32  O6  UNL     1       1.332  51.290 -12.775  1.00  0.00    -0.274 OA
HETATM   33  N1  UNL     1      -0.550  52.603 -12.807  1.00  0.00    -0.361 N 
HETATM   34  H34 UNL     1      -1.157  53.177 -13.377  1.00  0.00     0.162 HD
BRANCH  33  35
HETATM   35  C26 UNL     1      -0.697  52.656 -11.366  1.00  0.00     0.122 C 
BRANCH  35  36
HETATM   36  C27 UNL     1      -2.130  53.011 -10.976  1.00  0.00     0.020 C 
BRANCH  36  37
HETATM   37  C28 UNL     1      -2.286  54.447 -10.470  1.00  0.00     0.002 C 
BRANCH  37  38
HETATM   38  C29 UNL     1      -0.945  55.175 -10.318  1.00  0.00     0.009 C 
BRANCH  38  39
HETATM   39  C30 UNL     1      -0.648  55.560  -8.868  1.00  0.00     0.103 C 
BRANCH  39  40
HETATM   40  C31 UNL     1       0.824  55.486  -8.505  1.00  0.00     0.218 C 
HETATM   41  O7  UNL     1       1.580  54.595  -8.875  1.00  0.00    -0.274 OA
HETATM   42  N2  UNL     1       1.225  56.540  -7.709  1.00  0.00    -0.346 N 
HETATM   43  H45 UNL     1       0.488  56.977  -7.167  1.00  0.00     0.163 HD
BRANCH  42  44
HETATM   44  C32 UNL     1       2.541  56.501  -7.047  1.00  0.00     0.186 C 
BRANCH  44  45
HETATM   45  C33 UNL     1       3.587  57.176  -7.946  1.00  0.00     0.074 C 
BRANCH  45  46
HETATM   46  C34 UNL     1       4.798  56.316  -8.224  1.00  0.00    -0.056 A 
HETATM   47  C35 UNL     1       4.864  55.518  -9.373  1.00  0.00     0.007 A 
HETATM   48  C36 UNL     1       5.993  54.737  -9.627  1.00  0.00     0.001 A 
HETATM   49  C37 UNL     1       7.063  54.745  -8.736  1.00  0.00     0.000 A 
HETATM   50  C38 UNL     1       7.004  55.531  -7.585  1.00  0.00     0.001 A 
HETATM   51  C39 UNL     1       5.879  56.315  -7.331  1.00  0.00     0.007 A 
ENDBRANCH  45  46
ENDBRANCH  44  45
BRANCH  44  52
HETATM   52  C40 UNL     1       2.455  57.230  -5.698  1.00  0.00     0.163 C 
HETATM   53  O8  UNL     1       2.213  56.736  -4.608  1.00  0.00    -0.648 OA
BRANCH  52  54
HETATM   54  O9  UNL     1       2.763  58.549  -5.769  1.00  0.00    -0.775 OA
HETATM   55  H54 UNL     1       2.630  58.861  -4.847  1.00  0.00     0.167 HD
ENDBRANCH  52  54
ENDBRANCH  44  52
ENDBRANCH  42  44
ENDBRANCH  39  40
ENDBRANCH  38  39
ENDBRANCH  37  38
ENDBRANCH  36  37
ENDBRANCH  35  36
ENDBRANCH  33  35
ENDBRANCH  30  31
ENDBRANCH  29  30
ENDBRANCH   1  29
TORSDOF 19
ENDMDL
MODEL 3
REMARK minimizedAffinity -8.58017826
REMARK CNNscore 0.306762338
REMARK CNNaffinity 6.89855433
REMARK  19 active torsions:
REMARK  status: ('A' for Active; 'I' for Inactive)
REMARK    1  A    between atoms: C19_20  and  O2_21 
REMARK    2  A    between atoms: C19_20  and  C20_22 
REMARK    3  A    between atoms: C20_22  and  C21_24 
REMARK    4  A    between atoms: C21_24  and  O4_25 
REMARK    5  A    between atoms: O4_25  and  C22_26 
REMARK    6  A    between atoms: C22_26  and  C23_28 
REMARK    7  A    between atoms: C23_28  and  C24_29 
REMARK    8  A    between atoms: C24_29  and  C25_30 
REMARK       I    between atoms: C25_30  and  N1_32 
REMARK    9  A    between atoms: N1_32  and  C26_33 
REMARK   10  A    between atoms: C26_33  and  C27_34 
REMARK   11  A    between atoms: C27_34  and  C28_35 
REMARK   12  A    between atoms: C28_35  and  C29_36 
REMARK   13  A    between atoms: C29_36  and  C30_37 
REMARK   14  A    between atoms: C30_37  and  C31_38 
REMARK       I    between atoms: C31_38  and  N2_40 
REMARK   15  A    between atoms: N2_40  and  C32_41 
REMARK   16  A    between atoms: C32_41  and  C33_42 
REMARK   17  A    between atoms: C32_41  and  C40_49 
REMARK   18  A    between atoms: C33_42  and  C34_43 
REMARK   19  A    between atoms: C40_49  and  O9_51 
ROOT
HETATM    1  C22 UNL     1      -2.147  50.164 -14.909  1.00  0.00     0.259 C 
HETATM    2  O5  UNL     1      -0.973  49.827 -14.820  1.00  0.00    -0.265 OA
ENDROOT
BRANCH   1   3
HETATM    3  O4  UNL     1      -2.840  50.249 -16.074  1.00  0.00    -0.314 OA
BRANCH   3   4
HETATM    4  C21 UNL     1      -2.218  49.588 -17.174  1.00  0.00     0.260 C 
BRANCH   4   5
HETATM    5  C20 UNL     1      -3.276  48.893 -18.027  1.00  0.00     0.185 C 
HETATM    6  O3  UNL     1      -4.425  48.712 -17.614  1.00  0.00    -0.292 OA
BRANCH   5   7
HETATM    7  C19 UNL     1      -2.837  48.456 -19.443  1.00  0.00     0.128 C 
HETATM    8  C14 UNL     1      -2.706  49.617 -20.478  1.00  0.00    -0.002 C 
HETATM    9  C13 UNL     1      -1.397  50.426 -20.452  1.00  0.00     0.013 C 
HETATM   10  C15 UNL     1      -3.911  50.587 -20.356  1.00  0.00     0.019 C 
HETATM   11  C16 UNL     1      -2.709  48.798 -21.793  1.00  0.00     0.002 C 
HETATM   12  C12 UNL     1      -1.238  51.313 -21.700  1.00  0.00     0.007 C 
HETATM   13  C11 UNL     1      -1.382  50.537 -23.033  1.00  0.00     0.002 C 
HETATM   14  C2  UNL     1      -1.225  51.442 -24.315  1.00  0.00    -0.016 C 
HETATM   15  C10 UNL     1      -2.674  49.667 -23.056  1.00  0.00    -0.004 C 
HETATM   16  C1  UNL     1      -2.250  52.598 -24.340  1.00  0.00     0.020 C 
HETATM   17  C3  UNL     1       0.212  52.044 -24.318  1.00  0.00     0.022 C 
HETATM   18  C7  UNL     1      -1.437  50.589 -25.573  1.00  0.00    -0.068 C 
HETATM   19  C4  UNL     1       0.634  52.621 -25.660  1.00  0.00     0.084 C 
HETATM   20  C5  UNL     1       0.494  51.587 -26.744  1.00  0.00     0.149 C 
HETATM   21  O1  UNL     1       1.237  51.553 -27.720  1.00  0.00    -0.293 OA
HETATM   22  C6  UNL     1      -0.634  50.632 -26.652  1.00  0.00     0.053 C 
HETATM   23  C8  UNL     1      -2.637  49.672 -25.580  1.00  0.00     0.035 C 
HETATM   24  C9  UNL     1      -2.709  48.807 -24.328  1.00  0.00     0.010 C 
HETATM   25  C17 UNL     1      -3.875  47.833 -21.615  1.00  0.00     0.009 C 
HETATM   26  C18 UNL     1      -3.892  47.520 -20.107  1.00  0.00     0.047 C 
BRANCH   7  27
HETATM   27  O2  UNL     1      -1.587  47.766 -19.331  1.00  0.00    -0.381 OA
HETATM   28  H27 UNL     1      -1.687  46.841 -19.623  1.00  0.00     0.211 HD
ENDBRANCH   7  27
ENDBRANCH   5   7
ENDBRANCH   4   5
ENDBRANCH   3   4
ENDBRANCH   1   3
BRANCH   1  29
HETATM   29  C23 UNL     1      -2.966  50.635 -13.729  1.00  0.00     0.120 C 
BRANCH  29  30
HETATM   30  C24 UNL     1      -3.371  52.104 -13.797  1.00  0.00     0.112 C 
BRANCH  30  31
HETATM   31  C25 UNL     1      -3.278  52.777 -12.443  1.00  0.00     0.217 C 
HETATM   32  O6  UNL     1      -4.241  53.270 -11.869  1.00  0.00    -0.274 OA
HETATM   33  N1  UNL     1      -2.001  52.772 -11.925  1.00  0.00    -0.361 N 
HETATM   34  H34 UNL     1      -1.266  52.286 -12.422  1.00  0.00     0.162 HD
BRANCH  33  35
HETATM   35  C26 UNL     1      -1.722  53.277 -10.596  1.00  0.00     0.122 C 
BRANCH  35  36
HETATM   36  C27 UNL     1      -0.268  53.019 -10.207  1.00  0.00     0.020 C 
BRANCH  36  37
HETATM   37  C28 UNL     1       0.175  53.787  -8.959  1.00  0.00     0.002 C 
BRANCH  37  38
HETATM   38  C29 UNL     1       0.763  55.165  -9.284  1.00  0.00     0.009 C 
BRANCH  38  39
HETATM   39  C30 UNL     1       1.541  55.175 -10.600  1.00  0.00     0.103 C 
BRANCH  39  40
HETATM   40  C31 UNL     1       2.954  55.712 -10.470  1.00  0.00     0.218 C 
HETATM   41  O7  UNL     1       3.436  56.568 -11.203  1.00  0.00    -0.274 OA
HETATM   42  N2  UNL     1       3.646  55.132  -9.426  1.00  0.00    -0.346 N 
HETATM   43  H45 UNL     1       3.319  54.212  -9.149  1.00  0.00     0.163 HD
BRANCH  42  44
HETATM   44  C32 UNL     1       5.101  55.332  -9.307  1.00  0.00     0.186 C 
BRANCH  44  45
HETATM   45  C33 UNL     1       5.419  55.982  -7.953  1.00  0.00     0.074 C 
BRANCH  45  46
HETATM   46  C34 UNL     1       4.205  56.527  -7.238  1.00  0.00    -0.056 A 
HETATM   47  C35 UNL     1       3.528  55.757  -6.283  1.00  0.00     0.007 A 
HETATM   48  C36 UNL     1       2.414  56.273  -5.618  1.00  0.00     0.001 A 
HETATM   49  C37 UNL     1       1.966  57.561  -5.903  1.00  0.00     0.000 A 
HETATM   50  C38 UNL     1       2.628  58.333  -6.858  1.00  0.00     0.001 A 
HETATM   51  C39 UNL     1       3.744  57.820  -7.520  1.00  0.00     0.007 A 
ENDBRANCH  45  46
ENDBRANCH  44  45
BRANCH  44  52
HETATM   52  C40 UNL     1       5.814  53.976  -9.422  1.00  0.00     0.163 C 
HETATM   53  O8  UNL     1       7.018  53.776  -9.427  1.00  0.00    -0.648 OA
BRANCH  52  54
HETATM   54  O9  UNL     1       4.970  52.915  -9.442  1.00  0.00    -0.775 OA
HETATM   55  H54 UNL     1       5.575  52.148  -9.549  1.00  0.00     0.167 HD
ENDBRANCH  52  54
ENDBRANCH  44  52
ENDBRANCH  42  44
ENDBRANCH  39  40
ENDBRANCH  38  39
ENDBRANCH  37  38
ENDBRANCH  36  37
ENDBRANCH  35  36
ENDBRANCH  33  35
ENDBRANCH  30  31
ENDBRANCH  29  30
ENDBRANCH   1  29
TORSDOF 19
ENDMDL
MODEL 4
REMARK minimizedAffinity -8.29409027
REMARK CNNscore 0.30559957
REMARK CNNaffinity 6.07465792
REMARK  19 active torsions:
REMARK  status: ('A' for Active; 'I' for Inactive)
REMARK    1  A    between atoms: C19_20  and  O2_21 
REMARK    2  A    between atoms: C19_20  and  C20_22 
REMARK    3  A    between atoms: C20_22  and  C21_24 
REMARK    4  A    between atoms: C21_24  and  O4_25 
REMARK    5  A    between atoms: O4_25  and  C22_26 
REMARK    6  A    between atoms: C22_26  and  C23_28 
REMARK    7  A    between atoms: C23_28  and  C24_29 
REMARK    8  A    between atoms: C24_29  and  C25_30 
REMARK       I    between atoms: C25_30  and  N1_32 
REMARK    9  A    between atoms: N1_32  and  C26_33 
REMARK   10  A    between atoms: C26_33  and  C27_34 
REMARK   11  A    between atoms: C27_34  and  C28_35 
REMARK   12  A    between atoms: C28_35  and  C29_36 
REMARK   13  A    between atoms: C29_36  and  C30_37 
REMARK   14  A    between atoms: C30_37  and  C31_38 
REMARK       I    between atoms: C31_38  and  N2_40 
REMARK   15  A    between atoms: N2_40  and  C32_41 
REMARK   16  A    between atoms: C32_41  and  C33_42 
REMARK   17  A    between atoms: C32_41  and  C40_49 
REMARK   18  A    between atoms: C33_42  and  C34_43 
REMARK   19  A    between atoms: C40_49  and  O9_51 
ROOT
HETATM    1  C22 UNL     1     -10.795  45.365 -16.139  1.00  0.00     0.259 C 
HETATM    2  O5  UNL     1     -11.262  44.493 -16.861  1.00  0.00    -0.265 OA
ENDROOT
BRANCH   1   3
HETATM    3  O4  UNL     1     -11.375  46.571 -15.910  1.00  0.00    -0.314 OA
BRANCH   3   4
HETATM    4  C21 UNL     1     -11.744  47.277 -17.094  1.00  0.00     0.260 C 
BRANCH   4   5
HETATM    5  C20 UNL     1     -13.264  47.349 -17.202  1.00  0.00     0.185 C 
HETATM    6  O3  UNL     1     -13.997  47.023 -16.264  1.00  0.00    -0.292 OA
BRANCH   5   7
HETATM    7  C19 UNL     1     -13.833  47.878 -18.539  1.00  0.00     0.128 C 
HETATM    8  C14 UNL     1     -14.616  46.824 -19.383  1.00  0.00    -0.002 C 
HETATM    9  C13 UNL     1     -16.084  46.574 -18.994  1.00  0.00     0.013 C 
HETATM   10  C15 UNL     1     -13.853  45.473 -19.401  1.00  0.00     0.019 C 
HETATM   11  C16 UNL     1     -14.624  47.542 -20.756  1.00  0.00     0.002 C 
HETATM   12  C12 UNL     1     -16.842  45.778 -20.071  1.00  0.00     0.007 C 
HETATM   13  C11 UNL     1     -16.743  46.402 -21.486  1.00  0.00     0.002 C 
HETATM   14  C2  UNL     1     -17.514  45.587 -22.594  1.00  0.00    -0.016 C 
HETATM   15  C10 UNL     1     -15.268  46.714 -21.876  1.00  0.00    -0.004 C 
HETATM   16  C1  UNL     1     -17.016  44.129 -22.697  1.00  0.00     0.020 C 
HETATM   17  C3  UNL     1     -19.029  45.577 -22.231  1.00  0.00     0.022 C 
HETATM   18  C7  UNL     1     -17.309  46.259 -23.959  1.00  0.00    -0.068 C 
HETATM   19  C4  UNL     1     -19.935  45.165 -23.382  1.00  0.00     0.084 C 
HETATM   20  C5  UNL     1     -19.687  46.036 -24.583  1.00  0.00     0.149 C 
HETATM   21  O1  UNL     1     -20.574  46.321 -25.382  1.00  0.00    -0.293 OA
HETATM   22  C6  UNL     1     -18.302  46.493 -24.837  1.00  0.00     0.053 C 
HETATM   23  C8  UNL     1     -15.895  46.650 -24.319  1.00  0.00     0.035 C 
HETATM   24  C9  UNL     1     -15.222  47.459 -23.217  1.00  0.00     0.010 C 
HETATM   25  C17 UNL     1     -13.181  47.996 -20.935  1.00  0.00     0.009 C 
HETATM   26  C18 UNL     1     -12.698  48.323 -19.509  1.00  0.00     0.047 C 
BRANCH   7  27
HETATM   27  O2  UNL     1     -14.683  48.995 -18.251  1.00  0.00    -0.381 OA
HETATM   28  H27 UNL     1     -14.326  49.803 -18.663  1.00  0.00     0.211 HD
ENDBRANCH   7  27
ENDBRANCH   5   7
ENDBRANCH   4   5
ENDBRANCH   3   4
ENDBRANCH   1   3
BRANCH   1  29
HETATM   29  C23 UNL     1      -9.442  45.255 -15.474  1.00  0.00     0.120 C 
BRANCH  29  30
HETATM   30  C24 UNL     1      -8.683  46.575 -15.382  1.00  0.00     0.112 C 
BRANCH  30  31
HETATM   31  C25 UNL     1      -7.469  46.592 -16.288  1.00  0.00     0.217 C 
HETATM   32  O6  UNL     1      -6.393  46.097 -15.981  1.00  0.00    -0.274 OA
HETATM   33  N1  UNL     1      -7.706  47.216 -17.494  1.00  0.00    -0.361 N 
HETATM   34  H34 UNL     1      -8.639  47.542 -17.709  1.00  0.00     0.162 HD
BRANCH  33  35
HETATM   35  C26 UNL     1      -6.703  47.248 -18.539  1.00  0.00     0.122 C 
BRANCH  35  36
HETATM   36  C27 UNL     1      -6.269  48.682 -18.836  1.00  0.00     0.020 C 
BRANCH  36  37
HETATM   37  C28 UNL     1      -5.004  48.770 -19.695  1.00  0.00     0.002 C 
BRANCH  37  38
HETATM   38  C29 UNL     1      -4.566  50.214 -19.966  1.00  0.00     0.009 C 
BRANCH  38  39
HETATM   39  C30 UNL     1      -5.032  50.721 -21.332  1.00  0.00     0.103 C 
BRANCH  39  40
HETATM   40  C31 UNL     1      -3.935  50.748 -22.380  1.00  0.00     0.218 C 
HETATM   41  O7  UNL     1      -3.369  49.750 -22.810  1.00  0.00    -0.274 OA
HETATM   42  N2  UNL     1      -3.642  52.029 -22.804  1.00  0.00    -0.346 N 
HETATM   43  H45 UNL     1      -3.870  52.765 -22.145  1.00  0.00     0.163 HD
BRANCH  42  44
HETATM   44  C32 UNL     1      -2.438  52.276 -23.617  1.00  0.00     0.186 C 
BRANCH  44  45
HETATM   45  C33 UNL     1      -1.265  51.460 -23.055  1.00  0.00     0.074 C 
BRANCH  45  46
HETATM   46  C34 UNL     1      -0.447  52.199 -22.022  1.00  0.00    -0.056 A 
HETATM   47  C35 UNL     1       0.590  53.059 -22.409  1.00  0.00     0.007 A 
HETATM   48  C36 UNL     1       1.333  53.747 -21.448  1.00  0.00     0.001 A 
HETATM   49  C37 UNL     1       1.047  53.583 -20.094  1.00  0.00     0.000 A 
HETATM   50  C38 UNL     1       0.022  52.724 -19.698  1.00  0.00     0.001 A 
HETATM   51  C39 UNL     1      -0.724  52.038 -20.657  1.00  0.00     0.007 A 
ENDBRANCH  45  46
ENDBRANCH  44  45
BRANCH  44  52
HETATM   52  C40 UNL     1      -2.712  51.872 -25.073  1.00  0.00     0.163 C 
HETATM   53  O8  UNL     1      -2.669  50.748 -25.546  1.00  0.00    -0.648 OA
BRANCH  52  54
HETATM   54  O9  UNL     1      -3.115  52.902 -25.859  1.00  0.00    -0.775 OA
HETATM   55  H54 UNL     1      -3.214  52.485 -26.743  1.00  0.00     0.167 HD
ENDBRANCH  52  54
ENDBRANCH  44  52
ENDBRANCH  42  44
ENDBRANCH  39  40
ENDBRANCH  38  39
ENDBRANCH  37  38
ENDBRANCH  36  37
ENDBRANCH  35  36
ENDBRANCH  33  35
ENDBRANCH  30  31
ENDBRANCH  29  30
ENDBRANCH   1  29
TORSDOF 19
ENDMDL
MODEL 5
REMARK minimizedAffinity -8.92789364
REMARK CNNscore 0.287313581
REMARK CNNaffinity 7.54037476
REMARK  19 active torsions:
REMARK  status: ('A' for Active; 'I' for Inactive)
REMARK    1  A    between atoms: C19_20  and  O2_21 
REMARK    2  A    between atoms: C19_20  and  C20_22 
REMARK    3  A    between atoms: C20_22  and  C21_24 
REMARK    4  A    between atoms: C21_24  and  O4_25 
REMARK    5  A    between atoms: O4_25  and  C22_26 
REMARK    6  A    between atoms: C22_26  and  C23_28 
REMARK    7  A    between atoms: C23_28  and  C24_29 
REMARK    8  A    between atoms: C24_29  and  C25_30 
REMARK       I    between atoms: C25_30  and  N1_32 
REMARK    9  A    between atoms: N1_32  and  C26_33 
REMARK   10  A    between atoms: C26_33  and  C27_34 
REMARK   11  A    between atoms: C27_34  and  C28_35 
REMARK   12  A    between atoms: C28_35  and  C29_36 
REMARK   13  A    between atoms: C29_36  and  C30_37 
REMARK   14  A    between atoms: C30_37  and  C31_38 
REMARK       I    between atoms: C31_38  and  N2_40 
REMARK   15  A    between atoms: N2_40  and  C32_41 
REMARK   16  A    between atoms: C32_41  and  C33_42 
REMARK   17  A    between atoms: C32_41  and  C40_49 
REMARK   18  A    between atoms: C33_42  and  C34_43 
REMARK   19  A    between atoms: C40_49  and  O9_51 
ROOT
HETATM    1  C22 UNL     1       1.241  54.146 -21.993  1.00  0.00     0.259 C 
HETATM    2  O5  UNL     1       2.180  54.610 -21.358  1.00  0.00    -0.265 OA
ENDROOT
BRANCH   1   3
HETATM    3  O4  UNL     1       0.333  53.266 -21.498  1.00  0.00    -0.314 OA
BRANCH   3   4
HETATM    4  C21 UNL     1       0.713  52.669 -20.258  1.00  0.00     0.260 C 
BRANCH   4   5
HETATM    5  C20 UNL     1      -0.473  51.917 -19.661  1.00  0.00     0.185 C 
HETATM    6  O3  UNL     1      -1.017  52.287 -18.617  1.00  0.00    -0.292 OA
BRANCH   5   7
HETATM    7  C19 UNL     1      -0.971  50.684 -20.451  1.00  0.00     0.128 C 
HETATM    8  C14 UNL     1      -2.522  50.575 -20.588  1.00  0.00    -0.002 C 
HETATM    9  C13 UNL     1      -3.182  51.407 -21.702  1.00  0.00     0.013 C 
HETATM   10  C15 UNL     1      -3.207  50.897 -19.233  1.00  0.00     0.019 C 
HETATM   11  C16 UNL     1      -2.645  49.086 -20.998  1.00  0.00     0.002 C 
HETATM   12  C12 UNL     1      -4.639  50.984 -21.957  1.00  0.00     0.007 C 
HETATM   13  C11 UNL     1      -4.804  49.467 -22.228  1.00  0.00     0.002 C 
HETATM   14  C2  UNL     1      -6.297  49.027 -22.485  1.00  0.00    -0.016 C 
HETATM   15  C10 UNL     1      -4.095  48.608 -21.140  1.00  0.00    -0.004 C 
HETATM   16  C1  UNL     1      -7.223  49.389 -21.302  1.00  0.00     0.020 C 
HETATM   17  C3  UNL     1      -6.809  49.753 -23.765  1.00  0.00     0.022 C 
HETATM   18  C7  UNL     1      -6.354  47.507 -22.688  1.00  0.00    -0.068 C 
HETATM   19  C4  UNL     1      -8.079  49.151 -24.347  1.00  0.00     0.084 C 
HETATM   20  C5  UNL     1      -7.888  47.683 -24.615  1.00  0.00     0.149 C 
HETATM   21  O1  UNL     1      -8.455  47.104 -25.537  1.00  0.00    -0.293 OA
HETATM   22  C6  UNL     1      -7.045  46.909 -23.676  1.00  0.00     0.053 C 
HETATM   23  C8  UNL     1      -5.600  46.658 -21.693  1.00  0.00     0.035 C 
HETATM   24  C9  UNL     1      -4.158  47.121 -21.517  1.00  0.00     0.010 C 
HETATM   25  C17 UNL     1      -1.741  48.362 -20.006  1.00  0.00     0.009 C 
HETATM   26  C18 UNL     1      -0.593  49.353 -19.735  1.00  0.00     0.047 C 
BRANCH   7  27
HETATM   27  O2  UNL     1      -0.372  50.715 -21.752  1.00  0.00    -0.381 OA
HETATM   28  H27 UNL     1       0.200  49.936 -21.877  1.00  0.00     0.211 HD
ENDBRANCH   7  27
ENDBRANCH   5   7
ENDBRANCH   4   5
ENDBRANCH   3   4
ENDBRANCH   1   3
BRANCH   1  29
HETATM   29  C23 UNL     1       1.020  54.416 -23.464  1.00  0.00     0.120 C 
BRANCH  29  30
HETATM   30  C24 UNL     1       1.085  53.172 -24.344  1.00  0.00     0.112 C 
BRANCH  30  31
HETATM   31  C25 UNL     1      -0.289  52.746 -24.820  1.00  0.00     0.217 C 
HETATM   32  O6  UNL     1      -1.063  53.498 -25.399  1.00  0.00    -0.274 OA
HETATM   33  N1  UNL     1      -0.571  51.427 -24.542  1.00  0.00    -0.361 N 
HETATM   34  H34 UNL     1       0.143  50.845 -24.123  1.00  0.00     0.162 HD
BRANCH  33  35
HETATM   35  C26 UNL     1      -1.792  50.800 -25.006  1.00  0.00     0.122 C 
BRANCH  35  36
HETATM   36  C27 UNL     1      -1.539  49.976 -26.267  1.00  0.00     0.020 C 
BRANCH  36  37
HETATM   37  C28 UNL     1      -2.495  48.790 -26.421  1.00  0.00     0.002 C 
BRANCH  37  38
HETATM   38  C29 UNL     1      -3.897  49.077 -25.870  1.00  0.00     0.009 C 
BRANCH  38  39
HETATM   39  C30 UNL     1      -4.934  48.060 -26.348  1.00  0.00     0.103 C 
BRANCH  39  40
HETATM   40  C31 UNL     1      -5.246  48.156 -27.830  1.00  0.00     0.218 C 
HETATM   41  O7  UNL     1      -4.454  48.555 -28.676  1.00  0.00    -0.274 OA
HETATM   42  N2  UNL     1      -6.528  47.739 -28.129  1.00  0.00    -0.346 N 
HETATM   43  H45 UNL     1      -7.191  47.801 -27.364  1.00  0.00     0.163 HD
BRANCH  42  44
HETATM   44  C32 UNL     1      -7.095  48.003 -29.463  1.00  0.00     0.186 C 
BRANCH  44  45
HETATM   45  C33 UNL     1      -6.913  46.764 -30.350  1.00  0.00     0.074 C 
BRANCH  45  46
HETATM   46  C34 UNL     1      -6.198  47.045 -31.651  1.00  0.00    -0.056 A 
HETATM   47  C35 UNL     1      -6.904  47.490 -32.776  1.00  0.00     0.007 A 
HETATM   48  C36 UNL     1      -6.233  47.759 -33.971  1.00  0.00     0.001 A 
HETATM   49  C37 UNL     1      -4.853  47.585 -34.052  1.00  0.00     0.000 A 
HETATM   50  C38 UNL     1      -4.142  47.136 -32.939  1.00  0.00     0.001 A 
HETATM   51  C39 UNL     1      -4.810  46.870 -31.744  1.00  0.00     0.007 A 
ENDBRANCH  45  46
ENDBRANCH  44  45
BRANCH  44  52
HETATM   52  C40 UNL     1      -8.587  48.340 -29.325  1.00  0.00     0.163 C 
HETATM   53  O8  UNL     1      -9.533  47.641 -29.651  1.00  0.00    -0.648 OA
BRANCH  52  54
HETATM   54  O9  UNL     1      -8.826  49.520 -28.700  1.00  0.00    -0.775 OA
HETATM   55  H54 UNL     1      -9.805  49.594 -28.725  1.00  0.00     0.167 HD
ENDBRANCH  52  54
ENDBRANCH  44  52
ENDBRANCH  42  44
ENDBRANCH  39  40
ENDBRANCH  38  39
ENDBRANCH  37  38
ENDBRANCH  36  37
ENDBRANCH  35  36
ENDBRANCH  33  35
ENDBRANCH  30  31
ENDBRANCH  29  30
ENDBRANCH   1  29
TORSDOF 19
ENDMDL
MODEL 6
REMARK minimizedAffinity -9.47431278
REMARK CNNscore 0.282819927
REMARK CNNaffinity 6.63913584
REMARK  19 active torsions:
REMARK  status: ('A' for Active; 'I' for Inactive)
REMARK    1  A    between atoms: C19_20  and  O2_21 
REMARK    2  A    between atoms: C19_20  and  C20_22 
REMARK    3  A    between atoms: C20_22  and  C21_24 
REMARK    4  A    between atoms: C21_24  and  O4_25 
REMARK    5  A    between atoms: O4_25  and  C22_26 
REMARK    6  A    between atoms: C22_26  and  C23_28 
REMARK    7  A    between atoms: C23_28  and  C24_29 
REMARK    8  A    between atoms: C24_29  and  C25_30 
REMARK       I    between atoms: C25_30  and  N1_32 
REMARK    9  A    between atoms: N1_32  and  C26_33 
REMARK   10  A    between atoms: C26_33  and  C27_34 
REMARK   11  A    between atoms: C27_34  and  C28_35 
REMARK   12  A    between atoms: C28_35  and  C29_36 
REMARK   13  A    between atoms: C29_36  and  C30_37 
REMARK   14  A    between atoms: C30_37  and  C31_38 
REMARK       I    between atoms: C31_38  and  N2_40 
REMARK   15  A    between atoms: N2_40  and  C32_41 
REMARK   16  A    between atoms: C32_41  and  C33_42 
REMARK   17  A    between atoms: C32_41  and  C40_49 
REMARK   18  A    between atoms: C33_42  and  C34_43 
REMARK   19  A    between atoms: C40_49  and  O9_51 
ROOT
HETATM    1  C22 UNL     1      -3.676  49.018 -27.077  1.00  0.00     0.259 C 
HETATM    2  O5  UNL     1      -3.369  48.425 -26.050  1.00  0.00    -0.265 OA
ENDROOT
BRANCH   1   3
HETATM    3  O4  UNL     1      -3.373  50.316 -27.339  1.00  0.00    -0.314 OA
BRANCH   3   4
HETATM    4  C21 UNL     1      -1.974  50.599 -27.351  1.00  0.00     0.260 C 
BRANCH   4   5
HETATM    5  C20 UNL     1      -1.716  51.961 -26.714  1.00  0.00     0.185 C 
HETATM    6  O3  UNL     1      -2.279  52.982 -27.117  1.00  0.00    -0.292 OA
BRANCH   5   7
HETATM    7  C19 UNL     1      -0.735  51.985 -25.520  1.00  0.00     0.128 C 
HETATM    8  C14 UNL     1      -1.395  51.770 -24.122  1.00  0.00    -0.002 C 
HETATM    9  C13 UNL     1      -1.679  50.316 -23.705  1.00  0.00     0.013 C 
HETATM   10  C15 UNL     1      -2.700  52.601 -24.008  1.00  0.00     0.019 C 
HETATM   11  C16 UNL     1      -0.254  52.290 -23.211  1.00  0.00     0.002 C 
HETATM   12  C12 UNL     1      -2.020  50.197 -22.209  1.00  0.00     0.007 C 
HETATM   13  C11 UNL     1      -0.959  50.841 -21.280  1.00  0.00     0.002 C 
HETATM   14  C2  UNL     1      -1.306  50.728 -19.746  1.00  0.00    -0.016 C 
HETATM   15  C10 UNL     1      -0.617  52.295 -21.720  1.00  0.00    -0.004 C 
HETATM   16  C1  UNL     1      -2.670  51.371 -19.408  1.00  0.00     0.020 C 
HETATM   17  C3  UNL     1      -1.354  49.217 -19.365  1.00  0.00     0.022 C 
HETATM   18  C7  UNL     1      -0.224  51.440 -18.923  1.00  0.00    -0.068 C 
HETATM   19  C4  UNL     1      -1.302  48.960 -17.867  1.00  0.00     0.084 C 
HETATM   20  C5  UNL     1      -0.090  49.616 -17.264  1.00  0.00     0.149 C 
HETATM   21  O1  UNL     1       0.498  49.147 -16.294  1.00  0.00    -0.293 OA
HETATM   22  C6  UNL     1       0.347  50.915 -17.823  1.00  0.00     0.053 C 
HETATM   23  C8  UNL     1       0.186  52.817 -19.385  1.00  0.00     0.035 C 
HETATM   24  C9  UNL     1       0.535  52.848 -20.868  1.00  0.00     0.010 C 
HETATM   25  C17 UNL     1       0.152  53.608 -23.858  1.00  0.00     0.009 C 
HETATM   26  C18 UNL     1      -0.051  53.377 -25.368  1.00  0.00     0.047 C 
BRANCH   7  27
HETATM   27  O2  UNL     1       0.264  50.982 -25.742  1.00  0.00    -0.381 OA
HETATM   28  H27 UNL     1       1.143  51.396 -25.825  1.00  0.00     0.211 HD
ENDBRANCH   7  27
ENDBRANCH   5   7
ENDBRANCH   4   5
ENDBRANCH   3   4
ENDBRANCH   1   3
BRANCH   1  29
HETATM   29  C23 UNL     1      -4.531  48.408 -28.164  1.00  0.00     0.120 C 
BRANCH  29  30
HETATM   30  C24 UNL     1      -5.808  47.748 -27.656  1.00  0.00     0.112 C 
BRANCH  30  31
HETATM   31  C25 UNL     1      -6.613  47.135 -28.784  1.00  0.00     0.217 C 
HETATM   32  O6  UNL     1      -6.682  45.928 -28.982  1.00  0.00    -0.274 OA
HETATM   33  N1  UNL     1      -7.263  48.073 -29.555  1.00  0.00    -0.361 N 
HETATM   34  H34 UNL     1      -7.217  49.049 -29.292  1.00  0.00     0.162 HD
BRANCH  33  35
HETATM   35  C26 UNL     1      -8.165  47.685 -30.620  1.00  0.00     0.122 C 
BRANCH  35  36
HETATM   36  C27 UNL     1      -9.542  48.315 -30.428  1.00  0.00     0.020 C 
BRANCH  36  37
HETATM   37  C28 UNL     1     -10.135  48.073 -29.037  1.00  0.00     0.002 C 
BRANCH  37  38
HETATM   38  C29 UNL     1     -11.214  46.984 -29.030  1.00  0.00     0.009 C 
BRANCH  38  39
HETATM   39  C30 UNL     1     -12.628  47.561 -28.950  1.00  0.00     0.103 C 
BRANCH  39  40
HETATM   40  C31 UNL     1     -13.363  47.200 -27.672  1.00  0.00     0.218 C 
HETATM   41  O7  UNL     1     -13.159  47.731 -26.587  1.00  0.00    -0.274 OA
HETATM   42  N2  UNL     1     -14.298  46.202 -27.864  1.00  0.00    -0.346 N 
HETATM   43  H45 UNL     1     -14.123  45.593 -28.656  1.00  0.00     0.163 HD
BRANCH  42  44
HETATM   44  C32 UNL     1     -14.919  45.543 -26.702  1.00  0.00     0.186 C 
BRANCH  44  45
HETATM   45  C33 UNL     1     -16.313  45.030 -27.089  1.00  0.00     0.074 C 
BRANCH  45  46
HETATM   46  C34 UNL     1     -17.415  45.510 -26.175  1.00  0.00    -0.056 A 
HETATM   47  C35 UNL     1     -18.740  45.099 -26.370  1.00  0.00     0.007 A 
HETATM   48  C36 UNL     1     -19.750  45.539 -25.512  1.00  0.00     0.001 A 
HETATM   49  C37 UNL     1     -19.446  46.392 -24.454  1.00  0.00     0.000 A 
HETATM   50  C38 UNL     1     -18.131  46.812 -24.255  1.00  0.00     0.001 A 
HETATM   51  C39 UNL     1     -17.120  46.371 -25.109  1.00  0.00     0.007 A 
ENDBRANCH  45  46
ENDBRANCH  44  45
BRANCH  44  52
HETATM   52  C40 UNL     1     -14.033  44.373 -26.245  1.00  0.00     0.163 C 
HETATM   53  O8  UNL     1     -13.018  43.964 -26.785  1.00  0.00    -0.648 OA
BRANCH  52  54
HETATM   54  O9  UNL     1     -14.424  43.818 -25.071  1.00  0.00    -0.775 OA
HETATM   55  H54 UNL     1     -13.784  43.083 -24.946  1.00  0.00     0.167 HD
ENDBRANCH  52  54
ENDBRANCH  44  52
ENDBRANCH  42  44
ENDBRANCH  39  40
ENDBRANCH  38  39
ENDBRANCH  37  38
ENDBRANCH  36  37
ENDBRANCH  35  36
ENDBRANCH  33  35
ENDBRANCH  30  31
ENDBRANCH  29  30
ENDBRANCH   1  29
TORSDOF 19
ENDMDL
MODEL 7
REMARK minimizedAffinity -8.75867367
REMARK CNNscore 0.28267318
REMARK CNNaffinity 6.86607885
REMARK  19 active torsions:
REMARK  status: ('A' for Active; 'I' for Inactive)
REMARK    1  A    between atoms: C19_20  and  O2_21 
REMARK    2  A    between atoms: C19_20  and  C20_22 
REMARK    3  A    between atoms: C20_22  and  C21_24 
REMARK    4  A    between atoms: C21_24  and  O4_25 
REMARK    5  A    between atoms: O4_25  and  C22_26 
REMARK    6  A    between atoms: C22_26  and  C23_28 
REMARK    7  A    between atoms: C23_28  and  C24_29 
REMARK    8  A    between atoms: C24_29  and  C25_30 
REMARK       I    between atoms: C25_30  and  N1_32 
REMARK    9  A    between atoms: N1_32  and  C26_33 
REMARK   10  A    between atoms: C26_33  and  C27_34 
REMARK   11  A    between atoms: C27_34  and  C28_35 
REMARK   12  A    between atoms: C28_35  and  C29_36 
REMARK   13  A    between atoms: C29_36  and  C30_37 
REMARK   14  A    between atoms: C30_37  and  C31_38 
REMARK       I    between atoms: C31_38  and  N2_40 
REMARK   15  A    between atoms: N2_40  and  C32_41 
REMARK   16  A    between atoms: C32_41  and  C33_42 
REMARK   17  A    between atoms: C32_41  and  C40_49 
REMARK   18  A    between atoms: C33_42  and  C34_43 
REMARK   19  A    between atoms: C40_49  and  O9_51 
ROOT
HETATM    1  C22 UNL     1      -3.356  49.029 -26.974  1.00  0.00     0.259 C 
HETATM    2  O5  UNL     1      -3.737  48.993 -28.138  1.00  0.00    -0.265 OA
ENDROOT
BRANCH   1   3
HETATM    3  O4  UNL     1      -2.311  49.771 -26.526  1.00  0.00    -0.314 OA
BRANCH   3   4
HETATM    4  C21 UNL     1      -1.915  50.819 -27.411  1.00  0.00     0.260 C 
BRANCH   4   5
HETATM    5  C20 UNL     1      -1.740  52.118 -26.630  1.00  0.00     0.185 C 
HETATM    6  O3  UNL     1      -2.369  53.140 -26.921  1.00  0.00    -0.292 OA
BRANCH   5   7
HETATM    7  C19 UNL     1      -0.756  52.075 -25.439  1.00  0.00     0.128 C 
HETATM    8  C14 UNL     1      -1.422  51.858 -24.044  1.00  0.00    -0.002 C 
HETATM    9  C13 UNL     1      -1.768  50.410 -23.656  1.00  0.00     0.013 C 
HETATM   10  C15 UNL     1      -2.690  52.742 -23.908  1.00  0.00     0.019 C 
HETATM   11  C16 UNL     1      -0.259  52.310 -23.125  1.00  0.00     0.002 C 
HETATM   12  C12 UNL     1      -2.110  50.274 -22.162  1.00  0.00     0.007 C 
HETATM   13  C11 UNL     1      -1.021  50.853 -21.223  1.00  0.00     0.002 C 
HETATM   14  C2  UNL     1      -1.370  50.721 -19.691  1.00  0.00    -0.016 C 
HETATM   15  C10 UNL     1      -0.617  52.299 -21.634  1.00  0.00    -0.004 C 
HETATM   16  C1  UNL     1      -2.703  51.415 -19.335  1.00  0.00     0.020 C 
HETATM   17  C3  UNL     1      -1.482  49.207 -19.341  1.00  0.00     0.022 C 
HETATM   18  C7  UNL     1      -0.257  51.369 -18.856  1.00  0.00    -0.068 C 
HETATM   19  C4  UNL     1      -1.437  48.915 -17.849  1.00  0.00     0.084 C 
HETATM   20  C5  UNL     1      -0.197  49.507 -17.236  1.00  0.00     0.149 C 
HETATM   21  O1  UNL     1       0.372  48.992 -16.278  1.00  0.00    -0.293 OA
HETATM   22  C6  UNL     1       0.294  50.797 -17.769  1.00  0.00     0.053 C 
HETATM   23  C8  UNL     1       0.211  52.737 -19.290  1.00  0.00     0.035 C 
HETATM   24  C9  UNL     1       0.559  52.784 -20.773  1.00  0.00     0.010 C 
HETATM   25  C17 UNL     1       0.203  53.623 -23.746  1.00  0.00     0.009 C 
HETATM   26  C18 UNL     1      -0.013  53.433 -25.259  1.00  0.00     0.047 C 
BRANCH   7  27
HETATM   27  O2  UNL     1       0.198  51.035 -25.685  1.00  0.00    -0.381 OA
HETATM   28  H27 UNL     1       1.094  51.413 -25.761  1.00  0.00     0.211 HD
ENDBRANCH   7  27
ENDBRANCH   5   7
ENDBRANCH   4   5
ENDBRANCH   3   4
ENDBRANCH   1   3
BRANCH   1  29
HETATM   29  C23 UNL     1      -3.943  48.164 -25.882  1.00  0.00     0.120 C 
BRANCH  29  30
HETATM   30  C24 UNL     1      -5.205  48.735 -25.245  1.00  0.00     0.112 C 
BRANCH  30  31
HETATM   31  C25 UNL     1      -6.425  47.895 -25.560  1.00  0.00     0.217 C 
HETATM   32  O6  UNL     1      -7.106  47.349 -24.700  1.00  0.00    -0.274 OA
HETATM   33  N1  UNL     1      -6.693  47.816 -26.909  1.00  0.00    -0.361 N 
HETATM   34  H34 UNL     1      -6.129  48.349 -27.558  1.00  0.00     0.162 HD
BRANCH  33  35
HETATM   35  C26 UNL     1      -7.875  47.144 -27.409  1.00  0.00     0.122 C 
BRANCH  35  36
HETATM   36  C27 UNL     1      -7.500  46.033 -28.387  1.00  0.00     0.020 C 
BRANCH  36  37
HETATM   37  C28 UNL     1      -8.709  45.278 -28.945  1.00  0.00     0.002 C 
BRANCH  37  38
HETATM   38  C29 UNL     1      -9.822  46.213 -29.434  1.00  0.00     0.009 C 
BRANCH  38  39
HETATM   39  C30 UNL     1     -10.948  45.462 -30.145  1.00  0.00     0.103 C 
BRANCH  39  40
HETATM   40  C31 UNL     1     -11.012  45.727 -31.638  1.00  0.00     0.218 C 
HETATM   41  O7  UNL     1     -11.128  46.841 -32.135  1.00  0.00    -0.274 OA
HETATM   42  N2  UNL     1     -10.922  44.569 -32.384  1.00  0.00    -0.346 N 
HETATM   43  H45 UNL     1     -11.211  43.723 -31.905  1.00  0.00     0.163 HD
BRANCH  42  44
HETATM   44  C32 UNL     1     -11.225  44.598 -33.826  1.00  0.00     0.186 C 
BRANCH  44  45
HETATM   45  C33 UNL     1      -9.984  45.065 -34.600  1.00  0.00     0.074 C 
BRANCH  45  46
HETATM   46  C34 UNL     1     -10.300  45.955 -35.779  1.00  0.00    -0.056 A 
HETATM   47  C35 UNL     1      -9.275  46.510 -36.555  1.00  0.00     0.007 A 
HETATM   48  C36 UNL     1      -9.577  47.321 -37.651  1.00  0.00     0.001 A 
HETATM   49  C37 UNL     1     -10.905  47.586 -37.979  1.00  0.00     0.000 A 
HETATM   50  C38 UNL     1     -11.934  47.044 -37.208  1.00  0.00     0.001 A 
HETATM   51  C39 UNL     1     -11.634  46.230 -36.115  1.00  0.00     0.007 A 
ENDBRANCH  45  46
ENDBRANCH  44  45
BRANCH  44  52
HETATM   52  C40 UNL     1     -11.639  43.193 -34.289  1.00  0.00     0.163 C 
HETATM   53  O8  UNL     1     -12.644  42.890 -34.912  1.00  0.00    -0.648 OA
BRANCH  52  54
HETATM   54  O9  UNL     1     -10.718  42.235 -34.017  1.00  0.00    -0.775 OA
HETATM   55  H54 UNL     1     -11.146  41.413 -34.344  1.00  0.00     0.167 HD
ENDBRANCH  52  54
ENDBRANCH  44  52
ENDBRANCH  42  44
ENDBRANCH  39  40
ENDBRANCH  38  39
ENDBRANCH  37  38
ENDBRANCH  36  37
ENDBRANCH  35  36
ENDBRANCH  33  35
ENDBRANCH  30  31
ENDBRANCH  29  30
ENDBRANCH   1  29
TORSDOF 19
ENDMDL
MODEL 8
REMARK minimizedAffinity -8.61023808
REMARK CNNscore 0.26186797
REMARK CNNaffinity 6.60923004
REMARK  19 active torsions:
REMARK  status: ('A' for Active; 'I' for Inactive)
REMARK    1  A    between atoms: C19_20  and  O2_21 
REMARK    2  A    between atoms: C19_20  and  C20_22 
REMARK    3  A    between atoms: C20_22  and  C21_24 
REMARK    4  A    between atoms: C21_24  and  O4_25 
REMARK    5  A    between atoms: O4_25  and  C22_26 
REMARK    6  A    between atoms: C22_26  and  C23_28 
REMARK    7  A    between atoms: C23_28  and  C24_29 
REMARK    8  A    between atoms: C24_29  and  C25_30 
REMARK       I    between atoms: C25_30  and  N1_32 
REMARK    9  A    between atoms: N1_32  and  C26_33 
REMARK   10  A    between atoms: C26_33  and  C27_34 
REMARK   11  A    between atoms: C27_34  and  C28_35 
REMARK   12  A    between atoms: C28_35  and  C29_36 
REMARK   13  A    between atoms: C29_36  and  C30_37 
REMARK   14  A    between atoms: C30_37  and  C31_38 
REMARK       I    between atoms: C31_38  and  N2_40 
REMARK   15  A    between atoms: N2_40  and  C32_41 
REMARK   16  A    between atoms: C32_41  and  C33_42 
REMARK   17  A    between atoms: C32_41  and  C40_49 
REMARK   18  A    between atoms: C33_42  and  C34_43 
REMARK   19  A    between atoms: C40_49  and  O9_51 
ROOT
HETATM    1  C22 UNL     1      -2.858  49.333 -16.475  1.00  0.00     0.259 C 
HETATM    2  O5  UNL     1      -3.400  48.413 -15.875  1.00  0.00    -0.265 OA
ENDROOT
BRANCH   1   3
HETATM    3  O4  UNL     1      -2.427  49.269 -17.761  1.00  0.00    -0.314 OA
BRANCH   3   4
HETATM    4  C21 UNL     1      -3.461  49.013 -18.711  1.00  0.00     0.260 C 
BRANCH   4   5
HETATM    5  C20 UNL     1      -3.267  47.631 -19.327  1.00  0.00     0.185 C 
HETATM    6  O3  UNL     1      -3.237  46.610 -18.634  1.00  0.00    -0.292 OA
BRANCH   5   7
HETATM    7  C19 UNL     1      -3.139  47.578 -20.867  1.00  0.00     0.128 C 
HETATM    8  C14 UNL     1      -2.806  48.943 -21.547  1.00  0.00    -0.002 C 
HETATM    9  C13 UNL     1      -1.327  49.370 -21.558  1.00  0.00     0.013 C 
HETATM   10  C15 UNL     1      -3.663  50.077 -20.927  1.00  0.00     0.019 C 
HETATM   11  C16 UNL     1      -3.195  48.609 -23.009  1.00  0.00     0.002 C 
HETATM   12  C12 UNL     1      -1.070  50.545 -22.519  1.00  0.00     0.007 C 
HETATM   13  C11 UNL     1      -1.583  50.290 -23.959  1.00  0.00     0.002 C 
HETATM   14  C2  UNL     1      -1.327  51.492 -24.946  1.00  0.00    -0.016 C 
HETATM   15  C10 UNL     1      -3.062  49.802 -23.965  1.00  0.00    -0.004 C 
HETATM   16  C1  UNL     1      -1.977  52.803 -24.449  1.00  0.00     0.020 C 
HETATM   17  C3  UNL     1       0.212  51.709 -25.067  1.00  0.00     0.022 C 
HETATM   18  C7  UNL     1      -1.917  51.159 -26.323  1.00  0.00    -0.068 C 
HETATM   19  C4  UNL     1       0.620  52.567 -26.254  1.00  0.00     0.084 C 
HETATM   20  C5  UNL     1       0.067  51.995 -27.531  1.00  0.00     0.149 C 
HETATM   21  O1  UNL     1       0.651  52.100 -28.605  1.00  0.00    -0.293 OA
HETATM   22  C6  UNL     1      -1.267  51.354 -27.484  1.00  0.00     0.053 C 
HETATM   23  C8  UNL     1      -3.320  50.601 -26.345  1.00  0.00     0.035 C 
HETATM   24  C9  UNL     1      -3.488  49.425 -25.391  1.00  0.00     0.010 C 
HETATM   25  C17 UNL     1      -4.557  47.940 -22.877  1.00  0.00     0.009 C 
HETATM   26  C18 UNL     1      -4.486  47.176 -21.541  1.00  0.00     0.047 C 
BRANCH   7  27
HETATM   27  O2  UNL     1      -2.131  46.614 -21.199  1.00  0.00    -0.381 OA
HETATM   28  H27 UNL     1      -2.523  45.881 -21.709  1.00  0.00     0.211 HD
ENDBRANCH   7  27
ENDBRANCH   5   7
ENDBRANCH   4   5
ENDBRANCH   3   4
ENDBRANCH   1   3
BRANCH   1  29
HETATM   29  C23 UNL     1      -2.500  50.650 -15.825  1.00  0.00     0.120 C 
BRANCH  29  30
HETATM   30  C24 UNL     1      -1.704  50.512 -14.531  1.00  0.00     0.112 C 
BRANCH  30  31
HETATM   31  C25 UNL     1      -1.947  51.676 -13.593  1.00  0.00     0.217 C 
HETATM   32  O6  UNL     1      -1.053  52.399 -13.173  1.00  0.00    -0.274 OA
HETATM   33  N1  UNL     1      -3.276  51.839 -13.268  1.00  0.00    -0.361 N 
HETATM   34  H34 UNL     1      -3.970  51.247 -13.707  1.00  0.00     0.162 HD
BRANCH  33  35
HETATM   35  C26 UNL     1      -3.728  52.956 -12.464  1.00  0.00     0.122 C 
BRANCH  35  36
HETATM   36  C27 UNL     1      -4.098  52.501 -11.054  1.00  0.00     0.020 C 
BRANCH  36  37
HETATM   37  C28 UNL     1      -3.318  53.228  -9.955  1.00  0.00     0.002 C 
BRANCH  37  38
HETATM   38  C29 UNL     1      -2.482  54.397 -10.490  1.00  0.00     0.009 C 
BRANCH  38  39
HETATM   39  C30 UNL     1      -0.990  54.235 -10.191  1.00  0.00     0.103 C 
BRANCH  39  40
HETATM   40  C31 UNL     1      -0.492  55.127  -9.069  1.00  0.00     0.218 C 
HETATM   41  O7  UNL     1      -0.857  56.283  -8.896  1.00  0.00    -0.274 OA
HETATM   42  N2  UNL     1       0.423  54.490  -8.255  1.00  0.00    -0.346 N 
HETATM   43  H45 UNL     1       0.924  53.721  -8.687  1.00  0.00     0.163 HD
BRANCH  42  44
HETATM   44  C32 UNL     1       1.206  55.269  -7.280  1.00  0.00     0.186 C 
BRANCH  44  45
HETATM   45  C33 UNL     1       1.883  56.448  -7.993  1.00  0.00     0.074 C 
BRANCH  45  46
HETATM   46  C34 UNL     1       3.111  56.060  -8.782  1.00  0.00    -0.056 A 
HETATM   47  C35 UNL     1       4.304  55.720  -8.133  1.00  0.00     0.007 A 
HETATM   48  C36 UNL     1       5.430  55.350  -8.871  1.00  0.00     0.001 A 
HETATM   49  C37 UNL     1       5.374  55.320 -10.263  1.00  0.00     0.000 A 
HETATM   50  C38 UNL     1       4.193  55.664 -10.920  1.00  0.00     0.001 A 
HETATM   51  C39 UNL     1       3.065  56.030 -10.184  1.00  0.00     0.007 A 
ENDBRANCH  45  46
ENDBRANCH  44  45
BRANCH  44  52
HETATM   52  C40 UNL     1       0.275  55.785  -6.172  1.00  0.00     0.163 C 
HETATM   53  O8  UNL     1       0.406  56.806  -5.517  1.00  0.00    -0.648 OA
BRANCH  52  54
HETATM   54  O9  UNL     1      -0.836  55.027  -5.996  1.00  0.00    -0.775 OA
HETATM   55  H54 UNL     1      -1.293  55.469  -5.247  1.00  0.00     0.167 HD
ENDBRANCH  52  54
ENDBRANCH  44  52
ENDBRANCH  42  44
ENDBRANCH  39  40
ENDBRANCH  38  39
ENDBRANCH  37  38
ENDBRANCH  36  37
ENDBRANCH  35  36
ENDBRANCH  33  35
ENDBRANCH  30  31
ENDBRANCH  29  30
ENDBRANCH   1  29
TORSDOF 19
ENDMDL
MODEL 9
REMARK minimizedAffinity -8.32691669
REMARK CNNscore 0.244641259
REMARK CNNaffinity 6.69006157
REMARK  19 active torsions:
REMARK  status: ('A' for Active; 'I' for Inactive)
REMARK    1  A    between atoms: C19_20  and  O2_21 
REMARK    2  A    between atoms: C19_20  and  C20_22 
REMARK    3  A    between atoms: C20_22  and  C21_24 
REMARK    4  A    between atoms: C21_24  and  O4_25 
REMARK    5  A    between atoms: O4_25  and  C22_26 
REMARK    6  A    between atoms: C22_26  and  C23_28 
REMARK    7  A    between atoms: C23_28  and  C24_29 
REMARK    8  A    between atoms: C24_29  and  C25_30 
REMARK       I    between atoms: C25_30  and  N1_32 
REMARK    9  A    between atoms: N1_32  and  C26_33 
REMARK   10  A    between atoms: C26_33  and  C27_34 
REMARK   11  A    between atoms: C27_34  and  C28_35 
REMARK   12  A    between atoms: C28_35  and  C29_36 
REMARK   13  A    between atoms: C29_36  and  C30_37 
REMARK   14  A    between atoms: C30_37  and  C31_38 
REMARK       I    between atoms: C31_38  and  N2_40 
REMARK   15  A    between atoms: N2_40  and  C32_41 
REMARK   16  A    between atoms: C32_41  and  C33_42 
REMARK   17  A    between atoms: C32_41  and  C40_49 
REMARK   18  A    between atoms: C33_42  and  C34_43 
REMARK   19  A    between atoms: C40_49  and  O9_51 
ROOT
HETATM    1  C22 UNL     1      -3.056  51.251 -14.161  1.00  0.00     0.259 C 
HETATM    2  O5  UNL     1      -3.739  52.139 -14.656  1.00  0.00    -0.265 OA
ENDROOT
BRANCH   1   3
HETATM    3  O4  UNL     1      -2.776  51.138 -12.838  1.00  0.00    -0.314 OA
BRANCH   3   4
HETATM    4  C21 UNL     1      -2.897  52.358 -12.108  1.00  0.00     0.260 C 
BRANCH   4   5
HETATM    5  C20 UNL     1      -1.512  52.922 -11.808  1.00  0.00     0.185 C 
HETATM    6  O3  UNL     1      -0.563  52.756 -12.580  1.00  0.00    -0.292 OA
BRANCH   5   7
HETATM    7  C19 UNL     1      -1.370  53.735 -10.501  1.00  0.00     0.128 C 
HETATM    8  C14 UNL     1       0.078  53.803  -9.922  1.00  0.00    -0.002 C 
HETATM    9  C13 UNL     1       1.024  54.850 -10.536  1.00  0.00     0.013 C 
HETATM   10  C15 UNL     1       0.750  52.405  -9.986  1.00  0.00     0.019 C 
HETATM   11  C16 UNL     1      -0.239  54.266  -8.478  1.00  0.00     0.002 C 
HETATM   12  C12 UNL     1       2.294  55.053  -9.691  1.00  0.00     0.007 C 
HETATM   13  C11 UNL     1       2.001  55.376  -8.204  1.00  0.00     0.002 C 
HETATM   14  C2  UNL     1       3.299  55.579  -7.331  1.00  0.00    -0.016 C 
HETATM   15  C10 UNL     1       1.001  54.358  -7.579  1.00  0.00    -0.004 C 
HETATM   16  C1  UNL     1       4.222  54.340  -7.363  1.00  0.00     0.020 C 
HETATM   17  C3  UNL     1       4.082  56.803  -7.894  1.00  0.00     0.022 C 
HETATM   18  C7  UNL     1       2.900  55.840  -5.873  1.00  0.00    -0.068 C 
HETATM   19  C4  UNL     1       5.137  57.348  -6.944  1.00  0.00     0.084 C 
HETATM   20  C5  UNL     1       4.522  57.683  -5.613  1.00  0.00     0.149 C 
HETATM   21  O1  UNL     1       4.936  58.600  -4.910  1.00  0.00    -0.293 OA
HETATM   22  C6  UNL     1       3.430  56.817  -5.114  1.00  0.00     0.053 C 
HETATM   23  C8  UNL     1       1.865  54.917  -5.275  1.00  0.00     0.035 C 
HETATM   24  C9  UNL     1       0.627  54.791  -6.155  1.00  0.00     0.010 C 
HETATM   25  C17 UNL     1      -1.375  53.349  -8.045  1.00  0.00     0.009 C 
HETATM   26  C18 UNL     1      -2.178  53.092  -9.335  1.00  0.00     0.047 C 
BRANCH   7  27
HETATM   27  O2  UNL     1      -1.855  55.062 -10.746  1.00  0.00    -0.381 OA
HETATM   28  H27 UNL     1      -2.630  55.245 -10.183  1.00  0.00     0.211 HD
ENDBRANCH   7  27
ENDBRANCH   5   7
ENDBRANCH   4   5
ENDBRANCH   3   4
ENDBRANCH   1   3
BRANCH   1  29
HETATM   29  C23 UNL     1      -2.340  50.201 -14.981  1.00  0.00     0.120 C 
BRANCH  29  30
HETATM   30  C24 UNL     1      -1.168  50.739 -15.796  1.00  0.00     0.112 C 
BRANCH  30  31
HETATM   31  C25 UNL     1      -1.487  50.791 -17.276  1.00  0.00     0.217 C 
HETATM   32  O6  UNL     1      -2.441  51.406 -17.737  1.00  0.00    -0.274 OA
HETATM   33  N1  UNL     1      -0.591  50.083 -18.046  1.00  0.00    -0.361 N 
HETATM   34  H34 UNL     1       0.213  49.656 -17.605  1.00  0.00     0.162 HD
BRANCH  33  35
HETATM   35  C26 UNL     1      -0.663  50.093 -19.493  1.00  0.00     0.122 C 
BRANCH  35  36
HETATM   36  C27 UNL     1      -1.671  49.062 -19.998  1.00  0.00     0.020 C 
BRANCH  36  37
HETATM   37  C28 UNL     1      -1.592  48.821 -21.507  1.00  0.00     0.002 C 
BRANCH  37  38
HETATM   38  C29 UNL     1      -2.948  48.973 -22.207  1.00  0.00     0.009 C 
BRANCH  38  39
HETATM   39  C30 UNL     1      -2.942  48.402 -23.626  1.00  0.00     0.103 C 
BRANCH  39  40
HETATM   40  C31 UNL     1      -3.721  49.238 -24.624  1.00  0.00     0.218 C 
HETATM   41  O7  UNL     1      -4.930  49.145 -24.805  1.00  0.00    -0.274 OA
HETATM   42  N2  UNL     1      -2.918  50.126 -25.312  1.00  0.00    -0.346 N 
HETATM   43  H45 UNL     1      -1.939  49.866 -25.372  1.00  0.00     0.163 HD
BRANCH  42  44
HETATM   44  C32 UNL     1      -3.444  50.830 -26.494  1.00  0.00     0.186 C 
BRANCH  44  45
HETATM   45  C33 UNL     1      -2.662  52.135 -26.702  1.00  0.00     0.074 C 
BRANCH  45  46
HETATM   46  C34 UNL     1      -1.193  52.025 -26.372  1.00  0.00    -0.056 A 
HETATM   47  C35 UNL     1      -0.379  51.087 -27.021  1.00  0.00     0.007 A 
HETATM   48  C36 UNL     1       0.981  51.001 -26.717  1.00  0.00     0.001 A 
HETATM   49  C37 UNL     1       1.539  51.848 -25.763  1.00  0.00     0.000 A 
HETATM   50  C38 UNL     1       0.736  52.781 -25.106  1.00  0.00     0.001 A 
HETATM   51  C39 UNL     1      -0.622  52.871 -25.410  1.00  0.00     0.007 A 
ENDBRANCH  45  46
ENDBRANCH  44  45
BRANCH  44  52
HETATM   52  C40 UNL     1      -3.305  49.928 -27.729  1.00  0.00     0.163 C 
HETATM   53  O8  UNL     1      -3.160  48.716 -27.743  1.00  0.00    -0.648 OA
BRANCH  52  54
HETATM   54  O9  UNL     1      -3.441  50.588 -28.907  1.00  0.00    -0.775 OA
HETATM   55  H54 UNL     1      -3.296  49.885 -29.577  1.00  0.00     0.167 HD
ENDBRANCH  52  54
ENDBRANCH  44  52
ENDBRANCH  42  44
ENDBRANCH  39  40
ENDBRANCH  38  39
ENDBRANCH  37  38
ENDBRANCH  36  37
ENDBRANCH  35  36
ENDBRANCH  33  35
ENDBRANCH  30  31
ENDBRANCH  29  30
ENDBRANCH   1  29
TORSDOF 19
ENDMDL
