MODEL 1
REMARK minimizedAffinity -8.45127201
REMARK CNNscore 0.47157988
REMARK CNNaffinity 6.81731939
REMARK  19 active torsions:
REMARK  status: ('A' for Active; 'I' for Inactive)
REMARK    1  A    between atoms: C3_3  and  C4_4 
REMARK    2  A    between atoms: C5_5  and  C6_6 
REMARK    3  A    between atoms: C7_8  and  O2_9 
REMARK    4  A    between atoms: C7_8  and  C8_10 
REMARK    5  A    between atoms: C8_10  and  C10_12 
REMARK       I    between atoms: C10_12  and  N1_14 
REMARK    6  A    between atoms: N1_14  and  C11_15 
REMARK    7  A    between atoms: C11_15  and  C12_16 
REMARK    8  A    between atoms: C13_17  and  C14_18 
REMARK    9  A    between atoms: C15_19  and  C17_21 
REMARK   10  A    between atoms: C17_21  and  O4_22 
REMARK   11  A    between atoms: C17_21  and  C19_24 
REMARK   12  A    between atoms: C19_24  and  C21_26 
REMARK   13  A    between atoms: C23_28  and  O5_29 
REMARK   14  A    between atoms: C24_30  and  C25_31 
REMARK   15  A    between atoms: C26_32  and  C27_33 
REMARK   16  A    between atoms: C28_34  and  C29_35 
REMARK   17  A    between atoms: C30_36  and  C31_37 
REMARK   18  A    between atoms: C31_37  and  O7_39 
REMARK   19  A    between atoms: C33_42  and  O9_43 
ROOT
HETATM    1  C12 UNL     1      -6.440   3.510  12.795  1.00  0.00    -0.007 C 
HETATM    2  C13 UNL     1      -5.392   4.303  13.069  1.00  0.00    -0.002 C 
ENDROOT
BRANCH   2   3
HETATM    3  C14 UNL     1      -4.181   4.269  12.277  1.00  0.00     0.005 C 
HETATM    4  C15 UNL     1      -2.990   4.834  12.567  1.00  0.00    -0.055 C 
HETATM    5  C16 UNL     1      -1.872   4.687  11.560  1.00  0.00     0.046 C 
BRANCH   4   6
HETATM    6  C17 UNL     1      -2.677   5.585  13.860  1.00  0.00     0.155 C 
BRANCH   6   7
HETATM    7  O4  UNL     1      -1.391   6.211  13.769  1.00  0.00    -0.386 OA
HETATM    8  C18 UNL     1      -0.432   5.652  14.661  1.00  0.00     0.202 C 
ENDBRANCH   6   7
BRANCH   6   9
HETATM    9  C19 UNL     1      -3.768   6.636  14.238  1.00  0.00     0.044 C 
HETATM   10  C20 UNL     1      -4.019   6.561  15.759  1.00  0.00     0.015 C 
BRANCH   9  11
HETATM   11  C21 UNL     1      -3.440   8.092  13.844  1.00  0.00     0.131 C 
HETATM   12  C22 UNL     1      -2.240   8.695  14.560  1.00  0.00     0.067 C 
HETATM   13  C23 UNL     1      -1.811   9.755  13.578  1.00  0.00     0.153 C 
HETATM   14  C24 UNL     1      -1.992   9.033  12.235  1.00  0.00     0.173 C 
HETATM   15  O8  UNL     1      -3.144   8.179  12.427  1.00  0.00    -0.374 OA
BRANCH  13  16
HETATM   16  O5  UNL     1      -0.524  10.276  13.838  1.00  0.00    -0.393 OA
HETATM   17  H35 UNL     1      -0.551  10.694  14.715  1.00  0.00     0.210 HD
ENDBRANCH  13  16
BRANCH  14  18
HETATM   18  C25 UNL     1      -0.922   8.135  11.663  1.00  0.00     0.007 C 
HETATM   19  C26 UNL     1       0.399   8.355  11.578  1.00  0.00    -0.001 C 
BRANCH  19  20
HETATM   20  C27 UNL     1       1.306   7.409  10.965  1.00  0.00    -0.000 C 
HETATM   21  C28 UNL     1       1.215   6.084  11.148  1.00  0.00     0.000 C 
BRANCH  21  22
HETATM   22  C29 UNL     1       2.155   5.155  10.558  1.00  0.00     0.007 C 
HETATM   23  C30 UNL     1       3.283   5.552   9.954  1.00  0.00     0.081 C 
BRANCH  23  24
HETATM   24  C31 UNL     1       4.171   4.549   9.350  1.00  0.00     0.165 C 
HETATM   25  O6  UNL     1       3.937   3.821   8.403  1.00  0.00    -0.647 OA
BRANCH  24  26
HETATM   26  O7  UNL     1       5.349   4.533   9.992  1.00  0.00    -0.773 OA
HETATM   27  H43 UNL     1       5.870   3.861   9.504  1.00  0.00     0.167 HD
ENDBRANCH  24  26
ENDBRANCH  23  24
ENDBRANCH  21  22
ENDBRANCH  19  20
ENDBRANCH  14  18
ENDBRANCH   9  11
ENDBRANCH   6   9
ENDBRANCH   4   6
ENDBRANCH   2   3
BRANCH   1  28
HETATM   28  C11 UNL     1      -7.745   3.524  13.524  1.00  0.00     0.149 C 
BRANCH  28  29
HETATM   29  N1  UNL     1      -7.782   4.697  14.361  1.00  0.00    -0.357 N 
HETATM   30  C10 UNL     1      -8.060   5.948  13.853  1.00  0.00     0.227 C 
HETATM   31  O3  UNL     1      -8.248   6.152  12.656  1.00  0.00    -0.273 OA
HETATM   32  H14 UNL     1      -7.859   4.553  15.361  1.00  0.00     0.162 HD
BRANCH  30  33
HETATM   33  C8  UNL     1      -8.164   7.049  14.904  1.00  0.00     0.136 C 
HETATM   34  C9  UNL     1      -7.239   8.216  14.557  1.00  0.00     0.026 C 
BRANCH  33  35
HETATM   35  C7  UNL     1      -9.641   7.468  15.146  1.00  0.00     0.176 C 
HETATM   36  O1  UNL     1      -9.754   8.820  14.682  1.00  0.00    -0.344 OA
HETATM   37  C6  UNL     1     -11.091   9.309  14.752  1.00  0.00     0.158 C 
HETATM   38  C34 UNL     1     -11.962   8.654  13.636  1.00  0.00     0.008 C 
HETATM   39  C33 UNL     1     -11.446   7.216  13.329  1.00  0.00     0.134 C 
HETATM   40  C35 UNL     1     -13.415   8.565  14.169  1.00  0.00     0.020 C 
HETATM   41  C36 UNL     1     -12.008   9.484  12.331  1.00  0.00     0.020 C 
HETATM   42  C32 UNL     1     -10.720   6.567  14.505  1.00  0.00     0.101 C 
BRANCH  37  43
HETATM   43  C5  UNL     1     -10.992  10.812  14.711  1.00  0.00     0.006 C 
HETATM   44  C4  UNL     1      -9.879  11.508  14.993  1.00  0.00    -0.002 C 
BRANCH  44  45
HETATM   45  C3  UNL     1      -9.819  12.949  14.923  1.00  0.00    -0.005 C 
HETATM   46  C2  UNL     1     -10.823  13.699  14.449  1.00  0.00    -0.031 C 
HETATM   47  C1  UNL     1     -10.775  15.191  14.372  1.00  0.00     0.036 C 
ENDBRANCH  44  45
ENDBRANCH  37  43
BRANCH  39  48
HETATM   48  O9  UNL     1     -10.577   7.201  12.193  1.00  0.00    -0.395 OA
HETATM   49  H47 UNL     1     -10.516   6.283  11.877  1.00  0.00     0.210 HD
ENDBRANCH  39  48
BRANCH  35  50
HETATM   50  O2  UNL     1      -9.858   7.475  16.566  1.00  0.00    -0.364 OA
HETATM   51  H9  UNL     1      -9.758   6.548  16.864  1.00  0.00     0.213 HD
ENDBRANCH  35  50
ENDBRANCH  33  35
ENDBRANCH  30  33
ENDBRANCH  28  29
ENDBRANCH   1  28
TORSDOF 19
ENDMDL
MODEL 2
REMARK minimizedAffinity -8.51962757
REMARK CNNscore 0.437405735
REMARK CNNaffinity 7.19565344
REMARK  19 active torsions:
REMARK  status: ('A' for Active; 'I' for Inactive)
REMARK    1  A    between atoms: C3_3  and  C4_4 
REMARK    2  A    between atoms: C5_5  and  C6_6 
REMARK    3  A    between atoms: C7_8  and  O2_9 
REMARK    4  A    between atoms: C7_8  and  C8_10 
REMARK    5  A    between atoms: C8_10  and  C10_12 
REMARK       I    between atoms: C10_12  and  N1_14 
REMARK    6  A    between atoms: N1_14  and  C11_15 
REMARK    7  A    between atoms: C11_15  and  C12_16 
REMARK    8  A    between atoms: C13_17  and  C14_18 
REMARK    9  A    between atoms: C15_19  and  C17_21 
REMARK   10  A    between atoms: C17_21  and  O4_22 
REMARK   11  A    between atoms: C17_21  and  C19_24 
REMARK   12  A    between atoms: C19_24  and  C21_26 
REMARK   13  A    between atoms: C23_28  and  O5_29 
REMARK   14  A    between atoms: C24_30  and  C25_31 
REMARK   15  A    between atoms: C26_32  and  C27_33 
REMARK   16  A    between atoms: C28_34  and  C29_35 
REMARK   17  A    between atoms: C30_36  and  C31_37 
REMARK   18  A    between atoms: C31_37  and  O7_39 
REMARK   19  A    between atoms: C33_42  and  O9_43 
ROOT
HETATM    1  C12 UNL     1      -3.304   3.522  11.649  1.00  0.00    -0.007 C 
HETATM    2  C13 UNL     1      -4.170   4.045  12.532  1.00  0.00    -0.002 C 
ENDROOT
BRANCH   2   3
HETATM    3  C14 UNL     1      -5.568   3.674  12.542  1.00  0.00     0.005 C 
HETATM    4  C15 UNL     1      -6.580   4.285  13.195  1.00  0.00    -0.055 C 
HETATM    5  C16 UNL     1      -7.963   3.688  13.077  1.00  0.00     0.046 C 
BRANCH   4   6
HETATM    6  C17 UNL     1      -6.433   5.560  14.023  1.00  0.00     0.155 C 
BRANCH   6   7
HETATM    7  O4  UNL     1      -6.036   6.652  13.184  1.00  0.00    -0.386 OA
HETATM    8  C18 UNL     1      -4.931   7.384  13.704  1.00  0.00     0.202 C 
ENDBRANCH   6   7
BRANCH   6   9
HETATM    9  C19 UNL     1      -7.726   5.927  14.818  1.00  0.00     0.044 C 
HETATM   10  C20 UNL     1      -7.342   6.200  16.287  1.00  0.00     0.015 C 
BRANCH   9  11
HETATM   11  C21 UNL     1      -8.516   7.132  14.263  1.00  0.00     0.131 C 
HETATM   12  C22 UNL     1     -10.003   6.882  14.054  1.00  0.00     0.067 C 
HETATM   13  C23 UNL     1     -10.554   8.282  14.146  1.00  0.00     0.153 C 
HETATM   14  C24 UNL     1      -9.730   8.871  15.301  1.00  0.00     0.173 C 
HETATM   15  O8  UNL     1      -8.426   8.259  15.172  1.00  0.00    -0.374 OA
BRANCH  13  16
HETATM   16  O5  UNL     1     -11.958   8.326  14.296  1.00  0.00    -0.393 OA
HETATM   17  H35 UNL     1     -12.349   7.918  13.506  1.00  0.00     0.210 HD
ENDBRANCH  13  16
BRANCH  14  18
HETATM   18  C25 UNL     1     -10.123   8.671  16.744  1.00  0.00     0.007 C 
HETATM   19  C26 UNL     1     -10.825   9.490  17.542  1.00  0.00    -0.001 C 
BRANCH  19  20
HETATM   20  C27 UNL     1     -11.096   9.178  18.929  1.00  0.00    -0.000 C 
HETATM   21  C28 UNL     1     -11.769  10.002  19.746  1.00  0.00     0.000 C 
BRANCH  21  22
HETATM   22  C29 UNL     1     -11.997   9.692  21.140  1.00  0.00     0.007 C 
HETATM   23  C30 UNL     1     -11.233  10.180  22.126  1.00  0.00     0.081 C 
BRANCH  23  24
HETATM   24  C31 UNL     1     -11.508   9.792  23.516  1.00  0.00     0.165 C 
HETATM   25  O6  UNL     1     -10.802   9.138  24.260  1.00  0.00    -0.647 OA
BRANCH  24  26
HETATM   26  O7  UNL     1     -12.697  10.280  23.902  1.00  0.00    -0.773 OA
HETATM   27  H43 UNL     1     -12.773   9.992  24.836  1.00  0.00     0.167 HD
ENDBRANCH  24  26
ENDBRANCH  23  24
ENDBRANCH  21  22
ENDBRANCH  19  20
ENDBRANCH  14  18
ENDBRANCH   9  11
ENDBRANCH   6   9
ENDBRANCH   4   6
ENDBRANCH   2   3
BRANCH   1  28
HETATM   28  C11 UNL     1      -1.837   3.806  11.609  1.00  0.00     0.149 C 
BRANCH  28  29
HETATM   29  N1  UNL     1      -1.636   5.194  11.945  1.00  0.00    -0.357 N 
HETATM   30  C10 UNL     1      -0.573   5.612  12.717  1.00  0.00     0.227 C 
HETATM   31  O3  UNL     1       0.242   4.831  13.204  1.00  0.00    -0.273 OA
HETATM   32  H14 UNL     1      -2.135   5.882  11.394  1.00  0.00     0.162 HD
BRANCH  30  33
HETATM   33  C8  UNL     1      -0.462   7.125  12.875  1.00  0.00     0.136 C 
HETATM   34  C9  UNL     1      -0.040   7.489  14.300  1.00  0.00     0.026 C 
BRANCH  33  35
HETATM   35  C7  UNL     1       0.439   7.749  11.774  1.00  0.00     0.176 C 
HETATM   36  O1  UNL     1       1.790   7.587  12.224  1.00  0.00    -0.344 OA
HETATM   37  C6  UNL     1       2.741   8.030  11.259  1.00  0.00     0.158 C 
HETATM   38  C34 UNL     1       2.816   7.019  10.073  1.00  0.00     0.008 C 
HETATM   39  C33 UNL     1       1.429   6.341   9.861  1.00  0.00     0.134 C 
HETATM   40  C35 UNL     1       3.185   7.820   8.799  1.00  0.00     0.020 C 
HETATM   41  C36 UNL     1       3.905   5.937  10.261  1.00  0.00     0.020 C 
HETATM   42  C32 UNL     1       0.257   7.190  10.345  1.00  0.00     0.101 C 
BRANCH  37  43
HETATM   43  C5  UNL     1       4.028   8.257  12.010  1.00  0.00     0.006 C 
HETATM   44  C4  UNL     1       4.210   7.973  13.309  1.00  0.00    -0.002 C 
BRANCH  44  45
HETATM   45  C3  UNL     1       5.465   8.187  13.989  1.00  0.00    -0.005 C 
HETATM   46  C2  UNL     1       6.544   7.417  13.788  1.00  0.00    -0.031 C 
HETATM   47  C1  UNL     1       7.850   7.628  14.484  1.00  0.00     0.036 C 
ENDBRANCH  44  45
ENDBRANCH  37  43
BRANCH  39  48
HETATM   48  O9  UNL     1       1.364   5.065  10.505  1.00  0.00    -0.395 OA
HETATM   49  H47 UNL     1       0.618   4.574  10.118  1.00  0.00     0.210 HD
ENDBRANCH  39  48
BRANCH  35  50
HETATM   50  O2  UNL     1       0.157   9.157  11.737  1.00  0.00    -0.364 OA
HETATM   51  H9  UNL     1      -0.773   9.245  11.446  1.00  0.00     0.213 HD
ENDBRANCH  35  50
ENDBRANCH  33  35
ENDBRANCH  30  33
ENDBRANCH  28  29
ENDBRANCH   1  28
TORSDOF 19
ENDMDL
MODEL 3
REMARK minimizedAffinity -7.98446512
REMARK CNNscore 0.417133868
REMARK CNNaffinity 7.01843262
REMARK  19 active torsions:
REMARK  status: ('A' for Active; 'I' for Inactive)
REMARK    1  A    between atoms: C3_3  and  C4_4 
REMARK    2  A    between atoms: C5_5  and  C6_6 
REMARK    3  A    between atoms: C7_8  and  O2_9 
REMARK    4  A    between atoms: C7_8  and  C8_10 
REMARK    5  A    between atoms: C8_10  and  C10_12 
REMARK       I    between atoms: C10_12  and  N1_14 
REMARK    6  A    between atoms: N1_14  and  C11_15 
REMARK    7  A    between atoms: C11_15  and  C12_16 
REMARK    8  A    between atoms: C13_17  and  C14_18 
REMARK    9  A    between atoms: C15_19  and  C17_21 
REMARK   10  A    between atoms: C17_21  and  O4_22 
REMARK   11  A    between atoms: C17_21  and  C19_24 
REMARK   12  A    between atoms: C19_24  and  C21_26 
REMARK   13  A    between atoms: C23_28  and  O5_29 
REMARK   14  A    between atoms: C24_30  and  C25_31 
REMARK   15  A    between atoms: C26_32  and  C27_33 
REMARK   16  A    between atoms: C28_34  and  C29_35 
REMARK   17  A    between atoms: C30_36  and  C31_37 
REMARK   18  A    between atoms: C31_37  and  O7_39 
REMARK   19  A    between atoms: C33_42  and  O9_43 
ROOT
HETATM    1  C12 UNL     1      -2.904  10.557  16.992  1.00  0.00    -0.007 C 
HETATM    2  C13 UNL     1      -3.442   9.519  16.331  1.00  0.00    -0.002 C 
ENDROOT
BRANCH   2   3
HETATM    3  C14 UNL     1      -4.852   9.466  16.012  1.00  0.00     0.005 C 
HETATM    4  C15 UNL     1      -5.490   8.563  15.236  1.00  0.00    -0.055 C 
HETATM    5  C16 UNL     1      -6.975   8.735  15.023  1.00  0.00     0.046 C 
BRANCH   4   6
HETATM    6  C17 UNL     1      -4.821   7.355  14.582  1.00  0.00     0.155 C 
BRANCH   6   7
HETATM    7  O4  UNL     1      -3.445   7.277  14.978  1.00  0.00    -0.386 OA
HETATM    8  C18 UNL     1      -2.997   5.941  15.180  1.00  0.00     0.202 C 
ENDBRANCH   6   7
BRANCH   6   9
HETATM    9  C19 UNL     1      -5.552   6.010  14.887  1.00  0.00     0.044 C 
HETATM   10  C20 UNL     1      -6.713   6.290  15.864  1.00  0.00     0.015 C 
BRANCH   9  11
HETATM   11  C21 UNL     1      -6.094   5.263  13.649  1.00  0.00     0.131 C 
HETATM   12  C22 UNL     1      -6.880   3.997  13.958  1.00  0.00     0.067 C 
HETATM   13  C23 UNL     1      -7.754   3.886  12.734  1.00  0.00     0.153 C 
HETATM   14  C24 UNL     1      -8.152   5.350  12.496  1.00  0.00     0.173 C 
HETATM   15  O8  UNL     1      -6.993   6.117  12.896  1.00  0.00    -0.374 OA
BRANCH  13  16
HETATM   16  O5  UNL     1      -8.816   2.966  12.883  1.00  0.00    -0.393 OA
HETATM   17  H35 UNL     1      -8.424   2.090  13.034  1.00  0.00     0.210 HD
ENDBRANCH  13  16
BRANCH  14  18
HETATM   18  C25 UNL     1      -9.317   5.985  13.214  1.00  0.00     0.007 C 
HETATM   19  C26 UNL     1     -10.157   6.934  12.772  1.00  0.00    -0.001 C 
BRANCH  19  20
HETATM   20  C27 UNL     1     -11.216   7.478  13.594  1.00  0.00    -0.000 C 
HETATM   21  C28 UNL     1     -12.297   6.771  13.956  1.00  0.00     0.000 C 
BRANCH  21  22
HETATM   22  C29 UNL     1     -13.366   7.344  14.746  1.00  0.00     0.007 C 
HETATM   23  C30 UNL     1     -14.294   6.597  15.359  1.00  0.00     0.081 C 
BRANCH  23  24
HETATM   24  C31 UNL     1     -15.367   7.255  16.116  1.00  0.00     0.165 C 
HETATM   25  O6  UNL     1     -16.199   8.041  15.700  1.00  0.00    -0.647 OA
BRANCH  24  26
HETATM   26  O7  UNL     1     -15.335   6.859  17.397  1.00  0.00    -0.773 OA
HETATM   27  H43 UNL     1     -16.094   7.328  17.804  1.00  0.00     0.167 HD
ENDBRANCH  24  26
ENDBRANCH  23  24
ENDBRANCH  21  22
ENDBRANCH  19  20
ENDBRANCH  14  18
ENDBRANCH   9  11
ENDBRANCH   6   9
ENDBRANCH   4   6
ENDBRANCH   2   3
BRANCH   1  28
HETATM   28  C11 UNL     1      -1.452  10.717  17.309  1.00  0.00     0.149 C 
BRANCH  28  29
HETATM   29  N1  UNL     1      -0.689  10.060  16.276  1.00  0.00    -0.357 N 
HETATM   30  C10 UNL     1      -0.123  10.758  15.231  1.00  0.00     0.227 C 
HETATM   31  O3  UNL     1      -0.267  11.970  15.086  1.00  0.00    -0.273 OA
HETATM   32  H14 UNL     1      -0.358   9.122  16.468  1.00  0.00     0.162 HD
BRANCH  30  33
HETATM   33  C8  UNL     1       0.738   9.911  14.298  1.00  0.00     0.136 C 
HETATM   34  C9  UNL     1       2.089   9.598  14.945  1.00  0.00     0.026 C 
BRANCH  33  35
HETATM   35  C7  UNL     1      -0.028   8.653  13.802  1.00  0.00     0.176 C 
HETATM   36  O1  UNL     1       0.403   8.428  12.454  1.00  0.00    -0.344 OA
HETATM   37  C6  UNL     1      -0.149   7.237  11.898  1.00  0.00     0.158 C 
HETATM   38  C34 UNL     1       0.535   5.983  12.525  1.00  0.00     0.008 C 
HETATM   39  C33 UNL     1       0.967   6.287  13.991  1.00  0.00     0.134 C 
HETATM   40  C35 UNL     1      -0.508   4.837  12.534  1.00  0.00     0.020 C 
HETATM   41  C36 UNL     1       1.753   5.482  11.713  1.00  0.00     0.020 C 
HETATM   42  C32 UNL     1       0.131   7.376  14.658  1.00  0.00     0.101 C 
BRANCH  37  43
HETATM   43  C5  UNL     1      -0.025   7.374  10.402  1.00  0.00     0.006 C 
HETATM   44  C4  UNL     1       0.883   8.145   9.782  1.00  0.00    -0.002 C 
BRANCH  44  45
HETATM   45  C3  UNL     1       0.983   8.235   8.345  1.00  0.00    -0.005 C 
HETATM   46  C2  UNL     1       1.650   7.339   7.603  1.00  0.00    -0.031 C 
HETATM   47  C1  UNL     1       1.761   7.419   6.115  1.00  0.00     0.036 C 
ENDBRANCH  44  45
ENDBRANCH  37  43
BRANCH  39  48
HETATM   48  O9  UNL     1       2.346   6.662  14.066  1.00  0.00    -0.395 OA
HETATM   49  H47 UNL     1       2.631   6.562  14.991  1.00  0.00     0.210 HD
ENDBRANCH  39  48
BRANCH  35  50
HETATM   50  O2  UNL     1      -1.424   8.989  13.764  1.00  0.00    -0.364 OA
HETATM   51  H9  UNL     1      -1.693   9.156  14.690  1.00  0.00     0.213 HD
ENDBRANCH  35  50
ENDBRANCH  33  35
ENDBRANCH  30  33
ENDBRANCH  28  29
ENDBRANCH   1  28
TORSDOF 19
ENDMDL
MODEL 4
REMARK minimizedAffinity -8.7577343
REMARK CNNscore 0.333218724
REMARK CNNaffinity 6.59022903
REMARK  19 active torsions:
REMARK  status: ('A' for Active; 'I' for Inactive)
REMARK    1  A    between atoms: C3_3  and  C4_4 
REMARK    2  A    between atoms: C5_5  and  C6_6 
REMARK    3  A    between atoms: C7_8  and  O2_9 
REMARK    4  A    between atoms: C7_8  and  C8_10 
REMARK    5  A    between atoms: C8_10  and  C10_12 
REMARK       I    between atoms: C10_12  and  N1_14 
REMARK    6  A    between atoms: N1_14  and  C11_15 
REMARK    7  A    between atoms: C11_15  and  C12_16 
REMARK    8  A    between atoms: C13_17  and  C14_18 
REMARK    9  A    between atoms: C15_19  and  C17_21 
REMARK   10  A    between atoms: C17_21  and  O4_22 
REMARK   11  A    between atoms: C17_21  and  C19_24 
REMARK   12  A    between atoms: C19_24  and  C21_26 
REMARK   13  A    between atoms: C23_28  and  O5_29 
REMARK   14  A    between atoms: C24_30  and  C25_31 
REMARK   15  A    between atoms: C26_32  and  C27_33 
REMARK   16  A    between atoms: C28_34  and  C29_35 
REMARK   17  A    between atoms: C30_36  and  C31_37 
REMARK   18  A    between atoms: C31_37  and  O7_39 
REMARK   19  A    between atoms: C33_42  and  O9_43 
ROOT
HETATM    1  C12 UNL     1      -4.276   3.254  12.093  1.00  0.00    -0.007 C 
HETATM    2  C13 UNL     1      -3.349   3.668  11.213  1.00  0.00    -0.002 C 
ENDROOT
BRANCH   2   3
HETATM    3  C14 UNL     1      -1.935   3.466  11.442  1.00  0.00     0.005 C 
HETATM    4  C15 UNL     1      -0.987   4.408  11.632  1.00  0.00    -0.055 C 
HETATM    5  C16 UNL     1       0.440   3.949  11.822  1.00  0.00     0.046 C 
BRANCH   4   6
HETATM    6  C17 UNL     1      -1.257   5.910  11.701  1.00  0.00     0.155 C 
BRANCH   6   7
HETATM    7  O4  UNL     1      -1.758   6.262  12.997  1.00  0.00    -0.386 OA
HETATM    8  C18 UNL     1      -1.327   5.376  14.024  1.00  0.00     0.202 C 
ENDBRANCH   6   7
BRANCH   6   9
HETATM    9  C19 UNL     1      -0.006   6.775  11.347  1.00  0.00     0.044 C 
HETATM   10  C20 UNL     1       1.195   6.265  12.171  1.00  0.00     0.015 C 
BRANCH   9  11
HETATM   11  C21 UNL     1       0.372   6.798   9.851  1.00  0.00     0.131 C 
HETATM   12  C22 UNL     1       0.789   8.161   9.317  1.00  0.00     0.067 C 
HETATM   13  C23 UNL     1       1.652   7.768   8.145  1.00  0.00     0.153 C 
HETATM   14  C24 UNL     1       2.427   6.569   8.711  1.00  0.00     0.173 C 
HETATM   15  O8  UNL     1       1.492   5.912   9.598  1.00  0.00    -0.374 OA
BRANCH  13  16
HETATM   16  O5  UNL     1       2.432   8.832   7.638  1.00  0.00    -0.393 OA
HETATM   17  H35 UNL     1       1.820   9.518   7.324  1.00  0.00     0.210 HD
ENDBRANCH  13  16
BRANCH  14  18
HETATM   18  C25 UNL     1       3.687   6.745   9.521  1.00  0.00     0.007 C 
HETATM   19  C26 UNL     1       4.144   7.850  10.130  1.00  0.00    -0.001 C 
BRANCH  19  20
HETATM   20  C27 UNL     1       5.401   7.879  10.848  1.00  0.00    -0.000 C 
HETATM   21  C28 UNL     1       5.824   6.868  11.622  1.00  0.00     0.000 C 
BRANCH  21  22
HETATM   22  C29 UNL     1       7.064   6.931  12.364  1.00  0.00     0.007 C 
HETATM   23  C30 UNL     1       7.342   7.912  13.232  1.00  0.00     0.081 C 
BRANCH  23  24
HETATM   24  C31 UNL     1       8.638   7.923  13.923  1.00  0.00     0.165 C 
HETATM   25  O6  UNL     1       9.692   8.383  13.522  1.00  0.00    -0.647 OA
BRANCH  24  26
HETATM   26  O7  UNL     1       8.523   7.341  15.126  1.00  0.00    -0.773 OA
HETATM   27  H43 UNL     1       9.422   7.421  15.510  1.00  0.00     0.167 HD
ENDBRANCH  24  26
ENDBRANCH  23  24
ENDBRANCH  21  22
ENDBRANCH  19  20
ENDBRANCH  14  18
ENDBRANCH   9  11
ENDBRANCH   6   9
ENDBRANCH   4   6
ENDBRANCH   2   3
BRANCH   1  28
HETATM   28  C11 UNL     1      -5.754   3.370  11.905  1.00  0.00     0.149 C 
BRANCH  28  29
HETATM   29  N1  UNL     1      -6.272   4.248  12.926  1.00  0.00    -0.357 N 
HETATM   30  C10 UNL     1      -7.554   4.122  13.416  1.00  0.00     0.227 C 
HETATM   31  O3  UNL     1      -8.351   3.290  12.986  1.00  0.00    -0.273 OA
HETATM   32  H14 UNL     1      -5.600   4.786  13.460  1.00  0.00     0.162 HD
BRANCH  30  33
HETATM   33  C8  UNL     1      -7.887   5.066  14.567  1.00  0.00     0.136 C 
HETATM   34  C9  UNL     1      -6.656   5.301  15.445  1.00  0.00     0.026 C 
BRANCH  33  35
HETATM   35  C7  UNL     1      -8.554   6.373  14.057  1.00  0.00     0.176 C 
HETATM   36  O1  UNL     1      -9.941   6.277  14.406  1.00  0.00    -0.344 OA
HETATM   37  C6  UNL     1     -10.666   7.461  14.084  1.00  0.00     0.158 C 
HETATM   38  C34 UNL     1     -10.301   8.604  15.080  1.00  0.00     0.008 C 
HETATM   39  C33 UNL     1      -8.828   8.443  15.562  1.00  0.00     0.134 C 
HETATM   40  C35 UNL     1     -10.439   9.948  14.320  1.00  0.00     0.020 C 
HETATM   41  C36 UNL     1     -11.247   8.675  16.301  1.00  0.00     0.020 C 
HETATM   42  C32 UNL     1      -7.942   7.697  14.568  1.00  0.00     0.101 C 
BRANCH  37  43
HETATM   43  C5  UNL     1     -12.120   7.065  14.042  1.00  0.00     0.006 C 
HETATM   44  C4  UNL     1     -12.992   7.472  13.106  1.00  0.00    -0.002 C 
BRANCH  44  45
HETATM   45  C3  UNL     1     -14.374   7.055  13.089  1.00  0.00    -0.005 C 
HETATM   46  C2  UNL     1     -14.888   6.199  13.984  1.00  0.00    -0.031 C 
HETATM   47  C1  UNL     1     -16.316   5.760  13.979  1.00  0.00     0.036 C 
ENDBRANCH  44  45
ENDBRANCH  37  43
BRANCH  39  48
HETATM   48  O9  UNL     1      -8.758   7.775  16.825  1.00  0.00    -0.395 OA
HETATM   49  H47 UNL     1      -7.880   7.950  17.206  1.00  0.00     0.210 HD
ENDBRANCH  39  48
BRANCH  35  50
HETATM   50  O2  UNL     1      -8.464   6.369  12.623  1.00  0.00    -0.364 OA
HETATM   51  H9  UNL     1      -7.511   6.416  12.407  1.00  0.00     0.213 HD
ENDBRANCH  35  50
ENDBRANCH  33  35
ENDBRANCH  30  33
ENDBRANCH  28  29
ENDBRANCH   1  28
TORSDOF 19
ENDMDL
MODEL 5
REMARK minimizedAffinity -7.61059952
REMARK CNNscore 0.281475782
REMARK CNNaffinity 6.93456316
REMARK  19 active torsions:
REMARK  status: ('A' for Active; 'I' for Inactive)
REMARK    1  A    between atoms: C3_3  and  C4_4 
REMARK    2  A    between atoms: C5_5  and  C6_6 
REMARK    3  A    between atoms: C7_8  and  O2_9 
REMARK    4  A    between atoms: C7_8  and  C8_10 
REMARK    5  A    between atoms: C8_10  and  C10_12 
REMARK       I    between atoms: C10_12  and  N1_14 
REMARK    6  A    between atoms: N1_14  and  C11_15 
REMARK    7  A    between atoms: C11_15  and  C12_16 
REMARK    8  A    between atoms: C13_17  and  C14_18 
REMARK    9  A    between atoms: C15_19  and  C17_21 
REMARK   10  A    between atoms: C17_21  and  O4_22 
REMARK   11  A    between atoms: C17_21  and  C19_24 
REMARK   12  A    between atoms: C19_24  and  C21_26 
REMARK   13  A    between atoms: C23_28  and  O5_29 
REMARK   14  A    between atoms: C24_30  and  C25_31 
REMARK   15  A    between atoms: C26_32  and  C27_33 
REMARK   16  A    between atoms: C28_34  and  C29_35 
REMARK   17  A    between atoms: C30_36  and  C31_37 
REMARK   18  A    between atoms: C31_37  and  O7_39 
REMARK   19  A    between atoms: C33_42  and  O9_43 
ROOT
HETATM    1  C12 UNL     1      -1.529   5.759  14.211  1.00  0.00    -0.007 C 
HETATM    2  C13 UNL     1      -2.407   6.114  13.259  1.00  0.00    -0.002 C 
ENDROOT
BRANCH   2   3
HETATM    3  C14 UNL     1      -2.983   5.144  12.352  1.00  0.00     0.005 C 
HETATM    4  C15 UNL     1      -4.177   4.522  12.459  1.00  0.00    -0.055 C 
HETATM    5  C16 UNL     1      -4.549   3.516  11.395  1.00  0.00     0.046 C 
BRANCH   4   6
HETATM    6  C17 UNL     1      -5.198   4.787  13.564  1.00  0.00     0.155 C 
BRANCH   6   7
HETATM    7  O4  UNL     1      -4.802   5.925  14.340  1.00  0.00    -0.386 OA
HETATM    8  C18 UNL     1      -4.402   5.588  15.664  1.00  0.00     0.202 C 
ENDBRANCH   6   7
BRANCH   6   9
HETATM    9  C19 UNL     1      -6.651   4.974  13.024  1.00  0.00     0.044 C 
HETATM   10  C20 UNL     1      -7.188   3.600  12.569  1.00  0.00     0.015 C 
BRANCH   9  11
HETATM   11  C21 UNL     1      -7.644   5.606  14.022  1.00  0.00     0.131 C 
HETATM   12  C22 UNL     1      -7.310   5.380  15.490  1.00  0.00     0.067 C 
HETATM   13  C23 UNL     1      -7.998   6.556  16.135  1.00  0.00     0.153 C 
HETATM   14  C24 UNL     1      -7.692   7.685  15.139  1.00  0.00     0.173 C 
HETATM   15  O8  UNL     1      -7.695   7.045  13.843  1.00  0.00    -0.374 OA
BRANCH  13  16
HETATM   16  O5  UNL     1      -7.599   6.778  17.472  1.00  0.00    -0.393 OA
HETATM   17  H35 UNL     1      -7.844   5.989  17.983  1.00  0.00     0.210 HD
ENDBRANCH  13  16
BRANCH  14  18
HETATM   18  C25 UNL     1      -6.403   8.468  15.194  1.00  0.00     0.007 C 
HETATM   19  C26 UNL     1      -5.552   8.751  14.196  1.00  0.00    -0.001 C 
BRANCH  19  20
HETATM   20  C27 UNL     1      -4.324   9.487  14.407  1.00  0.00    -0.000 C 
HETATM   21  C28 UNL     1      -3.476   9.222  15.412  1.00  0.00     0.000 C 
BRANCH  21  22
HETATM   22  C29 UNL     1      -2.272   9.994  15.631  1.00  0.00     0.007 C 
HETATM   23  C30 UNL     1      -1.780  10.239  16.853  1.00  0.00     0.081 C 
BRANCH  23  24
HETATM   24  C31 UNL     1      -0.571  11.060  16.995  1.00  0.00     0.165 C 
HETATM   25  O6  UNL     1       0.287  10.980  17.855  1.00  0.00    -0.647 OA
BRANCH  24  26
HETATM   26  O7  UNL     1      -0.506  11.959  16.002  1.00  0.00    -0.773 OA
HETATM   27  H43 UNL     1       0.337  12.431  16.171  1.00  0.00     0.167 HD
ENDBRANCH  24  26
ENDBRANCH  23  24
ENDBRANCH  21  22
ENDBRANCH  19  20
ENDBRANCH  14  18
ENDBRANCH   9  11
ENDBRANCH   6   9
ENDBRANCH   4   6
ENDBRANCH   2   3
BRANCH   1  28
HETATM   28  C11 UNL     1      -0.934   6.686  15.222  1.00  0.00     0.149 C 
BRANCH  28  29
HETATM   29  N1  UNL     1      -0.020   7.570  14.542  1.00  0.00    -0.357 N 
HETATM   30  C10 UNL     1       1.034   8.173  15.195  1.00  0.00     0.227 C 
HETATM   31  O3  UNL     1       1.235   8.035  16.400  1.00  0.00    -0.273 OA
HETATM   32  H14 UNL     1      -0.007   7.536  13.530  1.00  0.00     0.162 HD
BRANCH  30  33
HETATM   33  C8  UNL     1       1.956   8.985  14.291  1.00  0.00     0.136 C 
HETATM   34  C9  UNL     1       2.512  10.199  15.039  1.00  0.00     0.026 C 
BRANCH  33  35
HETATM   35  C7  UNL     1       3.050   8.092  13.643  1.00  0.00     0.176 C 
HETATM   36  O1  UNL     1       3.013   8.370  12.238  1.00  0.00    -0.344 OA
HETATM   37  C6  UNL     1       4.038   7.687  11.521  1.00  0.00     0.158 C 
HETATM   38  C34 UNL     1       5.424   8.345  11.806  1.00  0.00     0.008 C 
HETATM   39  C33 UNL     1       5.447   8.939  13.246  1.00  0.00     0.134 C 
HETATM   40  C35 UNL     1       6.499   7.233  11.702  1.00  0.00     0.020 C 
HETATM   41  C36 UNL     1       5.803   9.439  10.781  1.00  0.00     0.020 C 
HETATM   42  C32 UNL     1       4.481   8.248  14.205  1.00  0.00     0.101 C 
BRANCH  37  43
HETATM   43  C5  UNL     1       3.603   7.671  10.078  1.00  0.00     0.006 C 
HETATM   44  C4  UNL     1       2.457   8.202   9.624  1.00  0.00    -0.002 C 
BRANCH  44  45
HETATM   45  C3  UNL     1       2.084   8.184   8.230  1.00  0.00    -0.005 C 
HETATM   46  C2  UNL     1       2.057   7.061   7.496  1.00  0.00    -0.031 C 
HETATM   47  C1  UNL     1       1.672   7.027   6.053  1.00  0.00     0.036 C 
ENDBRANCH  44  45
ENDBRANCH  37  43
BRANCH  39  48
HETATM   48  O9  UNL     1       5.159  10.341  13.241  1.00  0.00    -0.395 OA
HETATM   49  H47 UNL     1       5.459  10.709  14.090  1.00  0.00     0.210 HD
ENDBRANCH  39  48
BRANCH  35  50
HETATM   50  O2  UNL     1       2.650   6.724  13.828  1.00  0.00    -0.364 OA
HETATM   51  H9  UNL     1       2.664   6.560  14.792  1.00  0.00     0.213 HD
ENDBRANCH  35  50
ENDBRANCH  33  35
ENDBRANCH  30  33
ENDBRANCH  28  29
ENDBRANCH   1  28
TORSDOF 19
ENDMDL
MODEL 6
REMARK minimizedAffinity -8.12646198
REMARK CNNscore 0.245463789
REMARK CNNaffinity 7.06471395
REMARK  19 active torsions:
REMARK  status: ('A' for Active; 'I' for Inactive)
REMARK    1  A    between atoms: C3_3  and  C4_4 
REMARK    2  A    between atoms: C5_5  and  C6_6 
REMARK    3  A    between atoms: C7_8  and  O2_9 
REMARK    4  A    between atoms: C7_8  and  C8_10 
REMARK    5  A    between atoms: C8_10  and  C10_12 
REMARK       I    between atoms: C10_12  and  N1_14 
REMARK    6  A    between atoms: N1_14  and  C11_15 
REMARK    7  A    between atoms: C11_15  and  C12_16 
REMARK    8  A    between atoms: C13_17  and  C14_18 
REMARK    9  A    between atoms: C15_19  and  C17_21 
REMARK   10  A    between atoms: C17_21  and  O4_22 
REMARK   11  A    between atoms: C17_21  and  C19_24 
REMARK   12  A    between atoms: C19_24  and  C21_26 
REMARK   13  A    between atoms: C23_28  and  O5_29 
REMARK   14  A    between atoms: C24_30  and  C25_31 
REMARK   15  A    between atoms: C26_32  and  C27_33 
REMARK   16  A    between atoms: C28_34  and  C29_35 
REMARK   17  A    between atoms: C30_36  and  C31_37 
REMARK   18  A    between atoms: C31_37  and  O7_39 
REMARK   19  A    between atoms: C33_42  and  O9_43 
ROOT
HETATM    1  C12 UNL     1      -2.762   4.429  11.951  1.00  0.00    -0.007 C 
HETATM    2  C13 UNL     1      -3.966   4.421  12.545  1.00  0.00    -0.002 C 
ENDROOT
BRANCH   2   3
HETATM    3  C14 UNL     1      -4.916   3.351  12.330  1.00  0.00     0.005 C 
HETATM    4  C15 UNL     1      -6.261   3.407  12.439  1.00  0.00    -0.055 C 
HETATM    5  C16 UNL     1      -7.045   2.139  12.194  1.00  0.00     0.046 C 
BRANCH   4   6
HETATM    6  C17 UNL     1      -7.054   4.672  12.761  1.00  0.00     0.155 C 
BRANCH   6   7
HETATM    7  O4  UNL     1      -7.989   4.950  11.711  1.00  0.00    -0.386 OA
HETATM    8  C18 UNL     1      -8.935   5.957  12.057  1.00  0.00     0.202 C 
ENDBRANCH   6   7
BRANCH   6   9
HETATM    9  C19 UNL     1      -7.785   4.604  14.138  1.00  0.00     0.044 C 
HETATM   10  C20 UNL     1      -7.454   3.253  14.806  1.00  0.00     0.015 C 
BRANCH   9  11
HETATM   11  C21 UNL     1      -7.453   5.752  15.115  1.00  0.00     0.131 C 
HETATM   12  C22 UNL     1      -6.922   7.018  14.458  1.00  0.00     0.067 C 
HETATM   13  C23 UNL     1      -7.297   8.061  15.479  1.00  0.00     0.153 C 
HETATM   14  C24 UNL     1      -8.697   7.596  15.907  1.00  0.00     0.173 C 
HETATM   15  O8  UNL     1      -8.639   6.152  15.849  1.00  0.00    -0.374 OA
BRANCH  13  16
HETATM   16  O5  UNL     1      -7.200   9.385  14.994  1.00  0.00    -0.393 OA
HETATM   17  H35 UNL     1      -6.272   9.541  14.756  1.00  0.00     0.210 HD
ENDBRANCH  13  16
BRANCH  14  18
HETATM   18  C25 UNL     1      -9.934   7.977  15.131  1.00  0.00     0.007 C 
HETATM   19  C26 UNL     1     -10.887   7.177  14.629  1.00  0.00    -0.001 C 
BRANCH  19  20
HETATM   20  C27 UNL     1     -12.008   7.686  13.868  1.00  0.00    -0.000 C 
HETATM   21  C28 UNL     1     -13.026   6.914  13.459  1.00  0.00     0.000 C 
BRANCH  21  22
HETATM   22  C29 UNL     1     -14.119   7.432  12.666  1.00  0.00     0.007 C 
HETATM   23  C30 UNL     1     -14.607   8.670  12.824  1.00  0.00     0.081 C 
BRANCH  23  24
HETATM   24  C31 UNL     1     -15.740   9.112  12.001  1.00  0.00     0.165 C 
HETATM   25  O6  UNL     1     -16.386  10.138  12.112  1.00  0.00    -0.647 OA
BRANCH  24  26
HETATM   26  O7  UNL     1     -15.994   8.206  11.044  1.00  0.00    -0.773 OA
HETATM   27  H43 UNL     1     -16.738   8.602  10.542  1.00  0.00     0.167 HD
ENDBRANCH  24  26
ENDBRANCH  23  24
ENDBRANCH  21  22
ENDBRANCH  19  20
ENDBRANCH  14  18
ENDBRANCH   9  11
ENDBRANCH   6   9
ENDBRANCH   4   6
ENDBRANCH   2   3
BRANCH   1  28
HETATM   28  C11 UNL     1      -1.703   5.463  12.164  1.00  0.00     0.149 C 
BRANCH  28  29
HETATM   29  N1  UNL     1      -2.324   6.635  12.729  1.00  0.00    -0.357 N 
HETATM   30  C10 UNL     1      -1.780   7.893  12.579  1.00  0.00     0.227 C 
HETATM   31  O3  UNL     1      -0.715   8.092  11.998  1.00  0.00    -0.273 OA
HETATM   32  H14 UNL     1      -3.293   6.558  13.012  1.00  0.00     0.162 HD
BRANCH  30  33
HETATM   33  C8  UNL     1      -2.632   9.023  13.150  1.00  0.00     0.136 C 
HETATM   34  C9  UNL     1      -3.982   8.490  13.632  1.00  0.00     0.026 C 
BRANCH  33  35
HETATM   35  C7  UNL     1      -1.856   9.834  14.225  1.00  0.00     0.176 C 
HETATM   36  O1  UNL     1      -2.840  10.590  14.942  1.00  0.00    -0.344 OA
HETATM   37  C6  UNL     1      -2.279  11.314  16.035  1.00  0.00     0.158 C 
HETATM   38  C34 UNL     1      -1.910  10.339  17.195  1.00  0.00     0.008 C 
HETATM   39  C33 UNL     1      -1.510   8.948  16.617  1.00  0.00     0.134 C 
HETATM   40  C35 UNL     1      -0.694  10.942  17.943  1.00  0.00     0.020 C 
HETATM   41  C36 UNL     1      -3.043  10.169  18.234  1.00  0.00     0.020 C 
HETATM   42  C32 UNL     1      -0.970   9.015  15.190  1.00  0.00     0.101 C 
BRANCH  37  43
HETATM   43  C5  UNL     1      -3.272  12.395  16.376  1.00  0.00     0.006 C 
HETATM   44  C4  UNL     1      -4.294  12.766  15.588  1.00  0.00    -0.002 C 
BRANCH  44  45
HETATM   45  C3  UNL     1      -5.237  13.794  15.960  1.00  0.00    -0.005 C 
HETATM   46  C2  UNL     1      -4.867  14.953  16.523  1.00  0.00    -0.031 C 
HETATM   47  C1  UNL     1      -5.831  16.027  16.911  1.00  0.00     0.036 C 
ENDBRANCH  44  45
ENDBRANCH  37  43
BRANCH  39  48
HETATM   48  O9  UNL     1      -2.609   8.032  16.645  1.00  0.00    -0.395 OA
HETATM   49  H47 UNL     1      -2.249   7.133  16.550  1.00  0.00     0.210 HD
ENDBRANCH  39  48
BRANCH  35  50
HETATM   50  O2  UNL     1      -1.011  10.765  13.532  1.00  0.00    -0.364 OA
HETATM   51  H9  UNL     1      -0.359  10.230  13.035  1.00  0.00     0.213 HD
ENDBRANCH  35  50
ENDBRANCH  33  35
ENDBRANCH  30  33
ENDBRANCH  28  29
ENDBRANCH   1  28
TORSDOF 19
ENDMDL
MODEL 7
REMARK minimizedAffinity -7.75697803
REMARK CNNscore 0.236001283
REMARK CNNaffinity 6.48007965
REMARK  19 active torsions:
REMARK  status: ('A' for Active; 'I' for Inactive)
REMARK    1  A    between atoms: C3_3  and  C4_4 
REMARK    2  A    between atoms: C5_5  and  C6_6 
REMARK    3  A    between atoms: C7_8  and  O2_9 
REMARK    4  A    between atoms: C7_8  and  C8_10 
REMARK    5  A    between atoms: C8_10  and  C10_12 
REMARK       I    between atoms: C10_12  and  N1_14 
REMARK    6  A    between atoms: N1_14  and  C11_15 
REMARK    7  A    between atoms: C11_15  and  C12_16 
REMARK    8  A    between atoms: C13_17  and  C14_18 
REMARK    9  A    between atoms: C15_19  and  C17_21 
REMARK   10  A    between atoms: C17_21  and  O4_22 
REMARK   11  A    between atoms: C17_21  and  C19_24 
REMARK   12  A    between atoms: C19_24  and  C21_26 
REMARK   13  A    between atoms: C23_28  and  O5_29 
REMARK   14  A    between atoms: C24_30  and  C25_31 
REMARK   15  A    between atoms: C26_32  and  C27_33 
REMARK   16  A    between atoms: C28_34  and  C29_35 
REMARK   17  A    between atoms: C30_36  and  C31_37 
REMARK   18  A    between atoms: C31_37  and  O7_39 
REMARK   19  A    between atoms: C33_42  and  O9_43 
ROOT
HETATM    1  C12 UNL     1      -1.539   9.599  13.538  1.00  0.00    -0.007 C 
HETATM    2  C13 UNL     1      -1.029   8.699  12.682  1.00  0.00    -0.002 C 
ENDROOT
BRANCH   2   3
HETATM    3  C14 UNL     1      -1.122   8.871  11.249  1.00  0.00     0.005 C 
HETATM    4  C15 UNL     1      -0.188   8.577  10.319  1.00  0.00    -0.055 C 
HETATM    5  C16 UNL     1      -0.507   8.878   8.873  1.00  0.00     0.046 C 
BRANCH   4   6
HETATM    6  C17 UNL     1       1.162   7.929  10.621  1.00  0.00     0.155 C 
BRANCH   6   7
HETATM    7  O4  UNL     1       1.497   8.106  12.004  1.00  0.00    -0.386 OA
HETATM    8  C18 UNL     1       2.669   8.891  12.199  1.00  0.00     0.202 C 
ENDBRANCH   6   7
BRANCH   6   9
HETATM    9  C19 UNL     1       1.215   6.416  10.238  1.00  0.00     0.044 C 
HETATM   10  C20 UNL     1       2.464   6.172   9.366  1.00  0.00     0.015 C 
BRANCH   9  11
HETATM   11  C21 UNL     1       1.225   5.437  11.431  1.00  0.00     0.131 C 
HETATM   12  C22 UNL     1       0.873   6.061  12.774  1.00  0.00     0.067 C 
HETATM   13  C23 UNL     1       0.359   4.863  13.531  1.00  0.00     0.153 C 
HETATM   14  C24 UNL     1      -0.459   4.135  12.453  1.00  0.00     0.173 C 
HETATM   15  O8  UNL     1       0.261   4.373  11.221  1.00  0.00    -0.374 OA
BRANCH  13  16
HETATM   16  O5  UNL     1      -0.332   5.200  14.717  1.00  0.00    -0.393 OA
HETATM   17  H35 UNL     1       0.296   5.657  15.300  1.00  0.00     0.210 HD
ENDBRANCH  13  16
BRANCH  14  18
HETATM   18  C25 UNL     1      -1.891   4.504  12.155  1.00  0.00     0.007 C 
HETATM   19  C26 UNL     1      -3.012   4.042  12.729  1.00  0.00    -0.001 C 
BRANCH  19  20
HETATM   20  C27 UNL     1      -4.331   4.465  12.310  1.00  0.00    -0.000 C 
HETATM   21  C28 UNL     1      -5.459   4.011  12.877  1.00  0.00     0.000 C 
BRANCH  21  22
HETATM   22  C29 UNL     1      -6.771   4.414  12.419  1.00  0.00     0.007 C 
HETATM   23  C30 UNL     1      -7.433   5.454  12.942  1.00  0.00     0.081 C 
BRANCH  23  24
HETATM   24  C31 UNL     1      -8.776   5.782  12.444  1.00  0.00     0.165 C 
HETATM   25  O6  UNL     1      -9.118   5.969  11.291  1.00  0.00    -0.647 OA
BRANCH  24  26
HETATM   26  O7  UNL     1      -9.642   5.845  13.467  1.00  0.00    -0.773 OA
HETATM   27  H43 UNL     1     -10.500   6.040  13.033  1.00  0.00     0.167 HD
ENDBRANCH  24  26
ENDBRANCH  23  24
ENDBRANCH  21  22
ENDBRANCH  19  20
ENDBRANCH  14  18
ENDBRANCH   9  11
ENDBRANCH   6   9
ENDBRANCH   4   6
ENDBRANCH   2   3
BRANCH   1  28
HETATM   28  C11 UNL     1      -1.434   9.527  15.028  1.00  0.00     0.149 C 
BRANCH  28  29
HETATM   29  N1  UNL     1      -0.131  10.009  15.413  1.00  0.00    -0.357 N 
HETATM   30  C10 UNL     1       0.042  11.225  16.039  1.00  0.00     0.227 C 
HETATM   31  O3  UNL     1      -0.890  11.993  16.267  1.00  0.00    -0.273 OA
HETATM   32  H14 UNL     1       0.622   9.332  15.453  1.00  0.00     0.162 HD
BRANCH  30  33
HETATM   33  C8  UNL     1       1.477  11.517  16.469  1.00  0.00     0.136 C 
HETATM   34  C9  UNL     1       1.729  13.025  16.518  1.00  0.00     0.026 C 
BRANCH  33  35
HETATM   35  C7  UNL     1       1.839  10.776  17.786  1.00  0.00     0.176 C 
HETATM   36  O1  UNL     1       2.918  11.512  18.375  1.00  0.00    -0.344 OA
HETATM   37  C6  UNL     1       3.293  10.999  19.651  1.00  0.00     0.158 C 
HETATM   38  C34 UNL     1       2.214  11.363  20.717  1.00  0.00     0.008 C 
HETATM   39  C33 UNL     1       0.807  11.434  20.050  1.00  0.00     0.134 C 
HETATM   40  C35 UNL     1       2.211  10.238  21.782  1.00  0.00     0.020 C 
HETATM   41  C36 UNL     1       2.511  12.688  21.457  1.00  0.00     0.020 C 
HETATM   42  C32 UNL     1       0.686  10.574  18.795  1.00  0.00     0.101 C 
BRANCH  37  43
HETATM   43  C5  UNL     1       4.683  11.516  19.920  1.00  0.00     0.006 C 
HETATM   44  C4  UNL     1       5.389  12.276  19.069  1.00  0.00    -0.002 C 
BRANCH  44  45
HETATM   45  C3  UNL     1       6.712  12.769  19.371  1.00  0.00    -0.005 C 
HETATM   46  C2  UNL     1       6.973  13.561  20.421  1.00  0.00    -0.031 C 
HETATM   47  C1  UNL     1       8.336  14.078  20.748  1.00  0.00     0.036 C 
ENDBRANCH  44  45
ENDBRANCH  37  43
BRANCH  39  48
HETATM   48  O9  UNL     1       0.451  12.779  19.717  1.00  0.00    -0.395 OA
HETATM   49  H47 UNL     1      -0.512  12.805  19.578  1.00  0.00     0.210 HD
ENDBRANCH  39  48
BRANCH  35  50
HETATM   50  O2  UNL     1       2.341   9.480  17.424  1.00  0.00    -0.364 OA
HETATM   51  H9  UNL     1       1.595   9.001  17.008  1.00  0.00     0.213 HD
ENDBRANCH  35  50
ENDBRANCH  33  35
ENDBRANCH  30  33
ENDBRANCH  28  29
ENDBRANCH   1  28
TORSDOF 19
ENDMDL
MODEL 8
REMARK minimizedAffinity -8.36022758
REMARK CNNscore 0.219201311
REMARK CNNaffinity 6.23488379
REMARK  19 active torsions:
REMARK  status: ('A' for Active; 'I' for Inactive)
REMARK    1  A    between atoms: C3_3  and  C4_4 
REMARK    2  A    between atoms: C5_5  and  C6_6 
REMARK    3  A    between atoms: C7_8  and  O2_9 
REMARK    4  A    between atoms: C7_8  and  C8_10 
REMARK    5  A    between atoms: C8_10  and  C10_12 
REMARK       I    between atoms: C10_12  and  N1_14 
REMARK    6  A    between atoms: N1_14  and  C11_15 
REMARK    7  A    between atoms: C11_15  and  C12_16 
REMARK    8  A    between atoms: C13_17  and  C14_18 
REMARK    9  A    between atoms: C15_19  and  C17_21 
REMARK   10  A    between atoms: C17_21  and  O4_22 
REMARK   11  A    between atoms: C17_21  and  C19_24 
REMARK   12  A    between atoms: C19_24  and  C21_26 
REMARK   13  A    between atoms: C23_28  and  O5_29 
REMARK   14  A    between atoms: C24_30  and  C25_31 
REMARK   15  A    between atoms: C26_32  and  C27_33 
REMARK   16  A    between atoms: C28_34  and  C29_35 
REMARK   17  A    between atoms: C30_36  and  C31_37 
REMARK   18  A    between atoms: C31_37  and  O7_39 
REMARK   19  A    between atoms: C33_42  and  O9_43 
ROOT
HETATM    1  C12 UNL     1       0.879  10.705  19.224  1.00  0.00    -0.007 C 
HETATM    2  C13 UNL     1       1.568  11.266  20.231  1.00  0.00    -0.002 C 
ENDROOT
BRANCH   2   3
HETATM    3  C14 UNL     1       1.862  10.544  21.449  1.00  0.00     0.005 C 
HETATM    4  C15 UNL     1       3.061  10.397  22.053  1.00  0.00    -0.055 C 
HETATM    5  C16 UNL     1       3.124   9.564  23.312  1.00  0.00     0.046 C 
BRANCH   4   6
HETATM    6  C17 UNL     1       4.359  11.043  21.572  1.00  0.00     0.155 C 
BRANCH   6   7
HETATM    7  O4  UNL     1       4.494  10.884  20.153  1.00  0.00    -0.386 OA
HETATM    8  C18 UNL     1       4.663  12.120  19.466  1.00  0.00     0.202 C 
ENDBRANCH   6   7
BRANCH   6   9
HETATM    9  C19 UNL     1       4.477  12.549  21.965  1.00  0.00     0.044 C 
HETATM   10  C20 UNL     1       3.382  12.876  23.001  1.00  0.00     0.015 C 
BRANCH   9  11
HETATM   11  C21 UNL     1       5.852  12.975  22.522  1.00  0.00     0.131 C 
HETATM   12  C22 UNL     1       6.644  11.863  23.195  1.00  0.00     0.067 C 
HETATM   13  C23 UNL     1       8.055  12.370  23.042  1.00  0.00     0.153 C 
HETATM   14  C24 UNL     1       8.032  12.942  21.617  1.00  0.00     0.173 C 
HETATM   15  O8  UNL     1       6.698  13.477  21.456  1.00  0.00    -0.374 OA
BRANCH  13  16
HETATM   16  O5  UNL     1       9.037  11.388  23.304  1.00  0.00    -0.393 OA
HETATM   17  H35 UNL     1       8.933  11.112  24.229  1.00  0.00     0.210 HD
ENDBRANCH  13  16
BRANCH  14  18
HETATM   18  C25 UNL     1       8.262  12.073  20.405  1.00  0.00     0.007 C 
HETATM   19  C26 UNL     1       9.413  11.555  19.951  1.00  0.00    -0.001 C 
BRANCH  19  20
HETATM   20  C27 UNL     1       9.486  10.762  18.742  1.00  0.00    -0.000 C 
HETATM   21  C28 UNL     1       8.493  10.709  17.842  1.00  0.00     0.000 C 
BRANCH  21  22
HETATM   22  C29 UNL     1       8.567   9.880  16.658  1.00  0.00     0.007 C 
HETATM   23  C30 UNL     1       9.299   8.760  16.603  1.00  0.00     0.081 C 
BRANCH  23  24
HETATM   24  C31 UNL     1       9.348   7.989  15.353  1.00  0.00     0.165 C 
HETATM   25  O6  UNL     1      10.227   7.991  14.510  1.00  0.00    -0.647 OA
BRANCH  24  26
HETATM   26  O7  UNL     1       8.252   7.224  15.242  1.00  0.00    -0.773 OA
HETATM   27  H43 UNL     1       8.392   6.738  14.401  1.00  0.00     0.167 HD
ENDBRANCH  24  26
ENDBRANCH  23  24
ENDBRANCH  21  22
ENDBRANCH  19  20
ENDBRANCH  14  18
ENDBRANCH   9  11
ENDBRANCH   6   9
ENDBRANCH   4   6
ENDBRANCH   2   3
BRANCH   1  28
HETATM   28  C11 UNL     1       0.584  11.359  17.912  1.00  0.00     0.149 C 
BRANCH  28  29
HETATM   29  N1  UNL     1       0.770  10.381  16.868  1.00  0.00    -0.357 N 
HETATM   30  C10 UNL     1       2.018  10.072  16.371  1.00  0.00     0.227 C 
HETATM   31  O3  UNL     1       3.042  10.637  16.750  1.00  0.00    -0.273 OA
HETATM   32  H14 UNL     1       0.005   9.741  16.689  1.00  0.00     0.162 HD
BRANCH  30  33
HETATM   33  C8  UNL     1       2.030   8.938  15.351  1.00  0.00     0.136 C 
HETATM   34  C9  UNL     1       2.392   7.612  16.021  1.00  0.00     0.026 C 
BRANCH  33  35
HETATM   35  C7  UNL     1       0.706   8.890  14.538  1.00  0.00     0.176 C 
HETATM   36  O1  UNL     1       0.922   7.952  13.476  1.00  0.00    -0.344 OA
HETATM   37  C6  UNL     1      -0.252   7.731  12.699  1.00  0.00     0.158 C 
HETATM   38  C34 UNL     1      -1.275   6.871  13.503  1.00  0.00     0.008 C 
HETATM   39  C33 UNL     1      -1.134   7.159  15.028  1.00  0.00     0.134 C 
HETATM   40  C35 UNL     1      -2.697   7.283  13.042  1.00  0.00     0.020 C 
HETATM   41  C36 UNL     1      -1.136   5.353  13.241  1.00  0.00     0.020 C 
HETATM   42  C32 UNL     1      -0.572   8.544  15.335  1.00  0.00     0.101 C 
BRANCH  37  43
HETATM   43  C5  UNL     1       0.214   7.145  11.391  1.00  0.00     0.006 C 
HETATM   44  C4  UNL     1       0.449   7.859  10.279  1.00  0.00    -0.002 C 
BRANCH  44  45
HETATM   45  C3  UNL     1       0.913   7.263   9.049  1.00  0.00    -0.005 C 
HETATM   46  C2  UNL     1       1.376   7.985   8.018  1.00  0.00    -0.031 C 
HETATM   47  C1  UNL     1       1.861   7.382   6.740  1.00  0.00     0.036 C 
ENDBRANCH  44  45
ENDBRANCH  37  43
BRANCH  39  48
HETATM   48  O9  UNL     1      -0.314   6.181  15.674  1.00  0.00    -0.395 OA
HETATM   49  H47 UNL     1      -0.486   6.233  16.630  1.00  0.00     0.210 HD
ENDBRANCH  39  48
BRANCH  35  50
HETATM   50  O2  UNL     1       0.520  10.185  13.945  1.00  0.00    -0.364 OA
HETATM   51  H9  UNL     1       0.393  10.812  14.686  1.00  0.00     0.213 HD
ENDBRANCH  35  50
ENDBRANCH  33  35
ENDBRANCH  30  33
ENDBRANCH  28  29
ENDBRANCH   1  28
TORSDOF 19
ENDMDL
MODEL 9
REMARK minimizedAffinity -7.96637678
REMARK CNNscore 0.216845214
REMARK CNNaffinity 6.31020021
REMARK  19 active torsions:
REMARK  status: ('A' for Active; 'I' for Inactive)
REMARK    1  A    between atoms: C3_3  and  C4_4 
REMARK    2  A    between atoms: C5_5  and  C6_6 
REMARK    3  A    between atoms: C7_8  and  O2_9 
REMARK    4  A    between atoms: C7_8  and  C8_10 
REMARK    5  A    between atoms: C8_10  and  C10_12 
REMARK       I    between atoms: C10_12  and  N1_14 
REMARK    6  A    between atoms: N1_14  and  C11_15 
REMARK    7  A    between atoms: C11_15  and  C12_16 
REMARK    8  A    between atoms: C13_17  and  C14_18 
REMARK    9  A    between atoms: C15_19  and  C17_21 
REMARK   10  A    between atoms: C17_21  and  O4_22 
REMARK   11  A    between atoms: C17_21  and  C19_24 
REMARK   12  A    between atoms: C19_24  and  C21_26 
REMARK   13  A    between atoms: C23_28  and  O5_29 
REMARK   14  A    between atoms: C24_30  and  C25_31 
REMARK   15  A    between atoms: C26_32  and  C27_33 
REMARK   16  A    between atoms: C28_34  and  C29_35 
REMARK   17  A    between atoms: C30_36  and  C31_37 
REMARK   18  A    between atoms: C31_37  and  O7_39 
REMARK   19  A    between atoms: C33_42  and  O9_43 
ROOT
HETATM    1  C12 UNL     1       4.626   8.195  11.985  1.00  0.00    -0.007 C 
HETATM    2  C13 UNL     1       4.591   8.676  10.732  1.00  0.00    -0.002 C 
ENDROOT
BRANCH   2   3
HETATM    3  C14 UNL     1       4.187   7.855   9.611  1.00  0.00     0.005 C 
HETATM    4  C15 UNL     1       2.934   7.624   9.166  1.00  0.00    -0.055 C 
HETATM    5  C16 UNL     1       2.760   6.697   7.986  1.00  0.00     0.046 C 
BRANCH   4   6
HETATM    6  C17 UNL     1       1.674   8.260   9.751  1.00  0.00     0.155 C 
BRANCH   6   7
HETATM    7  O4  UNL     1       0.883   8.842   8.707  1.00  0.00    -0.386 OA
HETATM    8  C18 UNL     1      -0.517   8.673   8.907  1.00  0.00     0.202 C 
ENDBRANCH   6   7
BRANCH   6   9
HETATM    9  C19 UNL     1       0.817   7.262  10.593  1.00  0.00     0.044 C 
HETATM   10  C20 UNL     1       1.443   5.856  10.478  1.00  0.00     0.015 C 
BRANCH   9  11
HETATM   11  C21 UNL     1       0.657   7.631  12.083  1.00  0.00     0.131 C 
HETATM   12  C22 UNL     1      -0.446   8.637  12.379  1.00  0.00     0.067 C 
HETATM   13  C23 UNL     1      -0.768   8.309  13.815  1.00  0.00     0.153 C 
HETATM   14  C24 UNL     1      -0.705   6.775  13.811  1.00  0.00     0.173 C 
HETATM   15  O8  UNL     1       0.341   6.451  12.866  1.00  0.00    -0.374 OA
BRANCH  13  16
HETATM   16  O5  UNL     1      -1.977   8.883  14.267  1.00  0.00    -0.393 OA
HETATM   17  H35 UNL     1      -1.881   9.848  14.209  1.00  0.00     0.210 HD
ENDBRANCH  13  16
BRANCH  14  18
HETATM   18  C25 UNL     1      -1.887   5.930  13.402  1.00  0.00     0.007 C 
HETATM   19  C26 UNL     1      -2.065   5.230  12.272  1.00  0.00    -0.001 C 
BRANCH  19  20
HETATM   20  C27 UNL     1      -3.279   4.490  12.000  1.00  0.00    -0.000 C 
HETATM   21  C28 UNL     1      -4.184   4.197  12.945  1.00  0.00     0.000 C 
BRANCH  21  22
HETATM   22  C29 UNL     1      -5.373   3.422  12.663  1.00  0.00     0.007 C 
HETATM   23  C30 UNL     1      -6.574   3.725  13.172  1.00  0.00     0.081 C 
BRANCH  23  24
HETATM   24  C31 UNL     1      -7.727   2.869  12.864  1.00  0.00     0.165 C 
HETATM   25  O6  UNL     1      -8.904   3.182  12.846  1.00  0.00    -0.647 OA
BRANCH  24  26
HETATM   26  O7  UNL     1      -7.313   1.626  12.576  1.00  0.00    -0.773 OA
HETATM   27  H43 UNL     1      -8.143   1.148  12.363  1.00  0.00     0.167 HD
ENDBRANCH  24  26
ENDBRANCH  23  24
ENDBRANCH  21  22
ENDBRANCH  19  20
ENDBRANCH  14  18
ENDBRANCH   9  11
ENDBRANCH   6   9
ENDBRANCH   4   6
ENDBRANCH   2   3
BRANCH   1  28
HETATM   28  C11 UNL     1       4.972   8.990  13.203  1.00  0.00     0.149 C 
BRANCH  28  29
HETATM   29  N1  UNL     1       6.328   8.673  13.579  1.00  0.00    -0.357 N 
HETATM   30  C10 UNL     1       7.357   9.579  13.434  1.00  0.00     0.227 C 
HETATM   31  O3  UNL     1       7.197  10.691  12.937  1.00  0.00    -0.273 OA
HETATM   32  H14 UNL     1       6.467   7.876  14.189  1.00  0.00     0.162 HD
BRANCH  30  33
HETATM   33  C8  UNL     1       8.699   9.106  13.986  1.00  0.00     0.136 C 
HETATM   34  C9  UNL     1       8.956   7.648  13.602  1.00  0.00     0.026 C 
BRANCH  33  35
HETATM   35  C7  UNL     1       9.849  10.073  13.591  1.00  0.00     0.176 C 
HETATM   36  O1  UNL     1       9.461  10.669  12.347  1.00  0.00    -0.344 OA
HETATM   37  C6  UNL     1      10.386  11.662  11.908  1.00  0.00     0.158 C 
HETATM   38  C34 UNL     1      10.252  12.946  12.782  1.00  0.00     0.008 C 
HETATM   39  C33 UNL     1       9.818  12.565  14.230  1.00  0.00     0.134 C 
HETATM   40  C35 UNL     1      11.646  13.623  12.835  1.00  0.00     0.020 C 
HETATM   41  C36 UNL     1       9.267  13.984  12.196  1.00  0.00     0.020 C 
HETATM   42  C32 UNL     1      10.224  11.150  14.633  1.00  0.00     0.101 C 
BRANCH  37  43
HETATM   43  C5  UNL     1      10.139  11.843  10.432  1.00  0.00     0.006 C 
HETATM   44  C4  UNL     1      11.067  11.667   9.479  1.00  0.00    -0.002 C 
BRANCH  44  45
HETATM   45  C3  UNL     1      10.787  11.831   8.073  1.00  0.00    -0.005 C 
HETATM   46  C2  UNL     1       9.956  11.026   7.396  1.00  0.00    -0.031 C 
HETATM   47  C1  UNL     1       9.655  11.184   5.941  1.00  0.00     0.036 C 
ENDBRANCH  44  45
ENDBRANCH  37  43
BRANCH  39  48
HETATM   48  O9  UNL     1       8.405  12.702  14.408  1.00  0.00    -0.395 OA
HETATM   49  H47 UNL     1       8.228  12.734  15.364  1.00  0.00     0.210 HD
ENDBRANCH  39  48
BRANCH  35  50
HETATM   50  O2  UNL     1      11.016   9.271  13.345  1.00  0.00    -0.364 OA
HETATM   51  H9  UNL     1      11.253   8.859  14.200  1.00  0.00     0.213 HD
ENDBRANCH  35  50
ENDBRANCH  33  35
ENDBRANCH  30  33
ENDBRANCH  28  29
ENDBRANCH   1  28
TORSDOF 19
ENDMDL
