MODEL 1
REMARK minimizedAffinity -9.56661224
REMARK CNNscore 0.642728627
REMARK CNNaffinity 7.44044304
REMARK  9 active torsions:
REMARK  status: ('A' for Active; 'I' for Inactive)
REMARK    1  A    between atoms: C3_3  and  O1_4 
REMARK    2  A    between atoms: N1_14  and  O2_16 
REMARK    3  A    between atoms: O2_16  and  C13_17 
REMARK    4  A    between atoms: C13_17  and  C14_18 
REMARK       I    between atoms: C14_18  and  N2_20 
REMARK    5  A    between atoms: N2_20  and  C15_21 
REMARK    6  A    between atoms: C15_21  and  C16_22 
REMARK    7  A    between atoms: C15_21  and  C18_26 
REMARK    8  A    between atoms: C16_22  and  C17_23 
REMARK    9  A    between atoms: C17_23  and  O5_25 
ROOT
HETATM    1  C1  UNL     1      -9.793   8.558  15.116  1.00  0.00     0.015 C 
HETATM    2  C2  UNL     1      -8.972   7.677  15.102  1.00  0.00    -0.078 C 
HETATM    3  C3  UNL     1      -7.962   6.611  15.074  1.00  0.00     0.128 C 
HETATM    4  C4  UNL     1      -7.406   6.322  16.467  1.00  0.00     0.052 C 
HETATM    5  C5  UNL     1      -6.101   5.576  16.216  1.00  0.00     0.010 C 
HETATM    6  C6  UNL     1      -5.614   5.976  14.805  1.00  0.00     0.002 C 
HETATM    7  C7  UNL     1      -4.209   6.603  14.757  1.00  0.00    -0.004 C 
HETATM    8  C8  UNL     1      -3.109   5.621  15.176  1.00  0.00     0.010 C 
HETATM    9  C9  UNL     1      -1.736   6.230  14.908  1.00  0.00     0.035 C 
HETATM   10  C10 UNL     1      -1.552   7.583  15.558  1.00  0.00    -0.069 C 
HETATM   11  C11 UNL     1      -0.383   7.865  16.159  1.00  0.00     0.030 C 
HETATM   12  C12 UNL     1      -0.064   9.222  16.670  1.00  0.00     0.032 C 
HETATM   13  N1  UNL     1       1.167   9.463  17.027  1.00  0.00    -0.271 N 
ATOM     14  H1  UNL     1       1.909   8.764  17.027  1.00  0.00     0.194 HD
HETATM   15  C25 UNL     1      -1.156  10.274  16.656  1.00  0.00     0.060 C 
HETATM   16  C26 UNL     1      -2.545   9.656  16.567  1.00  0.00     0.020 C 
HETATM   17  C27 UNL     1      -2.695   8.601  15.435  1.00  0.00    -0.016 C 
HETATM   18  C28 UNL     1      -2.578   9.286  14.051  1.00  0.00     0.020 C 
HETATM   19  C29 UNL     1      -4.092   7.886  15.614  1.00  0.00     0.002 C 
HETATM   20  C30 UNL     1      -5.326   8.800  15.432  1.00  0.00     0.007 C 
HETATM   21  C31 UNL     1      -6.204   8.414  14.244  1.00  0.00     0.014 C 
HETATM   22  C32 UNL     1      -6.697   6.930  14.207  1.00  0.00     0.003 C 
HETATM   23  C33 UNL     1      -6.949   6.588  12.715  1.00  0.00     0.020 C 
ENDROOT
BRANCH   3  24
HETATM   24  O1  UNL     1      -8.616   5.421  14.617  1.00  0.00    -0.377 OA
HETATM   25  H2  UNL     1      -7.953   4.718  14.557  1.00  0.00     0.211 HD
ENDBRANCH   3  24
BRANCH  13  26
HETATM   26  O2  UNL     1       1.347  10.801  17.411  1.00  0.00    -0.271 OA
BRANCH  26  27
HETATM   27  C13 UNL     1       1.001  10.947  18.784  1.00  0.00     0.303 C 
BRANCH  27  28
HETATM   28  C14 UNL     1       2.226  10.828  19.678  1.00  0.00     0.244 C 
HETATM   29  O3  UNL     1       3.317  10.449  19.251  1.00  0.00    -0.271 OA
HETATM   30  N2  UNL     1       1.979  11.110  21.010  1.00  0.00    -0.354 N 
HETATM   31  H16 UNL     1       1.008  11.284  21.267  1.00  0.00     0.162 HD
BRANCH  30  32
HETATM   32  C15 UNL     1       2.989  10.902  22.057  1.00  0.00     0.098 C 
BRANCH  32  33
HETATM   33  C16 UNL     1       3.407   9.425  22.045  1.00  0.00     0.135 C 
BRANCH  33  34
HETATM   34  C17 UNL     1       2.446   8.543  22.784  1.00  0.00     0.141 C 
HETATM   35  O4  UNL     1       1.738   7.679  22.291  1.00  0.00    -0.650 OA
BRANCH  34  36
HETATM   36  O5  UNL     1       2.431   8.773  24.107  1.00  0.00    -0.776 OA
HETATM   37  H20 UNL     1       1.780   8.129  24.464  1.00  0.00     0.167 HD
ENDBRANCH  34  36
ENDBRANCH  33  34
ENDBRANCH  32  33
BRANCH  32  38
HETATM   38  C18 UNL     1       4.131  11.949  21.889  1.00  0.00     0.014 C 
HETATM   39  C19 UNL     1       3.770  13.327  22.480  1.00  0.00     0.033 C 
HETATM   40  C20 UNL     1       4.978  14.043  23.074  1.00  0.00     0.169 C 
HETATM   41  O6  UNL     1       6.105  13.883  22.221  1.00  0.00    -0.381 OA
HETATM   42  C21 UNL     1       6.599  12.537  22.133  1.00  0.00     0.054 C 
HETATM   43  C22 UNL     1       7.167  12.386  20.715  1.00  0.00     0.045 C 
HETATM   44  C23 UNL     1       7.742  12.382  23.143  1.00  0.00     0.045 C 
HETATM   45  C24 UNL     1       5.500  11.483  22.402  1.00  0.00     0.044 C 
ENDBRANCH  32  38
ENDBRANCH  30  32
ENDBRANCH  27  28
ENDBRANCH  26  27
ENDBRANCH  13  26
TORSDOF 9
ENDMDL
MODEL 2
REMARK minimizedAffinity -8.56807423
REMARK CNNscore 0.583878875
REMARK CNNaffinity 7.45419884
REMARK  9 active torsions:
REMARK  status: ('A' for Active; 'I' for Inactive)
REMARK    1  A    between atoms: C3_3  and  O1_4 
REMARK    2  A    between atoms: N1_14  and  O2_16 
REMARK    3  A    between atoms: O2_16  and  C13_17 
REMARK    4  A    between atoms: C13_17  and  C14_18 
REMARK       I    between atoms: C14_18  and  N2_20 
REMARK    5  A    between atoms: N2_20  and  C15_21 
REMARK    6  A    between atoms: C15_21  and  C16_22 
REMARK    7  A    between atoms: C15_21  and  C18_26 
REMARK    8  A    between atoms: C16_22  and  C17_23 
REMARK    9  A    between atoms: C17_23  and  O5_25 
ROOT
HETATM    1  C1  UNL     1      -5.537   3.023   8.476  1.00  0.00     0.015 C 
HETATM    2  C2  UNL     1      -5.468   3.132   9.673  1.00  0.00    -0.078 C 
HETATM    3  C3  UNL     1      -5.370   3.261  11.133  1.00  0.00     0.128 C 
HETATM    4  C4  UNL     1      -5.789   4.651  11.608  1.00  0.00     0.052 C 
HETATM    5  C5  UNL     1      -5.205   4.774  13.010  1.00  0.00     0.010 C 
HETATM    6  C6  UNL     1      -3.999   3.810  13.086  1.00  0.00     0.002 C 
HETATM    7  C7  UNL     1      -2.660   4.473  13.451  1.00  0.00    -0.004 C 
HETATM    8  C8  UNL     1      -2.655   5.053  14.870  1.00  0.00     0.010 C 
HETATM    9  C9  UNL     1      -1.247   5.505  15.245  1.00  0.00     0.035 C 
HETATM   10  C10 UNL     1      -0.650   6.471  14.246  1.00  0.00    -0.069 C 
HETATM   11  C11 UNL     1       0.036   7.535  14.696  1.00  0.00     0.030 C 
HETATM   12  C12 UNL     1       0.793   8.432  13.785  1.00  0.00     0.032 C 
HETATM   13  N1  UNL     1       1.609   9.294  14.323  1.00  0.00    -0.271 N 
ATOM     14  H1  UNL     1       1.720   9.427  15.328  1.00  0.00     0.194 HD
HETATM   15  C25 UNL     1       0.649   8.229  12.290  1.00  0.00     0.060 C 
HETATM   16  C26 UNL     1      -0.612   7.453  11.936  1.00  0.00     0.020 C 
HETATM   17  C27 UNL     1      -0.798   6.142  12.753  1.00  0.00    -0.016 C 
HETATM   18  C28 UNL     1       0.303   5.122  12.376  1.00  0.00     0.020 C 
HETATM   19  C29 UNL     1      -2.242   5.579  12.452  1.00  0.00     0.002 C 
HETATM   20  C30 UNL     1      -2.485   5.139  10.991  1.00  0.00     0.007 C 
HETATM   21  C31 UNL     1      -2.763   3.645  10.838  1.00  0.00     0.014 C 
HETATM   22  C32 UNL     1      -3.926   3.070  11.711  1.00  0.00     0.003 C 
HETATM   23  C33 UNL     1      -3.612   1.567  11.927  1.00  0.00     0.020 C 
ENDROOT
BRANCH   3  24
HETATM   24  O1  UNL     1      -6.284   2.317  11.704  1.00  0.00    -0.377 OA
HETATM   25  H2  UNL     1      -6.202   2.365  12.668  1.00  0.00     0.211 HD
ENDBRANCH   3  24
BRANCH  13  26
HETATM   26  O2  UNL     1       2.317  10.019  13.351  1.00  0.00    -0.271 OA
BRANCH  26  27
HETATM   27  C13 UNL     1       3.709   9.966  13.647  1.00  0.00     0.303 C 
BRANCH  27  28
HETATM   28  C14 UNL     1       4.537   9.805  12.381  1.00  0.00     0.244 C 
HETATM   29  O3  UNL     1       5.069  10.761  11.818  1.00  0.00    -0.271 OA
HETATM   30  N2  UNL     1       4.566   8.511  11.890  1.00  0.00    -0.354 N 
HETATM   31  H16 UNL     1       3.977   7.829  12.368  1.00  0.00     0.162 HD
BRANCH  30  32
HETATM   32  C15 UNL     1       5.177   8.176  10.597  1.00  0.00     0.098 C 
BRANCH  32  33
HETATM   33  C16 UNL     1       6.503   7.448  10.858  1.00  0.00     0.135 C 
BRANCH  33  34
HETATM   34  C17 UNL     1       6.745   7.185  12.313  1.00  0.00     0.141 C 
HETATM   35  O4  UNL     1       7.418   7.871  13.067  1.00  0.00    -0.650 OA
BRANCH  34  36
HETATM   36  O5  UNL     1       6.119   6.084  12.761  1.00  0.00    -0.776 OA
HETATM   37  H20 UNL     1       6.348   6.038  13.715  1.00  0.00     0.167 HD
ENDBRANCH  34  36
ENDBRANCH  33  34
ENDBRANCH  32  33
BRANCH  32  38
HETATM   38  C18 UNL     1       4.135   7.428   9.712  1.00  0.00     0.014 C 
HETATM   39  C19 UNL     1       3.732   6.057  10.293  1.00  0.00     0.033 C 
HETATM   40  C20 UNL     1       2.274   5.708  10.011  1.00  0.00     0.169 C 
HETATM   41  O6  UNL     1       1.939   6.067   8.676  1.00  0.00    -0.381 OA
HETATM   42  C21 UNL     1       1.937   7.482   8.422  1.00  0.00     0.054 C 
HETATM   43  C22 UNL     1       2.362   7.648   6.956  1.00  0.00     0.045 C 
HETATM   44  C23 UNL     1       0.501   7.993   8.582  1.00  0.00     0.045 C 
HETATM   45  C24 UNL     1       2.890   8.254   9.364  1.00  0.00     0.044 C 
ENDBRANCH  32  38
ENDBRANCH  30  32
ENDBRANCH  27  28
ENDBRANCH  26  27
ENDBRANCH  13  26
TORSDOF 9
ENDMDL
MODEL 3
REMARK minimizedAffinity -8.14222336
REMARK CNNscore 0.528532267
REMARK CNNaffinity 7.31355143
REMARK  9 active torsions:
REMARK  status: ('A' for Active; 'I' for Inactive)
REMARK    1  A    between atoms: C3_3  and  O1_4 
REMARK    2  A    between atoms: N1_14  and  O2_16 
REMARK    3  A    between atoms: O2_16  and  C13_17 
REMARK    4  A    between atoms: C13_17  and  C14_18 
REMARK       I    between atoms: C14_18  and  N2_20 
REMARK    5  A    between atoms: N2_20  and  C15_21 
REMARK    6  A    between atoms: C15_21  and  C16_22 
REMARK    7  A    between atoms: C15_21  and  C18_26 
REMARK    8  A    between atoms: C16_22  and  C17_23 
REMARK    9  A    between atoms: C17_23  and  O5_25 
ROOT
HETATM    1  C1  UNL     1       0.065  10.172  15.543  1.00  0.00     0.015 C 
HETATM    2  C2  UNL     1      -0.269   9.292  14.792  1.00  0.00    -0.078 C 
HETATM    3  C3  UNL     1      -0.684   8.211  13.888  1.00  0.00     0.128 C 
HETATM    4  C4  UNL     1      -1.521   8.737  12.724  1.00  0.00     0.052 C 
HETATM    5  C5  UNL     1      -2.237   7.509  12.175  1.00  0.00     0.010 C 
HETATM    6  C6  UNL     1      -2.322   6.481  13.326  1.00  0.00     0.002 C 
HETATM    7  C7  UNL     1      -3.748   6.029  13.689  1.00  0.00    -0.004 C 
HETATM    8  C8  UNL     1      -4.427   5.252  12.557  1.00  0.00     0.010 C 
HETATM    9  C9  UNL     1      -5.743   4.656  13.049  1.00  0.00     0.035 C 
HETATM   10  C10 UNL     1      -6.671   5.686  13.652  1.00  0.00    -0.069 C 
HETATM   11  C11 UNL     1      -7.982   5.632  13.363  1.00  0.00     0.030 C 
HETATM   12  C12 UNL     1      -8.978   6.499  14.044  1.00  0.00     0.032 C 
HETATM   13  N1  UNL     1     -10.241   6.224  13.872  1.00  0.00    -0.271 N 
ATOM     14  H1  UNL     1     -10.586   5.485  13.259  1.00  0.00     0.194 HD
HETATM   15  C25 UNL     1      -8.474   7.586  14.972  1.00  0.00     0.060 C 
HETATM   16  C26 UNL     1      -7.017   7.940  14.701  1.00  0.00     0.020 C 
HETATM   17  C27 UNL     1      -6.071   6.708  14.629  1.00  0.00    -0.016 C 
HETATM   18  C28 UNL     1      -5.967   6.036  16.019  1.00  0.00     0.020 C 
HETATM   19  C29 UNL     1      -4.662   7.203  14.115  1.00  0.00     0.002 C 
HETATM   20  C30 UNL     1      -3.924   8.179  15.059  1.00  0.00     0.007 C 
HETATM   21  C31 UNL     1      -2.612   7.624  15.610  1.00  0.00     0.014 C 
HETATM   22  C32 UNL     1      -1.583   7.112  14.550  1.00  0.00     0.003 C 
HETATM   23  C33 UNL     1      -0.714   6.043  15.262  1.00  0.00     0.020 C 
ENDROOT
BRANCH   3  24
HETATM   24  O1  UNL     1       0.509   7.640  13.337  1.00  0.00    -0.377 OA
HETATM   25  H2  UNL     1       0.252   6.900  12.767  1.00  0.00     0.211 HD
ENDBRANCH   3  24
BRANCH  13  26
HETATM   26  O2  UNL     1     -11.067   7.065  14.633  1.00  0.00    -0.271 OA
BRANCH  26  27
HETATM   27  C13 UNL     1     -12.428   6.706  14.419  1.00  0.00     0.303 C 
BRANCH  27  28
HETATM   28  C14 UNL     1     -13.311   7.939  14.301  1.00  0.00     0.244 C 
HETATM   29  O3  UNL     1     -14.236   8.163  15.082  1.00  0.00    -0.271 OA
HETATM   30  N2  UNL     1     -13.028   8.731  13.201  1.00  0.00    -0.354 N 
HETATM   31  H16 UNL     1     -12.327   8.373  12.551  1.00  0.00     0.162 HD
BRANCH  30  32
HETATM   32  C15 UNL     1     -13.865   9.877  12.822  1.00  0.00     0.098 C 
BRANCH  32  33
HETATM   33  C16 UNL     1     -15.333   9.431  12.824  1.00  0.00     0.135 C 
BRANCH  33  34
HETATM   34  C17 UNL     1     -15.719   8.694  11.578  1.00  0.00     0.141 C 
HETATM   35  O4  UNL     1     -16.293   9.167  10.609  1.00  0.00    -0.650 OA
BRANCH  34  36
HETATM   36  O5  UNL     1     -15.352   7.401  11.596  1.00  0.00    -0.776 OA
HETATM   37  H20 UNL     1     -15.649   7.047  10.729  1.00  0.00     0.167 HD
ENDBRANCH  34  36
ENDBRANCH  33  34
ENDBRANCH  32  33
BRANCH  32  38
HETATM   38  C18 UNL     1     -13.507  11.098  13.722  1.00  0.00     0.014 C 
HETATM   39  C19 UNL     1     -12.105  10.983  14.355  1.00  0.00     0.033 C 
HETATM   40  C20 UNL     1     -11.417  12.336  14.501  1.00  0.00     0.169 C 
HETATM   41  O6  UNL     1     -12.351  13.309  14.956  1.00  0.00    -0.381 OA
HETATM   42  C21 UNL     1     -13.386  13.628  14.011  1.00  0.00     0.054 C 
HETATM   43  C22 UNL     1     -14.627  13.973  14.846  1.00  0.00     0.045 C 
HETATM   44  C23 UNL     1     -12.951  14.873  13.230  1.00  0.00     0.045 C 
HETATM   45  C24 UNL     1     -13.681  12.461  13.040  1.00  0.00     0.044 C 
ENDBRANCH  32  38
ENDBRANCH  30  32
ENDBRANCH  27  28
ENDBRANCH  26  27
ENDBRANCH  13  26
TORSDOF 9
ENDMDL
MODEL 4
REMARK minimizedAffinity -7.6040225
REMARK CNNscore 0.421320796
REMARK CNNaffinity 7.3195343
REMARK  9 active torsions:
REMARK  status: ('A' for Active; 'I' for Inactive)
REMARK    1  A    between atoms: C3_3  and  O1_4 
REMARK    2  A    between atoms: N1_14  and  O2_16 
REMARK    3  A    between atoms: O2_16  and  C13_17 
REMARK    4  A    between atoms: C13_17  and  C14_18 
REMARK       I    between atoms: C14_18  and  N2_20 
REMARK    5  A    between atoms: N2_20  and  C15_21 
REMARK    6  A    between atoms: C15_21  and  C16_22 
REMARK    7  A    between atoms: C15_21  and  C18_26 
REMARK    8  A    between atoms: C16_22  and  C17_23 
REMARK    9  A    between atoms: C17_23  and  O5_25 
ROOT
HETATM    1  C1  UNL     1      -5.756   3.658  12.554  1.00  0.00     0.015 C 
HETATM    2  C2  UNL     1      -5.985   4.461  13.422  1.00  0.00    -0.078 C 
HETATM    3  C3  UNL     1      -6.269   5.450  14.470  1.00  0.00     0.128 C 
HETATM    4  C4  UNL     1      -7.182   4.878  15.554  1.00  0.00     0.052 C 
HETATM    5  C5  UNL     1      -7.742   6.100  16.272  1.00  0.00     0.010 C 
HETATM    6  C6  UNL     1      -7.681   7.280  15.276  1.00  0.00     0.002 C 
HETATM    7  C7  UNL     1      -9.033   7.956  14.988  1.00  0.00    -0.004 C 
HETATM    8  C8  UNL     1      -9.621   8.650  16.221  1.00  0.00     0.010 C 
HETATM    9  C9  UNL     1     -10.844   9.472  15.825  1.00  0.00     0.035 C 
HETATM   10  C10 UNL     1     -11.888   8.662  15.089  1.00  0.00    -0.069 C 
HETATM   11  C11 UNL     1     -13.185   8.843  15.389  1.00  0.00     0.030 C 
HETATM   12  C12 UNL     1     -14.275   8.214  14.599  1.00  0.00     0.032 C 
HETATM   13  N1  UNL     1     -15.494   8.623  14.814  1.00  0.00    -0.271 N 
ATOM     14  H1  UNL     1     -15.751   9.306  15.526  1.00  0.00     0.194 HD
HETATM   15  C25 UNL     1     -13.902   7.211  13.526  1.00  0.00     0.060 C 
HETATM   16  C26 UNL     1     -12.506   6.640  13.737  1.00  0.00     0.020 C 
HETATM   17  C27 UNL     1     -11.411   7.718  13.975  1.00  0.00    -0.016 C 
HETATM   18  C28 UNL     1     -11.205   8.558  12.691  1.00  0.00     0.020 C 
HETATM   19  C29 UNL     1     -10.084   6.981  14.407  1.00  0.00     0.002 C 
HETATM   20  C30 UNL     1      -9.464   6.058  13.333  1.00  0.00     0.007 C 
HETATM   21  C31 UNL     1      -8.086   6.512  12.857  1.00  0.00     0.014 C 
HETATM   22  C32 UNL     1      -7.013   6.736  13.973  1.00  0.00     0.003 C 
HETATM   23  C33 UNL     1      -6.006   7.773  13.412  1.00  0.00     0.020 C 
ENDROOT
BRANCH   3  24
HETATM   24  O1  UNL     1      -5.021   5.781  15.090  1.00  0.00    -0.377 OA
HETATM   25  H2  UNL     1      -5.189   6.461  15.758  1.00  0.00     0.211 HD
ENDBRANCH   3  24
BRANCH  13  26
HETATM   26  O2  UNL     1     -16.411   8.008  13.948  1.00  0.00    -0.271 OA
BRANCH  26  27
HETATM   27  C13 UNL     1     -17.326   7.225  14.709  1.00  0.00     0.303 C 
BRANCH  27  28
HETATM   28  C14 UNL     1     -17.521   5.849  14.091  1.00  0.00     0.244 C 
HETATM   29  O3  UNL     1     -16.849   5.454  13.139  1.00  0.00    -0.271 OA
HETATM   30  N2  UNL     1     -18.565   5.128  14.645  1.00  0.00    -0.354 N 
HETATM   31  H16 UNL     1     -19.136   5.611  15.338  1.00  0.00     0.162 HD
BRANCH  30  32
HETATM   32  C15 UNL     1     -19.016   3.845  14.087  1.00  0.00     0.098 C 
BRANCH  32  33
HETATM   33  C16 UNL     1     -19.164   4.000  12.567  1.00  0.00     0.135 C 
BRANCH  33  34
HETATM   34  C17 UNL     1     -20.443   4.673  12.172  1.00  0.00     0.141 C 
HETATM   35  O4  UNL     1     -21.536   4.138  12.067  1.00  0.00    -0.650 OA
BRANCH  34  36
HETATM   36  O5  UNL     1     -20.297   5.989  11.945  1.00  0.00    -0.776 OA
HETATM   37  H20 UNL     1     -21.199   6.303  11.712  1.00  0.00     0.167 HD
ENDBRANCH  34  36
ENDBRANCH  33  34
ENDBRANCH  32  33
BRANCH  32  38
HETATM   38  C18 UNL     1     -18.075   2.706  14.583  1.00  0.00     0.014 C 
HETATM   39  C19 UNL     1     -18.839   1.558  15.274  1.00  0.00     0.033 C 
HETATM   40  C20 UNL     1     -18.199   0.197  15.024  1.00  0.00     0.169 C 
HETATM   41  O6  UNL     1     -16.783   0.301  15.122  1.00  0.00    -0.381 OA
HETATM   42  C21 UNL     1     -16.170   1.086  14.087  1.00  0.00     0.054 C 
HETATM   43  C22 UNL     1     -14.939   1.743  14.727  1.00  0.00     0.045 C 
HETATM   44  C23 UNL     1     -15.705   0.135  12.979  1.00  0.00     0.045 C 
HETATM   45  C24 UNL     1     -17.127   2.155  13.509  1.00  0.00     0.044 C 
ENDBRANCH  32  38
ENDBRANCH  30  32
ENDBRANCH  27  28
ENDBRANCH  26  27
ENDBRANCH  13  26
TORSDOF 9
ENDMDL
MODEL 5
REMARK minimizedAffinity -7.74438477
REMARK CNNscore 0.42045784
REMARK CNNaffinity 7.15561056
REMARK  9 active torsions:
REMARK  status: ('A' for Active; 'I' for Inactive)
REMARK    1  A    between atoms: C3_3  and  O1_4 
REMARK    2  A    between atoms: N1_14  and  O2_16 
REMARK    3  A    between atoms: O2_16  and  C13_17 
REMARK    4  A    between atoms: C13_17  and  C14_18 
REMARK       I    between atoms: C14_18  and  N2_20 
REMARK    5  A    between atoms: N2_20  and  C15_21 
REMARK    6  A    between atoms: C15_21  and  C16_22 
REMARK    7  A    between atoms: C15_21  and  C18_26 
REMARK    8  A    between atoms: C16_22  and  C17_23 
REMARK    9  A    between atoms: C17_23  and  O5_25 
ROOT
HETATM    1  C1  UNL     1      -6.395   1.752  11.465  1.00  0.00     0.015 C 
HETATM    2  C2  UNL     1      -6.958   2.667  12.010  1.00  0.00    -0.078 C 
HETATM    3  C3  UNL     1      -7.634   3.783  12.685  1.00  0.00     0.128 C 
HETATM    4  C4  UNL     1      -7.738   5.010  11.782  1.00  0.00     0.052 C 
HETATM    5  C5  UNL     1      -8.012   6.169  12.733  1.00  0.00     0.010 C 
HETATM    6  C6  UNL     1      -7.460   5.760  14.118  1.00  0.00     0.002 C 
HETATM    7  C7  UNL     1      -6.406   6.716  14.704  1.00  0.00    -0.004 C 
HETATM    8  C8  UNL     1      -6.978   8.103  15.019  1.00  0.00     0.010 C 
HETATM    9  C9  UNL     1      -5.949   8.929  15.785  1.00  0.00     0.035 C 
HETATM   10  C10 UNL     1      -4.618   9.023  15.075  1.00  0.00    -0.069 C 
HETATM   11  C11 UNL     1      -3.974  10.203  15.047  1.00  0.00     0.030 C 
HETATM   12  C12 UNL     1      -2.592  10.338  14.520  1.00  0.00     0.032 C 
HETATM   13  N1  UNL     1      -1.965  11.459  14.740  1.00  0.00    -0.271 N 
ATOM     14  H1  UNL     1      -2.382  12.266  15.204  1.00  0.00     0.194 HD
HETATM   15  C25 UNL     1      -1.957   9.138  13.845  1.00  0.00     0.060 C 
HETATM   16  C26 UNL     1      -2.995   8.125  13.383  1.00  0.00     0.020 C 
HETATM   17  C27 UNL     1      -4.030   7.736  14.478  1.00  0.00    -0.016 C 
HETATM   18  C28 UNL     1      -3.330   6.956  15.617  1.00  0.00     0.020 C 
HETATM   19  C29 UNL     1      -5.165   6.876  13.795  1.00  0.00     0.002 C 
HETATM   20  C30 UNL     1      -4.705   5.515  13.224  1.00  0.00     0.007 C 
HETATM   21  C31 UNL     1      -5.345   4.313  13.915  1.00  0.00     0.014 C 
HETATM   22  C32 UNL     1      -6.908   4.305  13.971  1.00  0.00     0.003 C 
HETATM   23  C33 UNL     1      -7.299   3.456  15.209  1.00  0.00     0.020 C 
ENDROOT
BRANCH   3  24
HETATM   24  O1  UNL     1      -8.967   3.352  12.982  1.00  0.00    -0.377 OA
HETATM   25  H2  UNL     1      -9.413   4.066  13.461  1.00  0.00     0.211 HD
ENDBRANCH   3  24
BRANCH  13  26
HETATM   26  O2  UNL     1      -0.646  11.422  14.262  1.00  0.00    -0.271 OA
BRANCH  26  27
HETATM   27  C13 UNL     1       0.051  10.348  14.885  1.00  0.00     0.303 C 
BRANCH  27  28
HETATM   28  C14 UNL     1       1.125   9.782  13.970  1.00  0.00     0.244 C 
HETATM   29  O3  UNL     1       1.049   9.854  12.743  1.00  0.00    -0.271 OA
HETATM   30  N2  UNL     1       2.140   9.119  14.638  1.00  0.00    -0.354 N 
HETATM   31  H16 UNL     1       2.026   9.009  15.645  1.00  0.00     0.162 HD
BRANCH  30  32
HETATM   32  C15 UNL     1       3.187   8.369  13.930  1.00  0.00     0.098 C 
BRANCH  32  33
HETATM   33  C16 UNL     1       3.916   7.476  14.943  1.00  0.00     0.135 C 
BRANCH  33  34
HETATM   34  C17 UNL     1       5.377   7.794  15.052  1.00  0.00     0.141 C 
HETATM   35  O4  UNL     1       5.947   8.233  16.039  1.00  0.00    -0.650 OA
BRANCH  34  36
HETATM   36  O5  UNL     1       6.059   7.532  13.924  1.00  0.00    -0.776 OA
HETATM   37  H20 UNL     1       6.989   7.770  14.135  1.00  0.00     0.167 HD
ENDBRANCH  34  36
ENDBRANCH  33  34
ENDBRANCH  32  33
BRANCH  32  38
HETATM   38  C18 UNL     1       2.563   7.653  12.694  1.00  0.00     0.014 C 
HETATM   39  C19 UNL     1       3.625   7.148  11.697  1.00  0.00     0.033 C 
HETATM   40  C20 UNL     1       3.215   5.846  11.015  1.00  0.00     0.169 C 
HETATM   41  O6  UNL     1       1.838   5.898  10.659  1.00  0.00    -0.381 OA
HETATM   42  C21 UNL     1       0.934   5.920  11.776  1.00  0.00     0.054 C 
HETATM   43  C22 UNL     1      -0.279   6.744  11.322  1.00  0.00     0.045 C 
HETATM   44  C23 UNL     1       0.482   4.481  12.051  1.00  0.00     0.045 C 
HETATM   45  C24 UNL     1       1.574   6.533  13.044  1.00  0.00     0.044 C 
ENDBRANCH  32  38
ENDBRANCH  30  32
ENDBRANCH  27  28
ENDBRANCH  26  27
ENDBRANCH  13  26
TORSDOF 9
ENDMDL
MODEL 6
REMARK minimizedAffinity -7.27838373
REMARK CNNscore 0.418352693
REMARK CNNaffinity 6.49434614
REMARK  9 active torsions:
REMARK  status: ('A' for Active; 'I' for Inactive)
REMARK    1  A    between atoms: C3_3  and  O1_4 
REMARK    2  A    between atoms: N1_14  and  O2_16 
REMARK    3  A    between atoms: O2_16  and  C13_17 
REMARK    4  A    between atoms: C13_17  and  C14_18 
REMARK       I    between atoms: C14_18  and  N2_20 
REMARK    5  A    between atoms: N2_20  and  C15_21 
REMARK    6  A    between atoms: C15_21  and  C16_22 
REMARK    7  A    between atoms: C15_21  and  C18_26 
REMARK    8  A    between atoms: C16_22  and  C17_23 
REMARK    9  A    between atoms: C17_23  and  O5_25 
ROOT
HETATM    1  C1  UNL     1      -8.318  13.500  24.279  1.00  0.00     0.015 C 
HETATM    2  C2  UNL     1      -8.389  13.872  23.136  1.00  0.00    -0.078 C 
HETATM    3  C3  UNL     1      -8.460  14.331  21.743  1.00  0.00     0.128 C 
HETATM    4  C4  UNL     1      -8.854  13.200  20.794  1.00  0.00     0.052 C 
HETATM    5  C5  UNL     1      -8.437  13.690  19.413  1.00  0.00     0.010 C 
HETATM    6  C6  UNL     1      -7.306  14.723  19.620  1.00  0.00     0.002 C 
HETATM    7  C7  UNL     1      -5.985  14.391  18.904  1.00  0.00    -0.004 C 
HETATM    8  C8  UNL     1      -6.119  14.411  17.377  1.00  0.00     0.010 C 
HETATM    9  C9  UNL     1      -4.743  14.284  16.730  1.00  0.00     0.035 C 
HETATM   10  C10 UNL     1      -3.976  13.071  17.207  1.00  0.00    -0.069 C 
HETATM   11  C11 UNL     1      -3.290  12.339  16.312  1.00  0.00     0.030 C 
HETATM   12  C12 UNL     1      -2.380  11.239  16.721  1.00  0.00     0.032 C 
HETATM   13  N1  UNL     1      -1.586  10.739  15.815  1.00  0.00    -0.271 N 
ATOM     14  H1  UNL     1      -1.590  11.019  14.834  1.00  0.00     0.194 HD
HETATM   15  C25 UNL     1      -2.353  10.829  18.180  1.00  0.00     0.060 C 
HETATM   16  C26 UNL     1      -3.604  11.277  18.923  1.00  0.00     0.020 C 
HETATM   17  C27 UNL     1      -3.961  12.776  18.714  1.00  0.00    -0.016 C 
HETATM   18  C28 UNL     1      -2.882  13.674  19.366  1.00  0.00     0.020 C 
HETATM   19  C29 UNL     1      -5.388  13.032  19.340  1.00  0.00     0.002 C 
HETATM   20  C30 UNL     1      -5.477  12.843  20.872  1.00  0.00     0.007 C 
HETATM   21  C31 UNL     1      -5.819  14.124  21.629  1.00  0.00     0.014 C 
HETATM   22  C32 UNL     1      -7.110  14.874  21.162  1.00  0.00     0.003 C 
HETATM   23  C33 UNL     1      -6.910  16.366  21.535  1.00  0.00     0.020 C 
ENDROOT
BRANCH   3  24
HETATM   24  O1  UNL     1      -9.488  15.325  21.677  1.00  0.00    -0.377 OA
HETATM   25  H2  UNL     1      -9.521  15.664  20.770  1.00  0.00     0.211 HD
ENDBRANCH   3  24
BRANCH  13  26
HETATM   26  O2  UNL     1      -0.726   9.769  16.352  1.00  0.00    -0.271 OA
BRANCH  26  27
HETATM   27  C13 UNL     1      -1.276   8.475  16.124  1.00  0.00     0.303 C 
BRANCH  27  28
HETATM   28  C14 UNL     1      -1.211   8.100  14.651  1.00  0.00     0.244 C 
HETATM   29  O3  UNL     1      -1.681   8.817  13.768  1.00  0.00    -0.271 OA
HETATM   30  N2  UNL     1      -0.649   6.857  14.412  1.00  0.00    -0.354 N 
HETATM   31  H16 UNL     1      -0.417   6.297  15.232  1.00  0.00     0.162 HD
BRANCH  30  32
HETATM   32  C15 UNL     1      -0.637   6.245  13.077  1.00  0.00     0.098 C 
BRANCH  32  33
HETATM   33  C16 UNL     1      -2.083   6.147  12.572  1.00  0.00     0.135 C 
BRANCH  33  34
HETATM   34  C17 UNL     1      -2.512   4.736  12.303  1.00  0.00     0.141 C 
HETATM   35  O4  UNL     1      -3.168   4.028  13.051  1.00  0.00    -0.650 OA
BRANCH  34  36
HETATM   36  O5  UNL     1      -2.113   4.285  11.102  1.00  0.00    -0.776 OA
HETATM   37  H20 UNL     1      -2.466   3.369  11.051  1.00  0.00     0.167 HD
ENDBRANCH  34  36
ENDBRANCH  33  34
ENDBRANCH  32  33
BRANCH  32  38
HETATM   38  C18 UNL     1       0.368   7.012  12.166  1.00  0.00     0.014 C 
HETATM   39  C19 UNL     1       1.718   7.283  12.861  1.00  0.00     0.033 C 
HETATM   40  C20 UNL     1       2.894   7.236  11.892  1.00  0.00     0.169 C 
HETATM   41  O6  UNL     1       2.549   7.892  10.677  1.00  0.00    -0.381 OA
HETATM   42  C21 UNL     1       1.533   7.226   9.909  1.00  0.00     0.054 C 
HETATM   43  C22 UNL     1       0.756   8.335   9.185  1.00  0.00     0.045 C 
HETATM   44  C23 UNL     1       2.227   6.345   8.864  1.00  0.00     0.045 C 
HETATM   45  C24 UNL     1       0.589   6.374  10.788  1.00  0.00     0.044 C 
ENDBRANCH  32  38
ENDBRANCH  30  32
ENDBRANCH  27  28
ENDBRANCH  26  27
ENDBRANCH  13  26
TORSDOF 9
ENDMDL
MODEL 7
REMARK minimizedAffinity -8.64871788
REMARK CNNscore 0.311348975
REMARK CNNaffinity 6.10414267
REMARK  9 active torsions:
REMARK  status: ('A' for Active; 'I' for Inactive)
REMARK    1  A    between atoms: C3_3  and  O1_4 
REMARK    2  A    between atoms: N1_14  and  O2_16 
REMARK    3  A    between atoms: O2_16  and  C13_17 
REMARK    4  A    between atoms: C13_17  and  C14_18 
REMARK       I    between atoms: C14_18  and  N2_20 
REMARK    5  A    between atoms: N2_20  and  C15_21 
REMARK    6  A    between atoms: C15_21  and  C16_22 
REMARK    7  A    between atoms: C15_21  and  C18_26 
REMARK    8  A    between atoms: C16_22  and  C17_23 
REMARK    9  A    between atoms: C17_23  and  O5_25 
ROOT
HETATM    1  C1  UNL     1      -0.490   8.386   9.808  1.00  0.00     0.015 C 
HETATM    2  C2  UNL     1       0.532   7.751   9.747  1.00  0.00    -0.078 C 
HETATM    3  C3  UNL     1       1.787   6.991   9.674  1.00  0.00     0.128 C 
HETATM    4  C4  UNL     1       1.897   5.972  10.807  1.00  0.00     0.052 C 
HETATM    5  C5  UNL     1       3.379   5.622  10.871  1.00  0.00     0.010 C 
HETATM    6  C6  UNL     1       4.154   6.819  10.273  1.00  0.00     0.002 C 
HETATM    7  C7  UNL     1       5.192   7.455  11.214  1.00  0.00    -0.004 C 
HETATM    8  C8  UNL     1       6.346   6.502  11.550  1.00  0.00     0.010 C 
HETATM    9  C9  UNL     1       7.438   7.252  12.308  1.00  0.00     0.035 C 
HETATM   10  C10 UNL     1       6.923   7.960  13.541  1.00  0.00    -0.069 C 
HETATM   11  C11 UNL     1       7.650   7.916  14.670  1.00  0.00     0.030 C 
HETATM   12  C12 UNL     1       7.299   8.721  15.868  1.00  0.00     0.032 C 
HETATM   13  N1  UNL     1       8.178   8.794  16.829  1.00  0.00    -0.271 N 
ATOM     14  H1  UNL     1       9.064   8.290  16.832  1.00  0.00     0.194 HD
HETATM   15  C25 UNL     1       5.992   9.489  15.865  1.00  0.00     0.060 C 
HETATM   16  C26 UNL     1       5.011   8.944  14.836  1.00  0.00     0.020 C 
HETATM   17  C27 UNL     1       5.620   8.763  13.416  1.00  0.00    -0.016 C 
HETATM   18  C28 UNL     1       5.964  10.143  12.806  1.00  0.00     0.020 C 
HETATM   19  C29 UNL     1       4.572   7.980  12.531  1.00  0.00     0.002 C 
HETATM   20  C30 UNL     1       3.244   8.726  12.270  1.00  0.00     0.007 C 
HETATM   21  C31 UNL     1       3.007   9.059  10.798  1.00  0.00     0.014 C 
HETATM   22  C32 UNL     1       3.086   7.857   9.800  1.00  0.00     0.003 C 
HETATM   23  C33 UNL     1       3.488   8.453   8.426  1.00  0.00     0.020 C 
ENDROOT
BRANCH   3  24
HETATM   24  O1  UNL     1       1.769   6.262   8.441  1.00  0.00    -0.377 OA
HETATM   25  H2  UNL     1       2.608   5.785   8.362  1.00  0.00     0.211 HD
ENDBRANCH   3  24
BRANCH  13  26
HETATM   26  O2  UNL     1       7.755   9.649  17.859  1.00  0.00    -0.271 OA
BRANCH  26  27
HETATM   27  C13 UNL     1       8.732  10.667  18.054  1.00  0.00     0.303 C 
BRANCH  27  28
HETATM   28  C14 UNL     1       8.644  11.254  19.455  1.00  0.00     0.244 C 
HETATM   29  O3  UNL     1       9.574  11.185  20.257  1.00  0.00    -0.271 OA
HETATM   30  N2  UNL     1       7.407  11.796  19.760  1.00  0.00    -0.354 N 
HETATM   31  H16 UNL     1       6.672  11.676  19.062  1.00  0.00     0.162 HD
BRANCH  30  32
HETATM   32  C15 UNL     1       7.068  12.270  21.109  1.00  0.00     0.098 C 
BRANCH  32  33
HETATM   33  C16 UNL     1       7.694  13.657  21.310  1.00  0.00     0.135 C 
BRANCH  33  34
HETATM   34  C17 UNL     1       8.458  13.770  22.594  1.00  0.00     0.141 C 
HETATM   35  O4  UNL     1       8.137  14.434  23.567  1.00  0.00    -0.650 OA
BRANCH  34  36
HETATM   36  O5  UNL     1       9.580  13.032  22.606  1.00  0.00    -0.776 OA
HETATM   37  H20 UNL     1       9.970  13.185  23.495  1.00  0.00     0.167 HD
ENDBRANCH  34  36
ENDBRANCH  33  34
ENDBRANCH  32  33
BRANCH  32  38
HETATM   38  C18 UNL     1       5.528  12.164  21.322  1.00  0.00     0.014 C 
HETATM   39  C19 UNL     1       4.806  11.487  20.139  1.00  0.00     0.033 C 
HETATM   40  C20 UNL     1       3.607  10.656  20.584  1.00  0.00     0.169 C 
HETATM   41  O6  UNL     1       2.878  11.354  21.587  1.00  0.00    -0.381 OA
HETATM   42  C21 UNL     1       3.580  11.513  22.831  1.00  0.00     0.054 C 
HETATM   43  C22 UNL     1       3.096  12.845  23.422  1.00  0.00     0.045 C 
HETATM   44  C23 UNL     1       3.156  10.374  23.766  1.00  0.00     0.045 C 
HETATM   45  C24 UNL     1       5.115  11.515  22.650  1.00  0.00     0.044 C 
ENDBRANCH  32  38
ENDBRANCH  30  32
ENDBRANCH  27  28
ENDBRANCH  26  27
ENDBRANCH  13  26
TORSDOF 9
ENDMDL
MODEL 8
REMARK minimizedAffinity -8.89909363
REMARK CNNscore 0.278068841
REMARK CNNaffinity 6.82495642
REMARK  9 active torsions:
REMARK  status: ('A' for Active; 'I' for Inactive)
REMARK    1  A    between atoms: C3_3  and  O1_4 
REMARK    2  A    between atoms: N1_14  and  O2_16 
REMARK    3  A    between atoms: O2_16  and  C13_17 
REMARK    4  A    between atoms: C13_17  and  C14_18 
REMARK       I    between atoms: C14_18  and  N2_20 
REMARK    5  A    between atoms: N2_20  and  C15_21 
REMARK    6  A    between atoms: C15_21  and  C16_22 
REMARK    7  A    between atoms: C15_21  and  C18_26 
REMARK    8  A    between atoms: C16_22  and  C17_23 
REMARK    9  A    between atoms: C17_23  and  O5_25 
ROOT
HETATM    1  C1  UNL     1      -0.287  11.006  15.932  1.00  0.00     0.015 C 
HETATM    2  C2  UNL     1      -0.464  10.092  15.169  1.00  0.00    -0.078 C 
HETATM    3  C3  UNL     1      -0.687   8.968  14.250  1.00  0.00     0.128 C 
HETATM    4  C4  UNL     1      -1.500   9.390  13.027  1.00  0.00     0.052 C 
HETATM    5  C5  UNL     1      -2.029   8.085  12.444  1.00  0.00     0.010 C 
HETATM    6  C6  UNL     1      -2.070   7.057  13.597  1.00  0.00     0.002 C 
HETATM    7  C7  UNL     1      -3.455   6.442  13.868  1.00  0.00    -0.004 C 
HETATM    8  C8  UNL     1      -3.960   5.588  12.700  1.00  0.00     0.010 C 
HETATM    9  C9  UNL     1      -5.228   4.843  13.108  1.00  0.00     0.035 C 
HETATM   10  C10 UNL     1      -6.308   5.759  13.638  1.00  0.00    -0.069 C 
HETATM   11  C11 UNL     1      -7.582   5.551  13.262  1.00  0.00     0.030 C 
HETATM   12  C12 UNL     1      -8.716   6.296  13.866  1.00  0.00     0.032 C 
HETATM   13  N1  UNL     1      -9.923   5.874  13.613  1.00  0.00    -0.271 N 
ATOM     14  H1  UNL     1     -10.138   5.099  12.985  1.00  0.00     0.194 HD
HETATM   15  C25 UNL     1      -8.406   7.437  14.815  1.00  0.00     0.060 C 
HETATM   16  C26 UNL     1      -6.986   7.958  14.639  1.00  0.00     0.020 C 
HETATM   17  C27 UNL     1      -5.900   6.845  14.643  1.00  0.00    -0.016 C 
HETATM   18  C28 UNL     1      -5.813   6.193  16.044  1.00  0.00     0.020 C 
HETATM   19  C29 UNL     1      -4.527   7.501  14.220  1.00  0.00     0.002 C 
HETATM   20  C30 UNL     1      -3.973   8.559  15.201  1.00  0.00     0.007 C 
HETATM   21  C31 UNL     1      -2.646   8.163  15.845  1.00  0.00     0.014 C 
HETATM   22  C32 UNL     1      -1.495   7.773  14.861  1.00  0.00     0.003 C 
HETATM   23  C33 UNL     1      -0.557   6.814  15.641  1.00  0.00     0.020 C 
ENDROOT
BRANCH   3  24
HETATM   24  O1  UNL     1       0.598   8.540  13.785  1.00  0.00    -0.377 OA
HETATM   25  H2  UNL     1       0.469   7.774  13.207  1.00  0.00     0.211 HD
ENDBRANCH   3  24
BRANCH  13  26
HETATM   26  O2  UNL     1     -10.892   6.615  14.309  1.00  0.00    -0.271 OA
BRANCH  26  27
HETATM   27  C13 UNL     1     -11.849   7.122  13.384  1.00  0.00     0.303 C 
BRANCH  27  28
HETATM   28  C14 UNL     1     -13.101   7.608  14.098  1.00  0.00     0.244 C 
HETATM   29  O3  UNL     1     -13.054   8.245  15.151  1.00  0.00    -0.271 OA
HETATM   30  N2  UNL     1     -14.282   7.204  13.499  1.00  0.00    -0.354 N 
HETATM   31  H16 UNL     1     -14.196   6.568  12.706  1.00  0.00     0.162 HD
BRANCH  30  32
HETATM   32  C15 UNL     1     -15.595   7.434  14.117  1.00  0.00     0.098 C 
BRANCH  32  33
HETATM   33  C16 UNL     1     -16.340   8.497  13.297  1.00  0.00     0.135 C 
BRANCH  33  34
HETATM   34  C17 UNL     1     -15.721   8.732  11.952  1.00  0.00     0.141 C 
HETATM   35  O4  UNL     1     -15.974   8.119  10.926  1.00  0.00    -0.650 OA
BRANCH  34  36
HETATM   36  O5  UNL     1     -14.829   9.736  11.951  1.00  0.00    -0.776 OA
HETATM   37  H20 UNL     1     -14.516   9.790  11.021  1.00  0.00     0.167 HD
ENDBRANCH  34  36
ENDBRANCH  33  34
ENDBRANCH  32  33
BRANCH  32  38
HETATM   38  C18 UNL     1     -16.322   6.069  14.310  1.00  0.00     0.014 C 
HETATM   39  C19 UNL     1     -17.222   5.697  13.114  1.00  0.00     0.033 C 
HETATM   40  C20 UNL     1     -17.261   4.194  12.857  1.00  0.00     0.169 C 
HETATM   41  O6  UNL     1     -17.351   3.493  14.092  1.00  0.00    -0.381 OA
HETATM   42  C21 UNL     1     -16.185   3.599  14.924  1.00  0.00     0.054 C 
HETATM   43  C22 UNL     1     -16.692   3.540  16.372  1.00  0.00     0.045 C 
HETATM   44  C23 UNL     1     -15.298   2.377  14.660  1.00  0.00     0.045 C 
HETATM   45  C24 UNL     1     -15.392   4.902  14.670  1.00  0.00     0.044 C 
ENDBRANCH  32  38
ENDBRANCH  30  32
ENDBRANCH  27  28
ENDBRANCH  26  27
ENDBRANCH  13  26
TORSDOF 9
ENDMDL
MODEL 9
REMARK minimizedAffinity -7.75158453
REMARK CNNscore 0.213352904
REMARK CNNaffinity 6.02808905
REMARK  9 active torsions:
REMARK  status: ('A' for Active; 'I' for Inactive)
REMARK    1  A    between atoms: C3_3  and  O1_4 
REMARK    2  A    between atoms: N1_14  and  O2_16 
REMARK    3  A    between atoms: O2_16  and  C13_17 
REMARK    4  A    between atoms: C13_17  and  C14_18 
REMARK       I    between atoms: C14_18  and  N2_20 
REMARK    5  A    between atoms: N2_20  and  C15_21 
REMARK    6  A    between atoms: C15_21  and  C16_22 
REMARK    7  A    between atoms: C15_21  and  C18_26 
REMARK    8  A    between atoms: C16_22  and  C17_23 
REMARK    9  A    between atoms: C17_23  and  O5_25 
ROOT
HETATM    1  C1  UNL     1       4.767   5.693  10.455  1.00  0.00     0.015 C 
HETATM    2  C2  UNL     1       3.632   6.086  10.361  1.00  0.00    -0.078 C 
HETATM    3  C3  UNL     1       2.246   6.560  10.261  1.00  0.00     0.128 C 
HETATM    4  C4  UNL     1       2.180   8.058   9.966  1.00  0.00     0.052 C 
HETATM    5  C5  UNL     1       0.763   8.466  10.350  1.00  0.00     0.010 C 
HETATM    6  C6  UNL     1       0.261   7.440  11.392  1.00  0.00     0.002 C 
HETATM    7  C7  UNL     1      -0.171   8.043  12.740  1.00  0.00    -0.004 C 
HETATM    8  C8  UNL     1      -1.399   8.951  12.614  1.00  0.00     0.010 C 
HETATM    9  C9  UNL     1      -1.902   9.346  13.999  1.00  0.00     0.035 C 
HETATM   10  C10 UNL     1      -0.829   9.975  14.860  1.00  0.00    -0.069 C 
HETATM   11  C11 UNL     1      -1.139  11.048  15.609  1.00  0.00     0.030 C 
HETATM   12  C12 UNL     1      -0.194  11.617  16.603  1.00  0.00     0.032 C 
HETATM   13  N1  UNL     1      -0.655  12.505  17.440  1.00  0.00    -0.271 N 
ATOM     14  H1  UNL     1      -1.607  12.869  17.419  1.00  0.00     0.194 HD
HETATM   15  C25 UNL     1       1.218  11.068  16.654  1.00  0.00     0.060 C 
HETATM   16  C26 UNL     1       1.600  10.352  15.366  1.00  0.00     0.020 C 
HETATM   17  C27 UNL     1       0.552   9.306  14.890  1.00  0.00    -0.016 C 
HETATM   18  C28 UNL     1       0.490   8.124  15.888  1.00  0.00     0.020 C 
HETATM   19  C29 UNL     1       0.964   8.824  13.443  1.00  0.00     0.002 C 
HETATM   20  C30 UNL     1       2.307   8.064  13.361  1.00  0.00     0.007 C 
HETATM   21  C31 UNL     1       2.162   6.611  12.911  1.00  0.00     0.014 C 
HETATM   22  C32 UNL     1       1.397   6.382  11.566  1.00  0.00     0.003 C 
HETATM   23  C33 UNL     1       0.795   4.955  11.642  1.00  0.00     0.020 C 
ENDROOT
BRANCH   3  24
HETATM   24  O1  UNL     1       1.644   5.877   9.155  1.00  0.00    -0.377 OA
HETATM   25  H2  UNL     1       0.717   6.152   9.101  1.00  0.00     0.211 HD
ENDBRANCH   3  24
BRANCH  13  26
HETATM   26  O2  UNL     1       0.317  12.897  18.373  1.00  0.00    -0.271 OA
BRANCH  26  27
HETATM   27  C13 UNL     1       0.294  12.004  19.481  1.00  0.00     0.303 C 
BRANCH  27  28
HETATM   28  C14 UNL     1       1.170  12.510  20.617  1.00  0.00     0.244 C 
HETATM   29  O3  UNL     1       1.208  13.697  20.940  1.00  0.00    -0.271 OA
HETATM   30  N2  UNL     1       1.965  11.533  21.191  1.00  0.00    -0.354 N 
HETATM   31  H16 UNL     1       1.946  10.613  20.751  1.00  0.00     0.162 HD
BRANCH  30  32
HETATM   32  C15 UNL     1       2.993  11.846  22.193  1.00  0.00     0.098 C 
BRANCH  32  33
HETATM   33  C16 UNL     1       3.188  10.617  23.092  1.00  0.00     0.135 C 
BRANCH  33  34
HETATM   34  C17 UNL     1       2.808   9.335  22.415  1.00  0.00     0.141 C 
HETATM   35  O4  UNL     1       2.490   9.206  21.243  1.00  0.00    -0.650 OA
BRANCH  34  36
HETATM   36  O5  UNL     1       2.861   8.271  23.234  1.00  0.00    -0.776 OA
HETATM   37  H20 UNL     1       2.605   7.509  22.669  1.00  0.00     0.167 HD
ENDBRANCH  34  36
ENDBRANCH  33  34
ENDBRANCH  32  33
BRANCH  32  38
HETATM   38  C18 UNL     1       4.265  12.392  21.476  1.00  0.00     0.014 C 
HETATM   39  C19 UNL     1       5.424  12.681  22.452  1.00  0.00     0.033 C 
HETATM   40  C20 UNL     1       6.790  12.404  21.834  1.00  0.00     0.169 C 
HETATM   41  O6  UNL     1       6.822  12.880  20.493  1.00  0.00    -0.381 OA
HETATM   42  C21 UNL     1       5.963  12.169  19.588  1.00  0.00     0.054 C 
HETATM   43  C22 UNL     1       5.506  13.198  18.544  1.00  0.00     0.045 C 
HETATM   44  C23 UNL     1       6.797  11.089  18.888  1.00  0.00     0.045 C 
HETATM   45  C24 UNL     1       4.749  11.530  20.302  1.00  0.00     0.044 C 
ENDBRANCH  32  38
ENDBRANCH  30  32
ENDBRANCH  27  28
ENDBRANCH  26  27
ENDBRANCH  13  26
TORSDOF 9
ENDMDL
