MODEL 1
REMARK minimizedAffinity -10.6286726
REMARK CNNscore 0.488972485
REMARK CNNaffinity 6.90007973
REMARK  9 active torsions:
REMARK  status: ('A' for Active; 'I' for Inactive)
REMARK    1  A    between atoms: C7_8  and  O1_9 
REMARK    2  A    between atoms: O1_9  and  C8_10 
REMARK    3  A    between atoms: C8_10  and  C9_11 
REMARK       I    between atoms: C9_11  and  N1_13 
REMARK    4  A    between atoms: N1_13  and  N2_14 
REMARK    5  A    between atoms: C10_16  and  C11_17 
REMARK    6  A    between atoms: C14_20  and  O3_21 
REMARK    7  A    between atoms: C16_23  and  O4_24 
REMARK    8  A    between atoms: C25_33  and  C26_34 
REMARK    9  A    between atoms: C32_42  and  O7_43 
ROOT
HETATM    1  C11 UNL     1      -3.400   7.673  13.857  1.00  0.00     0.028 C 
HETATM    2  C12 UNL     1      -4.625   8.423  13.257  1.00  0.00     0.021 C 
HETATM    3  C13 UNL     1      -5.861   8.389  14.165  1.00  0.00     0.033 C 
HETATM    4  C14 UNL     1      -6.240   6.982  14.620  1.00  0.00     0.121 C 
HETATM    5  C15 UNL     1      -5.047   6.202  15.177  1.00  0.00     0.070 C 
HETATM    6  C16 UNL     1      -3.826   6.214  14.236  1.00  0.00     0.073 C 
HETATM    7  C17 UNL     1      -2.648   5.411  14.821  1.00  0.00     0.039 C 
HETATM    8  C18 UNL     1      -1.458   5.357  13.842  1.00  0.00     0.011 C 
HETATM    9  C19 UNL     1      -1.008   6.757  13.375  1.00  0.00     0.026 C 
HETATM   10  C20 UNL     1      -2.209   7.610  12.839  1.00  0.00     0.009 C 
HETATM   11  C21 UNL     1      -1.740   9.005  12.354  1.00  0.00     0.007 C 
HETATM   12  C22 UNL     1      -0.573   8.940  11.354  1.00  0.00     0.013 C 
HETATM   13  C23 UNL     1       0.603   8.124  11.916  1.00  0.00    -0.005 C 
HETATM   14  C24 UNL     1       1.217   8.919  13.114  1.00  0.00     0.019 C 
HETATM   15  C25 UNL     1       1.799   7.809  10.955  1.00  0.00     0.028 C 
HETATM   16  C30 UNL     1       2.408   6.511  11.579  1.00  0.00     0.013 C 
HETATM   17  C31 UNL     1       1.389   5.962  12.605  1.00  0.00     0.040 C 
HETATM   18  C32 UNL     1       0.097   6.705  12.290  1.00  0.00     0.070 C 
ENDROOT
BRANCH   1  19
HETATM   19  C10 UNL     1      -2.917   8.425  15.115  1.00  0.00     0.093 C 
HETATM   20  N2  UNL     1      -3.653   8.520  16.184  1.00  0.00    -0.312 N 
ATOM     21  H2  UNL     1      -4.580   8.098  16.238  1.00  0.00     0.185 HD
BRANCH  20  22
HETATM   22  N1  UNL     1      -3.118   9.213  17.225  1.00  0.00    -0.269 N 
HETATM   23  C9  UNL     1      -3.427  10.566  17.372  1.00  0.00     0.260 C 
HETATM   24  O2  UNL     1      -4.122  11.210  16.587  1.00  0.00    -0.269 OA
HETATM   25  H9  UNL     1      -2.458   8.758  17.854  1.00  0.00     0.190 HD
BRANCH  23  26
HETATM   26  C8  UNL     1      -2.778  11.175  18.626  1.00  0.00     0.280 C 
BRANCH  26  27
HETATM   27  O1  UNL     1      -1.734  12.106  18.417  1.00  0.00    -0.342 OA
BRANCH  27  28
HETATM   28  C7  UNL     1      -0.621  12.009  19.212  1.00  0.00     0.075 A 
HETATM   29  C2  UNL     1      -0.064  13.235  19.628  1.00  0.00    -0.027 A 
HETATM   30  C1  UNL     1      -0.714  14.539  19.253  1.00  0.00     0.051 C 
HETATM   31  C3  UNL     1       1.085  13.240  20.437  1.00  0.00     0.033 A 
HETATM   32  C4  UNL     1       1.673  12.035  20.816  1.00  0.00     0.034 A 
HETATM   33 CL1  UNL     1       3.080  12.043  21.812  1.00  0.00    -0.084 Cl
HETATM   34  C5  UNL     1       1.134  10.822  20.395  1.00  0.00     0.026 A 
HETATM   35  C6  UNL     1      -0.012  10.809  19.593  1.00  0.00     0.039 A 
ENDBRANCH  27  28
ENDBRANCH  26  27
ENDBRANCH  23  26
ENDBRANCH  20  22
ENDBRANCH   1  19
BRANCH   6  36
HETATM   36  O4  UNL     1      -4.186   5.437  13.081  1.00  0.00    -0.389 OA
HETATM   37  H19 UNL     1      -4.696   5.984  12.446  1.00  0.00     0.210 HD
ENDBRANCH   6  36
BRANCH   4  38
HETATM   38  O3  UNL     1      -6.805   6.269  13.514  1.00  0.00    -0.395 OA
HETATM   39  H16 UNL     1      -7.595   6.758  13.231  1.00  0.00     0.210 HD
ENDBRANCH   4  38
BRANCH  18  40
HETATM   40  O7  UNL     1      -0.467   6.084  11.124  1.00  0.00    -0.389 OA
HETATM   41  H41 UNL     1      -0.595   5.140  11.301  1.00  0.00     0.210 HD
ENDBRANCH  18  40
BRANCH  15  42
HETATM   42  C26 UNL     1       1.496   7.719   9.480  1.00  0.00    -0.045 A 
HETATM   43  C27 UNL     1       2.186   7.141   8.498  1.00  0.00     0.087 A 
HETATM   44  C28 UNL     1       1.460   7.385   7.249  1.00  0.00     0.283 A 
HETATM   45  O5  UNL     1       1.799   6.974   6.150  1.00  0.00    -0.260 OA
HETATM   46  O6  UNL     1       0.347   8.126   7.514  1.00  0.00    -0.314 OA
HETATM   47  C29 UNL     1       0.293   8.396   8.914  1.00  0.00     0.213 A 
ENDBRANCH  15  42
TORSDOF 9
ENDMDL
MODEL 2
REMARK minimizedAffinity -8.55347443
REMARK CNNscore 0.403201848
REMARK CNNaffinity 6.6223855
REMARK  9 active torsions:
REMARK  status: ('A' for Active; 'I' for Inactive)
REMARK    1  A    between atoms: C7_8  and  O1_9 
REMARK    2  A    between atoms: O1_9  and  C8_10 
REMARK    3  A    between atoms: C8_10  and  C9_11 
REMARK       I    between atoms: C9_11  and  N1_13 
REMARK    4  A    between atoms: N1_13  and  N2_14 
REMARK    5  A    between atoms: C10_16  and  C11_17 
REMARK    6  A    between atoms: C14_20  and  O3_21 
REMARK    7  A    between atoms: C16_23  and  O4_24 
REMARK    8  A    between atoms: C25_33  and  C26_34 
REMARK    9  A    between atoms: C32_42  and  O7_43 
ROOT
HETATM    1  C11 UNL     1      -2.673   7.847  13.561  1.00  0.00     0.028 C 
HETATM    2  C12 UNL     1      -3.951   8.267  12.778  1.00  0.00     0.021 C 
HETATM    3  C13 UNL     1      -5.213   8.300  13.650  1.00  0.00     0.033 C 
HETATM    4  C14 UNL     1      -5.441   7.011  14.436  1.00  0.00     0.121 C 
HETATM    5  C15 UNL     1      -4.189   6.548  15.185  1.00  0.00     0.070 C 
HETATM    6  C16 UNL     1      -2.939   6.483  14.285  1.00  0.00     0.073 C 
HETATM    7  C17 UNL     1      -1.699   6.003  15.066  1.00  0.00     0.039 C 
HETATM    8  C18 UNL     1      -0.470   5.861  14.147  1.00  0.00     0.011 C 
HETATM    9  C19 UNL     1      -0.170   7.150  13.352  1.00  0.00     0.026 C 
HETATM   10  C20 UNL     1      -1.439   7.687  12.606  1.00  0.00     0.009 C 
HETATM   11  C21 UNL     1      -1.119   8.968  11.796  1.00  0.00     0.007 C 
HETATM   12  C22 UNL     1       0.090   8.808  10.858  1.00  0.00     0.013 C 
HETATM   13  C23 UNL     1       1.329   8.310  11.621  1.00  0.00    -0.005 C 
HETATM   14  C24 UNL     1       1.792   9.444  12.591  1.00  0.00     0.019 C 
HETATM   15  C25 UNL     1       2.595   7.922  10.783  1.00  0.00     0.028 C 
HETATM   16  C30 UNL     1       3.326   6.904  11.717  1.00  0.00     0.013 C 
HETATM   17  C31 UNL     1       2.336   6.499  12.835  1.00  0.00     0.040 C 
HETATM   18  C32 UNL     1       0.979   6.973  12.329  1.00  0.00     0.070 C 
ENDROOT
BRANCH   1  19
HETATM   19  C10 UNL     1      -2.338   8.938  14.599  1.00  0.00     0.093 C 
HETATM   20  N2  UNL     1      -2.364  10.204  14.298  1.00  0.00    -0.312 N 
ATOM     21  H2  UNL     1      -2.611  10.530  13.364  1.00  0.00     0.185 HD
BRANCH  20  22
HETATM   22  N1  UNL     1      -2.043  11.068  15.298  1.00  0.00    -0.269 N 
HETATM   23  C9  UNL     1      -3.067  11.706  16.001  1.00  0.00     0.260 C 
HETATM   24  O2  UNL     1      -4.265  11.585  15.747  1.00  0.00    -0.269 OA
HETATM   25  H9  UNL     1      -1.067  11.284  15.491  1.00  0.00     0.190 HD
BRANCH  23  26
HETATM   26  C8  UNL     1      -2.526  12.605  17.124  1.00  0.00     0.280 C 
BRANCH  26  27
HETATM   27  O1  UNL     1      -3.205  13.825  17.350  1.00  0.00    -0.342 OA
BRANCH  27  28
HETATM   28  C7  UNL     1      -3.184  14.343  18.619  1.00  0.00     0.075 A 
HETATM   29  C2  UNL     1      -4.419  14.333  19.298  1.00  0.00    -0.027 A 
HETATM   30  C1  UNL     1      -5.640  13.729  18.661  1.00  0.00     0.051 C 
HETATM   31  C3  UNL     1      -4.502  14.854  20.602  1.00  0.00     0.033 A 
HETATM   32  C4  UNL     1      -3.367  15.384  21.211  1.00  0.00     0.034 A 
HETATM   33 CL1  UNL     1      -3.470  16.017  22.812  1.00  0.00    -0.084 Cl
HETATM   34  C5  UNL     1      -2.148  15.409  20.539  1.00  0.00     0.026 A 
HETATM   35  C6  UNL     1      -2.057  14.889  19.243  1.00  0.00     0.039 A 
ENDBRANCH  27  28
ENDBRANCH  26  27
ENDBRANCH  23  26
ENDBRANCH  20  22
ENDBRANCH   1  19
BRANCH   6  36
HETATM   36  O4  UNL     1      -3.153   5.408  13.355  1.00  0.00    -0.389 OA
HETATM   37  H19 UNL     1      -3.696   5.714  12.598  1.00  0.00     0.210 HD
ENDBRANCH   6  36
BRANCH   4  38
HETATM   38  O3  UNL     1      -5.868   5.984  13.535  1.00  0.00    -0.395 OA
HETATM   39  H16 UNL     1      -6.698   6.286  13.128  1.00  0.00     0.210 HD
ENDBRANCH   4  38
BRANCH  18  40
HETATM   40  O7  UNL     1       0.545   6.020  11.346  1.00  0.00    -0.389 OA
HETATM   41  H41 UNL     1       0.522   5.139  11.750  1.00  0.00     0.210 HD
ENDBRANCH  18  40
BRANCH  15  42
HETATM   42  C26 UNL     1       2.369   7.435   9.373  1.00  0.00    -0.045 A 
HETATM   43  C27 UNL     1       1.741   8.023   8.356  1.00  0.00     0.087 A 
HETATM   44  C28 UNL     1       1.776   7.094   7.223  1.00  0.00     0.283 A 
HETATM   45  O5  UNL     1       1.312   7.321   6.116  1.00  0.00    -0.260 OA
HETATM   46  O6  UNL     1       2.418   5.952   7.599  1.00  0.00    -0.314 OA
HETATM   47  C29 UNL     1       2.823   6.076   8.962  1.00  0.00     0.213 A 
ENDBRANCH  15  42
TORSDOF 9
ENDMDL
MODEL 3
REMARK minimizedAffinity -9.90683079
REMARK CNNscore 0.400513202
REMARK CNNaffinity 6.58564758
REMARK  9 active torsions:
REMARK  status: ('A' for Active; 'I' for Inactive)
REMARK    1  A    between atoms: C7_8  and  O1_9 
REMARK    2  A    between atoms: O1_9  and  C8_10 
REMARK    3  A    between atoms: C8_10  and  C9_11 
REMARK       I    between atoms: C9_11  and  N1_13 
REMARK    4  A    between atoms: N1_13  and  N2_14 
REMARK    5  A    between atoms: C10_16  and  C11_17 
REMARK    6  A    between atoms: C14_20  and  O3_21 
REMARK    7  A    between atoms: C16_23  and  O4_24 
REMARK    8  A    between atoms: C25_33  and  C26_34 
REMARK    9  A    between atoms: C32_42  and  O7_43 
ROOT
HETATM    1  C11 UNL     1      -3.532   7.623  13.755  1.00  0.00     0.028 C 
HETATM    2  C12 UNL     1      -4.761   8.248  13.033  1.00  0.00     0.021 C 
HETATM    3  C13 UNL     1      -6.045   8.202  13.871  1.00  0.00     0.033 C 
HETATM    4  C14 UNL     1      -6.367   6.811  14.412  1.00  0.00     0.121 C 
HETATM    5  C15 UNL     1      -5.165   6.151  15.093  1.00  0.00     0.070 C 
HETATM    6  C16 UNL     1      -3.893   6.172  14.221  1.00  0.00     0.073 C 
HETATM    7  C17 UNL     1      -2.706   5.490  14.930  1.00  0.00     0.039 C 
HETATM    8  C18 UNL     1      -1.459   5.440  14.025  1.00  0.00     0.011 C 
HETATM    9  C19 UNL     1      -1.065   6.828  13.477  1.00  0.00     0.026 C 
HETATM   10  C20 UNL     1      -2.281   7.561  12.812  1.00  0.00     0.009 C 
HETATM   11  C21 UNL     1      -1.868   8.943  12.247  1.00  0.00     0.007 C 
HETATM   12  C22 UNL     1      -0.641   8.880  11.321  1.00  0.00     0.013 C 
HETATM   13  C23 UNL     1       0.546   8.183  12.008  1.00  0.00    -0.005 C 
HETATM   14  C24 UNL     1       1.040   9.102  13.172  1.00  0.00     0.019 C 
HETATM   15  C25 UNL     1       1.814   7.875  11.141  1.00  0.00     0.028 C 
HETATM   16  C30 UNL     1       2.460   6.668  11.895  1.00  0.00     0.013 C 
HETATM   17  C31 UNL     1       1.416   6.132  12.903  1.00  0.00     0.040 C 
HETATM   18  C32 UNL     1       0.103   6.766  12.462  1.00  0.00     0.070 C 
ENDROOT
BRANCH   1  19
HETATM   19  C10 UNL     1      -3.170   8.494  14.976  1.00  0.00     0.093 C 
HETATM   20  N2  UNL     1      -3.123   8.004  16.181  1.00  0.00    -0.312 N 
ATOM     21  H2  UNL     1      -3.319   7.022  16.369  1.00  0.00     0.185 HD
BRANCH  20  22
HETATM   22  N1  UNL     1      -2.797   8.874  17.173  1.00  0.00    -0.269 N 
HETATM   23  C9  UNL     1      -1.568   9.535  17.123  1.00  0.00     0.260 C 
HETATM   24  O2  UNL     1      -0.714   9.349  16.258  1.00  0.00    -0.269 OA
HETATM   25  H9  UNL     1      -3.422   8.998  17.968  1.00  0.00     0.190 HD
BRANCH  23  26
HETATM   26  C8  UNL     1      -1.388  10.514  18.295  1.00  0.00     0.280 C 
BRANCH  26  27
HETATM   27  O1  UNL     1      -1.533  11.891  18.005  1.00  0.00    -0.342 OA
BRANCH  27  28
HETATM   28  C7  UNL     1      -2.529  12.579  18.648  1.00  0.00     0.075 A 
HETATM   29  C2  UNL     1      -2.194  13.882  19.066  1.00  0.00    -0.027 A 
HETATM   30  C1  UNL     1      -0.843  14.464  18.754  1.00  0.00     0.051 C 
HETATM   31  C3  UNL     1      -3.146  14.664  19.743  1.00  0.00     0.033 A 
HETATM   32  C4  UNL     1      -4.412  14.143  20.006  1.00  0.00     0.034 A 
HETATM   33 CL1  UNL     1      -5.580  15.105  20.833  1.00  0.00    -0.084 Cl
HETATM   34  C5  UNL     1      -4.742  12.851  19.607  1.00  0.00     0.026 A 
HETATM   35  C6  UNL     1      -3.801  12.069  18.929  1.00  0.00     0.039 A 
ENDBRANCH  27  28
ENDBRANCH  26  27
ENDBRANCH  23  26
ENDBRANCH  20  22
ENDBRANCH   1  19
BRANCH   6  36
HETATM   36  O4  UNL     1      -4.137   5.290  13.112  1.00  0.00    -0.389 OA
HETATM   37  H19 UNL     1      -4.639   5.756  12.410  1.00  0.00     0.210 HD
ENDBRANCH   6  36
BRANCH   4  38
HETATM   38  O3  UNL     1      -6.821   5.984  13.336  1.00  0.00    -0.395 OA
HETATM   39  H16 UNL     1      -7.621   6.400  12.972  1.00  0.00     0.210 HD
ENDBRANCH   4  38
BRANCH  18  40
HETATM   40  O7  UNL     1      -0.353   6.027  11.318  1.00  0.00    -0.389 OA
HETATM   41  H41 UNL     1      -0.435   5.092  11.559  1.00  0.00     0.210 HD
ENDBRANCH  18  40
BRANCH  15  42
HETATM   42  C26 UNL     1       1.604   7.657   9.663  1.00  0.00    -0.045 A 
HETATM   43  C27 UNL     1       2.231   6.836   8.821  1.00  0.00     0.087 A 
HETATM   44  C28 UNL     1       1.661   7.054   7.489  1.00  0.00     0.283 A 
HETATM   45  O5  UNL     1       1.987   6.449   6.480  1.00  0.00    -0.260 OA
HETATM   46  O6  UNL     1       0.706   8.023   7.563  1.00  0.00    -0.314 OA
HETATM   47  C29 UNL     1       0.608   8.475   8.913  1.00  0.00     0.213 A 
ENDBRANCH  15  42
TORSDOF 9
ENDMDL
MODEL 4
REMARK minimizedAffinity -10.730731
REMARK CNNscore 0.381148458
REMARK CNNaffinity 7.23218775
REMARK  9 active torsions:
REMARK  status: ('A' for Active; 'I' for Inactive)
REMARK    1  A    between atoms: C7_8  and  O1_9 
REMARK    2  A    between atoms: O1_9  and  C8_10 
REMARK    3  A    between atoms: C8_10  and  C9_11 
REMARK       I    between atoms: C9_11  and  N1_13 
REMARK    4  A    between atoms: N1_13  and  N2_14 
REMARK    5  A    between atoms: C10_16  and  C11_17 
REMARK    6  A    between atoms: C14_20  and  O3_21 
REMARK    7  A    between atoms: C16_23  and  O4_24 
REMARK    8  A    between atoms: C25_33  and  C26_34 
REMARK    9  A    between atoms: C32_42  and  O7_43 
ROOT
HETATM    1  C11 UNL     1      -0.646   7.932  13.815  1.00  0.00     0.028 C 
HETATM    2  C12 UNL     1      -0.297   8.163  15.313  1.00  0.00     0.021 C 
HETATM    3  C13 UNL     1      -1.535   8.296  16.211  1.00  0.00     0.033 C 
HETATM    4  C14 UNL     1      -2.539   9.330  15.709  1.00  0.00     0.121 C 
HETATM    5  C15 UNL     1      -2.872   9.155  14.225  1.00  0.00     0.070 C 
HETATM    6  C16 UNL     1      -1.618   9.062  13.333  1.00  0.00     0.073 C 
HETATM    7  C17 UNL     1      -1.987   8.899  11.845  1.00  0.00     0.039 C 
HETATM    8  C18 UNL     1      -0.734   8.888  10.948  1.00  0.00     0.011 C 
HETATM    9  C19 UNL     1       0.304   7.834  11.389  1.00  0.00     0.026 C 
HETATM   10  C20 UNL     1       0.639   7.945  12.916  1.00  0.00     0.009 C 
HETATM   11  C21 UNL     1       1.697   6.896  13.341  1.00  0.00     0.007 C 
HETATM   12  C22 UNL     1       2.958   6.913  12.459  1.00  0.00     0.013 C 
HETATM   13  C23 UNL     1       2.603   6.771  10.969  1.00  0.00    -0.005 C 
HETATM   14  C24 UNL     1       2.039   5.332  10.739  1.00  0.00     0.019 C 
HETATM   15  C25 UNL     1       3.755   6.950   9.923  1.00  0.00     0.028 C 
HETATM   16  C30 UNL     1       2.985   7.396   8.638  1.00  0.00     0.013 C 
HETATM   17  C31 UNL     1       1.547   7.776   9.060  1.00  0.00     0.040 C 
HETATM   18  C32 UNL     1       1.621   7.908  10.577  1.00  0.00     0.070 C 
ENDROOT
BRANCH   1  19
HETATM   19  C10 UNL     1      -1.323   6.554  13.662  1.00  0.00     0.093 C 
HETATM   20  N2  UNL     1      -0.763   5.582  13.003  1.00  0.00    -0.312 N 
ATOM     21  H2  UNL     1       0.150   5.688  12.562  1.00  0.00     0.185 HD
BRANCH  20  22
HETATM   22  N1  UNL     1      -1.462   4.418  12.935  1.00  0.00    -0.269 N 
HETATM   23  C9  UNL     1      -1.688   3.831  11.689  1.00  0.00     0.260 C 
HETATM   24  O2  UNL     1      -1.340   4.322  10.616  1.00  0.00    -0.269 OA
HETATM   25  H9  UNL     1      -1.860   4.012  13.781  1.00  0.00     0.190 HD
BRANCH  23  26
HETATM   26  C8  UNL     1      -2.448   2.500  11.804  1.00  0.00     0.280 C 
BRANCH  26  27
HETATM   27  O1  UNL     1      -3.747   2.456  11.248  1.00  0.00    -0.342 OA
BRANCH  27  28
HETATM   28  C7  UNL     1      -4.741   3.153  11.886  1.00  0.00     0.075 A 
HETATM   29  C2  UNL     1      -6.010   2.540  11.883  1.00  0.00    -0.027 A 
HETATM   30  C1  UNL     1      -6.205   1.183  11.265  1.00  0.00     0.051 C 
HETATM   31  C3  UNL     1      -7.096   3.183  12.503  1.00  0.00     0.033 A 
HETATM   32  C4  UNL     1      -6.915   4.425  13.108  1.00  0.00     0.034 A 
HETATM   33 CL1  UNL     1      -8.247   5.209  13.872  1.00  0.00    -0.084 Cl
HETATM   34  C5  UNL     1      -5.666   5.040  13.101  1.00  0.00     0.026 A 
HETATM   35  C6  UNL     1      -4.579   4.404  12.490  1.00  0.00     0.039 A 
ENDBRANCH  27  28
ENDBRANCH  26  27
ENDBRANCH  23  26
ENDBRANCH  20  22
ENDBRANCH   1  19
BRANCH   6  36
HETATM   36  O4  UNL     1      -0.996  10.359  13.356  1.00  0.00    -0.389 OA
HETATM   37  H19 UNL     1      -0.435  10.455  14.155  1.00  0.00     0.210 HD
ENDBRANCH   6  36
BRANCH   4  38
HETATM   38  O3  UNL     1      -2.011  10.642  15.931  1.00  0.00    -0.395 OA
HETATM   39  H16 UNL     1      -1.874  10.738  16.888  1.00  0.00     0.210 HD
ENDBRANCH   4  38
BRANCH  18  40
HETATM   40  O7  UNL     1       2.234   9.177  10.855  1.00  0.00    -0.389 OA
HETATM   41  H41 UNL     1       1.716   9.876  10.429  1.00  0.00     0.210 HD
ENDBRANCH  18  40
BRANCH  15  42
HETATM   42  C26 UNL     1       4.908   7.843  10.311  1.00  0.00    -0.045 A 
HETATM   43  C27 UNL     1       5.059   9.159  10.160  1.00  0.00     0.087 A 
HETATM   44  C28 UNL     1       6.386   9.509  10.673  1.00  0.00     0.283 A 
HETATM   45  O5  UNL     1       6.846  10.640  10.713  1.00  0.00    -0.260 OA
HETATM   46  O6  UNL     1       7.012   8.379  11.109  1.00  0.00    -0.314 OA
HETATM   47  C29 UNL     1       6.145   7.263  10.906  1.00  0.00     0.213 A 
ENDBRANCH  15  42
TORSDOF 9
ENDMDL
MODEL 5
REMARK minimizedAffinity -10.2047539
REMARK CNNscore 0.291469753
REMARK CNNaffinity 6.43982267
REMARK  9 active torsions:
REMARK  status: ('A' for Active; 'I' for Inactive)
REMARK    1  A    between atoms: C7_8  and  O1_9 
REMARK    2  A    between atoms: O1_9  and  C8_10 
REMARK    3  A    between atoms: C8_10  and  C9_11 
REMARK       I    between atoms: C9_11  and  N1_13 
REMARK    4  A    between atoms: N1_13  and  N2_14 
REMARK    5  A    between atoms: C10_16  and  C11_17 
REMARK    6  A    between atoms: C14_20  and  O3_21 
REMARK    7  A    between atoms: C16_23  and  O4_24 
REMARK    8  A    between atoms: C25_33  and  C26_34 
REMARK    9  A    between atoms: C32_42  and  O7_43 
ROOT
HETATM    1  C11 UNL     1      -3.759   7.497  13.819  1.00  0.00     0.028 C 
HETATM    2  C12 UNL     1      -5.017   8.052  13.092  1.00  0.00     0.021 C 
HETATM    3  C13 UNL     1      -6.301   7.931  13.923  1.00  0.00     0.033 C 
HETATM    4  C14 UNL     1      -6.546   6.522  14.459  1.00  0.00     0.121 C 
HETATM    5  C15 UNL     1      -5.312   5.930  15.144  1.00  0.00     0.070 C 
HETATM    6  C16 UNL     1      -4.038   6.026  14.279  1.00  0.00     0.073 C 
HETATM    7  C17 UNL     1      -2.818   5.410  14.993  1.00  0.00     0.039 C 
HETATM    8  C18 UNL     1      -1.566   5.434  14.095  1.00  0.00     0.011 C 
HETATM    9  C19 UNL     1      -1.249   6.844  13.552  1.00  0.00     0.026 C 
HETATM   10  C20 UNL     1      -2.501   7.509  12.883  1.00  0.00     0.009 C 
HETATM   11  C21 UNL     1      -2.164   8.914  12.324  1.00  0.00     0.007 C 
HETATM   12  C22 UNL     1      -0.931   8.923  11.404  1.00  0.00     0.013 C 
HETATM   13  C23 UNL     1       0.290   8.293  12.096  1.00  0.00    -0.005 C 
HETATM   14  C24 UNL     1       0.725   9.234  13.265  1.00  0.00     0.019 C 
HETATM   15  C25 UNL     1       1.578   8.060  11.235  1.00  0.00     0.028 C 
HETATM   16  C30 UNL     1       2.288   6.889  11.989  1.00  0.00     0.013 C 
HETATM   17  C31 UNL     1       1.271   6.292  12.990  1.00  0.00     0.040 C 
HETATM   18  C32 UNL     1      -0.074   6.852  12.543  1.00  0.00     0.070 C 
ENDROOT
BRANCH   1  19
HETATM   19  C10 UNL     1      -3.453   8.383  15.045  1.00  0.00     0.093 C 
HETATM   20  N2  UNL     1      -3.045   7.879  16.173  1.00  0.00    -0.312 N 
ATOM     21  H2  UNL     1      -2.907   6.877  16.295  1.00  0.00     0.185 HD
BRANCH  20  22
HETATM   22  N1  UNL     1      -2.815   8.764  17.180  1.00  0.00    -0.269 N 
HETATM   23  C9  UNL     1      -1.614   9.476  17.199  1.00  0.00     0.260 C 
HETATM   24  O2  UNL     1      -0.704   9.325  16.386  1.00  0.00    -0.269 OA
HETATM   25  H9  UNL     1      -3.490   8.862  17.937  1.00  0.00     0.190 HD
BRANCH  23  26
HETATM   26  C8  UNL     1      -1.545  10.463  18.376  1.00  0.00     0.280 C 
BRANCH  26  27
HETATM   27  O1  UNL     1      -0.512  11.428  18.340  1.00  0.00    -0.342 OA
BRANCH  27  28
HETATM   28  C7  UNL     1       0.626  11.175  19.062  1.00  0.00     0.075 A 
HETATM   29  C2  UNL     1       1.838  11.364  18.369  1.00  0.00    -0.027 A 
HETATM   30  C1  UNL     1       1.842  11.869  16.953  1.00  0.00     0.051 C 
HETATM   31  C3  UNL     1       3.059  11.119  19.021  1.00  0.00     0.033 A 
HETATM   32  C4  UNL     1       3.065  10.682  20.345  1.00  0.00     0.034 A 
HETATM   33 CL1  UNL     1       4.564  10.388  21.144  1.00  0.00    -0.084 Cl
HETATM   34  C5  UNL     1       1.869  10.481  21.028  1.00  0.00     0.026 A 
HETATM   35  C6  UNL     1       0.650  10.727  20.387  1.00  0.00     0.039 A 
ENDBRANCH  27  28
ENDBRANCH  26  27
ENDBRANCH  23  26
ENDBRANCH  20  22
ENDBRANCH   1  19
BRANCH   6  36
HETATM   36  O4  UNL     1      -4.226   5.135  13.166  1.00  0.00    -0.389 OA
HETATM   37  H19 UNL     1      -4.750   5.573  12.463  1.00  0.00     0.210 HD
ENDBRANCH   6  36
BRANCH   4  38
HETATM   38  O3  UNL     1      -6.947   5.674  13.377  1.00  0.00    -0.395 OA
HETATM   39  H16 UNL     1      -7.767   6.045  13.011  1.00  0.00     0.210 HD
ENDBRANCH   4  38
BRANCH  18  40
HETATM   40  O7  UNL     1      -0.480   6.091  11.395  1.00  0.00    -0.389 OA
HETATM   41  H41 UNL     1      -0.511   5.153  11.633  1.00  0.00     0.210 HD
ENDBRANCH  18  40
BRANCH  15  42
HETATM   42  C26 UNL     1       1.389   7.835   9.755  1.00  0.00    -0.045 A 
HETATM   43  C27 UNL     1       2.147   7.164   8.888  1.00  0.00     0.087 A 
HETATM   44  C28 UNL     1       1.523   7.296   7.568  1.00  0.00     0.283 A 
HETATM   45  O5  UNL     1       1.942   6.783   6.542  1.00  0.00    -0.260 OA
HETATM   46  O6  UNL     1       0.403   8.065   7.675  1.00  0.00    -0.314 OA
HETATM   47  C29 UNL     1       0.244   8.464   9.036  1.00  0.00     0.213 A 
ENDBRANCH  15  42
TORSDOF 9
ENDMDL
MODEL 6
REMARK minimizedAffinity -9.58820438
REMARK CNNscore 0.286304146
REMARK CNNaffinity 6.67575598
REMARK  9 active torsions:
REMARK  status: ('A' for Active; 'I' for Inactive)
REMARK    1  A    between atoms: C7_8  and  O1_9 
REMARK    2  A    between atoms: O1_9  and  C8_10 
REMARK    3  A    between atoms: C8_10  and  C9_11 
REMARK       I    between atoms: C9_11  and  N1_13 
REMARK    4  A    between atoms: N1_13  and  N2_14 
REMARK    5  A    between atoms: C10_16  and  C11_17 
REMARK    6  A    between atoms: C14_20  and  O3_21 
REMARK    7  A    between atoms: C16_23  and  O4_24 
REMARK    8  A    between atoms: C25_33  and  C26_34 
REMARK    9  A    between atoms: C32_42  and  O7_43 
ROOT
HETATM    1  C11 UNL     1      -3.619   7.561  13.818  1.00  0.00     0.028 C 
HETATM    2  C12 UNL     1      -4.860   8.149  13.086  1.00  0.00     0.021 C 
HETATM    3  C13 UNL     1      -6.147   8.073  13.917  1.00  0.00     0.033 C 
HETATM    4  C14 UNL     1      -6.435   6.677  14.463  1.00  0.00     0.121 C 
HETATM    5  C15 UNL     1      -5.220   6.052  15.153  1.00  0.00     0.070 C 
HETATM    6  C16 UNL     1      -3.944   6.102  14.288  1.00  0.00     0.073 C 
HETATM    7  C17 UNL     1      -2.744   5.455  15.007  1.00  0.00     0.039 C 
HETATM    8  C18 UNL     1      -1.491   5.434  14.109  1.00  0.00     0.011 C 
HETATM    9  C19 UNL     1      -1.131   6.829  13.557  1.00  0.00     0.026 C 
HETATM   10  C20 UNL     1      -2.361   7.527  12.882  1.00  0.00     0.009 C 
HETATM   11  C21 UNL     1      -1.981   8.917  12.313  1.00  0.00     0.007 C 
HETATM   12  C22 UNL     1      -0.748   8.882  11.394  1.00  0.00     0.013 C 
HETATM   13  C23 UNL     1       0.453   8.220  12.091  1.00  0.00    -0.005 C 
HETATM   14  C24 UNL     1       0.915   9.156  13.254  1.00  0.00     0.019 C 
HETATM   15  C25 UNL     1       1.733   7.941  11.232  1.00  0.00     0.028 C 
HETATM   16  C30 UNL     1       2.406   6.755  11.996  1.00  0.00     0.013 C 
HETATM   17  C31 UNL     1       1.372   6.196  13.000  1.00  0.00     0.040 C 
HETATM   18  C32 UNL     1       0.044   6.794  12.549  1.00  0.00     0.070 C 
ENDROOT
BRANCH   1  19
HETATM   19  C10 UNL     1      -3.287   8.446  15.037  1.00  0.00     0.093 C 
HETATM   20  N2  UNL     1      -3.010   7.937  16.201  1.00  0.00    -0.312 N 
ATOM     21  H2  UNL     1      -2.996   6.929  16.358  1.00  0.00     0.185 HD
BRANCH  20  22
HETATM   22  N1  UNL     1      -2.739   8.822  17.198  1.00  0.00    -0.269 N 
HETATM   23  C9  UNL     1      -1.610   9.636  17.096  1.00  0.00     0.260 C 
HETATM   24  O2  UNL     1      -0.792   9.580  16.179  1.00  0.00    -0.269 OA
HETATM   25  H9  UNL     1      -3.326   8.848  18.030  1.00  0.00     0.190 HD
BRANCH  23  26
HETATM   26  C8  UNL     1      -1.488  10.607  18.282  1.00  0.00     0.280 C 
BRANCH  26  27
HETATM   27  O1  UNL     1      -2.651  11.326  18.643  1.00  0.00    -0.342 OA
BRANCH  27  28
HETATM   28  C7  UNL     1      -3.075  12.321  17.801  1.00  0.00     0.075 A 
HETATM   29  C2  UNL     1      -2.596  13.613  18.099  1.00  0.00    -0.027 A 
HETATM   30  C1  UNL     1      -1.638  13.832  19.237  1.00  0.00     0.051 C 
HETATM   31  C3  UNL     1      -2.984  14.702  17.299  1.00  0.00     0.033 A 
HETATM   32  C4  UNL     1      -3.845  14.501  16.222  1.00  0.00     0.034 A 
HETATM   33 CL1  UNL     1      -4.315  15.838  15.240  1.00  0.00    -0.084 Cl
HETATM   34  C5  UNL     1      -4.331  13.230  15.933  1.00  0.00     0.026 A 
HETATM   35  C6  UNL     1      -3.947  12.140  16.722  1.00  0.00     0.039 A 
ENDBRANCH  27  28
ENDBRANCH  26  27
ENDBRANCH  23  26
ENDBRANCH  20  22
ENDBRANCH   1  19
BRANCH   6  36
HETATM   36  O4  UNL     1      -4.159   5.210  13.182  1.00  0.00    -0.389 OA
HETATM   37  H19 UNL     1      -4.669   5.659  12.475  1.00  0.00     0.210 HD
ENDBRANCH   6  36
BRANCH   4  38
HETATM   38  O3  UNL     1      -6.862   5.834  13.387  1.00  0.00    -0.395 OA
HETATM   39  H16 UNL     1      -7.670   6.227  13.018  1.00  0.00     0.210 HD
ENDBRANCH   4  38
BRANCH  18  40
HETATM   40  O7  UNL     1      -0.385   6.038  11.405  1.00  0.00    -0.389 OA
HETATM   41  H41 UNL     1      -0.444   5.102  11.651  1.00  0.00     0.210 HD
ENDBRANCH  18  40
BRANCH  15  42
HETATM   42  C26 UNL     1       1.538   7.711   9.754  1.00  0.00    -0.045 A 
HETATM   43  C27 UNL     1       2.214   6.930   8.913  1.00  0.00     0.087 A 
HETATM   44  C28 UNL     1       1.632   7.114   7.580  1.00  0.00     0.283 A 
HETATM   45  O5  UNL     1       1.995   6.529   6.571  1.00  0.00    -0.260 OA
HETATM   46  O6  UNL     1       0.619   8.023   7.654  1.00  0.00    -0.314 OA
HETATM   47  C29 UNL     1       0.494   8.467   9.004  1.00  0.00     0.213 A 
ENDBRANCH  15  42
TORSDOF 9
ENDMDL
MODEL 7
REMARK minimizedAffinity -7.58328056
REMARK CNNscore 0.242716029
REMARK CNNaffinity 5.74910116
REMARK  9 active torsions:
REMARK  status: ('A' for Active; 'I' for Inactive)
REMARK    1  A    between atoms: C7_8  and  O1_9 
REMARK    2  A    between atoms: O1_9  and  C8_10 
REMARK    3  A    between atoms: C8_10  and  C9_11 
REMARK       I    between atoms: C9_11  and  N1_13 
REMARK    4  A    between atoms: N1_13  and  N2_14 
REMARK    5  A    between atoms: C10_16  and  C11_17 
REMARK    6  A    between atoms: C14_20  and  O3_21 
REMARK    7  A    between atoms: C16_23  and  O4_24 
REMARK    8  A    between atoms: C25_33  and  C26_34 
REMARK    9  A    between atoms: C32_42  and  O7_43 
ROOT
HETATM    1  C11 UNL     1      -2.034  10.397  16.465  1.00  0.00     0.028 C 
HETATM    2  C12 UNL     1      -2.277   8.921  16.895  1.00  0.00     0.021 C 
HETATM    3  C13 UNL     1      -1.376   7.920  16.162  1.00  0.00     0.033 C 
HETATM    4  C14 UNL     1      -1.413   8.069  14.643  1.00  0.00     0.121 C 
HETATM    5  C15 UNL     1      -1.219   9.517  14.188  1.00  0.00     0.070 C 
HETATM    6  C16 UNL     1      -2.160  10.506  14.907  1.00  0.00     0.073 C 
HETATM    7  C17 UNL     1      -1.947  11.952  14.419  1.00  0.00     0.039 C 
HETATM    8  C18 UNL     1      -2.943  12.926  15.079  1.00  0.00     0.011 C 
HETATM    9  C19 UNL     1      -2.922  12.843  16.620  1.00  0.00     0.026 C 
HETATM   10  C20 UNL     1      -3.071  11.368  17.130  1.00  0.00     0.009 C 
HETATM   11  C21 UNL     1      -3.070  11.302  18.678  1.00  0.00     0.007 C 
HETATM   12  C22 UNL     1      -4.088  12.254  19.328  1.00  0.00     0.013 C 
HETATM   13  C23 UNL     1      -3.901  13.699  18.834  1.00  0.00    -0.005 C 
HETATM   14  C24 UNL     1      -2.536  14.226  19.382  1.00  0.00     0.019 C 
HETATM   15  C25 UNL     1      -4.971  14.761  19.260  1.00  0.00     0.028 C 
HETATM   16  C30 UNL     1      -4.863  15.830  18.125  1.00  0.00     0.013 C 
HETATM   17  C31 UNL     1      -4.039  15.210  16.973  1.00  0.00     0.040 C 
HETATM   18  C32 UNL     1      -4.013  13.719  17.286  1.00  0.00     0.070 C 
ENDROOT
BRANCH   1  19
HETATM   19  C10 UNL     1      -0.621  10.825  16.911  1.00  0.00     0.093 C 
HETATM   20  N2  UNL     1       0.078  10.119  17.752  1.00  0.00    -0.312 N 
ATOM     21  H2  UNL     1      -0.277   9.250  18.149  1.00  0.00     0.185 HD
BRANCH  20  22
HETATM   22  N1  UNL     1       1.307  10.605  18.071  1.00  0.00    -0.269 N 
HETATM   23  C9  UNL     1       1.666  10.717  19.416  1.00  0.00     0.260 C 
HETATM   24  O2  UNL     1       0.921  10.452  20.359  1.00  0.00    -0.269 OA
HETATM   25  H9  UNL     1       1.933  10.931  17.337  1.00  0.00     0.190 HD
BRANCH  23  26
HETATM   26  C8  UNL     1       3.103  11.234  19.590  1.00  0.00     0.280 C 
BRANCH  26  27
HETATM   27  O1  UNL     1       3.336  12.123  20.665  1.00  0.00    -0.342 OA
BRANCH  27  28
HETATM   28  C7  UNL     1       4.604  12.181  21.185  1.00  0.00     0.075 A 
HETATM   29  C2  UNL     1       4.747  11.674  22.492  1.00  0.00    -0.027 A 
HETATM   30  C1  UNL     1       3.576  11.063  23.210  1.00  0.00     0.051 C 
HETATM   31  C3  UNL     1       6.007  11.699  23.115  1.00  0.00     0.033 A 
HETATM   32  C4  UNL     1       7.104  12.233  22.442  1.00  0.00     0.034 A 
HETATM   33 CL1  UNL     1       8.649  12.258  23.207  1.00  0.00    -0.084 Cl
HETATM   34  C5  UNL     1       6.964  12.748  21.157  1.00  0.00     0.026 A 
HETATM   35  C6  UNL     1       5.714  12.722  20.528  1.00  0.00     0.039 A 
ENDBRANCH  27  28
ENDBRANCH  26  27
ENDBRANCH  23  26
ENDBRANCH  20  22
ENDBRANCH   1  19
BRANCH   6  36
HETATM   36  O4  UNL     1      -3.491  10.218  14.448  1.00  0.00    -0.389 OA
HETATM   37  H19 UNL     1      -3.873   9.469  14.954  1.00  0.00     0.210 HD
ENDBRANCH   6  36
BRANCH   4  38
HETATM   38  O3  UNL     1      -2.667   7.577  14.156  1.00  0.00    -0.395 OA
HETATM   39  H16 UNL     1      -2.724   6.640  14.407  1.00  0.00     0.210 HD
ENDBRANCH   4  38
BRANCH  18  40
HETATM   40  O7  UNL     1      -5.292  13.190  16.900  1.00  0.00    -0.389 OA
HETATM   41  H41 UNL     1      -5.444  13.387  15.963  1.00  0.00     0.210 HD
ENDBRANCH  18  40
BRANCH  15  42
HETATM   42  C26 UNL     1      -6.370  14.263  19.528  1.00  0.00    -0.045 A 
HETATM   43  C27 UNL     1      -6.837  13.525  20.535  1.00  0.00     0.087 A 
HETATM   44  C28 UNL     1      -8.263  13.295  20.284  1.00  0.00     0.283 A 
HETATM   45  O5  UNL     1      -9.012  12.674  21.022  1.00  0.00    -0.260 OA
HETATM   46  O6  UNL     1      -8.615  13.894  19.111  1.00  0.00    -0.314 OA
HETATM   47  C29 UNL     1      -7.466  14.529  18.552  1.00  0.00     0.213 A 
ENDBRANCH  15  42
TORSDOF 9
ENDMDL
MODEL 8
REMARK minimizedAffinity -7.95392227
REMARK CNNscore 0.237345606
REMARK CNNaffinity 6.48003006
REMARK  9 active torsions:
REMARK  status: ('A' for Active; 'I' for Inactive)
REMARK    1  A    between atoms: C7_8  and  O1_9 
REMARK    2  A    between atoms: O1_9  and  C8_10 
REMARK    3  A    between atoms: C8_10  and  C9_11 
REMARK       I    between atoms: C9_11  and  N1_13 
REMARK    4  A    between atoms: N1_13  and  N2_14 
REMARK    5  A    between atoms: C10_16  and  C11_17 
REMARK    6  A    between atoms: C14_20  and  O3_21 
REMARK    7  A    between atoms: C16_23  and  O4_24 
REMARK    8  A    between atoms: C25_33  and  C26_34 
REMARK    9  A    between atoms: C32_42  and  O7_43 
ROOT
HETATM    1  C11 UNL     1     -13.230   8.477  14.748  1.00  0.00     0.028 C 
HETATM    2  C12 UNL     1     -14.052   7.489  15.624  1.00  0.00     0.021 C 
HETATM    3  C13 UNL     1     -14.350   6.157  14.922  1.00  0.00     0.033 C 
HETATM    4  C14 UNL     1     -14.977   6.328  13.540  1.00  0.00     0.121 C 
HETATM    5  C15 UNL     1     -14.214   7.327  12.667  1.00  0.00     0.070 C 
HETATM    6  C16 UNL     1     -13.958   8.673  13.374  1.00  0.00     0.073 C 
HETATM    7  C17 UNL     1     -13.199   9.660  12.464  1.00  0.00     0.039 C 
HETATM    8  C18 UNL     1     -13.016  11.031  13.144  1.00  0.00     0.011 C 
HETATM    9  C19 UNL     1     -12.351  10.922  14.533  1.00  0.00     0.026 C 
HETATM   10  C20 UNL     1     -13.073   9.872  15.447  1.00  0.00     0.009 C 
HETATM   11  C21 UNL     1     -12.410   9.788  16.844  1.00  0.00     0.007 C 
HETATM   12  C22 UNL     1     -12.258  11.157  17.529  1.00  0.00     0.013 C 
HETATM   13  C23 UNL     1     -11.521  12.159  16.624  1.00  0.00    -0.005 C 
HETATM   14  C24 UNL     1     -10.040  11.681  16.476  1.00  0.00     0.019 C 
HETATM   15  C25 UNL     1     -11.443  13.650  17.097  1.00  0.00     0.028 C 
HETATM   16  C30 UNL     1     -11.266  14.427  15.752  1.00  0.00     0.013 C 
HETATM   17  C31 UNL     1     -11.585  13.448  14.599  1.00  0.00     0.040 C 
HETATM   18  C32 UNL     1     -12.286  12.278  15.279  1.00  0.00     0.070 C 
ENDROOT
BRANCH   1  19
HETATM   19  C10 UNL     1     -11.820   7.893  14.519  1.00  0.00     0.093 C 
HETATM   20  N2  UNL     1     -11.364   6.901  15.227  1.00  0.00    -0.312 N 
ATOM     21  H2  UNL     1     -11.920   6.464  15.960  1.00  0.00     0.185 HD
BRANCH  20  22
HETATM   22  N1  UNL     1     -10.104   6.480  14.933  1.00  0.00    -0.269 N 
HETATM   23  C9  UNL     1      -9.052   6.845  15.775  1.00  0.00     0.260 C 
HETATM   24  O2  UNL     1      -9.169   7.578  16.756  1.00  0.00    -0.269 OA
HETATM   25  H9  UNL     1      -9.929   5.951  14.081  1.00  0.00     0.190 HD
BRANCH  23  26
HETATM   26  C8  UNL     1      -7.712   6.243  15.321  1.00  0.00     0.280 C 
BRANCH  26  27
HETATM   27  O1  UNL     1      -7.460   6.220  13.930  1.00  0.00    -0.342 OA
BRANCH  27  28
HETATM   28  C7  UNL     1      -7.156   5.014  13.354  1.00  0.00     0.075 A 
HETATM   29  C2  UNL     1      -5.812   4.850  12.961  1.00  0.00    -0.027 A 
HETATM   30  C1  UNL     1      -4.799   5.928  13.230  1.00  0.00     0.051 C 
HETATM   31  C3  UNL     1      -5.406   3.651  12.352  1.00  0.00     0.033 A 
HETATM   32  C4  UNL     1      -6.333   2.634  12.130  1.00  0.00     0.034 A 
HETATM   33 CL1  UNL     1      -5.830   1.162  11.387  1.00  0.00    -0.084 Cl
HETATM   34  C5  UNL     1      -7.664   2.797  12.504  1.00  0.00     0.026 A 
HETATM   35  C6  UNL     1      -8.076   3.987  13.115  1.00  0.00     0.039 A 
ENDBRANCH  27  28
ENDBRANCH  26  27
ENDBRANCH  23  26
ENDBRANCH  20  22
ENDBRANCH   1  19
BRANCH   6  36
HETATM   36  O4  UNL     1     -15.237   9.312  13.524  1.00  0.00    -0.389 OA
HETATM   37  H19 UNL     1     -15.699   8.970  14.318  1.00  0.00     0.210 HD
ENDBRANCH   6  36
BRANCH   4  38
HETATM   38  O3  UNL     1     -16.333   6.761  13.693  1.00  0.00    -0.395 OA
HETATM   39  H16 UNL     1     -16.799   6.072  14.194  1.00  0.00     0.210 HD
ENDBRANCH   4  38
BRANCH  18  40
HETATM   40  O7  UNL     1     -13.635  12.697  15.540  1.00  0.00    -0.389 OA
HETATM   41  H41 UNL     1     -14.049  12.966  14.706  1.00  0.00     0.210 HD
ENDBRANCH  18  40
BRANCH  15  42
HETATM   42  C26 UNL     1     -12.559  14.156  17.976  1.00  0.00    -0.045 A 
HETATM   43  C27 UNL     1     -13.616  14.907  17.670  1.00  0.00     0.087 A 
HETATM   44  C28 UNL     1     -14.362  15.140  18.910  1.00  0.00     0.283 A 
HETATM   45  O5  UNL     1     -15.403  15.772  18.992  1.00  0.00    -0.260 OA
HETATM   46  O6  UNL     1     -13.717  14.530  19.944  1.00  0.00    -0.314 OA
HETATM   47  C29 UNL     1     -12.547  13.884  19.443  1.00  0.00     0.213 A 
ENDBRANCH  15  42
TORSDOF 9
ENDMDL
MODEL 9
REMARK minimizedAffinity -9.43336201
REMARK CNNscore 0.219681546
REMARK CNNaffinity 7.0074029
REMARK  9 active torsions:
REMARK  status: ('A' for Active; 'I' for Inactive)
REMARK    1  A    between atoms: C7_8  and  O1_9 
REMARK    2  A    between atoms: O1_9  and  C8_10 
REMARK    3  A    between atoms: C8_10  and  C9_11 
REMARK       I    between atoms: C9_11  and  N1_13 
REMARK    4  A    between atoms: N1_13  and  N2_14 
REMARK    5  A    between atoms: C10_16  and  C11_17 
REMARK    6  A    between atoms: C14_20  and  O3_21 
REMARK    7  A    between atoms: C16_23  and  O4_24 
REMARK    8  A    between atoms: C25_33  and  C26_34 
REMARK    9  A    between atoms: C32_42  and  O7_43 
ROOT
HETATM    1  C11 UNL     1       0.448   7.476  11.473  1.00  0.00     0.028 C 
HETATM    2  C12 UNL     1       0.731   8.270  10.165  1.00  0.00     0.021 C 
HETATM    3  C13 UNL     1       1.398   7.423   9.074  1.00  0.00     0.033 C 
HETATM    4  C14 UNL     1       2.645   6.685   9.556  1.00  0.00     0.121 C 
HETATM    5  C15 UNL     1       2.411   5.928  10.865  1.00  0.00     0.070 C 
HETATM    6  C16 UNL     1       1.776   6.804  11.963  1.00  0.00     0.073 C 
HETATM    7  C17 UNL     1       1.565   6.015  13.271  1.00  0.00     0.039 C 
HETATM    8  C18 UNL     1       1.004   6.914  14.391  1.00  0.00     0.011 C 
HETATM    9  C19 UNL     1      -0.280   7.659  13.970  1.00  0.00     0.026 C 
HETATM   10  C20 UNL     1      -0.100   8.412  12.606  1.00  0.00     0.009 C 
HETATM   11  C21 UNL     1      -1.389   9.172  12.206  1.00  0.00     0.007 C 
HETATM   12  C22 UNL     1      -1.924  10.090  13.318  1.00  0.00     0.013 C 
HETATM   13  C23 UNL     1      -2.120   9.321  14.635  1.00  0.00    -0.005 C 
HETATM   14  C24 UNL     1      -3.290   8.304  14.434  1.00  0.00     0.019 C 
HETATM   15  C25 UNL     1      -2.487  10.146  15.916  1.00  0.00     0.028 C 
HETATM   16  C30 UNL     1      -1.968   9.232  17.073  1.00  0.00     0.013 C 
HETATM   17  C31 UNL     1      -1.061   8.148  16.444  1.00  0.00     0.040 C 
HETATM   18  C32 UNL     1      -0.772   8.665  15.040  1.00  0.00     0.070 C 
ENDROOT
BRANCH   1  19
HETATM   19  C10 UNL     1      -0.615   6.396  11.186  1.00  0.00     0.093 C 
HETATM   20  N2  UNL     1      -0.309   5.134  11.106  1.00  0.00    -0.312 N 
ATOM     21  H2  UNL     1       0.647   4.804  11.233  1.00  0.00     0.185 HD
BRANCH  20  22
HETATM   22  N1  UNL     1      -1.334   4.280  10.843  1.00  0.00    -0.269 N 
HETATM   23  C9  UNL     1      -1.236   2.951  11.258  1.00  0.00     0.260 C 
HETATM   24  O2  UNL     1      -0.250   2.466  11.812  1.00  0.00    -0.269 OA
HETATM   25  H9  UNL     1      -2.137   4.598  10.303  1.00  0.00     0.190 HD
BRANCH  23  26
HETATM   26  C8  UNL     1      -2.502   2.145  10.924  1.00  0.00     0.280 C 
BRANCH  26  27
HETATM   27  O1  UNL     1      -3.387   1.872  11.992  1.00  0.00    -0.342 OA
BRANCH  27  28
HETATM   28  C7  UNL     1      -4.320   2.825  12.309  1.00  0.00     0.075 A 
HETATM   29  C2  UNL     1      -5.640   2.539  11.906  1.00  0.00    -0.027 A 
HETATM   30  C1  UNL     1      -5.971   1.237  11.232  1.00  0.00     0.051 C 
HETATM   31  C3  UNL     1      -6.667   3.461  12.177  1.00  0.00     0.033 A 
HETATM   32  C4  UNL     1      -6.373   4.655  12.832  1.00  0.00     0.034 A 
HETATM   33 CL1  UNL     1      -7.635   5.782  13.166  1.00  0.00    -0.084 Cl
HETATM   34  C5  UNL     1      -5.069   4.948  13.218  1.00  0.00     0.026 A 
HETATM   35  C6  UNL     1      -4.042   4.034  12.957  1.00  0.00     0.039 A 
ENDBRANCH  27  28
ENDBRANCH  26  27
ENDBRANCH  23  26
ENDBRANCH  20  22
ENDBRANCH   1  19
BRANCH   6  36
HETATM   36  O4  UNL     1       2.766   7.774  12.345  1.00  0.00    -0.389 OA
HETATM   37  H19 UNL     1       2.761   8.531  11.721  1.00  0.00     0.210 HD
ENDBRANCH   6  36
BRANCH   4  38
HETATM   38  O3  UNL     1       3.708   7.629   9.731  1.00  0.00    -0.395 OA
HETATM   39  H16 UNL     1       3.870   8.041   8.866  1.00  0.00     0.210 HD
ENDBRANCH   4  38
BRANCH  18  40
HETATM   40  O7  UNL     1       0.228   9.687  15.170  1.00  0.00    -0.389 OA
HETATM   41  H41 UNL     1       1.005   9.314  15.613  1.00  0.00     0.210 HD
ENDBRANCH  18  40
BRANCH  15  42
HETATM   42  C26 UNL     1      -2.010  11.575  15.978  1.00  0.00    -0.045 A 
HETATM   43  C27 UNL     1      -1.011  12.114  16.677  1.00  0.00     0.087 A 
HETATM   44  C28 UNL     1      -1.009  13.553  16.399  1.00  0.00     0.283 A 
HETATM   45  O5  UNL     1      -0.208  14.354  16.856  1.00  0.00    -0.260 OA
HETATM   46  O6  UNL     1      -2.028  13.847  15.542  1.00  0.00    -0.314 OA
HETATM   47  C29 UNL     1      -2.729  12.644  15.227  1.00  0.00     0.213 A 
ENDBRANCH  15  42
TORSDOF 9
ENDMDL
