MODEL 1
REMARK minimizedAffinity -8.76649761
REMARK  12 active torsions:
REMARK  status: ('A' for Active; 'I' for Inactive)
REMARK    1  A    between atoms: C2_2  and  O1_3 
REMARK    2  A    between atoms: C2_2  and  C3_4 
REMARK    3  A    between atoms: C4_5  and  C5_6 
REMARK    4  A    between atoms: C5_6  and  O2_7 
REMARK    5  A    between atoms: C8_10  and  O3_11 
REMARK    6  A    between atoms: O3_11  and  C9_12 
REMARK    7  A    between atoms: C10_14  and  C11_15 
REMARK    8  A    between atoms: C11_15  and  O5_16 
REMARK    9  A    between atoms: C12_17  and  O6_18 
REMARK   10  A    between atoms: C13_19  and  O7_20 
REMARK   11  A    between atoms: C14_21  and  O8_22 
REMARK   12  A    between atoms: C15_23  and  O9_24 
ROOT
HETATM    1  C5  UNL     1      -0.127   5.681  12.647  1.00  0.00     0.088 C 
HETATM    2  C6  UNL     1      -1.543   5.244  12.173  1.00  0.00     0.052 C 
HETATM    3  C7  UNL     1      -1.617   3.782  11.695  1.00  0.00     0.016 C 
HETATM    4  C8  UNL     1      -2.580   5.437  13.311  1.00  0.00     0.160 C 
HETATM    5  C15 UNL     1      -2.278   6.662  14.209  1.00  0.00     0.148 C 
HETATM    6  C16 UNL     1      -1.494   7.735  13.458  1.00  0.00     0.046 C 
HETATM    7  C17 UNL     1      -0.117   7.250  12.917  1.00  0.00    -0.010 C 
HETATM    8  C18 UNL     1       0.977   7.634  13.943  1.00  0.00     0.018 C 
HETATM    9  C19 UNL     1       0.159   8.078  11.635  1.00  0.00     0.018 C 
ENDROOT
BRANCH   4  10
HETATM   10  O3  UNL     1      -3.879   5.609  12.709  1.00  0.00    -0.350 OA
BRANCH  10  11
HETATM   11  C9  UNL     1      -4.779   4.547  13.057  1.00  0.00     0.292 C 
HETATM   12  O4  UNL     1      -4.959   3.710  11.915  1.00  0.00    -0.348 OA
HETATM   13  C10 UNL     1      -5.869   2.631  12.153  1.00  0.00     0.179 C 
HETATM   14  C12 UNL     1      -7.263   3.181  12.494  1.00  0.00     0.180 C 
HETATM   15  C13 UNL     1      -7.161   4.090  13.720  1.00  0.00     0.183 C 
HETATM   16  C14 UNL     1      -6.113   5.181  13.506  1.00  0.00     0.204 C 
BRANCH  13  17
HETATM   17  C11 UNL     1      -5.920   1.735  10.909  1.00  0.00     0.198 C 
BRANCH  17  18
HETATM   18  O5  UNL     1      -5.592   2.450   9.721  1.00  0.00    -0.398 OA
HETATM   19  H18 UNL     1      -4.810   3.007   9.930  1.00  0.00     0.209 HD
ENDBRANCH  17  18
ENDBRANCH  13  17
BRANCH  14  20
HETATM   20  O6  UNL     1      -8.189   2.120  12.761  1.00  0.00    -0.390 OA
HETATM   21  H20 UNL     1      -8.963   2.559  13.172  1.00  0.00     0.210 HD
ENDBRANCH  14  20
BRANCH  15  22
HETATM   22  O7  UNL     1      -8.449   4.669  13.980  1.00  0.00    -0.390 OA
HETATM   23  H22 UNL     1      -8.281   5.418  14.589  1.00  0.00     0.210 HD
ENDBRANCH  15  22
BRANCH  16  24
HETATM   24  O8  UNL     1      -5.995   5.931  14.732  1.00  0.00    -0.388 OA
HETATM   25  H24 UNL     1      -5.306   5.508  15.284  1.00  0.00     0.210 HD
ENDBRANCH  16  24
ENDBRANCH  10  11
ENDBRANCH   4  10
BRANCH   5  26
HETATM   26  O9  UNL     1      -3.503   7.243  14.687  1.00  0.00    -0.393 OA
HETATM   27  H26 UNL     1      -3.946   7.580  13.881  1.00  0.00     0.210 HD
ENDBRANCH   5  26
BRANCH   1  28
HETATM   28  C4  UNL     1       0.951   5.259  11.656  1.00  0.00     0.010 C 
HETATM   29  C3  UNL     1       1.823   6.037  10.988  1.00  0.00     0.003 C 
BRANCH  29  30
HETATM   30  C2  UNL     1       2.877   5.510  10.059  1.00  0.00     0.136 C 
HETATM   31  C1  UNL     1       4.258   6.020  10.443  1.00  0.00     0.043 C 
BRANCH  30  32
HETATM   32  O1  UNL     1       2.855   4.092  10.167  1.00  0.00    -0.392 OA
HETATM   33  H5  UNL     1       3.495   3.745   9.522  1.00  0.00     0.210 HD
ENDBRANCH  30  32
ENDBRANCH  29  30
ENDBRANCH   1  28
BRANCH   1  34
HETATM   34  O2  UNL     1       0.090   4.997  13.891  1.00  0.00    -0.385 OA
HETATM   35  H8  UNL     1       1.021   5.113  14.141  1.00  0.00     0.211 HD
ENDBRANCH   1  34
TORSDOF 12
ENDMDL
MODEL 2
REMARK minimizedAffinity -8.53730202
REMARK  12 active torsions:
REMARK  status: ('A' for Active; 'I' for Inactive)
REMARK    1  A    between atoms: C2_2  and  O1_3 
REMARK    2  A    between atoms: C2_2  and  C3_4 
REMARK    3  A    between atoms: C4_5  and  C5_6 
REMARK    4  A    between atoms: C5_6  and  O2_7 
REMARK    5  A    between atoms: C8_10  and  O3_11 
REMARK    6  A    between atoms: O3_11  and  C9_12 
REMARK    7  A    between atoms: C10_14  and  C11_15 
REMARK    8  A    between atoms: C11_15  and  O5_16 
REMARK    9  A    between atoms: C12_17  and  O6_18 
REMARK   10  A    between atoms: C13_19  and  O7_20 
REMARK   11  A    between atoms: C14_21  and  O8_22 
REMARK   12  A    between atoms: C15_23  and  O9_24 
ROOT
HETATM    1  C5  UNL     1      -0.246   6.270  13.300  1.00  0.00     0.088 C 
HETATM    2  C6  UNL     1      -1.716   6.122  12.810  1.00  0.00     0.052 C 
HETATM    3  C7  UNL     1      -1.914   5.013  11.761  1.00  0.00     0.016 C 
HETATM    4  C8  UNL     1      -2.659   5.834  14.007  1.00  0.00     0.160 C 
HETATM    5  C15 UNL     1      -2.221   6.542  15.313  1.00  0.00     0.148 C 
HETATM    6  C16 UNL     1      -1.421   7.811  15.029  1.00  0.00     0.046 C 
HETATM    7  C17 UNL     1      -0.117   7.567  14.214  1.00  0.00    -0.010 C 
HETATM    8  C18 UNL     1       1.065   7.438  15.205  1.00  0.00     0.018 C 
HETATM    9  C19 UNL     1       0.125   8.859  13.391  1.00  0.00     0.018 C 
ENDROOT
BRANCH   4  10
HETATM   10  O3  UNL     1      -3.983   6.288  13.653  1.00  0.00    -0.350 OA
BRANCH  10  11
HETATM   11  C9  UNL     1      -4.975   5.276  13.874  1.00  0.00     0.292 C 
HETATM   12  O4  UNL     1      -5.111   4.503  12.682  1.00  0.00    -0.348 OA
HETATM   13  C10 UNL     1      -6.106   3.480  12.792  1.00  0.00     0.179 C 
HETATM   14  C12 UNL     1      -7.485   4.109  13.043  1.00  0.00     0.180 C 
HETATM   15  C13 UNL     1      -7.430   4.955  14.316  1.00  0.00     0.183 C 
HETATM   16  C14 UNL     1      -6.299   5.980  14.243  1.00  0.00     0.204 C 
BRANCH  13  17
HETATM   17  C11 UNL     1      -6.109   2.644  11.505  1.00  0.00     0.198 C 
BRANCH  17  18
HETATM   18  O5  UNL     1      -6.729   1.375  11.694  1.00  0.00    -0.398 OA
HETATM   19  H18 UNL     1      -7.547   1.532  12.215  1.00  0.00     0.209 HD
ENDBRANCH  17  18
ENDBRANCH  13  17
BRANCH  14  20
HETATM   20  O6  UNL     1      -8.497   3.103  13.181  1.00  0.00    -0.390 OA
HETATM   21  H20 UNL     1      -9.274   3.577  13.548  1.00  0.00     0.210 HD
ENDBRANCH  14  20
BRANCH  15  22
HETATM   22  O7  UNL     1      -8.695   5.610  14.497  1.00  0.00    -0.390 OA
HETATM   23  H22 UNL     1      -8.532   6.318  15.154  1.00  0.00     0.210 HD
ENDBRANCH  15  22
BRANCH  16  24
HETATM   24  O8  UNL     1      -6.238   6.667  15.508  1.00  0.00    -0.388 OA
HETATM   25  H24 UNL     1      -5.628   6.174  16.095  1.00  0.00     0.210 HD
ENDBRANCH  16  24
ENDBRANCH  10  11
ENDBRANCH   4  10
BRANCH   5  26
HETATM   26  O9  UNL     1      -3.371   6.894  16.099  1.00  0.00    -0.393 OA
HETATM   27  H26 UNL     1      -3.844   7.559  15.558  1.00  0.00     0.210 HD
ENDBRANCH   5  26
BRANCH   1  28
HETATM   28  C4  UNL     1       0.734   6.286  12.133  1.00  0.00     0.010 C 
HETATM   29  C3  UNL     1       1.487   5.275  11.661  1.00  0.00     0.003 C 
BRANCH  29  30
HETATM   30  C2  UNL     1       2.396   5.390  10.472  1.00  0.00     0.136 C 
HETATM   31  C1  UNL     1       3.605   6.261  10.782  1.00  0.00     0.043 C 
BRANCH  30  32
HETATM   32  O1  UNL     1       2.837   4.074  10.158  1.00  0.00    -0.392 OA
HETATM   33  H5  UNL     1       3.377   4.137   9.351  1.00  0.00     0.210 HD
ENDBRANCH  30  32
ENDBRANCH  29  30
ENDBRANCH   1  28
BRANCH   1  34
HETATM   34  O2  UNL     1       0.009   5.110  14.106  1.00  0.00    -0.385 OA
HETATM   35  H8  UNL     1       0.961   5.079  14.299  1.00  0.00     0.211 HD
ENDBRANCH   1  34
TORSDOF 12
ENDMDL
MODEL 3
REMARK minimizedAffinity -8.47924328
REMARK  12 active torsions:
REMARK  status: ('A' for Active; 'I' for Inactive)
REMARK    1  A    between atoms: C2_2  and  O1_3 
REMARK    2  A    between atoms: C2_2  and  C3_4 
REMARK    3  A    between atoms: C4_5  and  C5_6 
REMARK    4  A    between atoms: C5_6  and  O2_7 
REMARK    5  A    between atoms: C8_10  and  O3_11 
REMARK    6  A    between atoms: O3_11  and  C9_12 
REMARK    7  A    between atoms: C10_14  and  C11_15 
REMARK    8  A    between atoms: C11_15  and  O5_16 
REMARK    9  A    between atoms: C12_17  and  O6_18 
REMARK   10  A    between atoms: C13_19  and  O7_20 
REMARK   11  A    between atoms: C14_21  and  O8_22 
REMARK   12  A    between atoms: C15_23  and  O9_24 
ROOT
HETATM    1  C5  UNL     1      -4.148   3.989  12.358  1.00  0.00     0.088 C 
HETATM    2  C6  UNL     1      -3.161   5.187  12.251  1.00  0.00     0.052 C 
HETATM    3  C7  UNL     1      -3.363   6.260  13.337  1.00  0.00     0.016 C 
HETATM    4  C8  UNL     1      -1.694   4.689  12.327  1.00  0.00     0.160 C 
HETATM    5  C15 UNL     1      -1.487   3.301  11.672  1.00  0.00     0.148 C 
HETATM    6  C16 UNL     1      -2.517   3.032  10.578  1.00  0.00     0.046 C 
HETATM    7  C17 UNL     1      -3.991   3.055  11.079  1.00  0.00    -0.010 C 
HETATM    8  C18 UNL     1      -4.428   1.602  11.390  1.00  0.00     0.018 C 
HETATM    9  C19 UNL     1      -4.847   3.534   9.877  1.00  0.00     0.018 C 
ENDROOT
BRANCH   4  10
HETATM   10  O3  UNL     1      -0.858   5.652  11.653  1.00  0.00    -0.350 OA
BRANCH  10  11
HETATM   11  C9  UNL     1       0.429   5.776  12.272  1.00  0.00     0.292 C 
HETATM   12  O4  UNL     1       0.299   6.595  13.433  1.00  0.00    -0.348 OA
HETATM   13  C10 UNL     1       1.544   6.805  14.110  1.00  0.00     0.179 C 
HETATM   14  C12 UNL     1       2.530   7.538  13.188  1.00  0.00     0.180 C 
HETATM   15  C13 UNL     1       2.734   6.718  11.912  1.00  0.00     0.183 C 
HETATM   16  C14 UNL     1       1.395   6.405  11.244  1.00  0.00     0.204 C 
BRANCH  13  17
HETATM   17  C11 UNL     1       1.288   7.608  15.392  1.00  0.00     0.198 C 
BRANCH  17  18
HETATM   18  O5  UNL     1       0.622   6.833  16.385  1.00  0.00    -0.398 OA
HETATM   19  H18 UNL     1       1.059   5.953  16.400  1.00  0.00     0.209 HD
ENDBRANCH  17  18
ENDBRANCH  13  17
BRANCH  14  20
HETATM   20  O6  UNL     1       3.794   7.739  13.834  1.00  0.00    -0.390 OA
HETATM   21  H20 UNL     1       4.404   8.005  13.113  1.00  0.00     0.210 HD
ENDBRANCH  14  20
BRANCH  15  22
HETATM   22  O7  UNL     1       3.586   7.449  11.018  1.00  0.00    -0.390 OA
HETATM   23  H22 UNL     1       3.478   7.020  10.144  1.00  0.00     0.210 HD
ENDBRANCH  15  22
BRANCH  16  24
HETATM   24  O8  UNL     1       1.652   5.546  10.115  1.00  0.00    -0.388 OA
HETATM   25  H24 UNL     1       1.611   4.617  10.421  1.00  0.00     0.210 HD
ENDBRANCH  16  24
ENDBRANCH  10  11
ENDBRANCH   4  10
BRANCH   5  26
HETATM   26  O9  UNL     1      -0.174   3.214  11.093  1.00  0.00    -0.393 OA
HETATM   27  H26 UNL     1      -0.180   3.874  10.370  1.00  0.00     0.210 HD
ENDBRANCH   5  26
BRANCH   1  28
HETATM   28  C4  UNL     1      -5.583   4.463  12.555  1.00  0.00     0.010 C 
HETATM   29  C3  UNL     1      -6.544   3.920  13.327  1.00  0.00     0.003 C 
BRANCH  29  30
HETATM   30  C2  UNL     1      -7.922   4.493  13.480  1.00  0.00     0.136 C 
HETATM   31  C1  UNL     1      -8.124   5.698  12.573  1.00  0.00     0.043 C 
BRANCH  30  32
HETATM   32  O1  UNL     1      -8.840   3.471  13.111  1.00  0.00    -0.392 OA
HETATM   33  H5  UNL     1      -9.735   3.820  13.267  1.00  0.00     0.210 HD
ENDBRANCH  30  32
ENDBRANCH  29  30
ENDBRANCH   1  28
BRANCH   1  34
HETATM   34  O2  UNL     1      -3.737   3.255  13.520  1.00  0.00    -0.385 OA
HETATM   35  H8  UNL     1      -4.421   2.593  13.717  1.00  0.00     0.211 HD
ENDBRANCH   1  34
TORSDOF 12
ENDMDL
MODEL 4
REMARK minimizedAffinity -8.32246971
REMARK  12 active torsions:
REMARK  status: ('A' for Active; 'I' for Inactive)
REMARK    1  A    between atoms: C2_2  and  O1_3 
REMARK    2  A    between atoms: C2_2  and  C3_4 
REMARK    3  A    between atoms: C4_5  and  C5_6 
REMARK    4  A    between atoms: C5_6  and  O2_7 
REMARK    5  A    between atoms: C8_10  and  O3_11 
REMARK    6  A    between atoms: O3_11  and  C9_12 
REMARK    7  A    between atoms: C10_14  and  C11_15 
REMARK    8  A    between atoms: C11_15  and  O5_16 
REMARK    9  A    between atoms: C12_17  and  O6_18 
REMARK   10  A    between atoms: C13_19  and  O7_20 
REMARK   11  A    between atoms: C14_21  and  O8_22 
REMARK   12  A    between atoms: C15_23  and  O9_24 
ROOT
HETATM    1  C5  UNL     1      -6.829   5.867  14.247  1.00  0.00     0.088 C 
HETATM    2  C6  UNL     1      -5.818   6.867  13.614  1.00  0.00     0.052 C 
HETATM    3  C7  UNL     1      -5.759   8.230  14.327  1.00  0.00     0.016 C 
HETATM    4  C8  UNL     1      -4.390   6.260  13.604  1.00  0.00     0.160 C 
HETATM    5  C15 UNL     1      -4.381   4.726  13.391  1.00  0.00     0.148 C 
HETATM    6  C16 UNL     1      -5.609   4.254  12.617  1.00  0.00     0.046 C 
HETATM    7  C17 UNL     1      -6.961   4.583  13.317  1.00  0.00    -0.010 C 
HETATM    8  C18 UNL     1      -7.406   3.344  14.133  1.00  0.00     0.018 C 
HETATM    9  C19 UNL     1      -8.000   4.770  12.180  1.00  0.00     0.018 C 
ENDROOT
BRANCH   4  10
HETATM   10  O3  UNL     1      -3.646   6.884  12.536  1.00  0.00    -0.350 OA
BRANCH  10  11
HETATM   11  C9  UNL     1      -2.276   7.111  12.896  1.00  0.00     0.292 C 
HETATM   12  O4  UNL     1      -1.477   6.077  12.321  1.00  0.00    -0.348 OA
HETATM   13  C10 UNL     1      -0.089   6.199  12.650  1.00  0.00     0.179 C 
HETATM   14  C12 UNL     1       0.107   6.085  14.169  1.00  0.00     0.180 C 
HETATM   15  C13 UNL     1      -0.716   7.169  14.868  1.00  0.00     0.183 C 
HETATM   16  C14 UNL     1      -2.181   7.106  14.437  1.00  0.00     0.204 C 
BRANCH  13  17
HETATM   17  C11 UNL     1       0.698   5.109  11.910  1.00  0.00     0.198 C 
BRANCH  17  18
HETATM   18  O5  UNL     1      -0.026   4.588  10.800  1.00  0.00    -0.398 OA
HETATM   19  H18 UNL     1      -0.420   5.355  10.330  1.00  0.00     0.209 HD
ENDBRANCH  17  18
ENDBRANCH  13  17
BRANCH  14  20
HETATM   20  O6  UNL     1       1.487   6.228  14.528  1.00  0.00    -0.390 OA
HETATM   21  H20 UNL     1       1.482   6.359  15.500  1.00  0.00     0.210 HD
ENDBRANCH  14  20
BRANCH  15  22
HETATM   22  O7  UNL     1      -0.599   7.002  16.289  1.00  0.00    -0.390 OA
HETATM   23  H22 UNL     1      -1.325   7.534  16.676  1.00  0.00     0.210 HD
ENDBRANCH  15  22
BRANCH  16  24
HETATM   24  O8  UNL     1      -2.873   8.214  15.047  1.00  0.00    -0.388 OA
HETATM   25  H24 UNL     1      -2.823   8.979  14.438  1.00  0.00     0.210 HD
ENDBRANCH  16  24
ENDBRANCH  10  11
ENDBRANCH   4  10
BRANCH   5  26
HETATM   26  O9  UNL     1      -3.205   4.331  12.664  1.00  0.00    -0.393 OA
HETATM   27  H26 UNL     1      -3.312   4.742  11.782  1.00  0.00     0.210 HD
ENDBRANCH   5  26
BRANCH   1  28
HETATM   28  C4  UNL     1      -8.176   6.528  14.515  1.00  0.00     0.010 C 
HETATM   29  C3  UNL     1      -9.158   6.809  13.637  1.00  0.00     0.003 C 
BRANCH  29  30
HETATM   30  C2  UNL     1     -10.470   7.430  14.017  1.00  0.00     0.136 C 
HETATM   31  C1  UNL     1     -11.427   7.468  12.835  1.00  0.00     0.043 C 
BRANCH  30  32
HETATM   32  O1  UNL     1     -11.029   6.622  15.046  1.00  0.00    -0.392 OA
HETATM   33  H5  UNL     1     -11.851   7.055  15.336  1.00  0.00     0.210 HD
ENDBRANCH  30  32
ENDBRANCH  29  30
ENDBRANCH   1  28
BRANCH   1  34
HETATM   34  O2  UNL     1      -6.247   5.473  15.499  1.00  0.00    -0.385 OA
HETATM   35  H8  UNL     1      -6.915   4.978  16.000  1.00  0.00     0.211 HD
ENDBRANCH   1  34
TORSDOF 12
ENDMDL
MODEL 5
REMARK minimizedAffinity -8.30212021
REMARK  12 active torsions:
REMARK  status: ('A' for Active; 'I' for Inactive)
REMARK    1  A    between atoms: C2_2  and  O1_3 
REMARK    2  A    between atoms: C2_2  and  C3_4 
REMARK    3  A    between atoms: C4_5  and  C5_6 
REMARK    4  A    between atoms: C5_6  and  O2_7 
REMARK    5  A    between atoms: C8_10  and  O3_11 
REMARK    6  A    between atoms: O3_11  and  C9_12 
REMARK    7  A    between atoms: C10_14  and  C11_15 
REMARK    8  A    between atoms: C11_15  and  O5_16 
REMARK    9  A    between atoms: C12_17  and  O6_18 
REMARK   10  A    between atoms: C13_19  and  O7_20 
REMARK   11  A    between atoms: C14_21  and  O8_22 
REMARK   12  A    between atoms: C15_23  and  O9_24 
ROOT
HETATM    1  C5  UNL     1      -4.008   4.276  12.433  1.00  0.00     0.088 C 
HETATM    2  C6  UNL     1      -3.254   5.620  12.214  1.00  0.00     0.052 C 
HETATM    3  C7  UNL     1      -3.684   6.740  13.179  1.00  0.00     0.016 C 
HETATM    4  C8  UNL     1      -1.724   5.412  12.359  1.00  0.00     0.160 C 
HETATM    5  C15 UNL     1      -1.246   4.028  11.855  1.00  0.00     0.148 C 
HETATM    6  C16 UNL     1      -2.175   3.463  10.784  1.00  0.00     0.046 C 
HETATM    7  C17 UNL     1      -3.643   3.263  11.261  1.00  0.00    -0.010 C 
HETATM    8  C18 UNL     1      -3.815   1.793  11.718  1.00  0.00     0.018 C 
HETATM    9  C19 UNL     1      -4.535   3.451  10.006  1.00  0.00     0.018 C 
ENDROOT
BRANCH   4  10
HETATM   10  O3  UNL     1      -1.058   6.441  11.597  1.00  0.00    -0.350 OA
BRANCH  10  11
HETATM   11  C9  UNL     1      -0.391   7.389  12.441  1.00  0.00     0.292 C 
HETATM   12  O4  UNL     1      -0.350   6.868  13.769  1.00  0.00    -0.348 OA
HETATM   13  C10 UNL     1       0.273   7.760  14.698  1.00  0.00     0.179 C 
HETATM   14  C12 UNL     1      -0.522   9.071  14.788  1.00  0.00     0.180 C 
HETATM   15  C13 UNL     1      -0.609   9.705  13.398  1.00  0.00     0.183 C 
HETATM   16  C14 UNL     1      -1.179   8.717  12.381  1.00  0.00     0.204 C 
BRANCH  13  17
HETATM   17  C11 UNL     1       0.361   7.075  16.069  1.00  0.00     0.198 C 
BRANCH  17  18
HETATM   18  O5  UNL     1       1.692   7.063  16.576  1.00  0.00    -0.398 OA
HETATM   19  H18 UNL     1       2.067   7.956  16.416  1.00  0.00     0.209 HD
ENDBRANCH  17  18
ENDBRANCH  13  17
BRANCH  14  20
HETATM   20  O6  UNL     1       0.095   9.993  15.695  1.00  0.00    -0.390 OA
HETATM   21  H20 UNL     1      -0.346  10.852  15.521  1.00  0.00     0.210 HD
ENDBRANCH  14  20
BRANCH  15  22
HETATM   22  O7  UNL     1      -1.428  10.882  13.472  1.00  0.00    -0.390 OA
HETATM   23  H22 UNL     1      -1.661  11.097  12.545  1.00  0.00     0.210 HD
ENDBRANCH  15  22
BRANCH  16  24
HETATM   24  O8  UNL     1      -1.134   9.339  11.082  1.00  0.00    -0.388 OA
HETATM   25  H24 UNL     1      -0.273   9.124  10.669  1.00  0.00     0.210 HD
ENDBRANCH  16  24
ENDBRANCH  10  11
ENDBRANCH   4  10
BRANCH   5  26
HETATM   26  O9  UNL     1       0.078   4.128  11.305  1.00  0.00    -0.393 OA
HETATM   27  H26 UNL     1      -0.027   4.699  10.516  1.00  0.00     0.210 HD
ENDBRANCH   5  26
BRANCH   1  28
HETATM   28  C4  UNL     1      -5.511   4.492  12.562  1.00  0.00     0.010 C 
HETATM   29  C3  UNL     1      -6.407   3.750  13.240  1.00  0.00     0.003 C 
BRANCH  29  30
HETATM   30  C2  UNL     1      -7.869   4.077  13.334  1.00  0.00     0.136 C 
HETATM   31  C1  UNL     1      -8.249   5.194  12.374  1.00  0.00     0.043 C 
BRANCH  30  32
HETATM   32  O1  UNL     1      -8.582   2.897  12.985  1.00  0.00    -0.392 OA
HETATM   33  H5  UNL     1      -9.529   3.088  13.104  1.00  0.00     0.210 HD
ENDBRANCH  30  32
ENDBRANCH  29  30
ENDBRANCH   1  28
BRANCH   1  34
HETATM   34  O2  UNL     1      -3.506   3.751  13.671  1.00  0.00    -0.385 OA
HETATM   35  H8  UNL     1      -4.063   2.998  13.928  1.00  0.00     0.211 HD
ENDBRANCH   1  34
TORSDOF 12
ENDMDL
MODEL 6
REMARK minimizedAffinity -8.22857285
REMARK  12 active torsions:
REMARK  status: ('A' for Active; 'I' for Inactive)
REMARK    1  A    between atoms: C2_2  and  O1_3 
REMARK    2  A    between atoms: C2_2  and  C3_4 
REMARK    3  A    between atoms: C4_5  and  C5_6 
REMARK    4  A    between atoms: C5_6  and  O2_7 
REMARK    5  A    between atoms: C8_10  and  O3_11 
REMARK    6  A    between atoms: O3_11  and  C9_12 
REMARK    7  A    between atoms: C10_14  and  C11_15 
REMARK    8  A    between atoms: C11_15  and  O5_16 
REMARK    9  A    between atoms: C12_17  and  O6_18 
REMARK   10  A    between atoms: C13_19  and  O7_20 
REMARK   11  A    between atoms: C14_21  and  O8_22 
REMARK   12  A    between atoms: C15_23  and  O9_24 
ROOT
HETATM    1  C5  UNL     1      -2.553   8.172  15.653  1.00  0.00     0.088 C 
HETATM    2  C6  UNL     1      -3.197   7.236  14.590  1.00  0.00     0.052 C 
HETATM    3  C7  UNL     1      -2.384   5.958  14.310  1.00  0.00     0.016 C 
HETATM    4  C8  UNL     1      -4.625   6.818  15.029  1.00  0.00     0.160 C 
HETATM    5  C15 UNL     1      -5.371   7.927  15.811  1.00  0.00     0.148 C 
HETATM    6  C16 UNL     1      -4.872   9.320  15.434  1.00  0.00     0.046 C 
HETATM    7  C17 UNL     1      -3.356   9.545  15.711  1.00  0.00    -0.010 C 
HETATM    8  C18 UNL     1      -3.204  10.224  17.094  1.00  0.00     0.018 C 
HETATM    9  C19 UNL     1      -2.871  10.568  14.651  1.00  0.00     0.018 C 
ENDROOT
BRANCH   4  10
HETATM   10  O3  UNL     1      -5.381   6.494  13.845  1.00  0.00    -0.350 OA
BRANCH  10  11
HETATM   11  C9  UNL     1      -5.634   5.086  13.736  1.00  0.00     0.292 C 
HETATM   12  O4  UNL     1      -4.920   4.581  12.608  1.00  0.00    -0.348 OA
HETATM   13  C10 UNL     1      -5.133   3.181  12.396  1.00  0.00     0.179 C 
HETATM   14  C12 UNL     1      -6.617   2.910  12.107  1.00  0.00     0.180 C 
HETATM   15  C13 UNL     1      -7.460   3.418  13.279  1.00  0.00     0.183 C 
HETATM   16  C14 UNL     1      -7.157   4.887  13.574  1.00  0.00     0.204 C 
BRANCH  13  17
HETATM   17  C11 UNL     1      -4.251   2.712  11.230  1.00  0.00     0.198 C 
BRANCH  17  18
HETATM   18  O5  UNL     1      -3.865   1.347  11.369  1.00  0.00    -0.398 OA
HETATM   19  H18 UNL     1      -4.665   0.851  11.650  1.00  0.00     0.209 HD
ENDBRANCH  17  18
ENDBRANCH  13  17
BRANCH  14  20
HETATM   20  O6  UNL     1      -6.862   1.511  11.914  1.00  0.00    -0.390 OA
HETATM   21  H20 UNL     1      -7.837   1.418  11.957  1.00  0.00     0.210 HD
ENDBRANCH  14  20
BRANCH  15  22
HETATM   22  O7  UNL     1      -8.850   3.242  12.965  1.00  0.00    -0.390 OA
HETATM   23  H22 UNL     1      -9.336   3.801  13.606  1.00  0.00     0.210 HD
ENDBRANCH  15  22
BRANCH  16  24
HETATM   24  O8  UNL     1      -7.902   5.268  14.747  1.00  0.00    -0.388 OA
HETATM   25  H24 UNL     1      -7.346   5.091  15.534  1.00  0.00     0.210 HD
ENDBRANCH  16  24
ENDBRANCH  10  11
ENDBRANCH   4  10
BRANCH   5  26
HETATM   26  O9  UNL     1      -6.782   7.861  15.546  1.00  0.00    -0.393 OA
HETATM   27  H26 UNL     1      -6.863   8.077  14.594  1.00  0.00     0.210 HD
ENDBRANCH   5  26
BRANCH   1  28
HETATM   28  C4  UNL     1      -1.067   8.383  15.386  1.00  0.00     0.010 C 
HETATM   29  C3  UNL     1      -0.027   7.645  15.820  1.00  0.00     0.003 C 
BRANCH  29  30
HETATM   30  C2  UNL     1       1.404   7.921  15.463  1.00  0.00     0.136 C 
HETATM   31  C1  UNL     1       2.034   8.913  16.428  1.00  0.00     0.043 C 
BRANCH  30  32
HETATM   32  O1  UNL     1       2.098   6.682  15.547  1.00  0.00    -0.392 OA
HETATM   33  H5  UNL     1       3.013   6.845  15.257  1.00  0.00     0.210 HD
ENDBRANCH  30  32
ENDBRANCH  29  30
ENDBRANCH   1  28
BRANCH   1  34
HETATM   34  O2  UNL     1      -2.708   7.492  16.908  1.00  0.00    -0.385 OA
HETATM   35  H8  UNL     1      -2.179   7.962  17.574  1.00  0.00     0.211 HD
ENDBRANCH   1  34
TORSDOF 12
ENDMDL
MODEL 7
REMARK minimizedAffinity -8.11562729
REMARK  12 active torsions:
REMARK  status: ('A' for Active; 'I' for Inactive)
REMARK    1  A    between atoms: C2_2  and  O1_3 
REMARK    2  A    between atoms: C2_2  and  C3_4 
REMARK    3  A    between atoms: C4_5  and  C5_6 
REMARK    4  A    between atoms: C5_6  and  O2_7 
REMARK    5  A    between atoms: C8_10  and  O3_11 
REMARK    6  A    between atoms: O3_11  and  C9_12 
REMARK    7  A    between atoms: C10_14  and  C11_15 
REMARK    8  A    between atoms: C11_15  and  O5_16 
REMARK    9  A    between atoms: C12_17  and  O6_18 
REMARK   10  A    between atoms: C13_19  and  O7_20 
REMARK   11  A    between atoms: C14_21  and  O8_22 
REMARK   12  A    between atoms: C15_23  and  O9_24 
ROOT
HETATM    1  C5  UNL     1      -4.028   4.282  12.514  1.00  0.00     0.088 C 
HETATM    2  C6  UNL     1      -3.519   5.753  12.478  1.00  0.00     0.052 C 
HETATM    3  C7  UNL     1      -4.252   6.690  13.456  1.00  0.00     0.016 C 
HETATM    4  C8  UNL     1      -2.002   5.809  12.794  1.00  0.00     0.160 C 
HETATM    5  C15 UNL     1      -1.223   4.581  12.262  1.00  0.00     0.148 C 
HETATM    6  C16 UNL     1      -1.909   3.956  11.050  1.00  0.00     0.046 C 
HETATM    7  C17 UNL     1      -3.356   3.457  11.331  1.00  0.00    -0.010 C 
HETATM    8  C18 UNL     1      -3.299   1.946  11.665  1.00  0.00     0.018 C 
HETATM    9  C19 UNL     1      -4.127   3.593   9.992  1.00  0.00     0.018 C 
ENDROOT
BRANCH   4  10
HETATM   10  O3  UNL     1      -1.462   7.002  12.189  1.00  0.00    -0.350 OA
BRANCH  10  11
HETATM   11  C9  UNL     1      -0.509   7.653  13.040  1.00  0.00     0.292 C 
HETATM   12  O4  UNL     1       0.784   7.541  12.445  1.00  0.00    -0.348 OA
HETATM   13  C10 UNL     1       1.815   8.137  13.239  1.00  0.00     0.179 C 
HETATM   14  C12 UNL     1       1.916   7.427  14.597  1.00  0.00     0.180 C 
HETATM   15  C13 UNL     1       0.565   7.507  15.310  1.00  0.00     0.183 C 
HETATM   16  C14 UNL     1      -0.555   6.965  14.422  1.00  0.00     0.204 C 
BRANCH  13  17
HETATM   17  C11 UNL     1       3.145   8.056  12.476  1.00  0.00     0.198 C 
BRANCH  17  18
HETATM   18  O5  UNL     1       3.987   7.023  12.980  1.00  0.00    -0.398 OA
HETATM   19  H18 UNL     1       3.419   6.235  13.122  1.00  0.00     0.209 HD
ENDBRANCH  17  18
ENDBRANCH  13  17
BRANCH  14  20
HETATM   20  O6  UNL     1       2.927   8.021  15.421  1.00  0.00    -0.390 OA
HETATM   21  H20 UNL     1       2.768   7.656  16.317  1.00  0.00     0.210 HD
ENDBRANCH  14  20
BRANCH  15  22
HETATM   22  O7  UNL     1       0.640   6.766  16.538  1.00  0.00    -0.390 OA
HETATM   23  H22 UNL     1      -0.289   6.631  16.819  1.00  0.00     0.210 HD
ENDBRANCH  15  22
BRANCH  16  24
HETATM   24  O8  UNL     1      -1.805   7.167  15.110  1.00  0.00    -0.388 OA
HETATM   25  H24 UNL     1      -2.156   8.046  14.856  1.00  0.00     0.210 HD
ENDBRANCH  16  24
ENDBRANCH  10  11
ENDBRANCH   4  10
BRANCH   5  26
HETATM   26  O9  UNL     1       0.111   4.963  11.884  1.00  0.00    -0.393 OA
HETATM   27  H26 UNL     1      -0.013   5.574  11.129  1.00  0.00     0.210 HD
ENDBRANCH   5  26
BRANCH   1  28
HETATM   28  C4  UNL     1      -5.550   4.215  12.474  1.00  0.00     0.010 C 
HETATM   29  C3  UNL     1      -6.399   3.891  13.467  1.00  0.00     0.003 C 
BRANCH  29  30
HETATM   30  C2  UNL     1      -7.893   3.895  13.329  1.00  0.00     0.136 C 
HETATM   31  C1  UNL     1      -8.359   4.994  12.386  1.00  0.00     0.043 C 
BRANCH  30  32
HETATM   32  O1  UNL     1      -8.264   2.631  12.793  1.00  0.00    -0.392 OA
HETATM   33  H5  UNL     1      -9.236   2.607  12.759  1.00  0.00     0.210 HD
ENDBRANCH  30  32
ENDBRANCH  29  30
ENDBRANCH   1  28
BRANCH   1  34
HETATM   34  O2  UNL     1      -3.573   3.749  13.767  1.00  0.00    -0.385 OA
HETATM   35  H8  UNL     1      -4.003   2.889  13.904  1.00  0.00     0.211 HD
ENDBRANCH   1  34
TORSDOF 12
ENDMDL
MODEL 8
REMARK minimizedAffinity -8.0960741
REMARK  12 active torsions:
REMARK  status: ('A' for Active; 'I' for Inactive)
REMARK    1  A    between atoms: C2_2  and  O1_3 
REMARK    2  A    between atoms: C2_2  and  C3_4 
REMARK    3  A    between atoms: C4_5  and  C5_6 
REMARK    4  A    between atoms: C5_6  and  O2_7 
REMARK    5  A    between atoms: C8_10  and  O3_11 
REMARK    6  A    between atoms: O3_11  and  C9_12 
REMARK    7  A    between atoms: C10_14  and  C11_15 
REMARK    8  A    between atoms: C11_15  and  O5_16 
REMARK    9  A    between atoms: C12_17  and  O6_18 
REMARK   10  A    between atoms: C13_19  and  O7_20 
REMARK   11  A    between atoms: C14_21  and  O8_22 
REMARK   12  A    between atoms: C15_23  and  O9_24 
ROOT
HETATM    1  C5  UNL     1      -7.091   6.018  14.320  1.00  0.00     0.088 C 
HETATM    2  C6  UNL     1      -6.043   7.057  13.828  1.00  0.00     0.052 C 
HETATM    3  C7  UNL     1      -6.050   8.375  14.625  1.00  0.00     0.016 C 
HETATM    4  C8  UNL     1      -4.614   6.458  13.892  1.00  0.00     0.160 C 
HETATM    5  C15 UNL     1      -4.576   4.940  13.589  1.00  0.00     0.148 C 
HETATM    6  C16 UNL     1      -5.737   4.511  12.696  1.00  0.00     0.046 C 
HETATM    7  C17 UNL     1      -7.141   4.792  13.307  1.00  0.00    -0.010 C 
HETATM    8  C18 UNL     1      -7.637   3.504  14.011  1.00  0.00     0.018 C 
HETATM    9  C19 UNL     1      -8.091   5.043  12.107  1.00  0.00     0.018 C 
ENDROOT
BRANCH   4  10
HETATM   10  O3  UNL     1      -3.795   7.147  12.925  1.00  0.00    -0.350 OA
BRANCH  10  11
HETATM   11  C9  UNL     1      -2.589   7.660  13.508  1.00  0.00     0.292 C 
HETATM   12  O4  UNL     1      -2.785   9.040  13.817  1.00  0.00    -0.348 OA
HETATM   13  C10 UNL     1      -1.621   9.655  14.380  1.00  0.00     0.179 C 
HETATM   14  C12 UNL     1      -0.461   9.611  13.373  1.00  0.00     0.180 C 
HETATM   15  C13 UNL     1      -0.179   8.158  12.990  1.00  0.00     0.183 C 
HETATM   16  C14 UNL     1      -1.447   7.469  12.486  1.00  0.00     0.204 C 
BRANCH  13  17
HETATM   17  C11 UNL     1      -1.957  11.101  14.770  1.00  0.00     0.198 C 
BRANCH  17  18
HETATM   18  O5  UNL     1      -1.552  12.032  13.770  1.00  0.00    -0.398 OA
HETATM   19  H18 UNL     1      -1.814  11.651  12.903  1.00  0.00     0.209 HD
ENDBRANCH  17  18
ENDBRANCH  13  17
BRANCH  14  20
HETATM   20  O6  UNL     1       0.725  10.200  13.921  1.00  0.00    -0.390 OA
HETATM   21  H20 UNL     1       1.444   9.934  13.309  1.00  0.00     0.210 HD
ENDBRANCH  14  20
BRANCH  15  22
HETATM   22  O7  UNL     1       0.845   8.130  11.984  1.00  0.00    -0.390 OA
HETATM   23  H22 UNL     1       0.807   7.231  11.597  1.00  0.00     0.210 HD
ENDBRANCH  15  22
BRANCH  16  24
HETATM   24  O8  UNL     1      -1.134   6.082  12.246  1.00  0.00    -0.388 OA
HETATM   25  H24 UNL     1      -1.303   5.583  13.071  1.00  0.00     0.210 HD
ENDBRANCH  16  24
ENDBRANCH  10  11
ENDBRANCH   4  10
BRANCH   5  26
HETATM   26  O9  UNL     1      -3.344   4.593  12.933  1.00  0.00    -0.393 OA
HETATM   27  H26 UNL     1      -3.386   5.057  12.072  1.00  0.00     0.210 HD
ENDBRANCH   5  26
BRANCH   1  28
HETATM   28  C4  UNL     1      -8.460   6.656  14.522  1.00  0.00     0.010 C 
HETATM   29  C3  UNL     1      -9.537   6.597  13.716  1.00  0.00     0.003 C 
BRANCH  29  30
HETATM   30  C2  UNL     1     -10.858   7.234  14.033  1.00  0.00     0.136 C 
HETATM   31  C1  UNL     1     -11.577   7.675  12.766  1.00  0.00     0.043 C 
BRANCH  30  32
HETATM   32  O1  UNL     1     -11.644   6.253  14.699  1.00  0.00    -0.392 OA
HETATM   33  H5  UNL     1     -12.478   6.681  14.959  1.00  0.00     0.210 HD
ENDBRANCH  30  32
ENDBRANCH  29  30
ENDBRANCH   1  28
BRANCH   1  34
HETATM   34  O2  UNL     1      -6.604   5.551  15.588  1.00  0.00    -0.385 OA
HETATM   35  H8  UNL     1      -7.304   5.024  16.005  1.00  0.00     0.211 HD
ENDBRANCH   1  34
TORSDOF 12
ENDMDL
MODEL 9
REMARK minimizedAffinity -8.08563042
REMARK  12 active torsions:
REMARK  status: ('A' for Active; 'I' for Inactive)
REMARK    1  A    between atoms: C2_2  and  O1_3 
REMARK    2  A    between atoms: C2_2  and  C3_4 
REMARK    3  A    between atoms: C4_5  and  C5_6 
REMARK    4  A    between atoms: C5_6  and  O2_7 
REMARK    5  A    between atoms: C8_10  and  O3_11 
REMARK    6  A    between atoms: O3_11  and  C9_12 
REMARK    7  A    between atoms: C10_14  and  C11_15 
REMARK    8  A    between atoms: C11_15  and  O5_16 
REMARK    9  A    between atoms: C12_17  and  O6_18 
REMARK   10  A    between atoms: C13_19  and  O7_20 
REMARK   11  A    between atoms: C14_21  and  O8_22 
REMARK   12  A    between atoms: C15_23  and  O9_24 
ROOT
HETATM    1  C5  UNL     1       2.590   6.122  10.091  1.00  0.00     0.088 C 
HETATM    2  C6  UNL     1       1.200   5.622  10.582  1.00  0.00     0.052 C 
HETATM    3  C7  UNL     1       1.222   4.199  11.171  1.00  0.00     0.016 C 
HETATM    4  C8  UNL     1       0.626   6.584  11.654  1.00  0.00     0.160 C 
HETATM    5  C15 UNL     1       1.006   8.065  11.410  1.00  0.00     0.148 C 
HETATM    6  C16 UNL     1       1.263   8.349   9.932  1.00  0.00     0.046 C 
HETATM    7  C17 UNL     1       2.416   7.502   9.318  1.00  0.00    -0.010 C 
HETATM    8  C18 UNL     1       3.719   8.338   9.366  1.00  0.00     0.018 C 
HETATM    9  C19 UNL     1       2.060   7.310   7.820  1.00  0.00     0.018 C 
ENDROOT
BRANCH   4  10
HETATM   10  O3  UNL     1      -0.812   6.464  11.640  1.00  0.00    -0.350 OA
BRANCH  10  11
HETATM   11  C9  UNL     1      -1.347   6.254  12.954  1.00  0.00     0.292 C 
HETATM   12  O4  UNL     1      -2.452   7.138  13.143  1.00  0.00    -0.348 OA
HETATM   13  C10 UNL     1      -3.039   7.025  14.443  1.00  0.00     0.179 C 
HETATM   14  C12 UNL     1      -2.013   7.401  15.522  1.00  0.00     0.180 C 
HETATM   15  C13 UNL     1      -0.790   6.490  15.395  1.00  0.00     0.183 C 
HETATM   16  C14 UNL     1      -0.223   6.530  13.977  1.00  0.00     0.204 C 
BRANCH  13  17
HETATM   17  C11 UNL     1      -4.273   7.936  14.516  1.00  0.00     0.198 C 
BRANCH  17  18
HETATM   18  O5  UNL     1      -4.121   9.105  13.716  1.00  0.00    -0.398 OA
HETATM   19  H18 UNL     1      -3.736   8.817  12.859  1.00  0.00     0.209 HD
ENDBRANCH  17  18
ENDBRANCH  13  17
BRANCH  14  20
HETATM   20  O6  UNL     1      -2.570   7.273  16.836  1.00  0.00    -0.390 OA
HETATM   21  H20 UNL     1      -1.799   7.317  17.442  1.00  0.00     0.210 HD
ENDBRANCH  14  20
BRANCH  15  22
HETATM   22  O7  UNL     1       0.201   6.903  16.348  1.00  0.00    -0.390 OA
HETATM   23  H22 UNL     1       1.034   6.475  16.060  1.00  0.00     0.210 HD
ENDBRANCH  15  22
BRANCH  16  24
HETATM   24  O8  UNL     1       0.853   5.575  13.900  1.00  0.00    -0.388 OA
HETATM   25  H24 UNL     1       0.479   4.712  13.627  1.00  0.00     0.210 HD
ENDBRANCH  16  24
ENDBRANCH  10  11
ENDBRANCH   4  10
BRANCH   5  26
HETATM   26  O9  UNL     1      -0.047   8.932  11.864  1.00  0.00    -0.393 OA
HETATM   27  H26 UNL     1      -0.803   8.729  11.275  1.00  0.00     0.210 HD
ENDBRANCH   5  26
BRANCH   1  28
HETATM   28  C4  UNL     1       3.296   5.070   9.244  1.00  0.00     0.010 C 
HETATM   29  C3  UNL     1       3.341   4.970   7.901  1.00  0.00     0.003 C 
BRANCH  29  30
HETATM   30  C2  UNL     1       4.104   3.910   7.164  1.00  0.00     0.136 C 
HETATM   31  C1  UNL     1       4.843   2.990   8.124  1.00  0.00     0.043 C 
BRANCH  30  32
HETATM   32  O1  UNL     1       3.152   3.150   6.428  1.00  0.00    -0.392 OA
HETATM   33  H5  UNL     1       3.649   2.500   5.901  1.00  0.00     0.210 HD
ENDBRANCH  30  32
ENDBRANCH  29  30
ENDBRANCH   1  28
BRANCH   1  34
HETATM   34  O2  UNL     1       3.358   6.352  11.282  1.00  0.00    -0.385 OA
HETATM   35  H8  UNL     1       4.280   6.510  11.021  1.00  0.00     0.211 HD
ENDBRANCH   1  34
TORSDOF 12
ENDMDL
