MODEL 1
REMARK minimizedAffinity -8.50669765
REMARK CNNscore 0.819404066
REMARK CNNaffinity 7.7893281
REMARK  11 active torsions:
REMARK  status: ('A' for Active; 'I' for Inactive)
REMARK    1  A    between atoms: O1_2  and  C2_3 
REMARK    2  A    between atoms: C4_5  and  O2_6 
REMARK    3  A    between atoms: O2_6  and  C5_7 
REMARK    4  A    between atoms: C8_10  and  C9_11 
REMARK    5  A    between atoms: N1_12  and  C10_14 
REMARK    6  A    between atoms: C10_14  and  C11_15 
REMARK    7  A    between atoms: C11_15  and  O3_16 
REMARK    8  A    between atoms: C17_22  and  C18_23 
REMARK    9  A    between atoms: C24_31  and  O6_32 
REMARK   10  A    between atoms: C28_36  and  O7_37 
REMARK   11  A    between atoms: C32_42  and  O9_43 
ROOT
HETATM    1  C5  UNL     1      -0.793  51.785 -22.384  1.00  0.00     0.127 C 
HETATM    2  C6  UNL     1      -2.015  52.039 -23.269  1.00  0.00     0.033 C 
HETATM    3  C7  UNL     1      -3.309  51.457 -22.691  1.00  0.00     0.021 C 
HETATM    4  C8  UNL     1      -3.192  49.946 -22.331  1.00  0.00     0.026 C 
HETATM    5  C12 UNL     1      -4.528  49.472 -21.608  1.00  0.00     0.009 C 
HETATM    6  C13 UNL     1      -5.597  48.980 -22.608  1.00  0.00     0.007 C 
HETATM    7  C14 UNL     1      -6.887  48.525 -21.939  1.00  0.00     0.013 C 
HETATM    8  C15 UNL     1      -6.655  47.381 -20.930  1.00  0.00    -0.005 C 
HETATM    9  C16 UNL     1      -6.282  46.079 -21.668  1.00  0.00     0.019 C 
HETATM   10  C17 UNL     1      -7.911  47.163 -20.017  1.00  0.00     0.028 C 
HETATM   11  C22 UNL     1      -7.786  48.255 -18.932  1.00  0.00     0.013 C 
HETATM   12  C23 UNL     1      -6.339  48.749 -18.958  1.00  0.00     0.040 C 
HETATM   13  C24 UNL     1      -5.574  47.789 -19.891  1.00  0.00     0.070 C 
HETATM   14  C25 UNL     1      -4.283  48.461 -20.444  1.00  0.00     0.026 C 
HETATM   15  C26 UNL     1      -3.121  47.516 -20.787  1.00  0.00     0.011 C 
HETATM   16  C27 UNL     1      -1.792  48.276 -20.960  1.00  0.00     0.039 C 
HETATM   17  C28 UNL     1      -1.961  49.751 -21.394  1.00  0.00     0.073 C 
HETATM   18  C29 UNL     1      -0.670  50.297 -22.027  1.00  0.00     0.071 C 
ENDROOT
BRANCH   1  19
HETATM   19  O2  UNL     1       0.360  52.196 -23.129  1.00  0.00    -0.356 OA
BRANCH  19  20
HETATM   20  C4  UNL     1       0.116  52.356 -24.527  1.00  0.00     0.263 C 
HETATM   21  C3  UNL     1      -0.941  51.317 -24.906  1.00  0.00     0.095 C 
HETATM   22  C2  UNL     1      -1.234  51.363 -26.400  1.00  0.00     0.156 C 
HETATM   23  C32 UNL     1       0.080  51.256 -27.197  1.00  0.00     0.175 C 
HETATM   24  C30 UNL     1       1.101  52.285 -26.684  1.00  0.00     0.151 C 
HETATM   25  O8  UNL     1       1.308  52.131 -25.276  1.00  0.00    -0.354 OA
HETATM   26  C31 UNL     1       2.454  52.112 -27.366  1.00  0.00     0.042 C 
BRANCH  22  27
HETATM   27  O1  UNL     1      -1.861  52.602 -26.786  1.00  0.00    -0.388 OA
HETATM   28  C1  UNL     1      -1.152  53.305 -27.800  1.00  0.00     0.202 C 
ENDBRANCH  22  27
BRANCH  23  29
HETATM   29  O9  UNL     1      -0.192  51.462 -28.588  1.00  0.00    -0.390 OA
HETATM   30  H49 UNL     1      -0.865  52.174 -28.614  1.00  0.00     0.210 HD
ENDBRANCH  23  29
ENDBRANCH  19  20
ENDBRANCH   1  19
BRANCH  17  31
HETATM   31  O7  UNL     1      -2.180  50.522 -20.193  1.00  0.00    -0.389 OA
HETATM   32  H41 UNL     1      -1.383  50.453 -19.638  1.00  0.00     0.210 HD
ENDBRANCH  17  31
BRANCH   4  33
HETATM   33  C9  UNL     1      -2.961  49.133 -23.622  1.00  0.00     0.068 C 
HETATM   34  N1  UNL     1      -3.670  49.313 -24.686  1.00  0.00    -0.399 N 
ATOM     35  H1  UNL     1      -4.404  50.018 -24.754  1.00  0.00     0.158 HD
BRANCH  34  36
HETATM   36  C10 UNL     1      -3.322  48.406 -25.791  1.00  0.00     0.144 C 
BRANCH  36  37
HETATM   37  C11 UNL     1      -4.456  48.456 -26.814  1.00  0.00     0.183 C 
BRANCH  37  38
HETATM   38  O3  UNL     1      -3.905  48.606 -28.123  1.00  0.00    -0.399 OA
HETATM   39  H18 UNL     1      -3.194  47.936 -28.159  1.00  0.00     0.209 HD
ENDBRANCH  37  38
ENDBRANCH  36  37
ENDBRANCH  34  36
ENDBRANCH   4  33
BRANCH  13  40
HETATM   40  O6  UNL     1      -5.223  46.650 -19.094  1.00  0.00    -0.389 OA
HETATM   41  H35 UNL     1      -4.637  46.957 -18.379  1.00  0.00     0.210 HD
ENDBRANCH  13  40
BRANCH  10  42
HETATM   42  C18 UNL     1      -9.265  47.067 -20.677  1.00  0.00    -0.045 A 
HETATM   43  C19 UNL     1     -10.454  47.459 -20.215  1.00  0.00     0.087 A 
HETATM   44  C20 UNL     1     -11.465  47.057 -21.190  1.00  0.00     0.283 A 
HETATM   45  O4  UNL     1     -12.658  47.270 -21.081  1.00  0.00    -0.260 OA
HETATM   46  O5  UNL     1     -10.857  46.406 -22.214  1.00  0.00    -0.314 OA
HETATM   47  C21 UNL     1      -9.448  46.388 -21.986  1.00  0.00     0.213 A 
ENDBRANCH  10  42
TORSDOF 11
ENDMDL
MODEL 2
REMARK minimizedAffinity -8.99698067
REMARK CNNscore 0.619411528
REMARK CNNaffinity 7.31146193
REMARK  11 active torsions:
REMARK  status: ('A' for Active; 'I' for Inactive)
REMARK    1  A    between atoms: O1_2  and  C2_3 
REMARK    2  A    between atoms: C4_5  and  O2_6 
REMARK    3  A    between atoms: O2_6  and  C5_7 
REMARK    4  A    between atoms: C8_10  and  C9_11 
REMARK    5  A    between atoms: N1_12  and  C10_14 
REMARK    6  A    between atoms: C10_14  and  C11_15 
REMARK    7  A    between atoms: C11_15  and  O3_16 
REMARK    8  A    between atoms: C17_22  and  C18_23 
REMARK    9  A    between atoms: C24_31  and  O6_32 
REMARK   10  A    between atoms: C28_36  and  O7_37 
REMARK   11  A    between atoms: C32_42  and  O9_43 
ROOT
HETATM    1  C5  UNL     1      -1.486  51.566 -22.694  1.00  0.00     0.127 C 
HETATM    2  C6  UNL     1      -2.527  51.852 -23.779  1.00  0.00     0.033 C 
HETATM    3  C7  UNL     1      -3.907  51.269 -23.458  1.00  0.00     0.021 C 
HETATM    4  C8  UNL     1      -3.866  49.749 -23.120  1.00  0.00     0.026 C 
HETATM    5  C12 UNL     1      -5.312  49.272 -22.661  1.00  0.00     0.009 C 
HETATM    6  C13 UNL     1      -6.185  48.813 -23.850  1.00  0.00     0.007 C 
HETATM    7  C14 UNL     1      -7.578  48.356 -23.436  1.00  0.00     0.013 C 
HETATM    8  C15 UNL     1      -7.538  47.186 -22.430  1.00  0.00    -0.005 C 
HETATM    9  C16 UNL     1      -7.044  45.898 -23.120  1.00  0.00     0.019 C 
HETATM   10  C17 UNL     1      -8.940  46.959 -21.765  1.00  0.00     0.028 C 
HETATM   11  C22 UNL     1      -9.007  48.025 -20.649  1.00  0.00     0.013 C 
HETATM   12  C23 UNL     1      -7.577  48.506 -20.401  1.00  0.00     0.040 C 
HETATM   13  C24 UNL     1      -6.660  47.560 -21.204  1.00  0.00     0.070 C 
HETATM   14  C25 UNL     1      -5.287  48.232 -21.497  1.00  0.00     0.026 C 
HETATM   15  C26 UNL     1      -4.087  47.284 -21.648  1.00  0.00     0.011 C 
HETATM   16  C27 UNL     1      -2.745  48.035 -21.559  1.00  0.00     0.039 C 
HETATM   17  C28 UNL     1      -2.824  49.521 -21.981  1.00  0.00     0.073 C 
HETATM   18  C29 UNL     1      -1.437  50.069 -22.357  1.00  0.00     0.071 C 
ENDROOT
BRANCH   1  19
HETATM   19  O2  UNL     1      -0.216  51.983 -23.208  1.00  0.00    -0.356 OA
BRANCH  19  20
HETATM   20  C4  UNL     1      -0.220  52.246 -24.612  1.00  0.00     0.263 C 
HETATM   21  C3  UNL     1      -1.243  51.293 -25.231  1.00  0.00     0.095 C 
HETATM   22  C2  UNL     1      -1.286  51.452 -26.745  1.00  0.00     0.156 C 
HETATM   23  C32 UNL     1       0.136  51.327 -27.326  1.00  0.00     0.175 C 
HETATM   24  C30 UNL     1       1.101  52.264 -26.582  1.00  0.00     0.151 C 
HETATM   25  O8  UNL     1       1.068  52.008 -25.174  1.00  0.00    -0.354 OA
HETATM   26  C31 UNL     1       2.539  52.064 -27.049  1.00  0.00     0.042 C 
BRANCH  22  27
HETATM   27  O1  UNL     1      -1.788  52.745 -27.135  1.00  0.00    -0.388 OA
HETATM   28  C1  UNL     1      -0.850  53.519 -27.873  1.00  0.00     0.202 C 
ENDBRANCH  22  27
BRANCH  23  29
HETATM   29  O9  UNL     1       0.104  51.638 -28.724  1.00  0.00    -0.390 OA
HETATM   30  H49 UNL     1      -0.525  52.385 -28.805  1.00  0.00     0.210 HD
ENDBRANCH  23  29
ENDBRANCH  19  20
ENDBRANCH   1  19
BRANCH  17  31
HETATM   31  O7  UNL     1      -3.254  50.266 -20.821  1.00  0.00    -0.389 OA
HETATM   32  H41 UNL     1      -2.570  50.177 -20.133  1.00  0.00     0.210 HD
ENDBRANCH  17  31
BRANCH   4  33
HETATM   33  C9  UNL     1      -3.409  48.964 -24.368  1.00  0.00     0.068 C 
HETATM   34  N1  UNL     1      -3.883  49.204 -25.544  1.00  0.00    -0.399 N 
ATOM     35  H1  UNL     1      -4.561  49.941 -25.732  1.00  0.00     0.158 HD
BRANCH  34  36
HETATM   36  C10 UNL     1      -3.353  48.315 -26.590  1.00  0.00     0.144 C 
BRANCH  36  37
HETATM   37  C11 UNL     1      -4.272  48.420 -27.805  1.00  0.00     0.183 C 
BRANCH  37  38
HETATM   38  O3  UNL     1      -3.903  49.561 -28.579  1.00  0.00    -0.399 OA
HETATM   39  H18 UNL     1      -2.932  49.489 -28.661  1.00  0.00     0.209 HD
ENDBRANCH  37  38
ENDBRANCH  36  37
ENDBRANCH  34  36
ENDBRANCH   4  33
BRANCH  13  40
HETATM   40  O6  UNL     1      -6.466  46.400 -20.384  1.00  0.00    -0.389 OA
HETATM   41  H35 UNL     1      -6.017  46.684 -19.568  1.00  0.00     0.210 HD
ENDBRANCH  13  40
BRANCH  10  42
HETATM   42  C18 UNL     1     -10.152  46.892 -22.661  1.00  0.00    -0.045 A 
HETATM   43  C19 UNL     1     -10.213  46.912 -23.993  1.00  0.00     0.087 A 
HETATM   44  C20 UNL     1     -11.624  46.923 -24.374  1.00  0.00     0.283 A 
HETATM   45  O4  UNL     1     -12.034  46.932 -25.519  1.00  0.00    -0.260 OA
HETATM   46  O5  UNL     1     -12.385  46.933 -23.250  1.00  0.00    -0.314 OA
HETATM   47  C21 UNL     1     -11.531  46.887 -22.106  1.00  0.00     0.213 A 
ENDBRANCH  10  42
TORSDOF 11
ENDMDL
MODEL 3
REMARK minimizedAffinity -8.52177238
REMARK CNNscore 0.546269536
REMARK CNNaffinity 6.22065926
REMARK  11 active torsions:
REMARK  status: ('A' for Active; 'I' for Inactive)
REMARK    1  A    between atoms: O1_2  and  C2_3 
REMARK    2  A    between atoms: C4_5  and  O2_6 
REMARK    3  A    between atoms: O2_6  and  C5_7 
REMARK    4  A    between atoms: C8_10  and  C9_11 
REMARK    5  A    between atoms: N1_12  and  C10_14 
REMARK    6  A    between atoms: C10_14  and  C11_15 
REMARK    7  A    between atoms: C11_15  and  O3_16 
REMARK    8  A    between atoms: C17_22  and  C18_23 
REMARK    9  A    between atoms: C24_31  and  O6_32 
REMARK   10  A    between atoms: C28_36  and  O7_37 
REMARK   11  A    between atoms: C32_42  and  O9_43 
ROOT
HETATM    1  C5  UNL     1      -9.112  48.136 -20.091  1.00  0.00     0.127 C 
HETATM    2  C6  UNL     1      -8.447  49.007 -19.024  1.00  0.00     0.033 C 
HETATM    3  C7  UNL     1      -7.240  49.789 -19.552  1.00  0.00     0.021 C 
HETATM    4  C8  UNL     1      -6.188  48.886 -20.261  1.00  0.00     0.026 C 
HETATM    5  C12 UNL     1      -5.052  49.800 -20.898  1.00  0.00     0.009 C 
HETATM    6  C13 UNL     1      -3.899  50.081 -19.911  1.00  0.00     0.007 C 
HETATM    7  C14 UNL     1      -2.801  50.958 -20.497  1.00  0.00     0.013 C 
HETATM    8  C15 UNL     1      -2.169  50.342 -21.762  1.00  0.00    -0.005 C 
HETATM    9  C16 UNL     1      -1.330  49.101 -21.397  1.00  0.00     0.019 C 
HETATM   10  C17 UNL     1      -1.298  51.394 -22.534  1.00  0.00     0.028 C 
HETATM   11  C22 UNL     1      -2.326  52.214 -23.346  1.00  0.00     0.013 C 
HETATM   12  C23 UNL     1      -3.617  51.396 -23.391  1.00  0.00     0.040 C 
HETATM   13  C24 UNL     1      -3.269  50.011 -22.808  1.00  0.00     0.070 C 
HETATM   14  C25 UNL     1      -4.547  49.291 -22.284  1.00  0.00     0.026 C 
HETATM   15  C26 UNL     1      -4.519  47.755 -22.318  1.00  0.00     0.011 C 
HETATM   16  C27 UNL     1      -5.926  47.150 -22.145  1.00  0.00     0.039 C 
HETATM   17  C28 UNL     1      -6.910  48.054 -21.366  1.00  0.00     0.073 C 
HETATM   18  C29 UNL     1      -8.082  47.240 -20.794  1.00  0.00     0.071 C 
ENDROOT
BRANCH   1  19
HETATM   19  O2  UNL     1     -10.082  47.319 -19.424  1.00  0.00    -0.356 OA
BRANCH  19  20
HETATM   20  C4  UNL     1     -11.432  47.626 -19.775  1.00  0.00     0.263 C 
HETATM   21  C3  UNL     1     -12.314  47.035 -18.675  1.00  0.00     0.095 C 
HETATM   22  C2  UNL     1     -13.789  47.257 -18.982  1.00  0.00     0.156 C 
HETATM   23  C32 UNL     1     -14.111  46.749 -20.401  1.00  0.00     0.175 C 
HETATM   24  C30 UNL     1     -13.120  47.337 -21.418  1.00  0.00     0.151 C 
HETATM   25  O8  UNL     1     -11.771  47.047 -21.032  1.00  0.00    -0.354 OA
HETATM   26  C31 UNL     1     -13.334  46.747 -22.808  1.00  0.00     0.042 C 
BRANCH  22  27
HETATM   27  O1  UNL     1     -14.139  48.655 -18.946  1.00  0.00    -0.388 OA
HETATM   28  C1  UNL     1     -15.176  48.956 -18.019  1.00  0.00     0.202 C 
ENDBRANCH  22  27
BRANCH  23  29
HETATM   29  O9  UNL     1     -15.456  47.108 -20.737  1.00  0.00    -0.390 OA
HETATM   30  H49 UNL     1     -15.579  48.008 -20.369  1.00  0.00     0.210 HD
ENDBRANCH  23  29
ENDBRANCH  19  20
ENDBRANCH   1  19
BRANCH  17  31
HETATM   31  O7  UNL     1      -7.483  48.974 -22.320  1.00  0.00    -0.389 OA
HETATM   32  H41 UNL     1      -7.990  48.458 -22.973  1.00  0.00     0.210 HD
ENDBRANCH  17  31
BRANCH   4  33
HETATM   33  C9  UNL     1      -5.580  47.910 -19.231  1.00  0.00     0.068 C 
HETATM   34  N1  UNL     1      -5.461  48.214 -17.981  1.00  0.00    -0.399 N 
ATOM     35  H1  UNL     1      -5.786  49.098 -17.589  1.00  0.00     0.158 HD
BRANCH  34  36
HETATM   36  C10 UNL     1      -4.815  47.166 -17.175  1.00  0.00     0.144 C 
BRANCH  36  37
HETATM   37  C11 UNL     1      -3.797  46.453 -18.062  1.00  0.00     0.183 C 
BRANCH  37  38
HETATM   38  O3  UNL     1      -2.492  46.961 -17.786  1.00  0.00    -0.399 OA
HETATM   39  H18 UNL     1      -2.435  46.953 -16.811  1.00  0.00     0.209 HD
ENDBRANCH  37  38
ENDBRANCH  36  37
ENDBRANCH  34  36
ENDBRANCH   4  33
BRANCH  13  40
HETATM   40  O6  UNL     1      -2.695  49.257 -23.884  1.00  0.00    -0.389 OA
HETATM   41  H35 UNL     1      -3.372  49.164 -24.577  1.00  0.00     0.210 HD
ENDBRANCH  13  40
BRANCH  10  42
HETATM   42  C18 UNL     1      -0.304  52.213 -21.747  1.00  0.00    -0.045 A 
HETATM   43  C19 UNL     1       0.504  53.187 -22.171  1.00  0.00     0.087 A 
HETATM   44  C20 UNL     1       1.341  53.592 -21.044  1.00  0.00     0.283 A 
HETATM   45  O4  UNL     1       2.184  54.468 -21.085  1.00  0.00    -0.260 OA
HETATM   46  O5  UNL     1       1.030  52.828 -19.966  1.00  0.00    -0.314 OA
HETATM   47  C21 UNL     1      -0.030  51.938 -20.313  1.00  0.00     0.213 A 
ENDBRANCH  10  42
TORSDOF 11
ENDMDL
MODEL 4
REMARK minimizedAffinity -8.51825905
REMARK CNNscore 0.46286267
REMARK CNNaffinity 7.04948425
REMARK  11 active torsions:
REMARK  status: ('A' for Active; 'I' for Inactive)
REMARK    1  A    between atoms: O1_2  and  C2_3 
REMARK    2  A    between atoms: C4_5  and  O2_6 
REMARK    3  A    between atoms: O2_6  and  C5_7 
REMARK    4  A    between atoms: C8_10  and  C9_11 
REMARK    5  A    between atoms: N1_12  and  C10_14 
REMARK    6  A    between atoms: C10_14  and  C11_15 
REMARK    7  A    between atoms: C11_15  and  O3_16 
REMARK    8  A    between atoms: C17_22  and  C18_23 
REMARK    9  A    between atoms: C24_31  and  O6_32 
REMARK   10  A    between atoms: C28_36  and  O7_37 
REMARK   11  A    between atoms: C32_42  and  O9_43 
ROOT
HETATM    1  C5  UNL     1      -1.717  51.441 -22.704  1.00  0.00     0.127 C 
HETATM    2  C6  UNL     1      -3.061  51.987 -23.189  1.00  0.00     0.033 C 
HETATM    3  C7  UNL     1      -4.255  51.434 -22.404  1.00  0.00     0.021 C 
HETATM    4  C8  UNL     1      -4.280  49.878 -22.346  1.00  0.00     0.026 C 
HETATM    5  C12 UNL     1      -5.464  49.405 -21.394  1.00  0.00     0.009 C 
HETATM    6  C13 UNL     1      -6.797  49.232 -22.154  1.00  0.00     0.007 C 
HETATM    7  C14 UNL     1      -7.948  48.785 -21.263  1.00  0.00     0.013 C 
HETATM    8  C15 UNL     1      -7.656  47.445 -20.555  1.00  0.00    -0.005 C 
HETATM    9  C16 UNL     1      -7.661  46.285 -21.572  1.00  0.00     0.019 C 
HETATM   10  C17 UNL     1      -8.683  47.175 -19.400  1.00  0.00     0.028 C 
HETATM   11  C22 UNL     1      -8.148  48.011 -18.215  1.00  0.00     0.013 C 
HETATM   12  C23 UNL     1      -6.692  48.353 -18.529  1.00  0.00     0.040 C 
HETATM   13  C24 UNL     1      -6.315  47.527 -19.776  1.00  0.00     0.070 C 
HETATM   14  C25 UNL     1      -5.104  48.163 -20.520  1.00  0.00     0.026 C 
HETATM   15  C26 UNL     1      -4.206  47.194 -21.304  1.00  0.00     0.011 C 
HETATM   16  C27 UNL     1      -2.858  47.837 -21.682  1.00  0.00     0.039 C 
HETATM   17  C28 UNL     1      -2.906  49.377 -21.804  1.00  0.00     0.073 C 
HETATM   18  C29 UNL     1      -1.732  49.907 -22.646  1.00  0.00     0.071 C 
ENDROOT
BRANCH   1  19
HETATM   19  O2  UNL     1      -0.722  51.876 -23.639  1.00  0.00    -0.356 OA
BRANCH  19  20
HETATM   20  C4  UNL     1      -1.022  51.541 -24.995  1.00  0.00     0.263 C 
HETATM   21  C3  UNL     1      -1.965  52.627 -25.514  1.00  0.00     0.095 C 
HETATM   22  C2  UNL     1      -2.395  52.333 -26.945  1.00  0.00     0.156 C 
HETATM   23  C32 UNL     1      -2.957  50.901 -27.041  1.00  0.00     0.175 C 
HETATM   24  C30 UNL     1      -1.971  49.898 -26.419  1.00  0.00     0.151 C 
HETATM   25  O8  UNL     1      -1.658  50.268 -25.071  1.00  0.00    -0.354 OA
HETATM   26  C31 UNL     1      -2.560  48.491 -26.381  1.00  0.00     0.042 C 
BRANCH  22  27
HETATM   27  O1  UNL     1      -1.289  52.413 -27.865  1.00  0.00    -0.388 OA
HETATM   28  C1  UNL     1      -0.673  53.695 -27.900  1.00  0.00     0.202 C 
ENDBRANCH  22  27
BRANCH  23  29
HETATM   29  O9  UNL     1      -3.206  50.581 -28.414  1.00  0.00    -0.390 OA
HETATM   30  H49 UNL     1      -2.459  50.978 -28.908  1.00  0.00     0.210 HD
ENDBRANCH  23  29
ENDBRANCH  19  20
ENDBRANCH   1  19
BRANCH  17  31
HETATM   31  O7  UNL     1      -2.723  49.911 -20.475  1.00  0.00    -0.389 OA
HETATM   32  H41 UNL     1      -1.837  49.653 -20.163  1.00  0.00     0.210 HD
ENDBRANCH  17  31
BRANCH   4  33
HETATM   33  C9  UNL     1      -4.478  49.320 -23.771  1.00  0.00     0.068 C 
HETATM   34  N1  UNL     1      -5.595  48.800 -24.158  1.00  0.00    -0.399 N 
ATOM     35  H1  UNL     1      -6.422  48.750 -23.564  1.00  0.00     0.158 HD
BRANCH  34  36
HETATM   36  C10 UNL     1      -5.563  48.285 -25.536  1.00  0.00     0.144 C 
BRANCH  36  37
HETATM   37  C11 UNL     1      -6.963  47.779 -25.880  1.00  0.00     0.183 C 
BRANCH  37  38
HETATM   38  O3  UNL     1      -7.361  46.801 -24.919  1.00  0.00    -0.399 OA
HETATM   39  H18 UNL     1      -7.148  47.213 -24.059  1.00  0.00     0.209 HD
ENDBRANCH  37  38
ENDBRANCH  36  37
ENDBRANCH  34  36
ENDBRANCH   4  33
BRANCH  13  40
HETATM   40  O6  UNL     1      -5.958  46.223 -19.298  1.00  0.00    -0.389 OA
HETATM   41  H35 UNL     1      -5.183  46.320 -18.718  1.00  0.00     0.210 HD
ENDBRANCH  13  40
BRANCH  10  42
HETATM   42  C18 UNL     1     -10.152  47.350 -19.696  1.00  0.00    -0.045 A 
HETATM   43  C19 UNL     1     -10.979  48.320 -19.301  1.00  0.00     0.087 A 
HETATM   44  C20 UNL     1     -12.320  47.980 -19.770  1.00  0.00     0.283 A 
HETATM   45  O4  UNL     1     -13.312  48.660 -19.588  1.00  0.00    -0.260 OA
HETATM   46  O5  UNL     1     -12.272  46.790 -20.422  1.00  0.00    -0.314 OA
HETATM   47  C21 UNL     1     -10.922  46.325 -20.449  1.00  0.00     0.213 A 
ENDBRANCH  10  42
TORSDOF 11
ENDMDL
MODEL 5
REMARK minimizedAffinity -8.34953308
REMARK CNNscore 0.434363812
REMARK CNNaffinity 7.03746796
REMARK  11 active torsions:
REMARK  status: ('A' for Active; 'I' for Inactive)
REMARK    1  A    between atoms: O1_2  and  C2_3 
REMARK    2  A    between atoms: C4_5  and  O2_6 
REMARK    3  A    between atoms: O2_6  and  C5_7 
REMARK    4  A    between atoms: C8_10  and  C9_11 
REMARK    5  A    between atoms: N1_12  and  C10_14 
REMARK    6  A    between atoms: C10_14  and  C11_15 
REMARK    7  A    between atoms: C11_15  and  O3_16 
REMARK    8  A    between atoms: C17_22  and  C18_23 
REMARK    9  A    between atoms: C24_31  and  O6_32 
REMARK   10  A    between atoms: C28_36  and  O7_37 
REMARK   11  A    between atoms: C32_42  and  O9_43 
ROOT
HETATM    1  C5  UNL     1      -1.684  50.113 -21.765  1.00  0.00     0.127 C 
HETATM    2  C6  UNL     1      -2.861  50.869 -22.385  1.00  0.00     0.033 C 
HETATM    3  C7  UNL     1      -4.214  50.478 -21.780  1.00  0.00     0.021 C 
HETATM    4  C8  UNL     1      -4.472  48.942 -21.800  1.00  0.00     0.026 C 
HETATM    5  C12 UNL     1      -5.825  48.626 -21.025  1.00  0.00     0.009 C 
HETATM    6  C13 UNL     1      -7.060  48.677 -21.950  1.00  0.00     0.007 C 
HETATM    7  C14 UNL     1      -8.368  48.382 -21.229  1.00  0.00     0.013 C 
HETATM    8  C15 UNL     1      -8.368  46.993 -20.556  1.00  0.00    -0.005 C 
HETATM    9  C16 UNL     1      -8.411  45.878 -21.620  1.00  0.00     0.019 C 
HETATM   10  C17 UNL     1      -9.563  46.848 -19.550  1.00  0.00     0.028 C 
HETATM   11  C22 UNL     1      -9.069  47.559 -18.270  1.00  0.00     0.013 C 
HETATM   12  C23 UNL     1      -7.551  47.687 -18.386  1.00  0.00     0.040 C 
HETATM   13  C24 UNL     1      -7.140  46.850 -19.615  1.00  0.00     0.070 C 
HETATM   14  C25 UNL     1      -5.765  47.319 -20.174  1.00  0.00     0.026 C 
HETATM   15  C26 UNL     1      -4.924  46.249 -20.887  1.00  0.00     0.011 C 
HETATM   16  C27 UNL     1      -3.459  46.692 -21.066  1.00  0.00     0.039 C 
HETATM   17  C28 UNL     1      -3.266  48.226 -21.118  1.00  0.00     0.073 C 
HETATM   18  C29 UNL     1      -1.930  48.597 -21.783  1.00  0.00     0.071 C 
ENDROOT
BRANCH   1  19
HETATM   19  O2  UNL     1      -0.526  50.420 -22.550  1.00  0.00    -0.356 OA
BRANCH  19  20
HETATM   20  C4  UNL     1      -0.669  51.591 -23.355  1.00  0.00     0.263 C 
HETATM   21  C3  UNL     1      -0.602  51.129 -24.811  1.00  0.00     0.095 C 
HETATM   22  C2  UNL     1      -0.687  52.317 -25.761  1.00  0.00     0.156 C 
HETATM   23  C32 UNL     1       0.367  53.373 -25.377  1.00  0.00     0.175 C 
HETATM   24  C30 UNL     1       0.270  53.706 -23.880  1.00  0.00     0.151 C 
HETATM   25  O8  UNL     1       0.383  52.516 -23.090  1.00  0.00    -0.354 OA
HETATM   26  C31 UNL     1       1.388  54.649 -23.446  1.00  0.00     0.042 C 
BRANCH  22  27
HETATM   27  O1  UNL     1      -1.974  52.964 -25.697  1.00  0.00    -0.388 OA
HETATM   28  C1  UNL     1      -3.042  52.150 -26.166  1.00  0.00     0.202 C 
ENDBRANCH  22  27
BRANCH  23  29
HETATM   29  O9  UNL     1       0.171  54.548 -26.172  1.00  0.00    -0.390 OA
HETATM   30  H49 UNL     1      -0.801  54.652 -26.237  1.00  0.00     0.210 HD
ENDBRANCH  23  29
ENDBRANCH  19  20
ENDBRANCH   1  19
BRANCH  17  31
HETATM   31  O7  UNL     1      -3.181  48.687 -19.753  1.00  0.00    -0.389 OA
HETATM   32  H41 UNL     1      -2.389  48.290 -19.347  1.00  0.00     0.210 HD
ENDBRANCH  17  31
BRANCH   4  33
HETATM   33  C9  UNL     1      -4.565  48.463 -23.264  1.00  0.00     0.068 C 
HETATM   34  N1  UNL     1      -4.629  49.286 -24.256  1.00  0.00    -0.399 N 
ATOM     35  H1  UNL     1      -4.594  50.299 -24.143  1.00  0.00     0.158 HD
BRANCH  34  36
HETATM   36  C10 UNL     1      -4.760  48.628 -25.566  1.00  0.00     0.144 C 
BRANCH  36  37
HETATM   37  C11 UNL     1      -3.360  48.482 -26.159  1.00  0.00     0.183 C 
BRANCH  37  38
HETATM   38  O3  UNL     1      -3.466  48.155 -27.545  1.00  0.00    -0.399 OA
HETATM   39  H18 UNL     1      -4.117  48.795 -27.891  1.00  0.00     0.209 HD
ENDBRANCH  37  38
ENDBRANCH  36  37
ENDBRANCH  34  36
ENDBRANCH   4  33
BRANCH  13  40
HETATM   40  O6  UNL     1      -7.042  45.494 -19.161  1.00  0.00    -0.389 OA
HETATM   41  H35 UNL     1      -6.342  45.457 -18.485  1.00  0.00     0.210 HD
ENDBRANCH  13  40
BRANCH  10  42
HETATM   42  C18 UNL     1     -10.941  47.249 -20.016  1.00  0.00    -0.045 A 
HETATM   43  C19 UNL     1     -11.684  48.292 -19.639  1.00  0.00     0.087 A 
HETATM   44  C20 UNL     1     -12.978  48.181 -20.309  1.00  0.00     0.283 A 
HETATM   45  O4  UNL     1     -13.890  48.977 -20.191  1.00  0.00    -0.260 OA
HETATM   46  O5  UNL     1     -12.990  47.052 -21.062  1.00  0.00    -0.314 OA
HETATM   47  C21 UNL     1     -11.722  46.406 -20.958  1.00  0.00     0.213 A 
ENDBRANCH  10  42
TORSDOF 11
ENDMDL
MODEL 6
REMARK minimizedAffinity -8.73413181
REMARK CNNscore 0.362190187
REMARK CNNaffinity 6.90247154
REMARK  11 active torsions:
REMARK  status: ('A' for Active; 'I' for Inactive)
REMARK    1  A    between atoms: O1_2  and  C2_3 
REMARK    2  A    between atoms: C4_5  and  O2_6 
REMARK    3  A    between atoms: O2_6  and  C5_7 
REMARK    4  A    between atoms: C8_10  and  C9_11 
REMARK    5  A    between atoms: N1_12  and  C10_14 
REMARK    6  A    between atoms: C10_14  and  C11_15 
REMARK    7  A    between atoms: C11_15  and  O3_16 
REMARK    8  A    between atoms: C17_22  and  C18_23 
REMARK    9  A    between atoms: C24_31  and  O6_32 
REMARK   10  A    between atoms: C28_36  and  O7_37 
REMARK   11  A    between atoms: C32_42  and  O9_43 
ROOT
HETATM    1  C5  UNL     1      -3.104  51.044 -23.998  1.00  0.00     0.127 C 
HETATM    2  C6  UNL     1      -2.348  49.859 -23.393  1.00  0.00     0.033 C 
HETATM    3  C7  UNL     1      -3.204  48.592 -23.282  1.00  0.00     0.021 C 
HETATM    4  C8  UNL     1      -4.551  48.827 -22.536  1.00  0.00     0.026 C 
HETATM    5  C12 UNL     1      -5.426  47.501 -22.600  1.00  0.00     0.009 C 
HETATM    6  C13 UNL     1      -5.133  46.544 -21.423  1.00  0.00     0.007 C 
HETATM    7  C14 UNL     1      -5.957  45.264 -21.465  1.00  0.00     0.013 C 
HETATM    8  C15 UNL     1      -7.475  45.541 -21.452  1.00  0.00    -0.005 C 
HETATM    9  C16 UNL     1      -7.914  46.077 -20.074  1.00  0.00     0.019 C 
HETATM   10  C17 UNL     1      -8.291  44.257 -21.835  1.00  0.00     0.028 C 
HETATM   11  C22 UNL     1      -8.229  44.215 -23.378  1.00  0.00     0.013 C 
HETATM   12  C23 UNL     1      -7.810  45.608 -23.848  1.00  0.00     0.040 C 
HETATM   13  C24 UNL     1      -7.855  46.515 -22.601  1.00  0.00     0.070 C 
HETATM   14  C25 UNL     1      -6.952  47.768 -22.792  1.00  0.00     0.026 C 
HETATM   15  C26 UNL     1      -7.378  49.032 -22.028  1.00  0.00     0.011 C 
HETATM   16  C27 UNL     1      -6.668  50.292 -22.558  1.00  0.00     0.039 C 
HETATM   17  C28 UNL     1      -5.298  50.013 -23.220  1.00  0.00     0.073 C 
HETATM   18  C29 UNL     1      -4.432  51.283 -23.267  1.00  0.00     0.071 C 
ENDROOT
BRANCH   1  19
HETATM   19  O2  UNL     1      -2.264  52.196 -23.857  1.00  0.00    -0.356 OA
BRANCH  19  20
HETATM   20  C4  UNL     1      -1.601  52.576 -25.064  1.00  0.00     0.263 C 
HETATM   21  C3  UNL     1      -2.527  52.179 -26.214  1.00  0.00     0.095 C 
HETATM   22  C2  UNL     1      -1.885  52.491 -27.560  1.00  0.00     0.156 C 
HETATM   23  C32 UNL     1      -0.478  51.866 -27.628  1.00  0.00     0.175 C 
HETATM   24  C30 UNL     1       0.342  52.258 -26.388  1.00  0.00     0.151 C 
HETATM   25  O8  UNL     1      -0.353  51.898 -25.189  1.00  0.00    -0.354 OA
HETATM   26  C31 UNL     1       1.690  51.546 -26.365  1.00  0.00     0.042 C 
BRANCH  22  27
HETATM   27  O1  UNL     1      -1.725  53.910 -27.762  1.00  0.00    -0.388 OA
HETATM   28  C1  UNL     1      -0.367  54.332 -27.767  1.00  0.00     0.202 C 
ENDBRANCH  22  27
BRANCH  23  29
HETATM   29  O9  UNL     1       0.174  52.300 -28.826  1.00  0.00    -0.390 OA
HETATM   30  H49 UNL     1      -0.081  53.240 -28.929  1.00  0.00     0.210 HD
ENDBRANCH  23  29
ENDBRANCH  19  20
ENDBRANCH   1  19
BRANCH  17  31
HETATM   31  O7  UNL     1      -5.559  49.650 -24.593  1.00  0.00    -0.389 OA
HETATM   32  H41 UNL     1      -5.966  50.416 -25.037  1.00  0.00     0.210 HD
ENDBRANCH  17  31
BRANCH   4  33
HETATM   33  C9  UNL     1      -4.258  49.211 -21.070  1.00  0.00     0.068 C 
HETATM   34  N1  UNL     1      -3.111  48.999 -20.518  1.00  0.00    -0.399 N 
ATOM     35  H1  UNL     1      -2.318  48.595 -21.017  1.00  0.00     0.158 HD
BRANCH  34  36
HETATM   36  C10 UNL     1      -3.051  49.393 -19.102  1.00  0.00     0.144 C 
BRANCH  36  37
HETATM   37  C11 UNL     1      -3.248  50.906 -19.028  1.00  0.00     0.183 C 
BRANCH  37  38
HETATM   38  O3  UNL     1      -2.889  51.365 -17.723  1.00  0.00    -0.399 OA
HETATM   39  H18 UNL     1      -2.027  50.938 -17.551  1.00  0.00     0.209 HD
ENDBRANCH  37  38
ENDBRANCH  36  37
ENDBRANCH  34  36
ENDBRANCH   4  33
BRANCH  13  40
HETATM   40  O6  UNL     1      -9.222  46.921 -22.451  1.00  0.00    -0.389 OA
HETATM   41  H35 UNL     1      -9.469  47.432 -23.242  1.00  0.00     0.210 HD
ENDBRANCH  13  40
BRANCH  10  42
HETATM   42  C18 UNL     1      -7.948  42.960 -21.144  1.00  0.00    -0.045 A 
HETATM   43  C19 UNL     1      -7.164  41.967 -21.565  1.00  0.00     0.087 A 
HETATM   44  C20 UNL     1      -7.235  40.894 -20.576  1.00  0.00     0.283 A 
HETATM   45  O4  UNL     1      -6.630  39.841 -20.649  1.00  0.00    -0.260 OA
HETATM   46  O5  UNL     1      -8.087  41.262 -19.586  1.00  0.00    -0.314 OA
HETATM   47  C21 UNL     1      -8.570  42.579 -19.849  1.00  0.00     0.213 A 
ENDBRANCH  10  42
TORSDOF 11
ENDMDL
MODEL 7
REMARK minimizedAffinity -7.98622417
REMARK CNNscore 0.313062489
REMARK CNNaffinity 6.68584585
REMARK  11 active torsions:
REMARK  status: ('A' for Active; 'I' for Inactive)
REMARK    1  A    between atoms: O1_2  and  C2_3 
REMARK    2  A    between atoms: C4_5  and  O2_6 
REMARK    3  A    between atoms: O2_6  and  C5_7 
REMARK    4  A    between atoms: C8_10  and  C9_11 
REMARK    5  A    between atoms: N1_12  and  C10_14 
REMARK    6  A    between atoms: C10_14  and  C11_15 
REMARK    7  A    between atoms: C11_15  and  O3_16 
REMARK    8  A    between atoms: C17_22  and  C18_23 
REMARK    9  A    between atoms: C24_31  and  O6_32 
REMARK   10  A    between atoms: C28_36  and  O7_37 
REMARK   11  A    between atoms: C32_42  and  O9_43 
ROOT
HETATM    1  C5  UNL     1      -3.622  51.748 -24.411  1.00  0.00     0.127 C 
HETATM    2  C6  UNL     1      -5.116  52.030 -24.245  1.00  0.00     0.033 C 
HETATM    3  C7  UNL     1      -5.718  51.372 -22.999  1.00  0.00     0.021 C 
HETATM    4  C8  UNL     1      -5.433  49.842 -22.917  1.00  0.00     0.026 C 
HETATM    5  C12 UNL     1      -5.967  49.281 -21.528  1.00  0.00     0.009 C 
HETATM    6  C13 UNL     1      -7.443  48.832 -21.602  1.00  0.00     0.007 C 
HETATM    7  C14 UNL     1      -7.980  48.295 -20.282  1.00  0.00     0.013 C 
HETATM    8  C15 UNL     1      -7.168  47.088 -19.766  1.00  0.00    -0.005 C 
HETATM    9  C16 UNL     1      -7.412  45.853 -20.658  1.00  0.00     0.019 C 
HETATM   10  C17 UNL     1      -7.511  46.769 -18.269  1.00  0.00     0.028 C 
HETATM   11  C22 UNL     1      -6.670  47.784 -17.463  1.00  0.00     0.013 C 
HETATM   12  C23 UNL     1      -5.591  48.318 -18.404  1.00  0.00     0.040 C 
HETATM   13  C24 UNL     1      -5.660  47.450 -19.677  1.00  0.00     0.070 C 
HETATM   14  C25 UNL     1      -5.040  48.196 -20.895  1.00  0.00     0.026 C 
HETATM   15  C26 UNL     1      -4.422  47.311 -21.988  1.00  0.00     0.011 C 
HETATM   16  C27 UNL     1      -3.520  48.119 -22.941  1.00  0.00     0.039 C 
HETATM   17  C28 UNL     1      -3.895  49.615 -23.047  1.00  0.00     0.073 C 
HETATM   18  C29 UNL     1      -3.332  50.241 -24.334  1.00  0.00     0.071 C 
ENDROOT
BRANCH   1  19
HETATM   19  O2  UNL     1      -3.240  52.244 -25.700  1.00  0.00    -0.356 OA
BRANCH  19  20
HETATM   20  C4  UNL     1      -1.870  52.641 -25.781  1.00  0.00     0.263 C 
HETATM   21  C3  UNL     1      -1.180  51.637 -26.705  1.00  0.00     0.095 C 
HETATM   22  C2  UNL     1       0.309  51.937 -26.816  1.00  0.00     0.156 C 
HETATM   23  C32 UNL     1       0.930  52.043 -25.410  1.00  0.00     0.175 C 
HETATM   24  C30 UNL     1       0.116  53.011 -24.537  1.00  0.00     0.151 C 
HETATM   25  O8  UNL     1      -1.260  52.615 -24.493  1.00  0.00    -0.354 OA
HETATM   26  C31 UNL     1       0.630  53.032 -23.101  1.00  0.00     0.042 C 
BRANCH  22  27
HETATM   27  O1  UNL     1       0.555  53.194 -27.480  1.00  0.00    -0.388 OA
HETATM   28  C1  UNL     1       0.006  53.260 -28.790  1.00  0.00     0.202 C 
ENDBRANCH  22  27
BRANCH  23  29
HETATM   29  O9  UNL     1       2.288  52.483 -25.524  1.00  0.00    -0.390 OA
HETATM   30  H49 UNL     1       2.280  53.153 -26.239  1.00  0.00     0.210 HD
ENDBRANCH  23  29
ENDBRANCH  19  20
ENDBRANCH   1  19
BRANCH  17  31
HETATM   31  O7  UNL     1      -3.245  50.291 -21.949  1.00  0.00    -0.389 OA
HETATM   32  H41 UNL     1      -2.281  50.205 -22.068  1.00  0.00     0.210 HD
ENDBRANCH  17  31
BRANCH   4  33
HETATM   33  C9  UNL     1      -6.136  49.131 -24.093  1.00  0.00     0.068 C 
HETATM   34  N1  UNL     1      -7.255  49.551 -24.581  1.00  0.00    -0.399 N 
ATOM     35  H1  UNL     1      -7.730  50.389 -24.247  1.00  0.00     0.158 HD
BRANCH  34  36
HETATM   36  C10 UNL     1      -7.782  48.707 -25.665  1.00  0.00     0.144 C 
BRANCH  36  37
HETATM   37  C11 UNL     1      -9.307  48.776 -25.615  1.00  0.00     0.183 C 
BRANCH  37  38
HETATM   38  O3  UNL     1      -9.736  50.065 -26.055  1.00  0.00    -0.399 OA
HETATM   39  H18 UNL     1      -9.231  50.215 -26.878  1.00  0.00     0.209 HD
ENDBRANCH  37  38
ENDBRANCH  36  37
ENDBRANCH  34  36
ENDBRANCH   4  33
BRANCH  13  40
HETATM   40  O6  UNL     1      -4.900  46.267 -19.396  1.00  0.00    -0.389 OA
HETATM   41  H35 UNL     1      -3.980  46.537 -19.229  1.00  0.00     0.210 HD
ENDBRANCH  13  40
BRANCH  10  42
HETATM   42  C18 UNL     1      -8.965  46.684 -17.873  1.00  0.00    -0.045 A 
HETATM   43  C19 UNL     1      -9.842  47.671 -17.681  1.00  0.00     0.087 A 
HETATM   44  C20 UNL     1     -11.090  47.072 -17.213  1.00  0.00     0.283 A 
HETATM   45  O4  UNL     1     -12.103  47.693 -16.951  1.00  0.00    -0.260 OA
HETATM   46  O5  UNL     1     -10.925  45.729 -17.110  1.00  0.00    -0.314 OA
HETATM   47  C21 UNL     1      -9.607  45.385 -17.538  1.00  0.00     0.213 A 
ENDBRANCH  10  42
TORSDOF 11
ENDMDL
MODEL 8
REMARK minimizedAffinity -7.84710884
REMARK CNNscore 0.271866649
REMARK CNNaffinity 6.82473373
REMARK  11 active torsions:
REMARK  status: ('A' for Active; 'I' for Inactive)
REMARK    1  A    between atoms: O1_2  and  C2_3 
REMARK    2  A    between atoms: C4_5  and  O2_6 
REMARK    3  A    between atoms: O2_6  and  C5_7 
REMARK    4  A    between atoms: C8_10  and  C9_11 
REMARK    5  A    between atoms: N1_12  and  C10_14 
REMARK    6  A    between atoms: C10_14  and  C11_15 
REMARK    7  A    between atoms: C11_15  and  O3_16 
REMARK    8  A    between atoms: C17_22  and  C18_23 
REMARK    9  A    between atoms: C24_31  and  O6_32 
REMARK   10  A    between atoms: C28_36  and  O7_37 
REMARK   11  A    between atoms: C32_42  and  O9_43 
ROOT
HETATM    1  C5  UNL     1      -0.833  51.556 -22.701  1.00  0.00     0.127 C 
HETATM    2  C6  UNL     1      -0.092  50.566 -21.800  1.00  0.00     0.033 C 
HETATM    3  C7  UNL     1      -0.942  49.352 -21.411  1.00  0.00     0.021 C 
HETATM    4  C8  UNL     1      -2.316  49.742 -20.789  1.00  0.00     0.026 C 
HETATM    5  C12 UNL     1      -3.180  48.428 -20.554  1.00  0.00     0.009 C 
HETATM    6  C13 UNL     1      -2.922  47.792 -19.171  1.00  0.00     0.007 C 
HETATM    7  C14 UNL     1      -3.735  46.529 -18.924  1.00  0.00     0.013 C 
HETATM    8  C15 UNL     1      -5.255  46.777 -19.029  1.00  0.00    -0.005 C 
HETATM    9  C16 UNL     1      -5.745  47.628 -17.839  1.00  0.00     0.019 C 
HETATM   10  C17 UNL     1      -6.049  45.427 -19.112  1.00  0.00     0.028 C 
HETATM   11  C22 UNL     1      -5.932  45.010 -20.595  1.00  0.00     0.013 C 
HETATM   12  C23 UNL     1      -5.507  46.252 -21.378  1.00  0.00     0.040 C 
HETATM   13  C24 UNL     1      -5.601  47.435 -20.393  1.00  0.00     0.070 C 
HETATM   14  C25 UNL     1      -4.700  48.618 -20.855  1.00  0.00     0.026 C 
HETATM   15  C26 UNL     1      -5.160  50.023 -20.438  1.00  0.00     0.011 C 
HETATM   16  C27 UNL     1      -4.440  51.126 -21.237  1.00  0.00     0.039 C 
HETATM   17  C28 UNL     1      -3.047  50.714 -21.766  1.00  0.00     0.073 C 
HETATM   18  C29 UNL     1      -2.188  51.947 -22.094  1.00  0.00     0.071 C 
ENDROOT
BRANCH   1  19
HETATM   19  O2  UNL     1      -0.006  52.720 -22.820  1.00  0.00    -0.356 OA
BRANCH  19  20
HETATM   20  C4  UNL     1       0.423  52.988 -24.155  1.00  0.00     0.263 C 
HETATM   21  C3  UNL     1      -0.843  53.195 -24.987  1.00  0.00     0.095 C 
HETATM   22  C2  UNL     1      -0.497  53.433 -26.451  1.00  0.00     0.156 C 
HETATM   23  C32 UNL     1       0.425  52.309 -26.962  1.00  0.00     0.175 C 
HETATM   24  C30 UNL     1       1.621  52.126 -26.013  1.00  0.00     0.151 C 
HETATM   25  O8  UNL     1       1.171  51.891 -24.674  1.00  0.00    -0.354 OA
HETATM   26  C31 UNL     1       2.478  50.933 -26.423  1.00  0.00     0.042 C 
BRANCH  22  27
HETATM   27  O1  UNL     1       0.209  54.676 -26.641  1.00  0.00    -0.388 OA
HETATM   28  C1  UNL     1       0.121  55.554 -25.525  1.00  0.00     0.202 C 
ENDBRANCH  22  27
BRANCH  23  29
HETATM   29  O9  UNL     1       0.872  52.628 -28.285  1.00  0.00    -0.390 OA
HETATM   30  H49 UNL     1       1.036  53.594 -28.272  1.00  0.00     0.210 HD
ENDBRANCH  23  29
ENDBRANCH  19  20
ENDBRANCH   1  19
BRANCH  17  31
HETATM   31  O7  UNL     1      -3.257  50.023 -23.016  1.00  0.00    -0.389 OA
HETATM   32  H41 UNL     1      -3.653  50.651 -23.647  1.00  0.00     0.210 HD
ENDBRANCH  17  31
BRANCH   4  33
HETATM   33  C9  UNL     1      -2.077  50.477 -19.452  1.00  0.00     0.068 C 
HETATM   34  N1  UNL     1      -0.916  50.523 -18.889  1.00  0.00    -0.399 N 
ATOM     35  H1  UNL     1      -0.081  50.107 -19.300  1.00  0.00     0.158 HD
BRANCH  34  36
HETATM   36  C10 UNL     1      -0.911  51.230 -17.600  1.00  0.00     0.144 C 
BRANCH  36  37
HETATM   37  C11 UNL     1       0.542  51.530 -17.235  1.00  0.00     0.183 C 
BRANCH  37  38
HETATM   38  O3  UNL     1       0.889  52.832 -17.709  1.00  0.00    -0.399 OA
HETATM   39  H18 UNL     1       0.147  53.397 -17.415  1.00  0.00     0.209 HD
ENDBRANCH  37  38
ENDBRANCH  36  37
ENDBRANCH  34  36
ENDBRANCH   4  33
BRANCH  13  40
HETATM   40  O6  UNL     1      -6.975  47.845 -20.391  1.00  0.00    -0.389 OA
HETATM   41  H35 UNL     1      -7.197  48.144 -21.290  1.00  0.00     0.210 HD
ENDBRANCH  13  40
BRANCH  10  42
HETATM   42  C18 UNL     1      -5.721  44.344 -18.114  1.00  0.00    -0.045 A 
HETATM   43  C19 UNL     1      -5.940  44.321 -16.798  1.00  0.00     0.087 A 
HETATM   44  C20 UNL     1      -5.351  43.092 -16.271  1.00  0.00     0.283 A 
HETATM   45  O4  UNL     1      -5.379  42.755 -15.102  1.00  0.00    -0.260 OA
HETATM   46  O5  UNL     1      -4.766  42.410 -17.288  1.00  0.00    -0.314 OA
HETATM   47  C21 UNL     1      -4.976  43.120 -18.509  1.00  0.00     0.213 A 
ENDBRANCH  10  42
TORSDOF 11
ENDMDL
MODEL 9
REMARK minimizedAffinity -8.3520174
REMARK CNNscore 0.268679798
REMARK CNNaffinity 5.76671934
REMARK  11 active torsions:
REMARK  status: ('A' for Active; 'I' for Inactive)
REMARK    1  A    between atoms: O1_2  and  C2_3 
REMARK    2  A    between atoms: C4_5  and  O2_6 
REMARK    3  A    between atoms: O2_6  and  C5_7 
REMARK    4  A    between atoms: C8_10  and  C9_11 
REMARK    5  A    between atoms: N1_12  and  C10_14 
REMARK    6  A    between atoms: C10_14  and  C11_15 
REMARK    7  A    between atoms: C11_15  and  O3_16 
REMARK    8  A    between atoms: C17_22  and  C18_23 
REMARK    9  A    between atoms: C24_31  and  O6_32 
REMARK   10  A    between atoms: C28_36  and  O7_37 
REMARK   11  A    between atoms: C32_42  and  O9_43 
ROOT
HETATM    1  C5  UNL     1      -9.454  47.646 -20.932  1.00  0.00     0.127 C 
HETATM    2  C6  UNL     1      -8.813  48.271 -19.690  1.00  0.00     0.033 C 
HETATM    3  C7  UNL     1      -7.626  49.181 -20.019  1.00  0.00     0.021 C 
HETATM    4  C8  UNL     1      -6.549  48.486 -20.905  1.00  0.00     0.026 C 
HETATM    5  C12 UNL     1      -5.436  49.548 -21.311  1.00  0.00     0.009 C 
HETATM    6  C13 UNL     1      -4.293  49.627 -20.276  1.00  0.00     0.007 C 
HETATM    7  C14 UNL     1      -3.216  50.641 -20.640  1.00  0.00     0.013 C 
HETATM    8  C15 UNL     1      -2.565  50.341 -22.007  1.00  0.00    -0.005 C 
HETATM    9  C16 UNL     1      -1.696  49.070 -21.923  1.00  0.00     0.019 C 
HETATM   10  C17 UNL     1      -1.720  51.561 -22.515  1.00  0.00     0.028 C 
HETATM   11  C22 UNL     1      -2.766  52.516 -23.131  1.00  0.00     0.013 C 
HETATM   12  C23 UNL     1      -4.035  51.699 -23.369  1.00  0.00     0.040 C 
HETATM   13  C24 UNL     1      -3.654  50.227 -23.109  1.00  0.00     0.070 C 
HETATM   14  C25 UNL     1      -4.914  49.377 -22.772  1.00  0.00     0.026 C 
HETATM   15  C26 UNL     1      -4.847  47.889 -23.149  1.00  0.00     0.011 C 
HETATM   16  C27 UNL     1      -6.239  47.226 -23.129  1.00  0.00     0.039 C 
HETATM   17  C28 UNL     1      -7.247  47.908 -22.174  1.00  0.00     0.073 C 
HETATM   18  C29 UNL     1      -8.399  46.957 -21.809  1.00  0.00     0.071 C 
ENDROOT
BRANCH   1  19
HETATM   19  O2  UNL     1     -10.404  46.677 -20.474  1.00  0.00    -0.356 OA
BRANCH  19  20
HETATM   20  C4  UNL     1     -11.116  47.077 -19.302  1.00  0.00     0.263 C 
HETATM   21  C3  UNL     1     -11.107  45.877 -18.355  1.00  0.00     0.095 C 
HETATM   22  C2  UNL     1     -11.895  46.180 -17.088  1.00  0.00     0.156 C 
HETATM   23  C32 UNL     1     -13.301  46.692 -17.454  1.00  0.00     0.175 C 
HETATM   24  C30 UNL     1     -13.203  47.841 -18.471  1.00  0.00     0.151 C 
HETATM   25  O8  UNL     1     -12.459  47.431 -19.624  1.00  0.00    -0.354 OA
HETATM   26  C31 UNL     1     -14.584  48.278 -18.951  1.00  0.00     0.042 C 
BRANCH  22  27
HETATM   27  O1  UNL     1     -11.266  47.207 -16.296  1.00  0.00    -0.388 OA
HETATM   28  C1  UNL     1      -9.959  46.861 -15.854  1.00  0.00     0.202 C 
ENDBRANCH  22  27
BRANCH  23  29
HETATM   29  O9  UNL     1     -13.972  47.124 -16.265  1.00  0.00    -0.390 OA
HETATM   30  H49 UNL     1     -13.282  47.567 -15.729  1.00  0.00     0.210 HD
ENDBRANCH  23  29
ENDBRANCH  19  20
ENDBRANCH   1  19
BRANCH  17  31
HETATM   31  O7  UNL     1      -7.841  49.004 -22.901  1.00  0.00    -0.389 OA
HETATM   32  H41 UNL     1      -8.333  48.636 -23.658  1.00  0.00     0.210 HD
ENDBRANCH  17  31
BRANCH   4  33
HETATM   33  C9  UNL     1      -5.919  47.319 -20.115  1.00  0.00     0.068 C 
HETATM   34  N1  UNL     1      -6.282  46.093 -20.292  1.00  0.00    -0.399 N 
ATOM     35  H1  UNL     1      -6.981  45.812 -20.980  1.00  0.00     0.158 HD
BRANCH  34  36
HETATM   36  C10 UNL     1      -5.594  45.137 -19.410  1.00  0.00     0.144 C 
BRANCH  36  37
HETATM   37  C11 UNL     1      -4.092  45.273 -19.651  1.00  0.00     0.183 C 
BRANCH  37  38
HETATM   38  O3  UNL     1      -3.756  44.656 -20.895  1.00  0.00    -0.399 OA
HETATM   39  H18 UNL     1      -4.422  45.004 -21.520  1.00  0.00     0.209 HD
ENDBRANCH  37  38
ENDBRANCH  36  37
ENDBRANCH  34  36
ENDBRANCH   4  33
BRANCH  13  40
HETATM   40  O6  UNL     1      -3.058  49.749 -24.322  1.00  0.00    -0.389 OA
HETATM   41  H35 UNL     1      -3.731  49.798 -25.024  1.00  0.00     0.210 HD
ENDBRANCH  13  40
BRANCH  10  42
HETATM   42  C18 UNL     1      -0.749  52.205 -21.556  1.00  0.00    -0.045 A 
HETATM   43  C19 UNL     1       0.180  53.131 -21.799  1.00  0.00     0.087 A 
HETATM   44  C20 UNL     1       0.924  53.350 -20.560  1.00  0.00     0.283 A 
HETATM   45  O4  UNL     1       1.839  54.141 -20.430  1.00  0.00    -0.260 OA
HETATM   46  O5  UNL     1       0.434  52.525 -19.599  1.00  0.00    -0.314 OA
HETATM   47  C21 UNL     1      -0.655  51.775 -20.137  1.00  0.00     0.213 A 
ENDBRANCH  10  42
TORSDOF 11
ENDMDL
