MODEL 1
REMARK minimizedAffinity -8.61283493
REMARK CNNscore 0.511943221
REMARK CNNaffinity 6.4524703
REMARK  14 active torsions:
REMARK  status: ('A' for Active; 'I' for Inactive)
REMARK    1  A    between atoms: O1_2  and  C2_3 
REMARK    2  A    between atoms: C2_3  and  C3_5 
REMARK    3  A    between atoms: C3_5  and  C4_6 
REMARK    4  A    between atoms: C3_5  and  N2_16 
REMARK    5  A    between atoms: C4_6  and  C5_7 
REMARK       I    between atoms: N2_16  and  C13_17 
REMARK    6  A    between atoms: C13_17  and  C14_19 
REMARK    7  A    between atoms: C14_19  and  C15_20 
REMARK    8  A    between atoms: C15_20  and  C16_21 
REMARK    9  A    between atoms: C16_21  and  O5_23 
REMARK   10  A    between atoms: O5_23  and  C17_24 
REMARK   11  A    between atoms: C17_24  and  C18_25 
REMARK   12  A    between atoms: C18_25  and  C19_27 
REMARK   13  A    between atoms: C19_27  and  O7_28 
REMARK   14  A    between atoms: C34_44  and  O9_45 
ROOT
HETATM    1  C17 UNL     1      -8.849  46.373 -26.671  1.00  0.00     0.260 C 
ENDROOT
BRANCH   1   2
HETATM    2  O5  UNL     1      -8.726  47.797 -26.601  1.00  0.00    -0.314 OA
BRANCH   2   3
HETATM    3  C16 UNL     1      -8.062  48.254 -25.507  1.00  0.00     0.259 C 
HETATM    4  O4  UNL     1      -8.546  48.986 -24.654  1.00  0.00    -0.265 OA
BRANCH   3   5
HETATM    5  C15 UNL     1      -6.658  47.709 -25.488  1.00  0.00     0.120 C 
BRANCH   5   6
HETATM    6  C14 UNL     1      -5.891  48.214 -24.271  1.00  0.00     0.112 C 
BRANCH   6   7
HETATM    7  C13 UNL     1      -4.515  48.719 -24.649  1.00  0.00     0.218 C 
HETATM    8  N2  UNL     1      -4.044  49.691 -23.794  1.00  0.00    -0.347 N 
HETATM    9  H13 UNL     1      -4.471  49.743 -22.875  1.00  0.00     0.163 HD
HETATM   10  O3  UNL     1      -3.880  48.306 -25.611  1.00  0.00    -0.274 OA
BRANCH   8  11
HETATM   11  C3  UNL     1      -2.653  50.160 -23.893  1.00  0.00     0.188 C 
BRANCH  11  12
HETATM   12  C2  UNL     1      -2.088  50.262 -22.474  1.00  0.00     0.281 C 
HETATM   13  O2  UNL     1      -2.187  51.255 -21.762  1.00  0.00    -0.263 OA
BRANCH  12  14
HETATM   14  O1  UNL     1      -1.411  49.126 -22.142  1.00  0.00    -0.325 OA
HETATM   15  C1  UNL     1      -2.053  48.339 -21.139  1.00  0.00     0.213 C 
ENDBRANCH  12  14
ENDBRANCH  11  12
BRANCH  11  16
HETATM   16  C4  UNL     1      -2.554  51.548 -24.536  1.00  0.00     0.076 C 
BRANCH  16  17
HETATM   17  C5  UNL     1      -1.964  51.590 -25.917  1.00  0.00    -0.028 A 
HETATM   18  C6  UNL     1      -2.622  51.577 -27.134  1.00  0.00     0.096 A 
HETATM   19  N1  UNL     1      -1.688  51.626 -28.135  1.00  0.00    -0.365 N 
HETATM   20  C7  UNL     1      -0.421  51.663 -27.604  1.00  0.00     0.042 A 
HETATM   21  H8  UNL     1      -1.896  51.632 -29.124  1.00  0.00     0.165 HD
HETATM   22  C8  UNL     1       0.823  51.714 -28.244  1.00  0.00     0.030 A 
HETATM   23  C12 UNL     1      -0.559  51.636 -26.216  1.00  0.00    -0.002 A 
HETATM   24  C9  UNL     1       1.966  51.736 -27.436  1.00  0.00     0.002 A 
HETATM   25  C10 UNL     1       1.863  51.706 -26.047  1.00  0.00     0.001 A 
HETATM   26  C11 UNL     1       0.610  51.656 -25.425  1.00  0.00     0.014 A 
ENDBRANCH  16  17
ENDBRANCH  11  16
ENDBRANCH   8  11
ENDBRANCH   6   7
ENDBRANCH   5   6
ENDBRANCH   3   5
ENDBRANCH   2   3
ENDBRANCH   1   2
BRANCH   1  27
HETATM   27  C18 UNL     1      -9.366  45.950 -28.044  1.00  0.00     0.185 C 
HETATM   28  O6  UNL     1      -8.621  45.449 -28.889  1.00  0.00    -0.292 OA
BRANCH  27  29
HETATM   29  C19 UNL     1     -10.868  46.198 -28.328  1.00  0.00     0.128 C 
HETATM   30  C20 UNL     1     -11.303  45.636 -29.715  1.00  0.00     0.047 C 
HETATM   31  C21 UNL     1     -12.718  45.054 -29.537  1.00  0.00     0.009 C 
HETATM   32  C22 UNL     1     -13.150  45.536 -28.159  1.00  0.00     0.002 C 
HETATM   33  C23 UNL     1     -14.341  44.840 -27.482  1.00  0.00    -0.002 C 
HETATM   34  C36 UNL     1     -11.844  45.490 -27.328  1.00  0.00     0.001 C 
HETATM   35  C24 UNL     1     -15.574  44.856 -28.404  1.00  0.00     0.010 C 
HETATM   36  C33 UNL     1     -14.641  45.564 -26.124  1.00  0.00     0.035 C 
HETATM   37  C25 UNL     1     -16.815  44.289 -27.724  1.00  0.00     0.036 C 
HETATM   38  C26 UNL     1     -17.069  45.012 -26.426  1.00  0.00    -0.064 A 
HETATM   39  C27 UNL     1     -18.226  45.669 -26.229  1.00  0.00     0.058 A 
HETATM   40  C31 UNL     1     -15.920  44.978 -25.406  1.00  0.00     0.004 A 
HETATM   41  C28 UNL     1     -18.487  46.438 -24.994  1.00  0.00     0.172 A 
HETATM   42  O8  UNL     1     -19.545  47.028 -24.822  1.00  0.00    -0.289 OA
HETATM   43  C29 UNL     1     -17.415  46.469 -23.981  1.00  0.00     0.052 A 
HETATM   44  C30 UNL     1     -16.263  45.812 -24.176  1.00  0.00    -0.009 A 
HETATM   45  C32 UNL     1     -15.758  43.523 -24.914  1.00  0.00     0.025 C 
HETATM   46  C34 UNL     1     -13.363  45.690 -25.243  1.00  0.00     0.124 C 
HETATM   47  C35 UNL     1     -12.131  46.233 -26.005  1.00  0.00     0.045 C 
HETATM   48  C37 UNL     1     -11.348  44.046 -27.049  1.00  0.00     0.019 C 
BRANCH  29  49
HETATM   49  O7  UNL     1     -11.119  47.608 -28.332  1.00  0.00    -0.381 OA
HETATM   50  H20 UNL     1     -10.724  47.990 -29.139  1.00  0.00     0.211 HD
ENDBRANCH  29  49
BRANCH  46  51
HETATM   51  O9  UNL     1     -13.031  44.446 -24.642  1.00  0.00    -0.395 OA
HETATM   52  H39 UNL     1     -12.284  44.593 -24.035  1.00  0.00     0.210 HD
ENDBRANCH  46  51
ENDBRANCH  27  29
ENDBRANCH   1  27
TORSDOF 14
ENDMDL
MODEL 2
REMARK minimizedAffinity -8.97179508
REMARK CNNscore 0.366275638
REMARK CNNaffinity 6.25697899
REMARK  14 active torsions:
REMARK  status: ('A' for Active; 'I' for Inactive)
REMARK    1  A    between atoms: O1_2  and  C2_3 
REMARK    2  A    between atoms: C2_3  and  C3_5 
REMARK    3  A    between atoms: C3_5  and  C4_6 
REMARK    4  A    between atoms: C3_5  and  N2_16 
REMARK    5  A    between atoms: C4_6  and  C5_7 
REMARK       I    between atoms: N2_16  and  C13_17 
REMARK    6  A    between atoms: C13_17  and  C14_19 
REMARK    7  A    between atoms: C14_19  and  C15_20 
REMARK    8  A    between atoms: C15_20  and  C16_21 
REMARK    9  A    between atoms: C16_21  and  O5_23 
REMARK   10  A    between atoms: O5_23  and  C17_24 
REMARK   11  A    between atoms: C17_24  and  C18_25 
REMARK   12  A    between atoms: C18_25  and  C19_27 
REMARK   13  A    between atoms: C19_27  and  O7_28 
REMARK   14  A    between atoms: C34_44  and  O9_45 
ROOT
HETATM    1  C17 UNL     1      -6.958  48.709 -24.604  1.00  0.00     0.260 C 
ENDROOT
BRANCH   1   2
HETATM    2  O5  UNL     1      -7.223  47.418 -25.158  1.00  0.00    -0.314 OA
BRANCH   2   3
HETATM    3  C16 UNL     1      -7.812  47.437 -26.383  1.00  0.00     0.259 C 
HETATM    4  O4  UNL     1      -7.235  47.205 -27.437  1.00  0.00    -0.265 OA
BRANCH   3   5
HETATM    5  C15 UNL     1      -9.276  47.760 -26.248  1.00  0.00     0.120 C 
BRANCH   5   6
HETATM    6  C14 UNL     1     -10.010  46.669 -25.477  1.00  0.00     0.112 C 
BRANCH   6   7
HETATM    7  C13 UNL     1     -11.482  46.984 -25.329  1.00  0.00     0.218 C 
HETATM    8  N2  UNL     1     -12.116  46.182 -24.405  1.00  0.00    -0.347 N 
HETATM    9  H13 UNL     1     -11.530  45.716 -23.721  1.00  0.00     0.163 HD
HETATM   10  O3  UNL     1     -12.056  47.865 -25.958  1.00  0.00    -0.274 OA
BRANCH   8  11
HETATM   11  C3  UNL     1     -13.498  46.467 -23.992  1.00  0.00     0.188 C 
BRANCH  11  12
HETATM   12  C2  UNL     1     -13.457  47.048 -22.577  1.00  0.00     0.281 C 
HETATM   13  O2  UNL     1     -14.342  47.741 -22.089  1.00  0.00    -0.263 OA
BRANCH  12  14
HETATM   14  O1  UNL     1     -12.279  46.739 -21.963  1.00  0.00    -0.325 OA
HETATM   15  C1  UNL     1     -12.250  47.049 -20.570  1.00  0.00     0.213 C 
ENDBRANCH  12  14
ENDBRANCH  11  12
BRANCH  11  16
HETATM   16  C4  UNL     1     -14.365  45.204 -23.954  1.00  0.00     0.076 C 
BRANCH  16  17
HETATM   17  C5  UNL     1     -15.545  45.190 -24.884  1.00  0.00    -0.028 A 
HETATM   18  C6  UNL     1     -15.599  44.764 -26.199  1.00  0.00     0.096 A 
HETATM   19  N1  UNL     1     -16.877  44.934 -26.660  1.00  0.00    -0.365 N 
HETATM   20  C7  UNL     1     -17.672  45.475 -25.677  1.00  0.00     0.042 A 
HETATM   21  H8  UNL     1     -17.195  44.701 -27.591  1.00  0.00     0.165 HD
HETATM   22  C8  UNL     1     -19.028  45.819 -25.702  1.00  0.00     0.030 A 
HETATM   23  C12 UNL     1     -16.865  45.652 -24.553  1.00  0.00    -0.002 A 
HETATM   24  C9  UNL     1     -19.579  46.366 -24.538  1.00  0.00     0.002 A 
HETATM   25  C10 UNL     1     -18.801  46.560 -23.399  1.00  0.00     0.001 A 
HETATM   26  C11 UNL     1     -17.446  46.208 -23.392  1.00  0.00     0.014 A 
ENDBRANCH  16  17
ENDBRANCH  11  16
ENDBRANCH   8  11
ENDBRANCH   6   7
ENDBRANCH   5   6
ENDBRANCH   3   5
ENDBRANCH   2   3
ENDBRANCH   1   2
BRANCH   1  27
HETATM   27  C18 UNL     1      -7.220  48.708 -23.100  1.00  0.00     0.185 C 
HETATM   28  O6  UNL     1      -7.978  47.889 -22.576  1.00  0.00    -0.292 OA
BRANCH  27  29
HETATM   29  C19 UNL     1      -6.498  49.797 -22.267  1.00  0.00     0.128 C 
HETATM   30  C20 UNL     1      -7.025  49.858 -20.801  1.00  0.00     0.047 C 
HETATM   31  C21 UNL     1      -5.807  50.136 -19.900  1.00  0.00     0.009 C 
HETATM   32  C22 UNL     1      -4.693  50.491 -20.876  1.00  0.00     0.002 C 
HETATM   33  C23 UNL     1      -3.242  50.453 -20.372  1.00  0.00    -0.002 C 
HETATM   34  C36 UNL     1      -4.960  49.566 -22.088  1.00  0.00     0.001 C 
HETATM   35  C24 UNL     1      -3.080  51.333 -19.119  1.00  0.00     0.010 C 
HETATM   36  C33 UNL     1      -2.298  50.935 -21.527  1.00  0.00     0.035 C 
HETATM   37  C25 UNL     1      -1.630  51.426 -18.660  1.00  0.00     0.036 C 
HETATM   38  C26 UNL     1      -0.756  51.893 -19.795  1.00  0.00    -0.064 A 
HETATM   39  C27 UNL     1      -0.041  53.026 -19.681  1.00  0.00     0.058 A 
HETATM   40  C31 UNL     1      -0.791  51.027 -21.064  1.00  0.00     0.004 A 
HETATM   41  C28 UNL     1       0.780  53.547 -20.794  1.00  0.00     0.172 A 
HETATM   42  O8  UNL     1       1.433  54.576 -20.678  1.00  0.00    -0.289 OA
HETATM   43  C29 UNL     1       0.775  52.778 -22.052  1.00  0.00     0.052 A 
HETATM   44  C30 UNL     1       0.064  51.647 -22.166  1.00  0.00    -0.009 A 
HETATM   45  C32 UNL     1      -0.147  49.663 -20.731  1.00  0.00     0.025 C 
HETATM   46  C34 UNL     1      -2.557  50.154 -22.849  1.00  0.00     0.124 C 
HETATM   47  C35 UNL     1      -4.052  50.062 -23.236  1.00  0.00     0.045 C 
HETATM   48  C37 UNL     1      -4.688  48.068 -21.785  1.00  0.00     0.019 C 
BRANCH  29  49
HETATM   49  O7  UNL     1      -6.729  51.076 -22.867  1.00  0.00    -0.381 OA
HETATM   50  H20 UNL     1      -7.660  51.327 -22.712  1.00  0.00     0.211 HD
ENDBRANCH  29  49
BRANCH  46  51
HETATM   51  O9  UNL     1      -2.009  48.845 -22.787  1.00  0.00    -0.395 OA
HETATM   52  H39 UNL     1      -2.117  48.429 -23.661  1.00  0.00     0.210 HD
ENDBRANCH  46  51
ENDBRANCH  27  29
ENDBRANCH   1  27
TORSDOF 14
ENDMDL
MODEL 3
REMARK minimizedAffinity -8.91335011
REMARK CNNscore 0.346360505
REMARK CNNaffinity 6.74149942
REMARK  14 active torsions:
REMARK  status: ('A' for Active; 'I' for Inactive)
REMARK    1  A    between atoms: O1_2  and  C2_3 
REMARK    2  A    between atoms: C2_3  and  C3_5 
REMARK    3  A    between atoms: C3_5  and  C4_6 
REMARK    4  A    between atoms: C3_5  and  N2_16 
REMARK    5  A    between atoms: C4_6  and  C5_7 
REMARK       I    between atoms: N2_16  and  C13_17 
REMARK    6  A    between atoms: C13_17  and  C14_19 
REMARK    7  A    between atoms: C14_19  and  C15_20 
REMARK    8  A    between atoms: C15_20  and  C16_21 
REMARK    9  A    between atoms: C16_21  and  O5_23 
REMARK   10  A    between atoms: O5_23  and  C17_24 
REMARK   11  A    between atoms: C17_24  and  C18_25 
REMARK   12  A    between atoms: C18_25  and  C19_27 
REMARK   13  A    between atoms: C19_27  and  O7_28 
REMARK   14  A    between atoms: C34_44  and  O9_45 
ROOT
HETATM    1  C17 UNL     1      -1.326  49.541 -17.296  1.00  0.00     0.260 C 
ENDROOT
BRANCH   1   2
HETATM    2  O5  UNL     1      -1.194  50.410 -16.168  1.00  0.00    -0.314 OA
BRANCH   2   3
HETATM    3  C16 UNL     1      -1.972  50.079 -15.104  1.00  0.00     0.259 C 
HETATM    4  O4  UNL     1      -2.593  49.031 -14.994  1.00  0.00    -0.265 OA
BRANCH   3   5
HETATM    5  C15 UNL     1      -1.938  51.179 -14.076  1.00  0.00     0.120 C 
BRANCH   5   6
HETATM    6  C14 UNL     1      -0.558  51.824 -14.010  1.00  0.00     0.112 C 
BRANCH   6   7
HETATM    7  C13 UNL     1      -0.265  52.374 -12.631  1.00  0.00     0.218 C 
HETATM    8  N2  UNL     1      -1.356  52.984 -12.050  1.00  0.00    -0.347 N 
HETATM    9  H13 UNL     1      -2.269  52.742 -12.418  1.00  0.00     0.163 HD
HETATM   10  O3  UNL     1       0.825  52.284 -12.080  1.00  0.00    -0.274 OA
BRANCH   8  11
HETATM   11  C3  UNL     1      -1.312  53.407 -10.642  1.00  0.00     0.188 C 
BRANCH  11  12
HETATM   12  C2  UNL     1      -2.706  53.203 -10.045  1.00  0.00     0.281 C 
HETATM   13  O2  UNL     1      -3.720  53.756 -10.455  1.00  0.00    -0.263 OA
BRANCH  12  14
HETATM   14  O1  UNL     1      -2.651  52.374  -8.964  1.00  0.00    -0.325 OA
HETATM   15  C1  UNL     1      -2.537  50.990  -9.297  1.00  0.00     0.213 C 
ENDBRANCH  12  14
ENDBRANCH  11  12
BRANCH  11  16
HETATM   16  C4  UNL     1      -0.953  54.890 -10.493  1.00  0.00     0.076 C 
BRANCH  16  17
HETATM   17  C5  UNL     1       0.021  55.222  -9.397  1.00  0.00    -0.028 A 
HETATM   18  C6  UNL     1      -0.220  55.344  -8.041  1.00  0.00     0.096 A 
HETATM   19  N1  UNL     1       0.956  55.661  -7.416  1.00  0.00    -0.365 N 
HETATM   20  C7  UNL     1       1.973  55.761  -8.335  1.00  0.00     0.042 A 
HETATM   21  H8  UNL     1       1.066  55.805  -6.421  1.00  0.00     0.165 HD
HETATM   22  C8  UNL     1       3.327  56.067  -8.152  1.00  0.00     0.030 A 
HETATM   23  C12 UNL     1       1.418  55.497  -9.588  1.00  0.00    -0.002 A 
HETATM   24  C9  UNL     1       4.142  56.106  -9.289  1.00  0.00     0.002 A 
HETATM   25  C10 UNL     1       3.618  55.851 -10.555  1.00  0.00     0.001 A 
HETATM   26  C11 UNL     1       2.262  55.546 -10.719  1.00  0.00     0.014 A 
ENDBRANCH  16  17
ENDBRANCH  11  16
ENDBRANCH   8  11
ENDBRANCH   6   7
ENDBRANCH   5   6
ENDBRANCH   3   5
ENDBRANCH   2   3
ENDBRANCH   1   2
BRANCH   1  27
HETATM   27  C18 UNL     1      -2.363  50.090 -18.273  1.00  0.00     0.185 C 
HETATM   28  O6  UNL     1      -3.537  49.713 -18.250  1.00  0.00    -0.292 OA
BRANCH  27  29
HETATM   29  C19 UNL     1      -1.864  51.133 -19.304  1.00  0.00     0.128 C 
HETATM   30  C20 UNL     1      -0.429  51.644 -18.973  1.00  0.00     0.047 C 
HETATM   31  C21 UNL     1       0.304  51.817 -20.316  1.00  0.00     0.009 C 
HETATM   32  C22 UNL     1      -0.792  51.669 -21.362  1.00  0.00     0.002 C 
HETATM   33  C23 UNL     1      -0.381  51.399 -22.818  1.00  0.00    -0.002 C 
HETATM   34  C36 UNL     1      -1.725  50.588 -20.765  1.00  0.00     0.001 C 
HETATM   35  C24 UNL     1       0.609  52.472 -23.309  1.00  0.00     0.010 C 
HETATM   36  C33 UNL     1      -1.671  51.372 -23.708  1.00  0.00     0.035 C 
HETATM   37  C25 UNL     1       0.946  52.316 -24.787  1.00  0.00     0.036 C 
HETATM   38  C26 UNL     1      -0.318  52.296 -25.607  1.00  0.00    -0.064 A 
HETATM   39  C27 UNL     1      -0.526  53.221 -26.561  1.00  0.00     0.058 A 
HETATM   40  C31 UNL     1      -1.334  51.203 -25.241  1.00  0.00     0.004 A 
HETATM   41  C28 UNL     1      -1.777  53.270 -27.344  1.00  0.00     0.172 A 
HETATM   42  O8  UNL     1      -1.954  54.112 -28.213  1.00  0.00    -0.289 OA
HETATM   43  C29 UNL     1      -2.808  52.263 -27.027  1.00  0.00     0.052 A 
HETATM   44  C30 UNL     1      -2.602  51.339 -26.079  1.00  0.00    -0.009 A 
HETATM   45  C32 UNL     1      -0.717  49.834 -25.606  1.00  0.00     0.025 C 
HETATM   46  C34 UNL     1      -2.746  50.401 -23.136  1.00  0.00     0.124 C 
HETATM   47  C35 UNL     1      -3.010  50.585 -21.623  1.00  0.00     0.045 C 
HETATM   48  C37 UNL     1      -1.083  49.175 -20.736  1.00  0.00     0.019 C 
BRANCH  29  49
HETATM   49  O7  UNL     1      -2.743  52.264 -19.291  1.00  0.00    -0.381 OA
HETATM   50  H20 UNL     1      -2.599  52.757 -18.461  1.00  0.00     0.211 HD
ENDBRANCH  29  49
BRANCH  46  51
HETATM   51  O9  UNL     1      -2.400  49.047 -23.389  1.00  0.00    -0.395 OA
HETATM   52  H39 UNL     1      -3.139  48.485 -23.094  1.00  0.00     0.210 HD
ENDBRANCH  46  51
ENDBRANCH  27  29
ENDBRANCH   1  27
TORSDOF 14
ENDMDL
MODEL 4
REMARK minimizedAffinity -9.41309547
REMARK CNNscore 0.316547275
REMARK CNNaffinity 6.59709692
REMARK  14 active torsions:
REMARK  status: ('A' for Active; 'I' for Inactive)
REMARK    1  A    between atoms: O1_2  and  C2_3 
REMARK    2  A    between atoms: C2_3  and  C3_5 
REMARK    3  A    between atoms: C3_5  and  C4_6 
REMARK    4  A    between atoms: C3_5  and  N2_16 
REMARK    5  A    between atoms: C4_6  and  C5_7 
REMARK       I    between atoms: N2_16  and  C13_17 
REMARK    6  A    between atoms: C13_17  and  C14_19 
REMARK    7  A    between atoms: C14_19  and  C15_20 
REMARK    8  A    between atoms: C15_20  and  C16_21 
REMARK    9  A    between atoms: C16_21  and  O5_23 
REMARK   10  A    between atoms: O5_23  and  C17_24 
REMARK   11  A    between atoms: C17_24  and  C18_25 
REMARK   12  A    between atoms: C18_25  and  C19_27 
REMARK   13  A    between atoms: C19_27  and  O7_28 
REMARK   14  A    between atoms: C34_44  and  O9_45 
ROOT
HETATM    1  C17 UNL     1      -7.334  47.024 -29.189  1.00  0.00     0.260 C 
ENDROOT
BRANCH   1   2
HETATM    2  O5  UNL     1      -6.398  48.095 -29.038  1.00  0.00    -0.314 OA
BRANCH   2   3
HETATM    3  C16 UNL     1      -5.712  48.087 -27.865  1.00  0.00     0.259 C 
HETATM    4  O4  UNL     1      -6.174  47.727 -26.791  1.00  0.00    -0.265 OA
BRANCH   3   5
HETATM    5  C15 UNL     1      -4.300  48.560 -28.087  1.00  0.00     0.120 C 
BRANCH   5   6
HETATM    6  C14 UNL     1      -3.452  48.362 -26.836  1.00  0.00     0.112 C 
BRANCH   6   7
HETATM    7  C13 UNL     1      -3.018  49.685 -26.242  1.00  0.00     0.218 C 
HETATM    8  N2  UNL     1      -1.657  49.887 -26.311  1.00  0.00    -0.347 N 
HETATM    9  H13 UNL     1      -1.144  49.338 -26.992  1.00  0.00     0.163 HD
HETATM   10  O3  UNL     1      -3.793  50.497 -25.753  1.00  0.00    -0.274 OA
BRANCH   8  11
HETATM   11  C3  UNL     1      -1.078  51.192 -25.957  1.00  0.00     0.188 C 
BRANCH  11  12
HETATM   12  C2  UNL     1       0.331  51.259 -26.551  1.00  0.00     0.281 C 
HETATM   13  O2  UNL     1       1.292  50.634 -26.119  1.00  0.00    -0.263 OA
BRANCH  12  14
HETATM   14  O1  UNL     1       0.378  52.152 -27.580  1.00  0.00    -0.325 OA
HETATM   15  C1  UNL     1       1.375  51.859 -28.559  1.00  0.00     0.213 C 
ENDBRANCH  12  14
ENDBRANCH  11  12
BRANCH  11  16
HETATM   16  C4  UNL     1      -0.955  51.379 -24.441  1.00  0.00     0.076 C 
BRANCH  16  17
HETATM   17  C5  UNL     1      -0.129  52.550 -23.989  1.00  0.00    -0.028 A 
HETATM   18  C6  UNL     1       0.351  53.606 -24.743  1.00  0.00     0.096 A 
HETATM   19  N1  UNL     1       1.058  54.443 -23.921  1.00  0.00    -0.365 N 
HETATM   20  C7  UNL     1       1.064  53.956 -22.636  1.00  0.00     0.042 A 
HETATM   21  H8  UNL     1       1.515  55.296 -24.214  1.00  0.00     0.165 HD
HETATM   22  C8  UNL     1       1.660  54.473 -21.479  1.00  0.00     0.030 A 
HETATM   23  C12 UNL     1       0.333  52.768 -22.646  1.00  0.00    -0.002 A 
HETATM   24  C9  UNL     1       1.504  53.749 -20.292  1.00  0.00     0.002 A 
HETATM   25  C10 UNL     1       0.784  52.557 -20.268  1.00  0.00     0.001 A 
HETATM   26  C11 UNL     1       0.194  52.056 -21.435  1.00  0.00     0.014 A 
ENDBRANCH  16  17
ENDBRANCH  11  16
ENDBRANCH   8  11
ENDBRANCH   6   7
ENDBRANCH   5   6
ENDBRANCH   3   5
ENDBRANCH   2   3
ENDBRANCH   1   2
BRANCH   1  27
HETATM   27  C18 UNL     1      -7.134  46.326 -30.531  1.00  0.00     0.185 C 
HETATM   28  O6  UNL     1      -6.722  45.166 -30.602  1.00  0.00    -0.292 OA
BRANCH  27  29
HETATM   29  C19 UNL     1      -7.457  47.153 -31.801  1.00  0.00     0.128 C 
HETATM   30  C20 UNL     1      -6.166  47.632 -32.532  1.00  0.00     0.047 C 
HETATM   31  C21 UNL     1      -6.449  47.538 -34.043  1.00  0.00     0.009 C 
HETATM   32  C22 UNL     1      -7.946  47.278 -34.129  1.00  0.00     0.002 C 
HETATM   33  C23 UNL     1      -8.522  46.747 -35.451  1.00  0.00    -0.002 C 
HETATM   34  C36 UNL     1      -8.230  46.365 -32.911  1.00  0.00     0.001 C 
HETATM   35  C24 UNL     1      -8.127  47.667 -36.621  1.00  0.00     0.010 C 
HETATM   36  C33 UNL     1     -10.080  46.643 -35.315  1.00  0.00     0.035 C 
HETATM   37  C25 UNL     1      -8.781  47.249 -37.933  1.00  0.00     0.036 C 
HETATM   38  C26 UNL     1     -10.276  47.162 -37.761  1.00  0.00    -0.064 A 
HETATM   39  C27 UNL     1     -11.092  47.925 -38.509  1.00  0.00     0.058 A 
HETATM   40  C31 UNL     1     -10.768  46.202 -36.666  1.00  0.00     0.004 A 
HETATM   41  C28 UNL     1     -12.558  47.911 -38.329  1.00  0.00     0.172 A 
HETATM   42  O8  UNL     1     -13.293  48.606 -39.019  1.00  0.00    -0.289 OA
HETATM   43  C29 UNL     1     -13.099  47.030 -37.276  1.00  0.00     0.052 A 
HETATM   44  C30 UNL     1     -12.286  46.267 -36.532  1.00  0.00    -0.009 A 
HETATM   45  C32 UNL     1     -10.431  44.760 -37.106  1.00  0.00     0.025 C 
HETATM   46  C34 UNL     1     -10.496  45.842 -34.046  1.00  0.00     0.124 C 
HETATM   47  C35 UNL     1      -9.766  46.290 -32.758  1.00  0.00     0.045 C 
HETATM   48  C37 UNL     1      -7.625  44.944 -33.060  1.00  0.00     0.019 C 
BRANCH  29  49
HETATM   49  O7  UNL     1      -8.202  48.317 -31.425  1.00  0.00    -0.381 OA
HETATM   50  H20 UNL     1      -7.601  48.933 -30.964  1.00  0.00     0.211 HD
ENDBRANCH  29  49
BRANCH  46  51
HETATM   51  O9  UNL     1     -10.301  44.447 -34.234  1.00  0.00    -0.395 OA
HETATM   52  H39 UNL     1     -10.655  43.984 -33.454  1.00  0.00     0.210 HD
ENDBRANCH  46  51
ENDBRANCH  27  29
ENDBRANCH   1  27
TORSDOF 14
ENDMDL
MODEL 5
REMARK minimizedAffinity -9.70012474
REMARK CNNscore 0.316339016
REMARK CNNaffinity 7.24656916
REMARK  14 active torsions:
REMARK  status: ('A' for Active; 'I' for Inactive)
REMARK    1  A    between atoms: O1_2  and  C2_3 
REMARK    2  A    between atoms: C2_3  and  C3_5 
REMARK    3  A    between atoms: C3_5  and  C4_6 
REMARK    4  A    between atoms: C3_5  and  N2_16 
REMARK    5  A    between atoms: C4_6  and  C5_7 
REMARK       I    between atoms: N2_16  and  C13_17 
REMARK    6  A    between atoms: C13_17  and  C14_19 
REMARK    7  A    between atoms: C14_19  and  C15_20 
REMARK    8  A    between atoms: C15_20  and  C16_21 
REMARK    9  A    between atoms: C16_21  and  O5_23 
REMARK   10  A    between atoms: O5_23  and  C17_24 
REMARK   11  A    between atoms: C17_24  and  C18_25 
REMARK   12  A    between atoms: C18_25  and  C19_27 
REMARK   13  A    between atoms: C19_27  and  O7_28 
REMARK   14  A    between atoms: C34_44  and  O9_45 
ROOT
HETATM    1  C17 UNL     1      -4.245  50.268 -20.485  1.00  0.00     0.260 C 
ENDROOT
BRANCH   1   2
HETATM    2  O5  UNL     1      -4.448  49.904 -21.854  1.00  0.00    -0.314 OA
BRANCH   2   3
HETATM    3  C16 UNL     1      -5.732  50.018 -22.285  1.00  0.00     0.259 C 
HETATM    4  O4  UNL     1      -6.715  49.665 -21.649  1.00  0.00    -0.265 OA
BRANCH   3   5
HETATM    5  C15 UNL     1      -5.765  50.663 -23.646  1.00  0.00     0.120 C 
BRANCH   5   6
HETATM    6  C14 UNL     1      -4.956  51.955 -23.660  1.00  0.00     0.112 C 
BRANCH   6   7
HETATM    7  C13 UNL     1      -3.992  51.997 -24.827  1.00  0.00     0.218 C 
HETATM    8  N2  UNL     1      -3.352  50.796 -25.041  1.00  0.00    -0.347 N 
HETATM    9  H13 UNL     1      -3.785  49.966 -24.651  1.00  0.00     0.163 HD
HETATM   10  O3  UNL     1      -3.802  52.992 -25.516  1.00  0.00    -0.274 OA
BRANCH   8  11
HETATM   11  C3  UNL     1      -2.526  50.596 -26.242  1.00  0.00     0.188 C 
BRANCH  11  12
HETATM   12  C2  UNL     1      -2.800  49.187 -26.773  1.00  0.00     0.281 C 
HETATM   13  O2  UNL     1      -2.504  48.156 -26.179  1.00  0.00    -0.263 OA
BRANCH  12  14
HETATM   14  O1  UNL     1      -3.359  49.240 -28.015  1.00  0.00    -0.325 OA
HETATM   15  C1  UNL     1      -4.607  48.555 -28.122  1.00  0.00     0.213 C 
ENDBRANCH  12  14
ENDBRANCH  11  12
BRANCH  11  16
HETATM   16  C4  UNL     1      -1.027  50.697 -25.939  1.00  0.00     0.076 C 
BRANCH  16  17
HETATM   17  C5  UNL     1      -0.486  52.088 -25.763  1.00  0.00    -0.028 A 
HETATM   18  C6  UNL     1      -0.406  53.104 -26.698  1.00  0.00     0.096 A 
HETATM   19  N1  UNL     1       0.159  54.200 -26.102  1.00  0.00    -0.365 N 
HETATM   20  C7  UNL     1       0.465  53.927 -24.791  1.00  0.00     0.042 A 
HETATM   21  H8  UNL     1       0.332  55.086 -26.560  1.00  0.00     0.165 HD
HETATM   22  C8  UNL     1       1.053  54.739 -23.814  1.00  0.00     0.030 A 
HETATM   23  C12 UNL     1       0.078  52.609 -24.548  1.00  0.00    -0.002 A 
HETATM   24  C9  UNL     1       1.254  54.185 -22.545  1.00  0.00     0.002 A 
HETATM   25  C10 UNL     1       0.882  52.870 -22.271  1.00  0.00     0.001 A 
HETATM   26  C11 UNL     1       0.294  52.073 -23.260  1.00  0.00     0.014 A 
ENDBRANCH  16  17
ENDBRANCH  11  16
ENDBRANCH   8  11
ENDBRANCH   6   7
ENDBRANCH   5   6
ENDBRANCH   3   5
ENDBRANCH   2   3
ENDBRANCH   1   2
BRANCH   1  27
HETATM   27  C18 UNL     1      -3.392  49.219 -19.777  1.00  0.00     0.185 C 
HETATM   28  O6  UNL     1      -3.856  48.128 -19.438  1.00  0.00    -0.292 OA
BRANCH  27  29
HETATM   29  C19 UNL     1      -1.918  49.600 -19.489  1.00  0.00     0.128 C 
HETATM   30  C20 UNL     1      -1.490  50.896 -20.242  1.00  0.00     0.047 C 
HETATM   31  C21 UNL     1      -0.568  51.681 -19.290  1.00  0.00     0.009 C 
HETATM   32  C22 UNL     1      -0.280  50.705 -18.158  1.00  0.00     0.002 C 
HETATM   33  C23 UNL     1       0.287  51.259 -16.842  1.00  0.00    -0.002 C 
HETATM   34  C36 UNL     1      -1.613  49.935 -17.990  1.00  0.00     0.001 C 
HETATM   35  C24 UNL     1       1.563  52.079 -17.104  1.00  0.00     0.010 C 
HETATM   36  C33 UNL     1       0.574  50.060 -15.874  1.00  0.00     0.035 C 
HETATM   37  C25 UNL     1       2.231  52.542 -15.815  1.00  0.00     0.036 C 
HETATM   38  C26 UNL     1       2.491  51.362 -14.914  1.00  0.00    -0.064 A 
HETATM   39  C27 UNL     1       3.744  51.064 -14.528  1.00  0.00     0.058 A 
HETATM   40  C31 UNL     1       1.258  50.529 -14.530  1.00  0.00     0.004 A 
HETATM   41  C28 UNL     1       4.046  49.882 -13.695  1.00  0.00     0.172 A 
HETATM   42  O8  UNL     1       5.189  49.623 -13.345  1.00  0.00    -0.289 OA
HETATM   43  C29 UNL     1       2.910  49.023 -13.310  1.00  0.00     0.052 A 
HETATM   44  C30 UNL     1       1.660  49.320 -13.692  1.00  0.00    -0.009 A 
HETATM   45  C32 UNL     1       0.353  51.400 -13.631  1.00  0.00     0.025 C 
HETATM   46  C34 UNL     1      -0.669  49.133 -15.718  1.00  0.00     0.124 C 
HETATM   47  C35 UNL     1      -1.321  48.735 -17.063  1.00  0.00     0.045 C 
HETATM   48  C37 UNL     1      -2.755  50.810 -17.409  1.00  0.00     0.019 C 
BRANCH  29  49
HETATM   49  O7  UNL     1      -1.064  48.538 -19.931  1.00  0.00    -0.381 OA
HETATM   50  H20 UNL     1      -1.056  48.534 -20.907  1.00  0.00     0.211 HD
ENDBRANCH  29  49
BRANCH  46  51
HETATM   51  O9  UNL     1      -1.649  49.729 -14.880  1.00  0.00    -0.395 OA
HETATM   52  H39 UNL     1      -2.363  49.080 -14.741  1.00  0.00     0.210 HD
ENDBRANCH  46  51
ENDBRANCH  27  29
ENDBRANCH   1  27
TORSDOF 14
ENDMDL
MODEL 6
REMARK minimizedAffinity -8.40096378
REMARK CNNscore 0.316313893
REMARK CNNaffinity 6.48022079
REMARK  14 active torsions:
REMARK  status: ('A' for Active; 'I' for Inactive)
REMARK    1  A    between atoms: O1_2  and  C2_3 
REMARK    2  A    between atoms: C2_3  and  C3_5 
REMARK    3  A    between atoms: C3_5  and  C4_6 
REMARK    4  A    between atoms: C3_5  and  N2_16 
REMARK    5  A    between atoms: C4_6  and  C5_7 
REMARK       I    between atoms: N2_16  and  C13_17 
REMARK    6  A    between atoms: C13_17  and  C14_19 
REMARK    7  A    between atoms: C14_19  and  C15_20 
REMARK    8  A    between atoms: C15_20  and  C16_21 
REMARK    9  A    between atoms: C16_21  and  O5_23 
REMARK   10  A    between atoms: O5_23  and  C17_24 
REMARK   11  A    between atoms: C17_24  and  C18_25 
REMARK   12  A    between atoms: C18_25  and  C19_27 
REMARK   13  A    between atoms: C19_27  and  O7_28 
REMARK   14  A    between atoms: C34_44  and  O9_45 
ROOT
HETATM    1  C17 UNL     1       9.185  64.016 -35.662  1.00  0.00     0.260 C 
ENDROOT
BRANCH   1   2
HETATM    2  O5  UNL     1       9.997  62.854 -35.471  1.00  0.00    -0.314 OA
BRANCH   2   3
HETATM    3  C16 UNL     1      11.227  63.102 -34.949  1.00  0.00     0.259 C 
HETATM    4  O4  UNL     1      11.515  62.998 -33.765  1.00  0.00    -0.265 OA
BRANCH   3   5
HETATM    5  C15 UNL     1      12.183  63.499 -36.043  1.00  0.00     0.120 C 
BRANCH   5   6
HETATM    6  C14 UNL     1      11.915  62.709 -37.318  1.00  0.00     0.112 C 
BRANCH   6   7
HETATM    7  C13 UNL     1      13.023  61.718 -37.604  1.00  0.00     0.218 C 
HETATM    8  N2  UNL     1      12.893  61.102 -38.829  1.00  0.00    -0.347 N 
HETATM    9  H13 UNL     1      12.309  61.564 -39.518  1.00  0.00     0.163 HD
HETATM   10  O3  UNL     1      13.945  61.489 -36.831  1.00  0.00    -0.274 OA
BRANCH   8  11
HETATM   11  C3  UNL     1      13.973  60.254 -39.355  1.00  0.00     0.188 C 
BRANCH  11  12
HETATM   12  C2  UNL     1      14.065  60.490 -40.865  1.00  0.00     0.281 C 
HETATM   13  O2  UNL     1      15.043  60.966 -41.430  1.00  0.00    -0.263 OA
BRANCH  12  14
HETATM   14  O1  UNL     1      12.894  60.157 -41.477  1.00  0.00    -0.325 OA
HETATM   15  C1  UNL     1      13.061  59.504 -42.736  1.00  0.00     0.213 C 
ENDBRANCH  12  14
ENDBRANCH  11  12
BRANCH  11  16
HETATM   16  C4  UNL     1      13.700  58.762 -39.132  1.00  0.00     0.076 C 
BRANCH  16  17
HETATM   17  C5  UNL     1      14.866  57.948 -38.646  1.00  0.00    -0.028 A 
HETATM   18  C6  UNL     1      15.611  58.114 -37.493  1.00  0.00     0.096 A 
HETATM   19  N1  UNL     1      16.579  57.146 -37.456  1.00  0.00    -0.365 N 
HETATM   20  C7  UNL     1      16.496  56.344 -38.569  1.00  0.00     0.042 A 
HETATM   21  H8  UNL     1      17.261  57.035 -36.718  1.00  0.00     0.165 HD
HETATM   22  C8  UNL     1      17.274  55.245 -38.948  1.00  0.00     0.030 A 
HETATM   23  C12 UNL     1      15.435  56.824 -39.338  1.00  0.00    -0.002 A 
HETATM   24  C9  UNL     1      16.960  54.614 -40.157  1.00  0.00     0.002 A 
HETATM   25  C10 UNL     1      15.910  55.071 -40.952  1.00  0.00     0.001 A 
HETATM   26  C11 UNL     1      15.141  56.172 -40.555  1.00  0.00     0.014 A 
ENDBRANCH  16  17
ENDBRANCH  11  16
ENDBRANCH   8  11
ENDBRANCH   6   7
ENDBRANCH   5   6
ENDBRANCH   3   5
ENDBRANCH   2   3
ENDBRANCH   1   2
BRANCH   1  27
HETATM   27  C18 UNL     1       8.085  64.077 -34.606  1.00  0.00     0.185 C 
HETATM   28  O6  UNL     1       8.346  64.164 -33.404  1.00  0.00    -0.292 OA
BRANCH  27  29
HETATM   29  C19 UNL     1       6.624  64.006 -35.117  1.00  0.00     0.128 C 
HETATM   30  C20 UNL     1       5.613  63.720 -33.966  1.00  0.00     0.047 C 
HETATM   31  C21 UNL     1       4.354  64.555 -34.260  1.00  0.00     0.009 C 
HETATM   32  C22 UNL     1       4.567  65.068 -35.678  1.00  0.00     0.002 C 
HETATM   33  C23 UNL     1       3.706  66.242 -36.167  1.00  0.00    -0.002 C 
HETATM   34  C36 UNL     1       6.090  65.338 -35.745  1.00  0.00     0.001 C 
HETATM   35  C24 UNL     1       2.209  65.927 -35.992  1.00  0.00     0.010 C 
HETATM   36  C33 UNL     1       4.051  66.526 -37.670  1.00  0.00     0.035 C 
HETATM   37  C25 UNL     1       1.315  67.011 -36.581  1.00  0.00     0.036 C 
HETATM   38  C26 UNL     1       1.676  67.253 -38.024  1.00  0.00    -0.064 A 
HETATM   39  C27 UNL     1       0.762  67.075 -38.993  1.00  0.00     0.058 A 
HETATM   40  C31 UNL     1       3.136  67.655 -38.288  1.00  0.00     0.004 A 
HETATM   41  C28 UNL     1       1.094  67.244 -40.423  1.00  0.00     0.172 A 
HETATM   42  O8  UNL     1       0.253  67.085 -41.297  1.00  0.00    -0.289 OA
HETATM   43  C29 UNL     1       2.486  67.606 -40.751  1.00  0.00     0.052 A 
HETATM   44  C30 UNL     1       3.398  67.786 -39.786  1.00  0.00    -0.009 A 
HETATM   45  C32 UNL     1       3.364  69.057 -37.682  1.00  0.00     0.025 C 
HETATM   46  C34 UNL     1       5.584  66.697 -37.888  1.00  0.00     0.124 C 
HETATM   47  C35 UNL     1       6.434  65.585 -37.230  1.00  0.00     0.045 C 
HETATM   48  C37 UNL     1       6.535  66.541 -34.872  1.00  0.00     0.019 C 
BRANCH  29  49
HETATM   49  O7  UNL     1       6.512  62.943 -36.070  1.00  0.00    -0.381 OA
HETATM   50  H20 UNL     1       6.571  62.093 -35.593  1.00  0.00     0.211 HD
ENDBRANCH  29  49
BRANCH  46  51
HETATM   51  O9  UNL     1       6.029  67.963 -37.423  1.00  0.00    -0.395 OA
HETATM   52  H39 UNL     1       6.969  68.059 -37.660  1.00  0.00     0.210 HD
ENDBRANCH  46  51
ENDBRANCH  27  29
ENDBRANCH   1  27
TORSDOF 14
ENDMDL
MODEL 7
REMARK minimizedAffinity -8.9717083
REMARK CNNscore 0.292843461
REMARK CNNaffinity 6.33915377
REMARK  14 active torsions:
REMARK  status: ('A' for Active; 'I' for Inactive)
REMARK    1  A    between atoms: O1_2  and  C2_3 
REMARK    2  A    between atoms: C2_3  and  C3_5 
REMARK    3  A    between atoms: C3_5  and  C4_6 
REMARK    4  A    between atoms: C3_5  and  N2_16 
REMARK    5  A    between atoms: C4_6  and  C5_7 
REMARK       I    between atoms: N2_16  and  C13_17 
REMARK    6  A    between atoms: C13_17  and  C14_19 
REMARK    7  A    between atoms: C14_19  and  C15_20 
REMARK    8  A    between atoms: C15_20  and  C16_21 
REMARK    9  A    between atoms: C16_21  and  O5_23 
REMARK   10  A    between atoms: O5_23  and  C17_24 
REMARK   11  A    between atoms: C17_24  and  C18_25 
REMARK   12  A    between atoms: C18_25  and  C19_27 
REMARK   13  A    between atoms: C19_27  and  O7_28 
REMARK   14  A    between atoms: C34_44  and  O9_45 
ROOT
HETATM    1  C17 UNL     1      -7.712  48.513 -20.921  1.00  0.00     0.260 C 
ENDROOT
BRANCH   1   2
HETATM    2  O5  UNL     1      -8.167  47.546 -19.971  1.00  0.00    -0.314 OA
BRANCH   2   3
HETATM    3  C16 UNL     1      -8.947  48.051 -18.979  1.00  0.00     0.259 C 
HETATM    4  O4  UNL     1      -8.575  48.243 -17.830  1.00  0.00    -0.265 OA
BRANCH   3   5
HETATM    5  C15 UNL     1     -10.322  48.360 -19.509  1.00  0.00     0.120 C 
BRANCH   5   6
HETATM    6  C14 UNL     1     -11.393  47.609 -18.725  1.00  0.00     0.112 C 
BRANCH   6   7
HETATM    7  C13 UNL     1     -12.637  47.382 -19.556  1.00  0.00     0.218 C 
HETATM    8  N2  UNL     1     -13.799  47.467 -18.822  1.00  0.00    -0.347 N 
HETATM    9  H13 UNL     1     -13.751  47.961 -17.938  1.00  0.00     0.163 HD
HETATM   10  O3  UNL     1     -12.618  47.152 -20.759  1.00  0.00    -0.274 OA
BRANCH   8  11
HETATM   11  C3  UNL     1     -15.108  47.463 -19.495  1.00  0.00     0.188 C 
BRANCH  11  12
HETATM   12  C2  UNL     1     -16.111  48.165 -18.577  1.00  0.00     0.281 C 
HETATM   13  O2  UNL     1     -17.327  48.135 -18.733  1.00  0.00    -0.263 OA
BRANCH  12  14
HETATM   14  O1  UNL     1     -15.465  48.873 -17.608  1.00  0.00    -0.325 OA
HETATM   15  C1  UNL     1     -15.801  50.261 -17.580  1.00  0.00     0.213 C 
ENDBRANCH  12  14
ENDBRANCH  11  12
BRANCH  11  16
HETATM   16  C4  UNL     1     -15.623  46.043 -19.751  1.00  0.00     0.076 C 
BRANCH  16  17
HETATM   17  C5  UNL     1     -16.781  45.926 -20.702  1.00  0.00    -0.028 A 
HETATM   18  C6  UNL     1     -18.041  45.409 -20.464  1.00  0.00     0.096 A 
HETATM   19  N1  UNL     1     -18.775  45.500 -21.617  1.00  0.00    -0.365 N 
HETATM   20  C7  UNL     1     -18.020  46.060 -22.620  1.00  0.00     0.042 A 
HETATM   21  H8  UNL     1     -19.734  45.197 -21.721  1.00  0.00     0.165 HD
HETATM   22  C8  UNL     1     -18.354  46.338 -23.951  1.00  0.00     0.030 A 
HETATM   23  C12 UNL     1     -16.763  46.334 -22.080  1.00  0.00    -0.002 A 
HETATM   24  C9  UNL     1     -17.367  46.913 -24.759  1.00  0.00     0.002 A 
HETATM   25  C10 UNL     1     -16.100  47.195 -24.252  1.00  0.00     0.001 A 
HETATM   26  C11 UNL     1     -15.785  46.912 -22.918  1.00  0.00     0.014 A 
ENDBRANCH  16  17
ENDBRANCH  11  16
ENDBRANCH   8  11
ENDBRANCH   6   7
ENDBRANCH   5   6
ENDBRANCH   3   5
ENDBRANCH   2   3
ENDBRANCH   1   2
BRANCH   1  27
HETATM   27  C18 UNL     1      -6.277  48.931 -20.610  1.00  0.00     0.185 C 
HETATM   28  O6  UNL     1      -5.991  49.546 -19.580  1.00  0.00    -0.292 OA
BRANCH  27  29
HETATM   29  C19 UNL     1      -5.200  48.559 -21.660  1.00  0.00     0.128 C 
HETATM   30  C20 UNL     1      -5.762  47.616 -22.767  1.00  0.00     0.047 C 
HETATM   31  C21 UNL     1      -5.113  48.050 -24.094  1.00  0.00     0.009 C 
HETATM   32  C22 UNL     1      -4.019  49.022 -23.676  1.00  0.00     0.002 C 
HETATM   33  C23 UNL     1      -3.417  49.948 -24.745  1.00  0.00    -0.002 C 
HETATM   34  C36 UNL     1      -4.637  49.774 -22.472  1.00  0.00     0.001 C 
HETATM   35  C24 UNL     1      -2.900  49.130 -25.942  1.00  0.00     0.010 C 
HETATM   36  C33 UNL     1      -2.264  50.785 -24.092  1.00  0.00     0.035 C 
HETATM   37  C25 UNL     1      -2.181  49.996 -26.969  1.00  0.00     0.036 C 
HETATM   38  C26 UNL     1      -1.081  50.782 -26.303  1.00  0.00    -0.064 A 
HETATM   39  C27 UNL     1       0.196  50.634 -26.699  1.00  0.00     0.058 A 
HETATM   40  C31 UNL     1      -1.517  51.694 -25.145  1.00  0.00     0.004 A 
HETATM   41  C28 UNL     1       1.308  51.342 -26.032  1.00  0.00     0.172 A 
HETATM   42  O8  UNL     1       2.466  51.205 -26.403  1.00  0.00    -0.289 OA
HETATM   43  C29 UNL     1       0.964  52.216 -24.894  1.00  0.00     0.052 A 
HETATM   44  C30 UNL     1      -0.309  52.367 -24.501  1.00  0.00    -0.009 A 
HETATM   45  C32 UNL     1      -2.386  52.829 -25.731  1.00  0.00     0.025 C 
HETATM   46  C34 UNL     1      -2.735  51.499 -22.790  1.00  0.00     0.124 C 
HETATM   47  C35 UNL     1      -3.492  50.573 -21.810  1.00  0.00     0.045 C 
HETATM   48  C37 UNL     1      -5.802  50.718 -22.875  1.00  0.00     0.019 C 
BRANCH  29  49
HETATM   49  O7  UNL     1      -4.125  47.873 -21.008  1.00  0.00    -0.381 OA
HETATM   50  H20 UNL     1      -4.436  46.983 -20.754  1.00  0.00     0.211 HD
ENDBRANCH  29  49
BRANCH  46  51
HETATM   51  O9  UNL     1      -3.545  52.627 -23.089  1.00  0.00    -0.395 OA
HETATM   52  H39 UNL     1      -3.740  53.089 -22.254  1.00  0.00     0.210 HD
ENDBRANCH  46  51
ENDBRANCH  27  29
ENDBRANCH   1  27
TORSDOF 14
ENDMDL
MODEL 8
REMARK minimizedAffinity -8.65703869
REMARK CNNscore 0.275113255
REMARK CNNaffinity 6.10617304
REMARK  14 active torsions:
REMARK  status: ('A' for Active; 'I' for Inactive)
REMARK    1  A    between atoms: O1_2  and  C2_3 
REMARK    2  A    between atoms: C2_3  and  C3_5 
REMARK    3  A    between atoms: C3_5  and  C4_6 
REMARK    4  A    between atoms: C3_5  and  N2_16 
REMARK    5  A    between atoms: C4_6  and  C5_7 
REMARK       I    between atoms: N2_16  and  C13_17 
REMARK    6  A    between atoms: C13_17  and  C14_19 
REMARK    7  A    between atoms: C14_19  and  C15_20 
REMARK    8  A    between atoms: C15_20  and  C16_21 
REMARK    9  A    between atoms: C16_21  and  O5_23 
REMARK   10  A    between atoms: O5_23  and  C17_24 
REMARK   11  A    between atoms: C17_24  and  C18_25 
REMARK   12  A    between atoms: C18_25  and  C19_27 
REMARK   13  A    between atoms: C19_27  and  O7_28 
REMARK   14  A    between atoms: C34_44  and  O9_45 
ROOT
HETATM    1  C17 UNL     1      -8.014  47.955 -23.702  1.00  0.00     0.260 C 
ENDROOT
BRANCH   1   2
HETATM    2  O5  UNL     1      -8.109  46.603 -24.158  1.00  0.00    -0.314 OA
BRANCH   2   3
HETATM    3  C16 UNL     1      -9.161  46.356 -24.983  1.00  0.00     0.259 C 
HETATM    4  O4  UNL     1      -9.587  47.139 -25.821  1.00  0.00    -0.265 OA
BRANCH   3   5
HETATM    5  C15 UNL     1      -9.704  44.975 -24.729  1.00  0.00     0.120 C 
BRANCH   5   6
HETATM    6  C14 UNL     1     -10.923  45.025 -23.815  1.00  0.00     0.112 C 
BRANCH   6   7
HETATM    7  C13 UNL     1     -12.202  44.741 -24.574  1.00  0.00     0.218 C 
HETATM    8  N2  UNL     1     -12.421  45.621 -25.610  1.00  0.00    -0.347 N 
HETATM    9  H13 UNL     1     -11.618  46.132 -25.959  1.00  0.00     0.163 HD
HETATM   10  O3  UNL     1     -12.963  43.821 -24.302  1.00  0.00    -0.274 OA
BRANCH   8  11
HETATM   11  C3  UNL     1     -13.510  45.386 -26.570  1.00  0.00     0.188 C 
BRANCH  11  12
HETATM   12  C2  UNL     1     -12.979  45.697 -27.971  1.00  0.00     0.281 C 
HETATM   13  O2  UNL     1     -13.292  46.686 -28.624  1.00  0.00    -0.263 OA
BRANCH  12  14
HETATM   14  O1  UNL     1     -12.163  44.697 -28.411  1.00  0.00    -0.325 OA
HETATM   15  C1  UNL     1     -10.789  45.070 -28.515  1.00  0.00     0.213 C 
ENDBRANCH  12  14
ENDBRANCH  11  12
BRANCH  11  16
HETATM   16  C4  UNL     1     -14.716  46.298 -26.315  1.00  0.00     0.076 C 
BRANCH  16  17
HETATM   17  C5  UNL     1     -16.063  45.704 -26.615  1.00  0.00    -0.028 A 
HETATM   18  C6  UNL     1     -16.421  44.866 -27.654  1.00  0.00     0.096 A 
HETATM   19  N1  UNL     1     -17.754  44.573 -27.539  1.00  0.00    -0.365 N 
HETATM   20  C7  UNL     1     -18.290  45.210 -26.446  1.00  0.00     0.042 A 
HETATM   21  H8  UNL     1     -18.275  43.977 -28.168  1.00  0.00     0.165 HD
HETATM   22  C8  UNL     1     -19.599  45.204 -25.950  1.00  0.00     0.030 A 
HETATM   23  C12 UNL     1     -17.257  45.932 -25.847  1.00  0.00    -0.002 A 
HETATM   24  C9  UNL     1     -19.862  45.963 -24.805  1.00  0.00     0.002 A 
HETATM   25  C10 UNL     1     -18.854  46.698 -24.185  1.00  0.00     0.001 A 
HETATM   26  C11 UNL     1     -17.550  46.691 -24.694  1.00  0.00     0.014 A 
ENDBRANCH  16  17
ENDBRANCH  11  16
ENDBRANCH   8  11
ENDBRANCH   6   7
ENDBRANCH   5   6
ENDBRANCH   3   5
ENDBRANCH   2   3
ENDBRANCH   1   2
BRANCH   1  27
HETATM   27  C18 UNL     1      -6.697  48.579 -24.156  1.00  0.00     0.185 C 
HETATM   28  O6  UNL     1      -6.109  48.185 -25.166  1.00  0.00    -0.292 OA
BRANCH  27  29
HETATM   29  C19 UNL     1      -6.127  49.720 -23.277  1.00  0.00     0.128 C 
HETATM   30  C20 UNL     1      -6.982  49.955 -21.995  1.00  0.00     0.047 C 
HETATM   31  C21 UNL     1      -5.999  50.277 -20.855  1.00  0.00     0.009 C 
HETATM   32  C22 UNL     1      -4.665  50.485 -21.559  1.00  0.00     0.002 C 
HETATM   33  C23 UNL     1      -3.380  50.444 -20.717  1.00  0.00    -0.002 C 
HETATM   34  C36 UNL     1      -4.693  49.449 -22.710  1.00  0.00     0.001 C 
HETATM   35  C24 UNL     1      -3.466  51.442 -19.548  1.00  0.00     0.010 C 
HETATM   36  C33 UNL     1      -2.160  50.766 -21.647  1.00  0.00     0.035 C 
HETATM   37  C25 UNL     1      -2.163  51.526 -18.761  1.00  0.00     0.036 C 
HETATM   38  C26 UNL     1      -1.017  51.838 -19.689  1.00  0.00    -0.064 A 
HETATM   39  C27 UNL     1      -0.279  52.948 -19.509  1.00  0.00     0.058 A 
HETATM   40  C31 UNL     1      -0.803  50.847 -20.843  1.00  0.00     0.004 A 
HETATM   41  C28 UNL     1       0.813  53.318 -20.432  1.00  0.00     0.172 A 
HETATM   42  O8  UNL     1       1.483  54.328 -20.256  1.00  0.00    -0.289 OA
HETATM   43  C29 UNL     1       1.059  52.423 -21.578  1.00  0.00     0.052 A 
HETATM   44  C30 UNL     1       0.325  51.315 -21.757  1.00  0.00    -0.009 A 
HETATM   45  C32 UNL     1      -0.344  49.501 -20.240  1.00  0.00     0.025 C 
HETATM   46  C34 UNL     1      -2.146  49.861 -22.916  1.00  0.00     0.124 C 
HETATM   47  C35 UNL     1      -3.509  49.788 -23.643  1.00  0.00     0.045 C 
HETATM   48  C37 UNL     1      -4.596  47.982 -22.213  1.00  0.00     0.019 C 
BRANCH  29  49
HETATM   49  O7  UNL     1      -6.128  50.938 -24.030  1.00  0.00    -0.381 OA
HETATM   50  H20 UNL     1      -7.051  51.239 -24.129  1.00  0.00     0.211 HD
ENDBRANCH  29  49
BRANCH  46  51
HETATM   51  O9  UNL     1      -1.712  48.546 -22.602  1.00  0.00    -0.395 OA
HETATM   52  H39 UNL     1      -1.635  48.046 -23.434  1.00  0.00     0.210 HD
ENDBRANCH  46  51
ENDBRANCH  27  29
ENDBRANCH   1  27
TORSDOF 14
ENDMDL
MODEL 9
REMARK minimizedAffinity -9.6236124
REMARK CNNscore 0.274162292
REMARK CNNaffinity 7.27807856
REMARK  14 active torsions:
REMARK  status: ('A' for Active; 'I' for Inactive)
REMARK    1  A    between atoms: O1_2  and  C2_3 
REMARK    2  A    between atoms: C2_3  and  C3_5 
REMARK    3  A    between atoms: C3_5  and  C4_6 
REMARK    4  A    between atoms: C3_5  and  N2_16 
REMARK    5  A    between atoms: C4_6  and  C5_7 
REMARK       I    between atoms: N2_16  and  C13_17 
REMARK    6  A    between atoms: C13_17  and  C14_19 
REMARK    7  A    between atoms: C14_19  and  C15_20 
REMARK    8  A    between atoms: C15_20  and  C16_21 
REMARK    9  A    between atoms: C16_21  and  O5_23 
REMARK   10  A    between atoms: O5_23  and  C17_24 
REMARK   11  A    between atoms: C17_24  and  C18_25 
REMARK   12  A    between atoms: C18_25  and  C19_27 
REMARK   13  A    between atoms: C19_27  and  O7_28 
REMARK   14  A    between atoms: C34_44  and  O9_45 
ROOT
HETATM    1  C17 UNL     1      -2.801  49.017 -21.245  1.00  0.00     0.260 C 
ENDROOT
BRANCH   1   2
HETATM    2  O5  UNL     1      -4.124  48.883 -20.717  1.00  0.00    -0.314 OA
BRANCH   2   3
HETATM    3  C16 UNL     1      -4.589  47.607 -20.671  1.00  0.00     0.259 C 
HETATM    4  O4  UNL     1      -4.637  46.919 -19.660  1.00  0.00    -0.265 OA
BRANCH   3   5
HETATM    5  C15 UNL     1      -5.056  47.177 -22.036  1.00  0.00     0.120 C 
BRANCH   5   6
HETATM    6  C14 UNL     1      -6.250  48.006 -22.493  1.00  0.00     0.112 C 
BRANCH   6   7
HETATM    7  C13 UNL     1      -5.874  48.958 -23.608  1.00  0.00     0.218 C 
HETATM    8  N2  UNL     1      -4.564  48.826 -24.011  1.00  0.00    -0.347 N 
HETATM    9  H13 UNL     1      -4.096  47.956 -23.782  1.00  0.00     0.163 HD
HETATM   10  O3  UNL     1      -6.653  49.761 -24.108  1.00  0.00    -0.274 OA
BRANCH   8  11
HETATM   11  C3  UNL     1      -4.076  49.533 -25.206  1.00  0.00     0.188 C 
BRANCH  11  12
HETATM   12  C2  UNL     1      -3.878  48.499 -26.317  1.00  0.00     0.281 C 
HETATM   13  O2  UNL     1      -2.784  48.109 -26.709  1.00  0.00    -0.263 OA
BRANCH  12  14
HETATM   14  O1  UNL     1      -5.077  48.123 -26.845  1.00  0.00    -0.325 OA
HETATM   15  C1  UNL     1      -5.110  48.125 -28.273  1.00  0.00     0.213 C 
ENDBRANCH  12  14
ENDBRANCH  11  12
BRANCH  11  16
HETATM   16  C4  UNL     1      -2.729  50.221 -24.963  1.00  0.00     0.076 C 
BRANCH  16  17
HETATM   17  C5  UNL     1      -2.239  51.114 -26.068  1.00  0.00    -0.028 A 
HETATM   18  C6  UNL     1      -2.979  51.923 -26.911  1.00  0.00     0.096 A 
HETATM   19  N1  UNL     1      -2.121  52.558 -27.770  1.00  0.00    -0.365 N 
HETATM   20  C7  UNL     1      -0.825  52.177 -27.517  1.00  0.00     0.042 A 
HETATM   21  H8  UNL     1      -2.397  53.211 -28.490  1.00  0.00     0.165 HD
HETATM   22  C8  UNL     1       0.366  52.563 -28.143  1.00  0.00     0.030 A 
HETATM   23  C12 UNL     1      -0.865  51.268 -26.459  1.00  0.00    -0.002 A 
HETATM   24  C9  UNL     1       1.558  52.000 -27.673  1.00  0.00     0.002 A 
HETATM   25  C10 UNL     1       1.552  51.086 -26.620  1.00  0.00     0.001 A 
HETATM   26  C11 UNL     1       0.351  50.713 -26.006  1.00  0.00     0.014 A 
ENDBRANCH  16  17
ENDBRANCH  11  16
ENDBRANCH   8  11
ENDBRANCH   6   7
ENDBRANCH   5   6
ENDBRANCH   3   5
ENDBRANCH   2   3
ENDBRANCH   1   2
BRANCH   1  27
HETATM   27  C18 UNL     1      -2.355  50.476 -21.201  1.00  0.00     0.185 C 
HETATM   28  O6  UNL     1      -3.060  51.381 -21.653  1.00  0.00    -0.292 OA
BRANCH  27  29
HETATM   29  C19 UNL     1      -0.966  50.761 -20.577  1.00  0.00     0.128 C 
HETATM   30  C20 UNL     1      -0.425  52.169 -20.970  1.00  0.00     0.047 C 
HETATM   31  C21 UNL     1       0.292  52.733 -19.729  1.00  0.00     0.009 C 
HETATM   32  C22 UNL     1       0.379  51.549 -18.776  1.00  0.00     0.002 C 
HETATM   33  C23 UNL     1       0.683  51.824 -17.295  1.00  0.00    -0.002 C 
HETATM   34  C36 UNL     1      -0.951  50.792 -19.011  1.00  0.00     0.001 C 
HETATM   35  C24 UNL     1       1.974  52.651 -17.152  1.00  0.00     0.010 C 
HETATM   36  C33 UNL     1       0.802  50.454 -16.544  1.00  0.00     0.035 C 
HETATM   37  C25 UNL     1       2.383  52.839 -15.695  1.00  0.00     0.036 C 
HETATM   38  C26 UNL     1       2.488  51.501 -15.010  1.00  0.00    -0.064 A 
HETATM   39  C27 UNL     1       3.652  51.106 -14.464  1.00  0.00     0.058 A 
HETATM   40  C31 UNL     1       1.217  50.638 -15.031  1.00  0.00     0.004 A 
HETATM   41  C28 UNL     1       3.810  49.778 -13.837  1.00  0.00     0.172 A 
HETATM   42  O8  UNL     1       4.872  49.431 -13.338  1.00  0.00    -0.289 OA
HETATM   43  C29 UNL     1       2.635  48.886 -13.843  1.00  0.00     0.052 A 
HETATM   44  C30 UNL     1       1.474  49.280 -14.385  1.00  0.00    -0.009 A 
HETATM   45  C32 UNL     1       0.148  51.338 -14.163  1.00  0.00     0.025 C 
HETATM   46  C34 UNL     1      -0.434  49.543 -16.805  1.00  0.00     0.124 C 
HETATM   47  C35 UNL     1      -0.819  49.428 -18.298  1.00  0.00     0.045 C 
HETATM   48  C37 UNL     1      -2.194  51.563 -18.492  1.00  0.00     0.019 C 
BRANCH  29  49
HETATM   49  O7  UNL     1      -0.030  49.786 -21.051  1.00  0.00    -0.381 OA
HETATM   50  H20 UNL     1       0.160  49.972 -21.990  1.00  0.00     0.211 HD
ENDBRANCH  29  49
BRANCH  46  51
HETATM   51  O9  UNL     1      -1.562  49.986 -16.063  1.00  0.00    -0.395 OA
HETATM   52  H39 UNL     1      -2.279  49.339 -16.188  1.00  0.00     0.210 HD
ENDBRANCH  46  51
ENDBRANCH  27  29
ENDBRANCH   1  27
TORSDOF 14
ENDMDL
