MODEL 1
REMARK minimizedAffinity -10.1837864
REMARK  6 active torsions:
REMARK  status: ('A' for Active; 'I' for Inactive)
REMARK    1  A    between atoms: O1_1  and  C1_2 
REMARK    2  A    between atoms: C1_2  and  C2_3 
REMARK    3  A    between atoms: C3_9  and  C4_10 
REMARK    4  A    between atoms: C8_14  and  C9_15 
REMARK    5  A    between atoms: C13_19  and  C14_20 
REMARK    6  A    between atoms: C14_20  and  N4_21 
ROOT
HETATM    1  C4  UNL     1       1.638   6.391  12.048  1.00  0.00    -0.004 A 
HETATM    2  C5  UNL     1       0.502   6.304  11.236  1.00  0.00     0.015 A 
HETATM    3  C6  UNL     1      -0.784   6.175  11.788  1.00  0.00     0.017 A 
HETATM    4  C7  UNL     1      -0.936   6.126  13.186  1.00  0.00     0.022 A 
HETATM    5  C8  UNL     1      -1.998   6.007  14.123  1.00  0.00     0.087 A 
HETATM    6  N6  UNL     1      -1.562   6.007  15.391  1.00  0.00    -0.297 N 
ATOM      7  H6  UNL     1      -2.112   5.934  16.247  1.00  0.00     0.187 HD
HETATM    8  N7  UNL     1      -0.232   6.125  15.266  1.00  0.00    -0.299 N 
HETATM    9  C23 UNL     1       0.209   6.202  13.974  1.00  0.00     0.061 A 
HETATM   10  C24 UNL     1       1.500   6.331  13.446  1.00  0.00     0.045 A 
HETATM   11  H24 UNL     1       0.331   6.146  16.108  1.00  0.00     0.187 HD
ENDROOT
BRANCH   5  12
HETATM   12  C9  UNL     1      -3.526   5.882  13.860  1.00  0.00     0.062 A 
HETATM   13  C10 UNL     1      -4.533   6.804  14.025  1.00  0.00     0.045 A 
HETATM   14  C11 UNL     1      -5.755   6.180  13.639  1.00  0.00    -0.007 A 
HETATM   15  C12 UNL     1      -7.097   6.604  13.588  1.00  0.00     0.022 A 
HETATM   16  C22 UNL     1      -5.450   4.878  13.245  1.00  0.00     0.043 A 
HETATM   17  C13 UNL     1      -8.101   5.718  13.152  1.00  0.00    -0.029 A 
HETATM   18  C20 UNL     1      -7.745   4.421  12.759  1.00  0.00     0.011 A 
HETATM   19  C21 UNL     1      -6.419   3.975  12.799  1.00  0.00     0.031 A 
HETATM   20  N5  UNL     1      -4.091   4.726  13.390  1.00  0.00    -0.354 N 
HETATM   21  H23 UNL     1      -3.559   3.892  13.186  1.00  0.00     0.166 HD
BRANCH  17  22
HETATM   22  C14 UNL     1      -9.547   6.173  13.094  1.00  0.00     0.311 C 
BRANCH  22  23
HETATM   23  N4  UNL     1      -9.991   7.107  14.135  1.00  0.00     0.092 N 
HETATM   24  C15 UNL     1     -10.899   8.153  13.656  1.00  0.00     0.272 C 
HETATM   25  C16 UNL     1     -11.045   9.331  14.631  1.00  0.00     0.030 C 
HETATM   26  C17 UNL     1     -10.881   8.885  16.077  1.00  0.00     0.003 C 
HETATM   27  C18 UNL     1      -9.536   8.185  16.288  1.00  0.00     0.030 C 
HETATM   28  C19 UNL     1      -8.934   7.621  14.994  1.00  0.00     0.272 C 
ENDBRANCH  22  23
ENDBRANCH  17  22
ENDBRANCH   5  12
BRANCH   1  29
HETATM   29  C3  UNL     1       2.976   6.518  11.469  1.00  0.00     0.086 A 
HETATM   30  C2  UNL     1       3.433   6.320  10.131  1.00  0.00     0.079 A 
HETATM   31  N1  UNL     1       4.760   6.528  10.075  1.00  0.00    -0.286 N 
HETATM   32  N2  UNL     1       5.031   6.870  11.340  1.00  0.00    -0.242 N 
ATOM     33  H1  UNL     1       5.393   6.447   9.279  1.00  0.00     0.188 HD
HETATM   34  N3  UNL     1       4.028   6.887  12.223  1.00  0.00    -0.284 N 
HETATM   35  H4  UNL     1       5.977   7.110  11.624  1.00  0.00     0.208 HD
ATOM     36  H3  UNL     1       4.054   7.121  13.216  1.00  0.00     0.188 HD
BRANCH  30  37
HETATM   37  C1  UNL     1       2.680   5.944   8.903  1.00  0.00     0.225 C 
BRANCH  37  38
HETATM   38  O1  UNL     1       3.369   4.983   8.107  1.00  0.00    -0.395 OA
HETATM   39  H1  UNL     1       2.742   4.679   7.431  1.00  0.00     0.209 HD
ENDBRANCH  37  38
ENDBRANCH  30  37
ENDBRANCH   1  29
TORSDOF 6
ENDMDL
MODEL 2
REMARK minimizedAffinity -10.1184244
REMARK  6 active torsions:
REMARK  status: ('A' for Active; 'I' for Inactive)
REMARK    1  A    between atoms: O1_1  and  C1_2 
REMARK    2  A    between atoms: C1_2  and  C2_3 
REMARK    3  A    between atoms: C3_9  and  C4_10 
REMARK    4  A    between atoms: C8_14  and  C9_15 
REMARK    5  A    between atoms: C13_19  and  C14_20 
REMARK    6  A    between atoms: C14_20  and  N4_21 
ROOT
HETATM    1  C4  UNL     1     -10.033   6.735  14.024  1.00  0.00    -0.004 A 
HETATM    2  C5  UNL     1      -9.292   6.410  12.882  1.00  0.00     0.015 A 
HETATM    3  C6  UNL     1      -7.896   6.256  12.934  1.00  0.00     0.017 A 
HETATM    4  C7  UNL     1      -7.225   6.438  14.158  1.00  0.00     0.022 A 
HETATM    5  C8  UNL     1      -5.889   6.384  14.640  1.00  0.00     0.087 A 
HETATM    6  N6  UNL     1      -5.808   6.661  15.950  1.00  0.00    -0.297 N 
ATOM      7  H6  UNL     1      -4.976   6.691  16.538  1.00  0.00     0.187 HD
HETATM    8  N7  UNL     1      -7.082   6.891  16.302  1.00  0.00    -0.299 N 
HETATM    9  C23 UNL     1      -7.980   6.773  15.277  1.00  0.00     0.061 A 
HETATM   10  C24 UNL     1      -9.372   6.932  15.248  1.00  0.00     0.045 A 
HETATM   11  H24 UNL     1      -7.280   7.129  17.267  1.00  0.00     0.187 HD
ENDROOT
BRANCH   5  12
HETATM   12  C9  UNL     1      -4.581   6.058  13.866  1.00  0.00     0.062 A 
HETATM   13  C10 UNL     1      -3.358   6.686  13.886  1.00  0.00     0.045 A 
HETATM   14  C11 UNL     1      -2.500   5.986  12.989  1.00  0.00    -0.007 A 
HETATM   15  C12 UNL     1      -1.158   6.148  12.591  1.00  0.00     0.022 A 
HETATM   16  C22 UNL     1      -3.237   4.937  12.442  1.00  0.00     0.043 A 
HETATM   17  C13 UNL     1      -0.588   5.266  11.653  1.00  0.00    -0.029 A 
HETATM   18  C20 UNL     1      -1.367   4.221  11.136  1.00  0.00     0.011 A 
HETATM   19  C21 UNL     1      -2.702   4.037  11.516  1.00  0.00     0.031 A 
HETATM   20  N5  UNL     1      -4.495   5.006  12.992  1.00  0.00    -0.354 N 
HETATM   21  H23 UNL     1      -5.266   4.383  12.798  1.00  0.00     0.166 HD
BRANCH  17  22
HETATM   22  C14 UNL     1       0.856   5.437  11.224  1.00  0.00     0.311 C 
BRANCH  22  23
HETATM   23  N4  UNL     1       1.101   6.242  10.023  1.00  0.00     0.092 N 
HETATM   24  C15 UNL     1       2.448   6.094   9.465  1.00  0.00     0.272 C 
HETATM   25  C16 UNL     1       2.825   7.204   8.471  1.00  0.00     0.030 C 
HETATM   26  C17 UNL     1       1.605   7.730   7.730  1.00  0.00     0.003 C 
HETATM   27  C18 UNL     1       0.541   8.233   8.708  1.00  0.00     0.030 C 
HETATM   28  C19 UNL     1       0.673   7.631  10.114  1.00  0.00     0.272 C 
ENDBRANCH  22  23
ENDBRANCH  17  22
ENDBRANCH   5  12
BRANCH   1  29
HETATM   29  C3  UNL     1     -11.485   6.901  13.963  1.00  0.00     0.086 A 
HETATM   30  C2  UNL     1     -12.278   7.999  13.508  1.00  0.00     0.079 A 
HETATM   31  N1  UNL     1     -13.581   7.707  13.666  1.00  0.00    -0.286 N 
HETATM   32  N2  UNL     1     -13.519   6.465  14.160  1.00  0.00    -0.242 N 
ATOM     33  H1  UNL     1     -14.399   8.280  13.463  1.00  0.00     0.188 HD
HETATM   34  N3  UNL     1     -12.315   5.920  14.364  1.00  0.00    -0.284 N 
HETATM   35  H4  UNL     1     -14.367   5.947  14.378  1.00  0.00     0.208 HD
ATOM     36  H3  UNL     1     -12.085   4.996  14.729  1.00  0.00     0.188 HD
BRANCH  30  37
HETATM   37  C1  UNL     1     -11.867   9.308  12.932  1.00  0.00     0.225 C 
BRANCH  37  38
HETATM   38  O1  UNL     1     -11.552   9.223  11.544  1.00  0.00    -0.395 OA
HETATM   39  H1  UNL     1     -11.459  10.135  11.223  1.00  0.00     0.209 HD
ENDBRANCH  37  38
ENDBRANCH  30  37
ENDBRANCH   1  29
TORSDOF 6
ENDMDL
MODEL 3
REMARK minimizedAffinity -10.0643072
REMARK  6 active torsions:
REMARK  status: ('A' for Active; 'I' for Inactive)
REMARK    1  A    between atoms: O1_1  and  C1_2 
REMARK    2  A    between atoms: C1_2  and  C2_3 
REMARK    3  A    between atoms: C3_9  and  C4_10 
REMARK    4  A    between atoms: C8_14  and  C9_15 
REMARK    5  A    between atoms: C13_19  and  C14_20 
REMARK    6  A    between atoms: C14_20  and  N4_21 
ROOT
HETATM    1  C4  UNL     1       1.227   5.759  11.445  1.00  0.00    -0.004 A 
HETATM    2  C5  UNL     1       0.266   6.676  11.885  1.00  0.00     0.015 A 
HETATM    3  C6  UNL     1      -1.051   6.276  12.170  1.00  0.00     0.017 A 
HETATM    4  C7  UNL     1      -1.416   4.927  12.004  1.00  0.00     0.022 A 
HETATM    5  C8  UNL     1      -2.580   4.127  12.166  1.00  0.00     0.087 A 
HETATM    6  N6  UNL     1      -2.365   2.843  11.845  1.00  0.00    -0.297 N 
ATOM      7  H6  UNL     1      -3.026   2.067  11.872  1.00  0.00     0.187 HD
HETATM    8  N7  UNL     1      -1.074   2.822  11.481  1.00  0.00    -0.299 N 
HETATM    9  C23 UNL     1      -0.448   4.035  11.554  1.00  0.00     0.061 A 
HETATM   10  C24 UNL     1       0.871   4.412  11.264  1.00  0.00     0.045 A 
HETATM   11  H24 UNL     1      -0.671   1.940  11.187  1.00  0.00     0.187 HD
ENDROOT
BRANCH   5  12
HETATM   12  C9  UNL     1      -3.998   4.548  12.646  1.00  0.00     0.062 A 
HETATM   13  C10 UNL     1      -4.381   5.531  13.527  1.00  0.00     0.045 A 
HETATM   14  C11 UNL     1      -5.804   5.499  13.616  1.00  0.00    -0.007 A 
HETATM   15  C12 UNL     1      -6.757   6.244  14.337  1.00  0.00     0.022 A 
HETATM   16  C22 UNL     1      -6.249   4.481  12.773  1.00  0.00     0.043 A 
HETATM   17  C13 UNL     1      -8.128   5.952  14.207  1.00  0.00    -0.029 A 
HETATM   18  C20 UNL     1      -8.529   4.925  13.341  1.00  0.00     0.011 A 
HETATM   19  C21 UNL     1      -7.602   4.171  12.612  1.00  0.00     0.031 A 
HETATM   20  N5  UNL     1      -5.132   3.922  12.199  1.00  0.00    -0.354 N 
HETATM   21  H23 UNL     1      -5.120   3.159  11.537  1.00  0.00     0.166 HD
BRANCH  17  22
HETATM   22  C14 UNL     1      -9.156   6.754  14.981  1.00  0.00     0.311 C 
BRANCH  22  23
HETATM   23  N4  UNL     1     -10.121   7.531  14.195  1.00  0.00     0.092 N 
HETATM   24  C15 UNL     1     -10.147   8.960  14.517  1.00  0.00     0.272 C 
HETATM   25  C16 UNL     1     -11.398   9.683  13.994  1.00  0.00     0.030 C 
HETATM   26  C17 UNL     1     -11.918   9.048  12.713  1.00  0.00     0.003 C 
HETATM   27  C18 UNL     1     -12.211   7.559  12.916  1.00  0.00     0.030 C 
HETATM   28  C19 UNL     1     -11.451   6.945  14.099  1.00  0.00     0.272 C 
ENDBRANCH  22  23
ENDBRANCH  17  22
ENDBRANCH   5  12
BRANCH   1  29
HETATM   29  C3  UNL     1       2.595   6.181  11.143  1.00  0.00     0.086 A 
HETATM   30  C2  UNL     1       3.303   6.227   9.904  1.00  0.00     0.079 A 
HETATM   31  N1  UNL     1       4.556   6.664  10.119  1.00  0.00    -0.286 N 
HETATM   32  N2  UNL     1       4.537   6.893  11.437  1.00  0.00    -0.242 N 
ATOM     33  H1  UNL     1       5.319   6.788   9.453  1.00  0.00     0.188 HD
HETATM   34  N3  UNL     1       3.414   6.632  12.113  1.00  0.00    -0.284 N 
HETATM   35  H4  UNL     1       5.358   7.255  11.915  1.00  0.00     0.208 HD
ATOM     36  H3  UNL     1       3.225   6.745  13.109  1.00  0.00     0.188 HD
BRANCH  30  37
HETATM   37  C1  UNL     1       2.855   5.878   8.528  1.00  0.00     0.225 C 
BRANCH  37  38
HETATM   38  O1  UNL     1       3.445   4.673   8.047  1.00  0.00    -0.395 OA
HETATM   39  H1  UNL     1       2.976   4.440   7.229  1.00  0.00     0.209 HD
ENDBRANCH  37  38
ENDBRANCH  30  37
ENDBRANCH   1  29
TORSDOF 6
ENDMDL
MODEL 4
REMARK minimizedAffinity -10.0551138
REMARK  6 active torsions:
REMARK  status: ('A' for Active; 'I' for Inactive)
REMARK    1  A    between atoms: O1_1  and  C1_2 
REMARK    2  A    between atoms: C1_2  and  C2_3 
REMARK    3  A    between atoms: C3_9  and  C4_10 
REMARK    4  A    between atoms: C8_14  and  C9_15 
REMARK    5  A    between atoms: C13_19  and  C14_20 
REMARK    6  A    between atoms: C14_20  and  N4_21 
ROOT
HETATM    1  C4  UNL     1      -6.861   5.749  13.716  1.00  0.00    -0.004 A 
HETATM    2  C5  UNL     1      -5.836   6.702  13.738  1.00  0.00     0.015 A 
HETATM    3  C6  UNL     1      -4.533   6.386  13.316  1.00  0.00     0.017 A 
HETATM    4  C7  UNL     1      -4.248   5.082  12.867  1.00  0.00     0.022 A 
HETATM    5  C8  UNL     1      -3.125   4.364  12.376  1.00  0.00     0.087 A 
HETATM    6  N6  UNL     1      -3.421   3.088  12.090  1.00  0.00    -0.297 N 
ATOM      7  H6  UNL     1      -2.803   2.363  11.725  1.00  0.00     0.187 HD
HETATM    8  N7  UNL     1      -4.723   2.991  12.397  1.00  0.00    -0.299 N 
HETATM    9  C23 UNL     1      -5.280   4.148  12.866  1.00  0.00     0.061 A 
HETATM   10  C24 UNL     1      -6.585   4.442  13.282  1.00  0.00     0.045 A 
HETATM   11  H24 UNL     1      -5.184   2.099  12.263  1.00  0.00     0.187 HD
ENDROOT
BRANCH   5  12
HETATM   12  C9  UNL     1      -1.670   4.861  12.145  1.00  0.00     0.062 A 
HETATM   13  C10 UNL     1      -0.776   4.556  11.145  1.00  0.00     0.045 A 
HETATM   14  C11 UNL     1       0.423   5.283  11.403  1.00  0.00    -0.007 A 
HETATM   15  C12 UNL     1       1.666   5.384  10.750  1.00  0.00     0.022 A 
HETATM   16  C22 UNL     1       0.219   6.019  12.569  1.00  0.00     0.043 A 
HETATM   17  C13 UNL     1       2.677   6.209  11.278  1.00  0.00    -0.029 A 
HETATM   18  C20 UNL     1       2.423   6.937  12.449  1.00  0.00     0.011 A 
HETATM   19  C21 UNL     1       1.195   6.856  13.117  1.00  0.00     0.031 A 
HETATM   20  N5  UNL     1      -1.058   5.743  12.997  1.00  0.00    -0.354 N 
HETATM   21  H23 UNL     1      -1.508   6.123  13.818  1.00  0.00     0.166 HD
BRANCH  17  22
HETATM   22  C14 UNL     1       4.016   6.321  10.575  1.00  0.00     0.311 C 
BRANCH  22  23
HETATM   23  N4  UNL     1       5.019   7.195  11.193  1.00  0.00     0.092 N 
HETATM   24  C15 UNL     1       5.184   8.488  10.524  1.00  0.00     0.272 C 
HETATM   25  C16 UNL     1       6.476   9.222  10.916  1.00  0.00     0.030 C 
HETATM   26  C17 UNL     1       6.892   8.896  12.343  1.00  0.00     0.003 C 
HETATM   27  C18 UNL     1       7.059   7.387  12.537  1.00  0.00     0.030 C 
HETATM   28  C19 UNL     1       6.288   6.552  11.507  1.00  0.00     0.272 C 
ENDBRANCH  22  23
ENDBRANCH  17  22
ENDBRANCH   5  12
BRANCH   1  29
HETATM   29  C3  UNL     1      -8.214   6.082  14.164  1.00  0.00     0.086 A 
HETATM   30  C2  UNL     1      -8.677   6.641  15.394  1.00  0.00     0.079 A 
HETATM   31  N1  UNL     1     -10.016   6.746  15.363  1.00  0.00    -0.286 N 
HETATM   32  N2  UNL     1     -10.292   6.293  14.134  1.00  0.00    -0.242 N 
ATOM     33  H1  UNL     1     -10.654   7.082  16.085  1.00  0.00     0.188 HD
HETATM   34  N3  UNL     1      -9.279   5.882  13.365  1.00  0.00    -0.284 N 
HETATM   35  H4  UNL     1     -11.250   6.260  13.793  1.00  0.00     0.208 HD
ATOM     36  H3  UNL     1      -9.307   5.512  12.415  1.00  0.00     0.188 HD
BRANCH  30  37
HETATM   37  C1  UNL     1      -7.917   7.081  16.595  1.00  0.00     0.225 C 
BRANCH  37  38
HETATM   38  O1  UNL     1      -7.021   6.080  17.076  1.00  0.00    -0.395 OA
HETATM   39  H1  UNL     1      -6.459   6.507  17.743  1.00  0.00     0.209 HD
ENDBRANCH  37  38
ENDBRANCH  30  37
ENDBRANCH   1  29
TORSDOF 6
ENDMDL
MODEL 5
REMARK minimizedAffinity -9.87367916
REMARK  6 active torsions:
REMARK  status: ('A' for Active; 'I' for Inactive)
REMARK    1  A    between atoms: O1_1  and  C1_2 
REMARK    2  A    between atoms: C1_2  and  C2_3 
REMARK    3  A    between atoms: C3_9  and  C4_10 
REMARK    4  A    between atoms: C8_14  and  C9_15 
REMARK    5  A    between atoms: C13_19  and  C14_20 
REMARK    6  A    between atoms: C14_20  and  N4_21 
ROOT
HETATM    1  C4  UNL     1       1.363   5.795  11.692  1.00  0.00    -0.004 A 
HETATM    2  C5  UNL     1       0.183   5.760  10.941  1.00  0.00     0.015 A 
HETATM    3  C6  UNL     1      -1.078   5.734  11.561  1.00  0.00     0.017 A 
HETATM    4  C7  UNL     1      -1.159   5.736  12.966  1.00  0.00     0.022 A 
HETATM    5  C8  UNL     1      -2.177   5.715  13.958  1.00  0.00     0.087 A 
HETATM    6  N6  UNL     1      -1.676   5.722  15.202  1.00  0.00    -0.297 N 
ATOM      7  H6  UNL     1      -2.183   5.712  16.087  1.00  0.00     0.187 HD
HETATM    8  N7  UNL     1      -0.349   5.747  15.006  1.00  0.00    -0.299 N 
HETATM    9  C23 UNL     1       0.027   5.758  13.692  1.00  0.00     0.061 A 
HETATM   10  C24 UNL     1       1.295   5.784  13.095  1.00  0.00     0.045 A 
HETATM   11  H24 UNL     1       0.258   5.756  15.818  1.00  0.00     0.187 HD
ENDROOT
BRANCH   5  12
HETATM   12  C9  UNL     1      -3.721   5.685  13.777  1.00  0.00     0.062 A 
HETATM   13  C10 UNL     1      -4.661   6.660  14.015  1.00  0.00     0.045 A 
HETATM   14  C11 UNL     1      -5.937   6.117  13.685  1.00  0.00    -0.007 A 
HETATM   15  C12 UNL     1      -7.252   6.619  13.715  1.00  0.00     0.022 A 
HETATM   16  C22 UNL     1      -5.731   4.808  13.249  1.00  0.00     0.043 A 
HETATM   17  C13 UNL     1      -8.329   5.803  13.318  1.00  0.00    -0.029 A 
HETATM   18  C20 UNL     1      -8.072   4.497  12.880  1.00  0.00     0.011 A 
HETATM   19  C21 UNL     1      -6.774   3.974  12.838  1.00  0.00     0.031 A 
HETATM   20  N5  UNL     1      -4.378   4.575  13.316  1.00  0.00    -0.354 N 
HETATM   21  H23 UNL     1      -3.907   3.716  13.067  1.00  0.00     0.166 HD
BRANCH  17  22
HETATM   22  C14 UNL     1      -9.746   6.343  13.348  1.00  0.00     0.311 C 
BRANCH  22  23
HETATM   23  N4  UNL     1      -9.956   7.619  14.040  1.00  0.00     0.092 N 
HETATM   24  C15 UNL     1      -9.813   7.543  15.497  1.00  0.00     0.272 C 
HETATM   25  C16 UNL     1     -10.407   8.752  16.235  1.00  0.00     0.030 C 
HETATM   26  C17 UNL     1     -10.320  10.018  15.395  1.00  0.00     0.003 C 
HETATM   27  C18 UNL     1     -11.012   9.830  14.043  1.00  0.00     0.030 C 
HETATM   28  C19 UNL     1     -11.139   8.360  13.623  1.00  0.00     0.272 C 
ENDBRANCH  22  23
ENDBRANCH  17  22
ENDBRANCH   5  12
BRANCH   1  29
HETATM   29  C3  UNL     1       2.674   5.815  11.042  1.00  0.00     0.086 A 
HETATM   30  C2  UNL     1       3.720   6.787  11.086  1.00  0.00     0.079 A 
HETATM   31  N1  UNL     1       4.738   6.386  10.305  1.00  0.00    -0.286 N 
HETATM   32  N2  UNL     1       4.288   5.205   9.864  1.00  0.00    -0.242 N 
ATOM     33  H1  UNL     1       5.619   6.858  10.101  1.00  0.00     0.188 HD
HETATM   34  N3  UNL     1       3.077   4.798  10.256  1.00  0.00    -0.284 N 
HETATM   35  H4  UNL     1       4.854   4.630   9.245  1.00  0.00     0.208 HD
ATOM     36  H3  UNL     1       2.584   3.937  10.021  1.00  0.00     0.188 HD
BRANCH  30  37
HETATM   37  C1  UNL     1       3.807   8.072  11.831  1.00  0.00     0.225 C 
BRANCH  37  38
HETATM   38  O1  UNL     1       5.107   8.312  12.365  1.00  0.00    -0.395 OA
HETATM   39  H1  UNL     1       5.113   9.230  12.681  1.00  0.00     0.209 HD
ENDBRANCH  37  38
ENDBRANCH  30  37
ENDBRANCH   1  29
TORSDOF 6
ENDMDL
MODEL 6
REMARK minimizedAffinity -9.54910374
REMARK  6 active torsions:
REMARK  status: ('A' for Active; 'I' for Inactive)
REMARK    1  A    between atoms: O1_1  and  C1_2 
REMARK    2  A    between atoms: C1_2  and  C2_3 
REMARK    3  A    between atoms: C3_9  and  C4_10 
REMARK    4  A    between atoms: C8_14  and  C9_15 
REMARK    5  A    between atoms: C13_19  and  C14_20 
REMARK    6  A    between atoms: C14_20  and  N4_21 
ROOT
HETATM    1  C4  UNL     1      -6.682   6.602  14.322  1.00  0.00    -0.004 A 
HETATM    2  C5  UNL     1      -5.997   6.953  13.153  1.00  0.00     0.015 A 
HETATM    3  C6  UNL     1      -4.597   7.067  13.131  1.00  0.00     0.017 A 
HETATM    4  C7  UNL     1      -3.864   6.829  14.309  1.00  0.00     0.022 A 
HETATM    5  C8  UNL     1      -2.503   6.833  14.717  1.00  0.00     0.087 A 
HETATM    6  N6  UNL     1      -2.358   6.528  16.015  1.00  0.00    -0.297 N 
ATOM      7  H6  UNL     1      -1.496   6.461  16.555  1.00  0.00     0.187 HD
HETATM    8  N7  UNL     1      -3.618   6.331  16.433  1.00  0.00    -0.299 N 
HETATM    9  C23 UNL     1      -4.567   6.494  15.462  1.00  0.00     0.061 A 
HETATM   10  C24 UNL     1      -5.962   6.375  15.508  1.00  0.00     0.045 A 
HETATM   11  H24 UNL     1      -3.769   6.084  17.404  1.00  0.00     0.187 HD
ENDROOT
BRANCH   5  12
HETATM   12  C9  UNL     1      -1.230   7.136  13.877  1.00  0.00     0.062 A 
HETATM   13  C10 UNL     1      -0.736   6.510  12.757  1.00  0.00     0.045 A 
HETATM   14  C11 UNL     1       0.463   7.182  12.381  1.00  0.00    -0.007 A 
HETATM   15  C12 UNL     1       1.398   7.010  11.341  1.00  0.00     0.022 A 
HETATM   16  C22 UNL     1       0.665   8.213  13.298  1.00  0.00     0.043 A 
HETATM   17  C13 UNL     1       2.513   7.863  11.246  1.00  0.00    -0.029 A 
HETATM   18  C20 UNL     1       2.671   8.891  12.187  1.00  0.00     0.011 A 
HETATM   19  C21 UNL     1       1.756   9.085  13.228  1.00  0.00     0.031 A 
HETATM   20  N5  UNL     1      -0.376   8.160  14.193  1.00  0.00    -0.354 N 
HETATM   21  H23 UNL     1      -0.518   8.777  14.981  1.00  0.00     0.166 HD
BRANCH  17  22
HETATM   22  C14 UNL     1       3.520   7.681  10.126  1.00  0.00     0.311 C 
BRANCH  22  23
HETATM   23  N4  UNL     1       2.982   7.435   8.784  1.00  0.00     0.092 N 
HETATM   24  C15 UNL     1       1.846   8.289   8.426  1.00  0.00     0.272 C 
HETATM   25  C16 UNL     1       1.052   7.777   7.214  1.00  0.00     0.030 C 
HETATM   26  C17 UNL     1       1.944   7.024   6.238  1.00  0.00     0.003 C 
HETATM   27  C18 UNL     1       2.661   5.863   6.932  1.00  0.00     0.030 C 
HETATM   28  C19 UNL     1       2.765   6.033   8.454  1.00  0.00     0.272 C 
ENDBRANCH  22  23
ENDBRANCH  17  22
ENDBRANCH   5  12
BRANCH   1  29
HETATM   29  C3  UNL     1      -8.141   6.492  14.342  1.00  0.00     0.086 A 
HETATM   30  C2  UNL     1      -9.059   6.104  13.319  1.00  0.00     0.079 A 
HETATM   31  N1  UNL     1     -10.315   6.177  13.793  1.00  0.00    -0.286 N 
HETATM   32  N2  UNL     1     -10.103   6.559  15.057  1.00  0.00    -0.242 N 
ATOM     33  H1  UNL     1     -11.197   5.991  13.314  1.00  0.00     0.188 HD
HETATM   34  N3  UNL     1      -8.844   6.765  15.457  1.00  0.00    -0.284 N 
HETATM   35  H4  UNL     1     -10.880   6.691  15.700  1.00  0.00     0.208 HD
ATOM     36  H3  UNL     1      -8.503   7.055  16.374  1.00  0.00     0.188 HD
BRANCH  30  37
HETATM   37  C1  UNL     1      -8.809   5.668  11.918  1.00  0.00     0.225 C 
BRANCH  37  38
HETATM   38  O1  UNL     1      -9.638   6.344  10.976  1.00  0.00    -0.395 OA
HETATM   39  H1  UNL     1      -9.295   6.124  10.094  1.00  0.00     0.209 HD
ENDBRANCH  37  38
ENDBRANCH  30  37
ENDBRANCH   1  29
TORSDOF 6
ENDMDL
MODEL 7
REMARK minimizedAffinity -9.48153877
REMARK  6 active torsions:
REMARK  status: ('A' for Active; 'I' for Inactive)
REMARK    1  A    between atoms: O1_1  and  C1_2 
REMARK    2  A    between atoms: C1_2  and  C2_3 
REMARK    3  A    between atoms: C3_9  and  C4_10 
REMARK    4  A    between atoms: C8_14  and  C9_15 
REMARK    5  A    between atoms: C13_19  and  C14_20 
REMARK    6  A    between atoms: C14_20  and  N4_21 
ROOT
HETATM    1  C4  UNL     1      -4.276   3.461  11.979  1.00  0.00    -0.004 A 
HETATM    2  C5  UNL     1      -3.105   3.219  11.251  1.00  0.00     0.015 A 
HETATM    3  C6  UNL     1      -1.996   4.076  11.343  1.00  0.00     0.017 A 
HETATM    4  C7  UNL     1      -2.061   5.207  12.179  1.00  0.00     0.022 A 
HETATM    5  C8  UNL     1      -1.216   6.286  12.552  1.00  0.00     0.087 A 
HETATM    6  N6  UNL     1      -1.809   7.123  13.415  1.00  0.00    -0.297 N 
ATOM      7  H6  UNL     1      -1.427   7.970  13.837  1.00  0.00     0.187 HD
HETATM    8  N7  UNL     1      -3.024   6.583  13.593  1.00  0.00    -0.299 N 
HETATM    9  C23 UNL     1      -3.239   5.434  12.883  1.00  0.00     0.061 A 
HETATM   10  C24 UNL     1      -4.358   4.593  12.807  1.00  0.00     0.045 A 
HETATM   11  H24 UNL     1      -3.671   7.049  14.218  1.00  0.00     0.187 HD
ENDROOT
BRANCH   5  12
HETATM   12  C9  UNL     1       0.239   6.593  12.096  1.00  0.00     0.062 A 
HETATM   13  C10 UNL     1       1.042   7.677  12.363  1.00  0.00     0.045 A 
HETATM   14  C11 UNL     1       2.287   7.463  11.703  1.00  0.00    -0.007 A 
HETATM   15  C12 UNL     1       3.483   8.201  11.604  1.00  0.00     0.022 A 
HETATM   16  C22 UNL     1       2.202   6.237  11.044  1.00  0.00     0.043 A 
HETATM   17  C13 UNL     1       4.560   7.702  10.847  1.00  0.00    -0.029 A 
HETATM   18  C20 UNL     1       4.431   6.461  10.209  1.00  0.00     0.011 A 
HETATM   19  C21 UNL     1       3.254   5.707  10.293  1.00  0.00     0.031 A 
HETATM   20  N5  UNL     1       0.949   5.733  11.301  1.00  0.00    -0.354 N 
HETATM   21  H23 UNL     1       0.578   4.855  10.964  1.00  0.00     0.166 HD
BRANCH  17  22
HETATM   22  C14 UNL     1       5.849   8.494  10.742  1.00  0.00     0.311 C 
BRANCH  22  23
HETATM   23  N4  UNL     1       6.750   8.453  11.898  1.00  0.00     0.092 N 
HETATM   24  C15 UNL     1       6.622   7.244  12.718  1.00  0.00     0.272 C 
HETATM   25  C16 UNL     1       7.261   7.376  14.109  1.00  0.00     0.030 C 
HETATM   26  C17 UNL     1       8.456   8.318  14.089  1.00  0.00     0.003 C 
HETATM   27  C18 UNL     1       8.061   9.697  13.554  1.00  0.00     0.030 C 
HETATM   28  C19 UNL     1       6.792   9.675  12.691  1.00  0.00     0.272 C 
ENDBRANCH  22  23
ENDBRANCH  17  22
ENDBRANCH   5  12
BRANCH   1  29
HETATM   29  C3  UNL     1      -5.431   2.569  11.875  1.00  0.00     0.086 A 
HETATM   30  C2  UNL     1      -6.703   2.614  12.524  1.00  0.00     0.079 A 
HETATM   31  N1  UNL     1      -7.443   1.562  12.133  1.00  0.00    -0.286 N 
HETATM   32  N2  UNL     1      -6.621   0.966  11.261  1.00  0.00    -0.242 N 
ATOM     33  H1  UNL     1      -8.382   1.290  12.424  1.00  0.00     0.188 HD
HETATM   34  N3  UNL     1      -5.414   1.502  11.054  1.00  0.00    -0.284 N 
HETATM   35  H4  UNL     1      -6.907   0.123  10.767  1.00  0.00     0.208 HD
ATOM     36  H3  UNL     1      -4.671   1.183  10.433  1.00  0.00     0.188 HD
BRANCH  30  37
HETATM   37  C1  UNL     1      -7.253   3.600  13.492  1.00  0.00     0.225 C 
BRANCH  37  38
HETATM   38  O1  UNL     1      -8.664   3.764  13.369  1.00  0.00    -0.395 OA
HETATM   39  H1  UNL     1      -8.953   4.287  14.135  1.00  0.00     0.209 HD
ENDBRANCH  37  38
ENDBRANCH  30  37
ENDBRANCH   1  29
TORSDOF 6
ENDMDL
MODEL 8
REMARK minimizedAffinity -9.44765949
REMARK  6 active torsions:
REMARK  status: ('A' for Active; 'I' for Inactive)
REMARK    1  A    between atoms: O1_1  and  C1_2 
REMARK    2  A    between atoms: C1_2  and  C2_3 
REMARK    3  A    between atoms: C3_9  and  C4_10 
REMARK    4  A    between atoms: C8_14  and  C9_15 
REMARK    5  A    between atoms: C13_19  and  C14_20 
REMARK    6  A    between atoms: C14_20  and  N4_21 
ROOT
HETATM    1  C4  UNL     1       1.352   5.573  11.365  1.00  0.00    -0.004 A 
HETATM    2  C5  UNL     1       0.642   6.660  11.887  1.00  0.00     0.015 A 
HETATM    3  C6  UNL     1      -0.697   6.533  12.292  1.00  0.00     0.017 A 
HETATM    4  C7  UNL     1      -1.344   5.289  12.166  1.00  0.00     0.022 A 
HETATM    5  C8  UNL     1      -2.627   4.741  12.437  1.00  0.00     0.087 A 
HETATM    6  N6  UNL     1      -2.709   3.445  12.104  1.00  0.00    -0.297 N 
ATOM      7  H6  UNL     1      -3.509   2.819  12.195  1.00  0.00     0.187 HD
HETATM    8  N7  UNL     1      -1.487   3.166  11.623  1.00  0.00    -0.299 N 
HETATM    9  C23 UNL     1      -0.622   4.225  11.633  1.00  0.00     0.061 A 
HETATM   10  C24 UNL     1       0.713   4.329  11.223  1.00  0.00     0.045 A 
HETATM   11  H24 UNL     1      -1.301   2.225  11.298  1.00  0.00     0.187 HD
ENDROOT
BRANCH   5  12
HETATM   12  C9  UNL     1      -3.880   5.435  13.043  1.00  0.00     0.062 A 
HETATM   13  C10 UNL     1      -5.131   4.931  13.308  1.00  0.00     0.045 A 
HETATM   14  C11 UNL     1      -5.912   5.988  13.861  1.00  0.00    -0.007 A 
HETATM   15  C12 UNL     1      -7.239   6.087  14.322  1.00  0.00     0.022 A 
HETATM   16  C22 UNL     1      -5.099   7.120  13.916  1.00  0.00     0.043 A 
HETATM   17  C13 UNL     1      -7.725   7.312  14.820  1.00  0.00    -0.029 A 
HETATM   18  C20 UNL     1      -6.868   8.420  14.863  1.00  0.00     0.011 A 
HETATM   19  C21 UNL     1      -5.545   8.348  14.412  1.00  0.00     0.031 A 
HETATM   20  N5  UNL     1      -3.873   6.754  13.413  1.00  0.00    -0.354 N 
HETATM   21  H23 UNL     1      -3.064   7.352  13.319  1.00  0.00     0.166 HD
BRANCH  17  22
HETATM   22  C14 UNL     1      -9.153   7.420  15.319  1.00  0.00     0.311 C 
BRANCH  22  23
HETATM   23  N4  UNL     1     -10.151   7.923  14.369  1.00  0.00     0.092 N 
HETATM   24  C15 UNL     1     -10.485   9.339  14.541  1.00  0.00     0.272 C 
HETATM   25  C16 UNL     1     -11.782   9.755  13.830  1.00  0.00     0.030 C 
HETATM   26  C17 UNL     1     -12.022   8.928  12.576  1.00  0.00     0.003 C 
HETATM   27  C18 UNL     1     -12.050   7.432  12.899  1.00  0.00     0.030 C 
HETATM   28  C19 UNL     1     -11.327   7.078  14.206  1.00  0.00     0.272 C 
ENDBRANCH  22  23
ENDBRANCH  17  22
ENDBRANCH   5  12
BRANCH   1  29
HETATM   29  C3  UNL     1       2.745   5.711  10.938  1.00  0.00     0.086 A 
HETATM   30  C2  UNL     1       3.739   6.670  11.303  1.00  0.00     0.079 A 
HETATM   31  N1  UNL     1       4.876   6.414  10.632  1.00  0.00    -0.286 N 
HETATM   32  N2  UNL     1       4.538   5.319   9.940  1.00  0.00    -0.242 N 
ATOM     33  H1  UNL     1       5.761   6.920  10.647  1.00  0.00     0.188 HD
HETATM   34  N3  UNL     1       3.296   4.843  10.069  1.00  0.00    -0.284 N 
HETATM   35  H4  UNL     1       5.209   4.861   9.330  1.00  0.00     0.208 HD
ATOM     36  H3  UNL     1       2.873   4.030   9.622  1.00  0.00     0.188 HD
BRANCH  30  37
HETATM   37  C1  UNL     1       3.669   7.814  12.252  1.00  0.00     0.225 C 
BRANCH  37  38
HETATM   38  O1  UNL     1       3.595   7.395  13.613  1.00  0.00    -0.395 OA
HETATM   39  H1  UNL     1       3.720   8.190  14.157  1.00  0.00     0.209 HD
ENDBRANCH  37  38
ENDBRANCH  30  37
ENDBRANCH   1  29
TORSDOF 6
ENDMDL
MODEL 9
REMARK minimizedAffinity -9.42289925
REMARK  6 active torsions:
REMARK  status: ('A' for Active; 'I' for Inactive)
REMARK    1  A    between atoms: O1_1  and  C1_2 
REMARK    2  A    between atoms: C1_2  and  C2_3 
REMARK    3  A    between atoms: C3_9  and  C4_10 
REMARK    4  A    between atoms: C8_14  and  C9_15 
REMARK    5  A    between atoms: C13_19  and  C14_20 
REMARK    6  A    between atoms: C14_20  and  N4_21 
ROOT
HETATM    1  C4  UNL     1       3.143   6.815  11.415  1.00  0.00    -0.004 A 
HETATM    2  C5  UNL     1       2.238   5.748  11.463  1.00  0.00     0.015 A 
HETATM    3  C6  UNL     1       0.892   5.945  11.817  1.00  0.00     0.017 A 
HETATM    4  C7  UNL     1       0.442   7.240  12.136  1.00  0.00     0.022 A 
HETATM    5  C8  UNL     1      -0.774   7.861  12.529  1.00  0.00     0.087 A 
HETATM    6  N6  UNL     1      -0.634   9.181  12.720  1.00  0.00    -0.297 N 
ATOM      7  H6  UNL     1      -1.344   9.857  13.002  1.00  0.00     0.187 HD
HETATM    8  N7  UNL     1       0.662   9.402  12.451  1.00  0.00    -0.299 N 
HETATM    9  C23 UNL     1       1.362   8.283  12.094  1.00  0.00     0.061 A 
HETATM   10  C24 UNL     1       2.708   8.110  11.744  1.00  0.00     0.045 A 
HETATM   11  H24 UNL     1       1.015  10.348  12.529  1.00  0.00     0.187 HD
ENDROOT
BRANCH   5  12
HETATM   12  C9  UNL     1      -2.173   7.221  12.754  1.00  0.00     0.062 A 
HETATM   13  C10 UNL     1      -3.349   7.787  13.185  1.00  0.00     0.045 A 
HETATM   14  C11 UNL     1      -4.335   6.758  13.217  1.00  0.00    -0.007 A 
HETATM   15  C12 UNL     1      -5.700   6.720  13.565  1.00  0.00     0.022 A 
HETATM   16  C22 UNL     1      -3.720   5.579  12.797  1.00  0.00     0.043 A 
HETATM   17  C13 UNL     1      -6.414   5.509  13.492  1.00  0.00    -0.029 A 
HETATM   18  C20 UNL     1      -5.754   4.351  13.057  1.00  0.00     0.011 A 
HETATM   19  C21 UNL     1      -4.400   4.362  12.704  1.00  0.00     0.031 A 
HETATM   20  N5  UNL     1      -2.409   5.890  12.523  1.00  0.00    -0.354 N 
HETATM   21  H23 UNL     1      -1.699   5.250  12.197  1.00  0.00     0.166 HD
BRANCH  17  22
HETATM   22  C14 UNL     1      -7.884   5.467  13.864  1.00  0.00     0.311 C 
BRANCH  22  23
HETATM   23  N4  UNL     1      -8.435   6.653  14.526  1.00  0.00     0.092 N 
HETATM   24  C15 UNL     1      -8.214   6.691  15.975  1.00  0.00     0.272 C 
HETATM   25  C16 UNL     1      -9.110   7.703  16.706  1.00  0.00     0.030 C 
HETATM   26  C17 UNL     1      -9.441   8.897  15.823  1.00  0.00     0.003 C 
HETATM   27  C18 UNL     1     -10.102   8.450  14.517  1.00  0.00     0.030 C 
HETATM   28  C19 UNL     1      -9.802   6.990  14.151  1.00  0.00     0.272 C 
ENDBRANCH  22  23
ENDBRANCH  17  22
ENDBRANCH   5  12
BRANCH   1  29
HETATM   29  C3  UNL     1       4.545   6.604  11.053  1.00  0.00     0.086 A 
HETATM   30  C2  UNL     1       5.662   7.492  11.102  1.00  0.00     0.079 A 
HETATM   31  N1  UNL     1       6.757   6.861  10.643  1.00  0.00    -0.286 N 
HETATM   32  N2  UNL     1       6.272   5.641  10.380  1.00  0.00    -0.242 N 
ATOM     33  H1  UNL     1       7.705   7.217  10.527  1.00  0.00     0.188 HD
HETATM   34  N3  UNL     1       4.973   5.412  10.597  1.00  0.00    -0.284 N 
HETATM   35  H4  UNL     1       6.877   4.906  10.022  1.00  0.00     0.208 HD
ATOM     36  H3  UNL     1       4.443   4.553  10.453  1.00  0.00     0.188 HD
BRANCH  30  37
HETATM   37  C1  UNL     1       5.748   8.905  11.562  1.00  0.00     0.225 C 
BRANCH  37  38
HETATM   38  O1  UNL     1       5.914   9.015  12.974  1.00  0.00    -0.395 OA
HETATM   39  H1  UNL     1       6.125   9.944  13.158  1.00  0.00     0.209 HD
ENDBRANCH  37  38
ENDBRANCH  30  37
ENDBRANCH   1  29
TORSDOF 6
ENDMDL
