MODEL 1
REMARK minimizedAffinity -5.91607428
REMARK CNNscore 0.618145406
REMARK CNNaffinity 6.01779747
REMARK  6 active torsions:
REMARK  status: ('A' for Active; 'I' for Inactive)
REMARK    1  A    between atoms: O1_2  and  C2_3 
REMARK    2  A    between atoms: C2_3  and  C3_5 
REMARK    3  A    between atoms: C9_11  and  O3_12 
REMARK    4  A    between atoms: C11_14  and  C12_15 
REMARK    5  A    between atoms: C12_15  and  O4_17 
REMARK    6  A    between atoms: C30_36  and  O7_37 
ROOT
HETATM    1  C3  UNL     1       0.621  16.215   2.446  1.00  0.00     0.087 C 
HETATM    2  C4  UNL     1       1.013  17.488   1.614  1.00  0.00     0.024 C 
HETATM    3  C5  UNL     1       2.515  17.812   1.662  1.00  0.00     0.011 C 
HETATM    4  C6  UNL     1       3.493  16.700   1.162  1.00  0.00    -0.033 C 
HETATM    5  C7  UNL     1       3.452  16.739  -0.385  1.00  0.00     0.016 C 
HETATM    6  C8  UNL     1       3.024  15.274   1.683  1.00  0.00     0.032 C 
HETATM    7  C9  UNL     1       3.846  14.821   2.902  1.00  0.00     0.124 C 
HETATM    8  C10 UNL     1       5.305  14.642   2.490  1.00  0.00     0.046 C 
HETATM    9  C11 UNL     1       6.017  15.926   1.946  1.00  0.00     0.014 C 
HETATM   10  C14 UNL     1       6.738  15.508   0.625  1.00  0.00     0.191 C 
HETATM   11  O5  UNL     1       7.857  16.340   0.257  1.00  0.00    -0.321 OA
HETATM   12  C15 UNL     1       7.734  17.619  -0.138  1.00  0.00     0.258 C 
HETATM   13  O6  UNL     1       8.717  18.326  -0.338  1.00  0.00    -0.265 OA
HETATM   14  C16 UNL     1       6.340  18.139  -0.316  1.00  0.00     0.111 C 
HETATM   15  C17 UNL     1       5.610  18.343   1.007  1.00  0.00     0.016 C 
HETATM   16  C18 UNL     1       4.981  17.093   1.692  1.00  0.00     0.008 C 
HETATM   17  C19 UNL     1       1.432  15.010   1.783  1.00  0.00    -0.017 C 
HETATM   18  C20 UNL     1       0.985  14.724   0.290  1.00  0.00     0.017 C 
HETATM   19  C21 UNL     1       1.069  13.682   2.514  1.00  0.00     0.012 C 
HETATM   20  C22 UNL     1      -0.432  13.346   2.519  1.00  0.00     0.013 C 
HETATM   21  C23 UNL     1      -1.393  14.489   2.951  1.00  0.00    -0.008 C 
HETATM   22  C24 UNL     1      -2.805  14.088   2.409  1.00  0.00     0.018 C 
HETATM   23  C25 UNL     1      -1.515  14.440   4.504  1.00  0.00     0.039 C 
HETATM   24  C26 UNL     1      -2.018  15.686   5.161  1.00  0.00    -0.023 C 
HETATM   25  C27 UNL     1      -2.155  16.864   4.538  1.00  0.00    -0.085 C 
HETATM   26  C28 UNL     1      -2.646  18.091   5.254  1.00  0.00     0.043 C 
HETATM   27  C29 UNL     1      -1.830  17.044   3.082  1.00  0.00     0.073 C 
HETATM   28  C30 UNL     1      -0.964  15.929   2.405  1.00  0.00     0.086 C 
ENDROOT
BRANCH   1  29
HETATM   29  C2  UNL     1       0.967  16.615   3.913  1.00  0.00     0.271 C 
HETATM   30  O2  UNL     1       0.977  17.778   4.315  1.00  0.00    -0.264 OA
BRANCH  29  31
HETATM   31  O1  UNL     1       1.183  15.561   4.738  1.00  0.00    -0.326 OA
HETATM   32  C1  UNL     1       1.364  15.918   6.112  1.00  0.00     0.213 C 
ENDBRANCH  29  31
ENDBRANCH   1  29
BRANCH  28  33
HETATM   33  O7  UNL     1      -1.333  16.015   1.000  1.00  0.00    -0.387 OA
HETATM   34  H46 UNL     1      -2.298  15.964   0.915  1.00  0.00     0.210 HD
ENDBRANCH  28  33
BRANCH   7  35
HETATM   35  O3  UNL     1       3.762  15.740   3.971  1.00  0.00    -0.395 OA
HETATM   36  H13 UNL     1       4.129  15.298   4.758  1.00  0.00     0.210 HD
ENDBRANCH   7  35
BRANCH   9  37
HETATM   37  C12 UNL     1       7.146  16.357   2.975  1.00  0.00     0.125 C 
HETATM   38  C13 UNL     1       6.806  17.483   3.952  1.00  0.00     0.040 C 
BRANCH  37  39
HETATM   39  O4  UNL     1       7.511  15.209   3.755  1.00  0.00    -0.395 OA
HETATM   40  H20 UNL     1       8.104  15.495   4.474  1.00  0.00     0.210 HD
ENDBRANCH  37  39
ENDBRANCH   9  37
TORSDOF 6
ENDMDL
MODEL 2
REMARK minimizedAffinity -7.25917435
REMARK CNNscore 0.524980724
REMARK CNNaffinity 6.12605906
REMARK  6 active torsions:
REMARK  status: ('A' for Active; 'I' for Inactive)
REMARK    1  A    between atoms: O1_2  and  C2_3 
REMARK    2  A    between atoms: C2_3  and  C3_5 
REMARK    3  A    between atoms: C9_11  and  O3_12 
REMARK    4  A    between atoms: C11_14  and  C12_15 
REMARK    5  A    between atoms: C12_15  and  O4_17 
REMARK    6  A    between atoms: C30_36  and  O7_37 
ROOT
HETATM    1  C3  UNL     1      -2.298  10.880  15.419  1.00  0.00     0.087 C 
HETATM    2  C4  UNL     1      -2.918  10.289  14.102  1.00  0.00     0.024 C 
HETATM    3  C5  UNL     1      -1.866   9.777  13.106  1.00  0.00     0.011 C 
HETATM    4  C6  UNL     1      -0.893   8.664  13.616  1.00  0.00    -0.033 C 
HETATM    5  C7  UNL     1      -1.688   7.336  13.583  1.00  0.00     0.016 C 
HETATM    6  C8  UNL     1      -0.420   8.979  15.100  1.00  0.00     0.032 C 
HETATM    7  C9  UNL     1       0.990   9.594  15.123  1.00  0.00     0.124 C 
HETATM    8  C10 UNL     1       1.994   8.577  14.584  1.00  0.00     0.046 C 
HETATM    9  C11 UNL     1       1.755   8.107  13.111  1.00  0.00     0.014 C 
HETATM   10  C14 UNL     1       1.847   6.548  13.121  1.00  0.00     0.191 C 
HETATM   11  O5  UNL     1       2.195   5.953  11.854  1.00  0.00    -0.321 OA
HETATM   12  C15 UNL     1       1.384   5.962  10.782  1.00  0.00     0.258 C 
HETATM   13  O6  UNL     1       1.758   5.542   9.691  1.00  0.00    -0.265 OA
HETATM   14  C16 UNL     1       0.006   6.516  10.983  1.00  0.00     0.111 C 
HETATM   15  C17 UNL     1      -0.004   8.029  11.164  1.00  0.00     0.016 C 
HETATM   16  C18 UNL     1       0.352   8.596  12.570  1.00  0.00     0.008 C 
HETATM   17  C19 UNL     1      -1.496   9.672  16.088  1.00  0.00    -0.017 C 
HETATM   18  C20 UNL     1      -2.445   8.485  16.535  1.00  0.00     0.017 C 
HETATM   19  C21 UNL     1      -0.880  10.150  17.437  1.00  0.00     0.012 C 
HETATM   20  C22 UNL     1      -1.900  10.705  18.445  1.00  0.00     0.013 C 
HETATM   21  C23 UNL     1      -2.905  11.758  17.899  1.00  0.00    -0.008 C 
HETATM   22  C24 UNL     1      -4.095  11.782  18.915  1.00  0.00     0.018 C 
HETATM   23  C25 UNL     1      -2.230  13.159  18.018  1.00  0.00     0.039 C 
HETATM   24  C26 UNL     1      -2.814  14.241  17.166  1.00  0.00    -0.023 C 
HETATM   25  C27 UNL     1      -3.704  14.033  16.187  1.00  0.00    -0.085 C 
HETATM   26  C28 UNL     1      -4.241  15.157  15.347  1.00  0.00     0.043 C 
HETATM   27  C29 UNL     1      -4.228  12.664  15.858  1.00  0.00     0.073 C 
HETATM   28  C30 UNL     1      -3.427  11.442  16.422  1.00  0.00     0.086 C 
ENDROOT
BRANCH   1  29
HETATM   29  C2  UNL     1      -1.487  12.115  14.920  1.00  0.00     0.271 C 
HETATM   30  O2  UNL     1      -1.776  12.752  13.908  1.00  0.00    -0.264 OA
BRANCH  29  31
HETATM   31  O1  UNL     1      -0.472  12.479  15.741  1.00  0.00    -0.326 OA
HETATM   32  C1  UNL     1       0.200  13.680  15.348  1.00  0.00     0.213 C 
ENDBRANCH  29  31
ENDBRANCH   1  29
BRANCH  28  33
HETATM   33  O7  UNL     1      -4.426  10.387  16.504  1.00  0.00    -0.387 OA
HETATM   34  H46 UNL     1      -5.193  10.706  17.006  1.00  0.00     0.210 HD
ENDBRANCH  28  33
BRANCH   7  35
HETATM   35  O3  UNL     1       1.063  10.783  14.366  1.00  0.00    -0.395 OA
HETATM   36  H13 UNL     1       1.909  11.213  14.590  1.00  0.00     0.210 HD
ENDBRANCH   7  35
BRANCH   9  37
HETATM   37  C12 UNL     1       2.949   8.636  12.207  1.00  0.00     0.125 C 
HETATM   38  C13 UNL     1       3.467  10.046  12.493  1.00  0.00     0.040 C 
BRANCH  37  39
HETATM   39  O4  UNL     1       4.057   7.735  12.348  1.00  0.00    -0.395 OA
HETATM   40  H20 UNL     1       4.833   8.123  11.903  1.00  0.00     0.210 HD
ENDBRANCH  37  39
ENDBRANCH   9  37
TORSDOF 6
ENDMDL
MODEL 3
REMARK minimizedAffinity -6.94949055
REMARK CNNscore 0.52267921
REMARK CNNaffinity 6.54852533
REMARK  6 active torsions:
REMARK  status: ('A' for Active; 'I' for Inactive)
REMARK    1  A    between atoms: O1_2  and  C2_3 
REMARK    2  A    between atoms: C2_3  and  C3_5 
REMARK    3  A    between atoms: C9_11  and  O3_12 
REMARK    4  A    between atoms: C11_14  and  C12_15 
REMARK    5  A    between atoms: C12_15  and  O4_17 
REMARK    6  A    between atoms: C30_36  and  O7_37 
ROOT
HETATM    1  C3  UNL     1       0.629   8.015  12.190  1.00  0.00     0.087 C 
HETATM    2  C4  UNL     1      -0.393   9.201  12.063  1.00  0.00     0.024 C 
HETATM    3  C5  UNL     1      -1.861   8.757  12.157  1.00  0.00     0.011 C 
HETATM    4  C6  UNL     1      -2.290   8.008  13.460  1.00  0.00    -0.033 C 
HETATM    5  C7  UNL     1      -2.463   9.089  14.553  1.00  0.00     0.016 C 
HETATM    6  C8  UNL     1      -1.170   6.968  13.895  1.00  0.00     0.032 C 
HETATM    7  C9  UNL     1      -1.543   5.533  13.484  1.00  0.00     0.124 C 
HETATM    8  C10 UNL     1      -2.805   5.105  14.229  1.00  0.00     0.046 C 
HETATM    9  C11 UNL     1      -4.078   5.974  13.957  1.00  0.00     0.014 C 
HETATM   10  C14 UNL     1      -4.693   6.311  15.352  1.00  0.00     0.191 C 
HETATM   11  O5  UNL     1      -6.103   6.616  15.335  1.00  0.00    -0.321 OA
HETATM   12  C15 UNL     1      -6.617   7.722  14.770  1.00  0.00     0.258 C 
HETATM   13  O6  UNL     1      -7.828   7.892  14.680  1.00  0.00    -0.265 OA
HETATM   14  C16 UNL     1      -5.638   8.730  14.250  1.00  0.00     0.111 C 
HETATM   15  C17 UNL     1      -4.920   8.264  12.989  1.00  0.00     0.016 C 
HETATM   16  C18 UNL     1      -3.718   7.288  13.154  1.00  0.00     0.008 C 
HETATM   17  C19 UNL     1       0.370   7.387  13.634  1.00  0.00    -0.017 C 
HETATM   18  C20 UNL     1       0.709   8.396  14.807  1.00  0.00     0.017 C 
HETATM   19  C21 UNL     1       1.378   6.223  13.876  1.00  0.00     0.012 C 
HETATM   20  C22 UNL     1       2.857   6.623  13.753  1.00  0.00     0.013 C 
HETATM   21  C23 UNL     1       3.249   7.430  12.483  1.00  0.00    -0.008 C 
HETATM   22  C24 UNL     1       4.611   8.123  12.819  1.00  0.00     0.018 C 
HETATM   23  C25 UNL     1       3.572   6.405  11.354  1.00  0.00     0.039 C 
HETATM   24  C26 UNL     1       3.539   6.938   9.956  1.00  0.00    -0.023 C 
HETATM   25  C27 UNL     1       3.054   8.141   9.619  1.00  0.00    -0.085 C 
HETATM   26  C28 UNL     1       3.026   8.616   8.194  1.00  0.00     0.043 C 
HETATM   27  C29 UNL     1       2.505   9.098  10.638  1.00  0.00     0.073 C 
HETATM   28  C30 UNL     1       2.155   8.512  12.047  1.00  0.00     0.086 C 
ENDROOT
BRANCH   1  29
HETATM   29  C2  UNL     1       0.326   7.134  10.939  1.00  0.00     0.271 C 
HETATM   30  O2  UNL     1       0.634   5.946  10.855  1.00  0.00    -0.264 OA
BRANCH  29  31
HETATM   31  O1  UNL     1      -0.380   7.770   9.972  1.00  0.00    -0.326 OA
HETATM   32  C1  UNL     1      -0.021   7.394   8.639  1.00  0.00     0.213 C 
ENDBRANCH  29  31
ENDBRANCH   1  29
BRANCH  28  33
HETATM   33  O7  UNL     1       2.268   9.661  12.933  1.00  0.00    -0.387 OA
HETATM   34  H46 UNL     1       3.135  10.080  12.811  1.00  0.00     0.210 HD
ENDBRANCH  28  33
BRANCH   7  35
HETATM   35  O3  UNL     1      -1.748   5.416  12.092  1.00  0.00    -0.395 OA
HETATM   36  H13 UNL     1      -1.778   4.464  11.886  1.00  0.00     0.210 HD
ENDBRANCH   7  35
BRANCH   9  37
HETATM   37  C12 UNL     1      -5.144   5.088  13.182  1.00  0.00     0.125 C 
HETATM   38  C13 UNL     1      -4.605   4.074  12.172  1.00  0.00     0.040 C 
BRANCH  37  39
HETATM   39  O4  UNL     1      -5.917   4.361  14.148  1.00  0.00    -0.395 OA
HETATM   40  H20 UNL     1      -6.480   3.718  13.678  1.00  0.00     0.210 HD
ENDBRANCH  37  39
ENDBRANCH   9  37
TORSDOF 6
ENDMDL
MODEL 4
REMARK minimizedAffinity -6.3876009
REMARK CNNscore 0.427004009
REMARK CNNaffinity 5.91640043
REMARK  6 active torsions:
REMARK  status: ('A' for Active; 'I' for Inactive)
REMARK    1  A    between atoms: O1_2  and  C2_3 
REMARK    2  A    between atoms: C2_3  and  C3_5 
REMARK    3  A    between atoms: C9_11  and  O3_12 
REMARK    4  A    between atoms: C11_14  and  C12_15 
REMARK    5  A    between atoms: C12_15  and  O4_17 
REMARK    6  A    between atoms: C30_36  and  O7_37 
ROOT
HETATM    1  C3  UNL     1       6.336  10.796  13.537  1.00  0.00     0.087 C 
HETATM    2  C4  UNL     1       4.891  10.811  14.153  1.00  0.00     0.024 C 
HETATM    3  C5  UNL     1       3.827  10.197  13.230  1.00  0.00     0.011 C 
HETATM    4  C6  UNL     1       4.047   8.716  12.784  1.00  0.00    -0.033 C 
HETATM    5  C7  UNL     1       3.636   7.829  13.983  1.00  0.00     0.016 C 
HETATM    6  C8  UNL     1       5.575   8.468  12.423  1.00  0.00     0.032 C 
HETATM    7  C9  UNL     1       5.805   8.488  10.902  1.00  0.00     0.124 C 
HETATM    8  C10 UNL     1       5.044   7.331  10.260  1.00  0.00     0.046 C 
HETATM    9  C11 UNL     1       3.492   7.349  10.459  1.00  0.00     0.014 C 
HETATM   10  C14 UNL     1       3.086   5.915  10.923  1.00  0.00     0.191 C 
HETATM   11  O5  UNL     1       1.717   5.554  10.648  1.00  0.00    -0.321 OA
HETATM   12  C15 UNL     1       0.663   6.120  11.261  1.00  0.00     0.258 C 
HETATM   13  O6  UNL     1      -0.489   5.864  10.922  1.00  0.00    -0.265 OA
HETATM   14  C16 UNL     1       0.963   7.081  12.370  1.00  0.00     0.111 C 
HETATM   15  C17 UNL     1       1.543   8.399  11.870  1.00  0.00     0.016 C 
HETATM   16  C18 UNL     1       3.060   8.440  11.519  1.00  0.00     0.008 C 
HETATM   17  C19 UNL     1       6.680   9.255  13.303  1.00  0.00    -0.017 C 
HETATM   18  C20 UNL     1       6.763   8.437  14.657  1.00  0.00     0.017 C 
HETATM   19  C21 UNL     1       8.127   9.132  12.734  1.00  0.00     0.012 C 
HETATM   20  C22 UNL     1       9.215   9.770  13.615  1.00  0.00     0.013 C 
HETATM   21  C23 UNL     1       8.942  11.219  14.107  1.00  0.00    -0.008 C 
HETATM   22  C24 UNL     1       9.890  11.441  15.331  1.00  0.00     0.018 C 
HETATM   23  C25 UNL     1       9.453  12.195  13.004  1.00  0.00     0.039 C 
HETATM   24  C26 UNL     1       8.906  13.586  13.056  1.00  0.00    -0.023 C 
HETATM   25  C27 UNL     1       7.880  13.965  13.830  1.00  0.00    -0.085 C 
HETATM   26  C28 UNL     1       7.357  15.373  13.827  1.00  0.00     0.043 C 
HETATM   27  C29 UNL     1       7.179  13.010  14.756  1.00  0.00     0.073 C 
HETATM   28  C30 UNL     1       7.418  11.482  14.514  1.00  0.00     0.086 C 
ENDROOT
BRANCH   1  29
HETATM   29  C2  UNL     1       6.212  11.721  12.287  1.00  0.00     0.271 C 
HETATM   30  O2  UNL     1       6.990  11.681  11.334  1.00  0.00    -0.264 OA
BRANCH  29  31
HETATM   31  O1  UNL     1       5.122  12.526  12.300  1.00  0.00    -0.326 OA
HETATM   32  C1  UNL     1       5.311  13.782  11.640  1.00  0.00     0.213 C 
ENDBRANCH  29  31
ENDBRANCH   1  29
BRANCH  28  33
HETATM   33  O7  UNL     1       7.184  10.888  15.822  1.00  0.00    -0.387 OA
HETATM   34  H46 UNL     1       7.730  11.340  16.485  1.00  0.00     0.210 HD
ENDBRANCH  28  33
BRANCH   7  35
HETATM   35  O3  UNL     1       5.398   9.708  10.320  1.00  0.00    -0.395 OA
HETATM   36  H13 UNL     1       5.755   9.726   9.413  1.00  0.00     0.210 HD
ENDBRANCH   7  35
BRANCH   9  37
HETATM   37  C12 UNL     1       2.800   7.595   9.051  1.00  0.00     0.125 C 
HETATM   38  C13 UNL     1       3.190   8.865   8.294  1.00  0.00     0.040 C 
BRANCH  37  39
HETATM   39  O4  UNL     1       3.100   6.480   8.198  1.00  0.00    -0.395 OA
HETATM   40  H20 UNL     1       2.792   6.685   7.296  1.00  0.00     0.210 HD
ENDBRANCH  37  39
ENDBRANCH   9  37
TORSDOF 6
ENDMDL
MODEL 5
REMARK minimizedAffinity -7.26748085
REMARK CNNscore 0.416609168
REMARK CNNaffinity 5.7293191
REMARK  6 active torsions:
REMARK  status: ('A' for Active; 'I' for Inactive)
REMARK    1  A    between atoms: O1_2  and  C2_3 
REMARK    2  A    between atoms: C2_3  and  C3_5 
REMARK    3  A    between atoms: C9_11  and  O3_12 
REMARK    4  A    between atoms: C11_14  and  C12_15 
REMARK    5  A    between atoms: C12_15  and  O4_17 
REMARK    6  A    between atoms: C30_36  and  O7_37 
ROOT
HETATM    1  C3  UNL     1      -2.331  11.881  16.400  1.00  0.00     0.087 C 
HETATM    2  C4  UNL     1      -3.625  11.640  15.542  1.00  0.00     0.024 C 
HETATM    3  C5  UNL     1      -3.514  10.436  14.594  1.00  0.00     0.011 C 
HETATM    4  C6  UNL     1      -3.212   9.048  15.246  1.00  0.00    -0.033 C 
HETATM    5  C7  UNL     1      -4.544   8.549  15.856  1.00  0.00     0.016 C 
HETATM    6  C8  UNL     1      -2.115   9.199  16.385  1.00  0.00     0.032 C 
HETATM    7  C9  UNL     1      -0.725   8.765  15.889  1.00  0.00     0.124 C 
HETATM    8  C10 UNL     1      -0.752   7.277  15.547  1.00  0.00     0.046 C 
HETATM    9  C11 UNL     1      -1.757   6.860  14.422  1.00  0.00     0.014 C 
HETATM   10  C14 UNL     1      -2.545   5.626  14.965  1.00  0.00     0.191 C 
HETATM   11  O5  UNL     1      -3.106   4.771  13.949  1.00  0.00    -0.321 OA
HETATM   12  C15 UNL     1      -4.115   5.140  13.141  1.00  0.00     0.258 C 
HETATM   13  O6  UNL     1      -4.492   4.426  12.217  1.00  0.00    -0.265 OA
HETATM   14  C16 UNL     1      -4.750   6.468  13.420  1.00  0.00     0.111 C 
HETATM   15  C17 UNL     1      -3.853   7.644  13.050  1.00  0.00     0.016 C 
HETATM   16  C18 UNL     1      -2.733   8.049  14.054  1.00  0.00     0.008 C 
HETATM   17  C19 UNL     1      -2.145  10.554  17.267  1.00  0.00    -0.017 C 
HETATM   18  C20 UNL     1      -3.328  10.329  18.297  1.00  0.00     0.017 C 
HETATM   19  C21 UNL     1      -0.904  10.717  18.196  1.00  0.00     0.012 C 
HETATM   20  C22 UNL     1      -0.963  11.934  19.133  1.00  0.00     0.013 C 
HETATM   21  C23 UNL     1      -1.336  13.293  18.475  1.00  0.00    -0.008 C 
HETATM   22  C24 UNL     1      -1.810  14.219  19.644  1.00  0.00     0.018 C 
HETATM   23  C25 UNL     1      -0.019  13.936  17.944  1.00  0.00     0.039 C 
HETATM   24  C26 UNL     1      -0.183  15.003  16.908  1.00  0.00    -0.023 C 
HETATM   25  C27 UNL     1      -1.335  15.272  16.279  1.00  0.00    -0.085 C 
HETATM   26  C28 UNL     1      -1.437  16.343  15.229  1.00  0.00     0.043 C 
HETATM   27  C29 UNL     1      -2.604  14.526  16.576  1.00  0.00     0.073 C 
HETATM   28  C30 UNL     1      -2.468  13.173  17.353  1.00  0.00     0.086 C 
ENDROOT
BRANCH   1  29
HETATM   29  C2  UNL     1      -1.243  12.222  15.335  1.00  0.00     0.271 C 
HETATM   30  O2  UNL     1      -1.500  12.719  14.239  1.00  0.00    -0.264 OA
BRANCH  29  31
HETATM   31  O1  UNL     1       0.027  11.996  15.749  1.00  0.00    -0.326 OA
HETATM   32  C1  UNL     1       1.033  12.465  14.845  1.00  0.00     0.213 C 
ENDBRANCH  29  31
ENDBRANCH   1  29
BRANCH  28  33
HETATM   33  O7  UNL     1      -3.756  13.027  18.014  1.00  0.00    -0.387 OA
HETATM   34  H46 UNL     1      -3.953  13.831  18.520  1.00  0.00     0.210 HD
ENDBRANCH  28  33
BRANCH   7  35
HETATM   35  O3  UNL     1      -0.307   9.506  14.763  1.00  0.00    -0.395 OA
HETATM   36  H13 UNL     1       0.641   9.323  14.635  1.00  0.00     0.210 HD
ENDBRANCH   7  35
BRANCH   9  37
HETATM   37  C12 UNL     1      -0.933   6.366  13.159  1.00  0.00     0.125 C 
HETATM   38  C13 UNL     1       0.277   5.469  13.422  1.00  0.00     0.040 C 
BRANCH  37  39
HETATM   39  O4  UNL     1      -1.820   5.644  12.293  1.00  0.00    -0.395 OA
HETATM   40  H20 UNL     1      -1.296   5.226  11.585  1.00  0.00     0.210 HD
ENDBRANCH  37  39
ENDBRANCH   9  37
TORSDOF 6
ENDMDL
MODEL 6
REMARK minimizedAffinity -6.85867643
REMARK CNNscore 0.395131409
REMARK CNNaffinity 5.28250837
REMARK  6 active torsions:
REMARK  status: ('A' for Active; 'I' for Inactive)
REMARK    1  A    between atoms: O1_2  and  C2_3 
REMARK    2  A    between atoms: C2_3  and  C3_5 
REMARK    3  A    between atoms: C9_11  and  O3_12 
REMARK    4  A    between atoms: C11_14  and  C12_15 
REMARK    5  A    between atoms: C12_15  and  O4_17 
REMARK    6  A    between atoms: C30_36  and  O7_37 
ROOT
HETATM    1  C3  UNL     1     -16.843   0.942  14.050  1.00  0.00     0.087 C 
HETATM    2  C4  UNL     1     -16.181   0.739  12.640  1.00  0.00     0.024 C 
HETATM    3  C5  UNL     1     -15.291  -0.511  12.556  1.00  0.00     0.011 C 
HETATM    4  C6  UNL     1     -15.968  -1.884  12.873  1.00  0.00    -0.033 C 
HETATM    5  C7  UNL     1     -16.777  -2.276  11.613  1.00  0.00     0.016 C 
HETATM    6  C8  UNL     1     -16.939  -1.747  14.123  1.00  0.00     0.032 C 
HETATM    7  C9  UNL     1     -16.284  -2.283  15.407  1.00  0.00     0.124 C 
HETATM    8  C10 UNL     1     -16.026  -3.781  15.256  1.00  0.00     0.046 C 
HETATM    9  C11 UNL     1     -15.071  -4.188  14.085  1.00  0.00     0.014 C 
HETATM   10  C14 UNL     1     -15.779  -5.348  13.316  1.00  0.00     0.191 C 
HETATM   11  O5  UNL     1     -14.894  -6.213  12.577  1.00  0.00    -0.321 OA
HETATM   12  C15 UNL     1     -14.211  -5.822  11.487  1.00  0.00     0.258 C 
HETATM   13  O6  UNL     1     -13.386  -6.554  10.950  1.00  0.00    -0.265 OA
HETATM   14  C16 UNL     1     -14.504  -4.448  10.966  1.00  0.00     0.111 C 
HETATM   15  C17 UNL     1     -13.955  -3.345  11.863  1.00  0.00     0.016 C 
HETATM   16  C18 UNL     1     -14.776  -2.962  13.131  1.00  0.00     0.008 C 
HETATM   17  C19 UNL     1     -17.745  -0.354  14.284  1.00  0.00    -0.017 C 
HETATM   18  C20 UNL     1     -18.935  -0.463  13.244  1.00  0.00     0.017 C 
HETATM   19  C21 UNL     1     -18.488  -0.223  15.649  1.00  0.00     0.012 C 
HETATM   20  C22 UNL     1     -19.360   1.037  15.782  1.00  0.00     0.013 C 
HETATM   21  C23 UNL     1     -18.688   2.384  15.394  1.00  0.00    -0.008 C 
HETATM   22  C24 UNL     1     -19.860   3.387  15.134  1.00  0.00     0.018 C 
HETATM   23  C25 UNL     1     -17.951   2.924  16.657  1.00  0.00     0.039 C 
HETATM   24  C26 UNL     1     -16.893   3.951  16.408  1.00  0.00    -0.023 C 
HETATM   25  C27 UNL     1     -16.411   4.260  15.195  1.00  0.00    -0.085 C 
HETATM   26  C28 UNL     1     -15.331   5.286  15.006  1.00  0.00     0.043 C 
HETATM   27  C29 UNL     1     -16.916   3.603  13.942  1.00  0.00     0.073 C 
HETATM   28  C30 UNL     1     -17.737   2.281  14.113  1.00  0.00     0.086 C 
ENDROOT
BRANCH   1  29
HETATM   29  C2  UNL     1     -15.625   1.171  14.997  1.00  0.00     0.271 C 
HETATM   30  O2  UNL     1     -14.580   1.713  14.639  1.00  0.00    -0.264 OA
BRANCH  29  31
HETATM   31  O1  UNL     1     -15.841   0.788  16.280  1.00  0.00    -0.326 OA
HETATM   32  C1  UNL     1     -17.161   0.297  16.532  1.00  0.00     0.213 C 
ENDBRANCH  29  31
ENDBRANCH   1  29
BRANCH  28  33
HETATM   33  O7  UNL     1     -18.572   2.240  12.922  1.00  0.00    -0.387 OA
HETATM   34  H46 UNL     1     -19.058   3.076  12.839  1.00  0.00     0.210 HD
ENDBRANCH  28  33
BRANCH   7  35
HETATM   35  O3  UNL     1     -15.074  -1.619  15.703  1.00  0.00    -0.395 OA
HETATM   36  H13 UNL     1     -14.829  -1.863  16.614  1.00  0.00     0.210 HD
ENDBRANCH   7  35
BRANCH   9  37
HETATM   37  C12 UNL     1     -13.735  -4.785  14.701  1.00  0.00     0.125 C 
HETATM   38  C13 UNL     1     -12.553  -3.829  14.864  1.00  0.00     0.040 C 
BRANCH  37  39
HETATM   39  O4  UNL     1     -14.035  -5.321  15.998  1.00  0.00    -0.395 OA
HETATM   40  H20 UNL     1     -13.199  -5.568  16.435  1.00  0.00     0.210 HD
ENDBRANCH  37  39
ENDBRANCH   9  37
TORSDOF 6
ENDMDL
MODEL 7
REMARK minimizedAffinity -5.93683672
REMARK CNNscore 0.393363416
REMARK CNNaffinity 5.59562922
REMARK  6 active torsions:
REMARK  status: ('A' for Active; 'I' for Inactive)
REMARK    1  A    between atoms: O1_2  and  C2_3 
REMARK    2  A    between atoms: C2_3  and  C3_5 
REMARK    3  A    between atoms: C9_11  and  O3_12 
REMARK    4  A    between atoms: C11_14  and  C12_15 
REMARK    5  A    between atoms: C12_15  and  O4_17 
REMARK    6  A    between atoms: C30_36  and  O7_37 
ROOT
HETATM    1  C3  UNL     1     -14.999  -5.083  13.901  1.00  0.00     0.087 C 
HETATM    2  C4  UNL     1     -16.257  -5.261  12.976  1.00  0.00     0.024 C 
HETATM    3  C5  UNL     1     -17.221  -4.065  13.016  1.00  0.00     0.011 C 
HETATM    4  C6  UNL     1     -16.635  -2.672  12.617  1.00  0.00    -0.033 C 
HETATM    5  C7  UNL     1     -16.551  -2.657  11.071  1.00  0.00     0.016 C 
HETATM    6  C8  UNL     1     -15.187  -2.480  13.243  1.00  0.00     0.032 C 
HETATM    7  C9  UNL     1     -15.230  -1.599  14.502  1.00  0.00     0.124 C 
HETATM    8  C10 UNL     1     -15.697  -0.195  14.122  1.00  0.00     0.046 C 
HETATM    9  C11 UNL     1     -17.125  -0.106  13.488  1.00  0.00     0.014 C 
HETATM   10  C14 UNL     1     -16.990   0.784  12.212  1.00  0.00     0.191 C 
HETATM   11  O5  UNL     1     -18.209   1.431  11.793  1.00  0.00    -0.321 OA
HETATM   12  C15 UNL     1     -19.269   0.769  11.298  1.00  0.00     0.258 C 
HETATM   13  O6  UNL     1     -20.326   1.342  11.055  1.00  0.00    -0.265 OA
HETATM   14  C16 UNL     1     -19.097  -0.701  11.064  1.00  0.00     0.111 C 
HETATM   15  C17 UNL     1     -19.038  -1.504  12.358  1.00  0.00     0.016 C 
HETATM   16  C18 UNL     1     -17.686  -1.541  13.131  1.00  0.00     0.008 C 
HETATM   17  C19 UNL     1     -14.245  -3.791  13.344  1.00  0.00    -0.017 C 
HETATM   18  C20 UNL     1     -13.693  -3.995  11.873  1.00  0.00     0.017 C 
HETATM   19  C21 UNL     1     -12.946  -3.557  14.173  1.00  0.00     0.012 C 
HETATM   20  C22 UNL     1     -11.974  -4.749  14.186  1.00  0.00     0.013 C 
HETATM   21  C23 UNL     1     -12.591  -6.137  14.516  1.00  0.00    -0.008 C 
HETATM   22  C24 UNL     1     -11.567  -7.197  13.991  1.00  0.00     0.018 C 
HETATM   23  C25 UNL     1     -12.594  -6.295  16.067  1.00  0.00     0.039 C 
HETATM   24  C26 UNL     1     -13.523  -7.330  16.619  1.00  0.00    -0.023 C 
HETATM   25  C27 UNL     1     -14.472  -7.949  15.904  1.00  0.00    -0.085 C 
HETATM   26  C28 UNL     1     -15.393  -8.966  16.515  1.00  0.00     0.043 C 
HETATM   27  C29 UNL     1     -14.683  -7.672  14.442  1.00  0.00     0.073 C 
HETATM   28  C30 UNL     1     -14.032  -6.371  13.865  1.00  0.00     0.086 C 
ENDROOT
BRANCH   1  29
HETATM   29  C2  UNL     1     -15.606  -5.018  15.337  1.00  0.00     0.271 C 
HETATM   30  O2  UNL     1     -15.057  -4.450  16.280  1.00  0.00    -0.264 OA
BRANCH  29  31
HETATM   31  O1  UNL     1     -16.836  -5.579  15.444  1.00  0.00    -0.326 OA
HETATM   32  C1  UNL     1     -17.442  -5.425  16.731  1.00  0.00     0.213 C 
ENDBRANCH  29  31
ENDBRANCH   1  29
BRANCH  28  33
HETATM   33  O7  UNL     1     -13.853  -6.676  12.452  1.00  0.00    -0.387 OA
HETATM   34  H46 UNL     1     -13.370  -7.511  12.361  1.00  0.00     0.210 HD
ENDBRANCH  28  33
BRANCH   7  35
HETATM   35  O3  UNL     1     -16.081  -2.132  15.495  1.00  0.00    -0.395 OA
HETATM   36  H13 UNL     1     -15.903  -1.642  16.318  1.00  0.00     0.210 HD
ENDBRANCH   7  35
BRANCH   9  37
HETATM   37  C12 UNL     1     -18.082   0.664  14.493  1.00  0.00     0.125 C 
HETATM   38  C13 UNL     1     -18.350   0.004  15.846  1.00  0.00     0.040 C 
BRANCH  37  39
HETATM   39  O4  UNL     1     -17.518   1.958  14.753  1.00  0.00    -0.395 OA
HETATM   40  H20 UNL     1     -18.028   2.383  15.467  1.00  0.00     0.210 HD
ENDBRANCH  37  39
ENDBRANCH   9  37
TORSDOF 6
ENDMDL
MODEL 8
REMARK minimizedAffinity -6.90545225
REMARK CNNscore 0.375139832
REMARK CNNaffinity 5.57978439
REMARK  6 active torsions:
REMARK  status: ('A' for Active; 'I' for Inactive)
REMARK    1  A    between atoms: O1_2  and  C2_3 
REMARK    2  A    between atoms: C2_3  and  C3_5 
REMARK    3  A    between atoms: C9_11  and  O3_12 
REMARK    4  A    between atoms: C11_14  and  C12_15 
REMARK    5  A    between atoms: C12_15  and  O4_17 
REMARK    6  A    between atoms: C30_36  and  O7_37 
ROOT
HETATM    1  C3  UNL     1      -2.343  11.955  16.269  1.00  0.00     0.087 C 
HETATM    2  C4  UNL     1      -3.478  11.343  15.371  1.00  0.00     0.024 C 
HETATM    3  C5  UNL     1      -2.978  10.252  14.412  1.00  0.00     0.011 C 
HETATM    4  C6  UNL     1      -2.277   9.013  15.055  1.00  0.00    -0.033 C 
HETATM    5  C7  UNL     1      -3.403   8.114  15.620  1.00  0.00     0.016 C 
HETATM    6  C8  UNL     1      -1.307   9.471  16.227  1.00  0.00     0.032 C 
HETATM    7  C9  UNL     1       0.160   9.498  15.766  1.00  0.00     0.124 C 
HETATM    8  C10 UNL     1       0.603   8.082  15.404  1.00  0.00     0.046 C 
HETATM    9  C11 UNL     1      -0.198   7.399  14.246  1.00  0.00     0.014 C 
HETATM   10  C14 UNL     1      -0.577   5.971  14.751  1.00  0.00     0.191 C 
HETATM   11  O5  UNL     1      -0.823   5.005  13.708  1.00  0.00    -0.321 OA
HETATM   12  C15 UNL     1      -1.877   5.062  12.876  1.00  0.00     0.258 C 
HETATM   13  O6  UNL     1      -1.992   4.285  11.933  1.00  0.00    -0.265 OA
HETATM   14  C16 UNL     1      -2.898   6.122  13.153  1.00  0.00     0.111 C 
HETATM   15  C17 UNL     1      -2.400   7.525  12.824  1.00  0.00     0.016 C 
HETATM   16  C18 UNL     1      -1.484   8.235  13.865  1.00  0.00     0.008 C 
HETATM   17  C19 UNL     1      -1.776  10.732  17.125  1.00  0.00    -0.017 C 
HETATM   18  C20 UNL     1      -2.855  10.131  18.117  1.00  0.00     0.017 C 
HETATM   19  C21 UNL     1      -0.668  11.251  18.091  1.00  0.00     0.012 C 
HETATM   20  C22 UNL     1      -1.123  12.371  19.041  1.00  0.00     0.013 C 
HETATM   21  C23 UNL     1      -1.882  13.561  18.390  1.00  0.00    -0.008 C 
HETATM   22  C24 UNL     1      -2.647  14.271  19.556  1.00  0.00     0.018 C 
HETATM   23  C25 UNL     1      -0.816  14.590  17.905  1.00  0.00     0.039 C 
HETATM   24  C26 UNL     1      -1.278  15.576  16.878  1.00  0.00    -0.023 C 
HETATM   25  C27 UNL     1      -2.442  15.489  16.219  1.00  0.00    -0.085 C 
HETATM   26  C28 UNL     1      -2.845  16.497  15.180  1.00  0.00     0.043 C 
HETATM   27  C29 UNL     1      -3.425  14.381  16.470  1.00  0.00     0.073 C 
HETATM   28  C30 UNL     1      -2.895  13.121  17.234  1.00  0.00     0.086 C 
ENDROOT
BRANCH   1  29
HETATM   29  C2  UNL     1      -1.389  12.637  15.240  1.00  0.00     0.271 C 
HETATM   30  O2  UNL     1      -1.761  13.054  14.144  1.00  0.00    -0.264 OA
BRANCH  29  31
HETATM   31  O1  UNL     1      -0.121  12.804  15.688  1.00  0.00    -0.326 OA
HETATM   32  C1  UNL     1       0.715  13.569  14.813  1.00  0.00     0.213 C 
ENDBRANCH  29  31
ENDBRANCH   1  29
BRANCH  28  33
HETATM   33  O7  UNL     1      -4.090  12.571  17.856  1.00  0.00    -0.387 OA
HETATM   34  H46 UNL     1      -4.538  13.264  18.366  1.00  0.00     0.210 HD
ENDBRANCH  28  33
BRANCH   7  35
HETATM   35  O3  UNL     1       0.354  10.355  14.661  1.00  0.00    -0.395 OA
HETATM   36  H13 UNL     1       1.316  10.477  14.559  1.00  0.00     0.210 HD
ENDBRANCH   7  35
BRANCH   9  37
HETATM   37  C12 UNL     1       0.769   7.209  13.001  1.00  0.00     0.125 C 
HETATM   38  C13 UNL     1       1.258   8.476  12.299  1.00  0.00     0.040 C 
BRANCH  37  39
HETATM   39  O4  UNL     1       1.929   6.485  13.434  1.00  0.00    -0.395 OA
HETATM   40  H20 UNL     1       2.583   6.480  12.711  1.00  0.00     0.210 HD
ENDBRANCH  37  39
ENDBRANCH   9  37
TORSDOF 6
ENDMDL
MODEL 9
REMARK minimizedAffinity -7.48899078
REMARK CNNscore 0.352251887
REMARK CNNaffinity 5.64595556
REMARK  6 active torsions:
REMARK  status: ('A' for Active; 'I' for Inactive)
REMARK    1  A    between atoms: O1_2  and  C2_3 
REMARK    2  A    between atoms: C2_3  and  C3_5 
REMARK    3  A    between atoms: C9_11  and  O3_12 
REMARK    4  A    between atoms: C11_14  and  C12_15 
REMARK    5  A    between atoms: C12_15  and  O4_17 
REMARK    6  A    between atoms: C30_36  and  O7_37 
ROOT
HETATM    1  C3  UNL     1      -2.372  11.557  16.012  1.00  0.00     0.087 C 
HETATM    2  C4  UNL     1      -2.531  11.521  14.450  1.00  0.00     0.024 C 
HETATM    3  C5  UNL     1      -1.512  10.606  13.752  1.00  0.00     0.011 C 
HETATM    4  C6  UNL     1      -1.504   9.103  14.180  1.00  0.00    -0.033 C 
HETATM    5  C7  UNL     1      -2.709   8.436  13.473  1.00  0.00     0.016 C 
HETATM    6  C8  UNL     1      -1.659   8.975  15.757  1.00  0.00     0.032 C 
HETATM    7  C9  UNL     1      -0.305   8.711  16.437  1.00  0.00     0.124 C 
HETATM    8  C10 UNL     1       0.240   7.363  15.973  1.00  0.00     0.046 C 
HETATM    9  C11 UNL     1       0.500   7.231  14.435  1.00  0.00     0.014 C 
HETATM   10  C14 UNL     1      -0.149   5.884  13.988  1.00  0.00     0.191 C 
HETATM   11  O5  UNL     1       0.411   5.309  12.789  1.00  0.00    -0.321 OA
HETATM   12  C15 UNL     1       0.272   5.856  11.569  1.00  0.00     0.258 C 
HETATM   13  O6  UNL     1       0.855   5.397  10.591  1.00  0.00    -0.265 OA
HETATM   14  C16 UNL     1      -0.622   7.053  11.464  1.00  0.00     0.111 C 
HETATM   15  C17 UNL     1      -0.016   8.302  12.095  1.00  0.00     0.016 C 
HETATM   16  C18 UNL     1      -0.111   8.455  13.642  1.00  0.00     0.008 C 
HETATM   17  C19 UNL     1      -2.609  10.055  16.496  1.00  0.00    -0.017 C 
HETATM   18  C20 UNL     1      -4.082   9.548  16.208  1.00  0.00     0.017 C 
HETATM   19  C21 UNL     1      -2.520   9.996  18.051  1.00  0.00     0.012 C 
HETATM   20  C22 UNL     1      -3.500  10.928  18.783  1.00  0.00     0.013 C 
HETATM   21  C23 UNL     1      -3.544  12.403  18.293  1.00  0.00    -0.008 C 
HETATM   22  C24 UNL     1      -4.901  12.986  18.809  1.00  0.00     0.018 C 
HETATM   23  C25 UNL     1      -2.436  13.187  19.060  1.00  0.00     0.039 C 
HETATM   24  C26 UNL     1      -2.007  14.482  18.447  1.00  0.00    -0.023 C 
HETATM   25  C27 UNL     1      -2.348  14.883  17.214  1.00  0.00    -0.085 C 
HETATM   26  C28 UNL     1      -1.869  16.186  16.640  1.00  0.00     0.043 C 
HETATM   27  C29 UNL     1      -3.231  14.060  16.320  1.00  0.00     0.073 C 
HETATM   28  C30 UNL     1      -3.429  12.556  16.706  1.00  0.00     0.086 C 
ENDROOT
BRANCH   1  29
HETATM   29  C2  UNL     1      -0.959  12.184  16.223  1.00  0.00     0.271 C 
HETATM   30  O2  UNL     1      -0.278  11.997  17.231  1.00  0.00    -0.264 OA
BRANCH  29  31
HETATM   31  O1  UNL     1      -0.505  12.895  15.162  1.00  0.00    -0.326 OA
HETATM   32  C1  UNL     1       0.826  13.398  15.318  1.00  0.00     0.213 C 
ENDBRANCH  29  31
ENDBRANCH   1  29
BRANCH  28  33
HETATM   33  O7  UNL     1      -4.717  12.219  16.118  1.00  0.00    -0.387 OA
HETATM   34  H46 UNL     1      -5.384  12.860  16.410  1.00  0.00     0.210 HD
ENDBRANCH  28  33
BRANCH   7  35
HETATM   35  O3  UNL     1       0.635   9.727  16.159  1.00  0.00    -0.395 OA
HETATM   36  H13 UNL     1       1.382   9.601  16.773  1.00  0.00     0.210 HD
ENDBRANCH   7  35
BRANCH   9  37
HETATM   37  C12 UNL     1       2.063   7.097  14.192  1.00  0.00     0.125 C 
HETATM   38  C13 UNL     1       2.824   8.371  13.827  1.00  0.00     0.040 C 
BRANCH  37  39
HETATM   39  O4  UNL     1       2.663   6.566  15.384  1.00  0.00    -0.395 OA
HETATM   40  H20 UNL     1       3.632   6.605  15.290  1.00  0.00     0.210 HD
ENDBRANCH  37  39
ENDBRANCH   9  37
TORSDOF 6
ENDMDL
