MODEL 1
REMARK minimizedAffinity -9.60691357
REMARK CNNscore 0.405157983
REMARK CNNaffinity 6.58509254
REMARK  6 active torsions:
REMARK  status: ('A' for Active; 'I' for Inactive)
REMARK    1  A    between atoms: C2_2  and  C3_3 
REMARK    2  A    between atoms: C7_8  and  C8_9 
REMARK    3  A    between atoms: C21_24  and  C22_25 
REMARK    4  A    between atoms: C22_25  and  O1_26 
REMARK    5  A    between atoms: C23_27  and  C26_30 
REMARK    6  A    between atoms: C27_31  and  O2_32 
ROOT
HETATM    1  C8  UNL     1      -8.489  46.812 -24.812  1.00  0.00    -0.003 C 
HETATM    2  C9  UNL     1      -8.480  46.481 -23.506  1.00  0.00     0.102 C 
HETATM    3  N2  UNL     1      -7.502  46.911 -22.633  1.00  0.00    -0.349 N 
HETATM    4  C10 UNL     1      -7.762  47.602 -21.416  1.00  0.00     0.041 A 
HETATM    5  C11 UNL     1      -8.933  47.586 -20.674  1.00  0.00     0.030 A 
HETATM    6  C12 UNL     1      -9.007  48.367 -19.516  1.00  0.00     0.002 A 
HETATM    7  C13 UNL     1      -7.917  49.150 -19.111  1.00  0.00     0.001 A 
HETATM    8  C14 UNL     1      -6.735  49.161 -19.853  1.00  0.00     0.010 A 
HETATM    9  C15 UNL     1      -6.671  48.386 -21.001  1.00  0.00    -0.018 A 
HETATM   10  C16 UNL     1      -5.523  48.184 -21.946  1.00  0.00     0.043 C 
HETATM   11  C17 UNL     1      -4.493  47.214 -21.356  1.00  0.00     0.049 C 
HETATM   12  C18 UNL     1      -3.313  47.366 -22.301  1.00  0.00     0.274 C 
HETATM   13  N3  UNL     1      -3.367  48.754 -22.766  1.00  0.00     0.098 N 
HETATM   14  C19 UNL     1      -3.044  48.919 -24.178  1.00  0.00     0.307 C 
HETATM   15  C20 UNL     1      -4.228  48.810 -25.138  1.00  0.00    -0.049 C 
HETATM   16  C21 UNL     1      -3.999  48.292 -26.366  1.00  0.00     0.004 C 
HETATM   17  C23 UNL     1      -5.528  49.471 -24.667  1.00  0.00     0.027 C 
HETATM   18  C24 UNL     1      -5.220  50.302 -23.404  1.00  0.00     0.046 C 
HETATM   19  C25 UNL     1      -4.634  49.379 -22.331  1.00  0.00     0.239 C 
HETATM   20  C26 UNL     1      -6.689  48.537 -24.243  1.00  0.00     0.052 C 
HETATM   21  C27 UNL     1      -7.418  47.757 -25.353  1.00  0.00     0.160 C 
HETATM   22  C28 UNL     1      -6.260  47.540 -23.153  1.00  0.00     0.112 C 
ENDROOT
BRANCH   1  23
HETATM   23  C7  UNL     1      -9.473  46.243 -25.758  1.00  0.00    -0.016 A 
HETATM   24  C3  UNL     1      -9.132  45.486 -26.896  1.00  0.00    -0.032 A 
HETATM   25  C4  UNL     1     -10.168  45.055 -27.731  1.00  0.00     0.099 A 
HETATM   26  N1  UNL     1     -11.469  45.284 -27.438  1.00  0.00    -0.354 N 
HETATM   27  C5  UNL     1     -11.813  45.950 -26.302  1.00  0.00     0.062 A 
HETATM   28  C32 UNL     1     -12.518  44.888 -28.442  1.00  0.00     0.133 C 
HETATM   29  C6  UNL     1     -10.827  46.452 -25.465  1.00  0.00     0.044 A 
HETATM   30  C29 UNL     1     -13.234  46.051 -26.021  1.00  0.00     0.067 A 
HETATM   31  C30 UNL     1     -14.203  45.348 -26.704  1.00  0.00    -0.015 A 
HETATM   32  N4  UNL     1     -13.861  46.775 -25.040  1.00  0.00    -0.353 N 
HETATM   33  C31 UNL     1     -13.823  44.416 -27.792  1.00  0.00     0.062 C 
HETATM   34  C33 UNL     1     -15.468  45.683 -26.157  1.00  0.00    -0.001 A 
HETATM   35  C34 UNL     1     -16.795  45.304 -26.433  1.00  0.00     0.014 A 
HETATM   36  C38 UNL     1     -15.225  46.581 -25.115  1.00  0.00     0.043 A 
HETATM   37  C35 UNL     1     -17.832  45.842 -25.662  1.00  0.00     0.001 A 
HETATM   38  C36 UNL     1     -17.562  46.736 -24.628  1.00  0.00     0.002 A 
HETATM   39  C37 UNL     1     -16.252  47.122 -24.334  1.00  0.00     0.030 A 
HETATM   40  H39 UNL     1     -13.418  47.366 -24.346  1.00  0.00     0.166 HD
BRANCH  24  41
HETATM   41  C2  UNL     1      -7.685  45.161 -27.227  1.00  0.00     0.036 C 
HETATM   42  C1  UNL     1      -7.222  45.484 -28.645  1.00  0.00     0.010 C 
ENDBRANCH  24  41
ENDBRANCH   1  23
BRANCH  21  43
HETATM   43  O2  UNL     1      -8.046  48.682 -26.246  1.00  0.00    -0.390 OA
HETATM   44  H29 UNL     1      -8.604  49.268 -25.706  1.00  0.00     0.210 HD
ENDBRANCH  21  43
BRANCH  16  45
HETATM   45  C22 UNL     1      -4.887  48.260 -27.565  1.00  0.00     0.191 C 
BRANCH  45  46
HETATM   46  O1  UNL     1      -4.341  49.134 -28.549  1.00  0.00    -0.397 OA
HETATM   47  H22 UNL     1      -4.567  50.034 -28.257  1.00  0.00     0.209 HD
ENDBRANCH  45  46
ENDBRANCH  16  45
TORSDOF 6
ENDMDL
MODEL 2
REMARK minimizedAffinity -11.3044481
REMARK CNNscore 0.272532165
REMARK CNNaffinity 7.76810122
REMARK  6 active torsions:
REMARK  status: ('A' for Active; 'I' for Inactive)
REMARK    1  A    between atoms: C2_2  and  C3_3 
REMARK    2  A    between atoms: C7_8  and  C8_9 
REMARK    3  A    between atoms: C21_24  and  C22_25 
REMARK    4  A    between atoms: C22_25  and  O1_26 
REMARK    5  A    between atoms: C23_27  and  C26_30 
REMARK    6  A    between atoms: C27_31  and  O2_32 
ROOT
HETATM    1  C8  UNL     1      -0.966  51.264 -20.656  1.00  0.00    -0.003 C 
HETATM    2  C9  UNL     1      -0.302  51.147 -21.822  1.00  0.00     0.102 C 
HETATM    3  N2  UNL     1      -0.933  50.863 -23.016  1.00  0.00    -0.349 N 
HETATM    4  C10 UNL     1      -0.814  51.655 -24.192  1.00  0.00     0.041 A 
HETATM    5  C11 UNL     1       0.214  52.524 -24.521  1.00  0.00     0.030 A 
HETATM    6  C12 UNL     1       0.131  53.246 -25.716  1.00  0.00     0.002 A 
HETATM    7  C13 UNL     1      -0.972  53.093 -26.568  1.00  0.00     0.001 A 
HETATM    8  C14 UNL     1      -2.004  52.212 -26.243  1.00  0.00     0.010 A 
HETATM    9  C15 UNL     1      -1.915  51.502 -25.054  1.00  0.00    -0.018 A 
HETATM   10  C16 UNL     1      -2.851  50.473 -24.492  1.00  0.00     0.043 C 
HETATM   11  C17 UNL     1      -2.666  49.124 -25.195  1.00  0.00     0.049 C 
HETATM   12  C18 UNL     1      -3.862  48.326 -24.704  1.00  0.00     0.274 C 
HETATM   13  N3  UNL     1      -4.924  49.313 -24.493  1.00  0.00     0.098 N 
HETATM   14  C19 UNL     1      -5.729  49.072 -23.302  1.00  0.00     0.307 C 
HETATM   15  C20 UNL     1      -5.210  49.719 -22.018  1.00  0.00    -0.049 C 
HETATM   16  C21 UNL     1      -5.430  49.071 -20.851  1.00  0.00     0.004 C 
HETATM   17  C23 UNL     1      -4.647  51.136 -22.170  1.00  0.00     0.027 C 
HETATM   18  C24 UNL     1      -4.979  51.641 -23.590  1.00  0.00     0.046 C 
HETATM   19  C25 UNL     1      -4.371  50.678 -24.615  1.00  0.00     0.239 C 
HETATM   20  C26 UNL     1      -3.114  51.311 -22.045  1.00  0.00     0.052 C 
HETATM   21  C27 UNL     1      -2.490  51.149 -20.646  1.00  0.00     0.160 C 
HETATM   22  C28 UNL     1      -2.347  50.405 -23.024  1.00  0.00     0.112 C 
ENDROOT
BRANCH   1  23
HETATM   23  C7  UNL     1      -0.263  51.446 -19.368  1.00  0.00    -0.016 A 
HETATM   24  C3  UNL     1       0.453  52.606 -19.014  1.00  0.00    -0.032 A 
HETATM   25  C4  UNL     1       1.114  52.618 -17.780  1.00  0.00     0.099 A 
HETATM   26  N1  UNL     1       1.022  51.588 -16.907  1.00  0.00    -0.354 N 
HETATM   27  C5  UNL     1       0.271  50.493 -17.208  1.00  0.00     0.062 A 
HETATM   28  C32 UNL     1       1.851  51.627 -15.652  1.00  0.00     0.133 C 
HETATM   29  C6  UNL     1      -0.360  50.400 -18.440  1.00  0.00     0.044 A 
HETATM   30  C29 UNL     1       0.147  49.491 -16.165  1.00  0.00     0.067 A 
HETATM   31  C30 UNL     1       0.555  49.686 -14.862  1.00  0.00    -0.015 A 
HETATM   32  N4  UNL     1      -0.421  48.246 -16.239  1.00  0.00    -0.353 N 
HETATM   33  C31 UNL     1       1.154  50.978 -14.452  1.00  0.00     0.062 C 
HETATM   34  C33 UNL     1       0.271  48.509 -14.124  1.00  0.00    -0.001 A 
HETATM   35  C34 UNL     1       0.459  48.112 -12.787  1.00  0.00     0.014 A 
HETATM   36  C38 UNL     1      -0.340  47.620 -15.012  1.00  0.00     0.043 A 
HETATM   37  C35 UNL     1       0.036  46.839 -12.387  1.00  0.00     0.001 A 
HETATM   38  C36 UNL     1      -0.570  45.972 -13.293  1.00  0.00     0.002 A 
HETATM   39  C37 UNL     1      -0.772  46.347 -14.625  1.00  0.00     0.030 A 
HETATM   40  H39 UNL     1      -0.849  47.823 -17.055  1.00  0.00     0.166 HD
BRANCH  24  41
HETATM   41  C2  UNL     1       0.532  53.804 -19.944  1.00  0.00     0.036 C 
HETATM   42  C1  UNL     1       1.700  53.829 -20.926  1.00  0.00     0.010 C 
ENDBRANCH  24  41
ENDBRANCH   1  23
BRANCH  21  43
HETATM   43  O2  UNL     1      -3.010  52.159 -19.777  1.00  0.00    -0.390 OA
HETATM   44  H29 UNL     1      -2.857  53.017 -20.210  1.00  0.00     0.210 HD
ENDBRANCH  21  43
BRANCH  16  45
HETATM   45  C22 UNL     1      -5.238  49.547 -19.449  1.00  0.00     0.191 C 
BRANCH  45  46
HETATM   46  O1  UNL     1      -6.060  48.758 -18.594  1.00  0.00    -0.397 OA
HETATM   47  H22 UNL     1      -6.965  49.095 -18.712  1.00  0.00     0.209 HD
ENDBRANCH  45  46
ENDBRANCH  16  45
TORSDOF 6
ENDMDL
MODEL 3
REMARK minimizedAffinity -10.1051054
REMARK CNNscore 0.226334453
REMARK CNNaffinity 7.36823273
REMARK  6 active torsions:
REMARK  status: ('A' for Active; 'I' for Inactive)
REMARK    1  A    between atoms: C2_2  and  C3_3 
REMARK    2  A    between atoms: C7_8  and  C8_9 
REMARK    3  A    between atoms: C21_24  and  C22_25 
REMARK    4  A    between atoms: C22_25  and  O1_26 
REMARK    5  A    between atoms: C23_27  and  C26_30 
REMARK    6  A    between atoms: C27_31  and  O2_32 
ROOT
HETATM    1  C8  UNL     1       0.123  50.901 -14.032  1.00  0.00    -0.003 C 
HETATM    2  C9  UNL     1       1.392  51.156 -13.660  1.00  0.00     0.102 C 
HETATM    3  N2  UNL     1       1.711  51.784 -12.473  1.00  0.00    -0.349 N 
HETATM    4  C10 UNL     1       2.603  51.251 -11.500  1.00  0.00     0.041 A 
HETATM    5  C11 UNL     1       3.608  50.318 -11.701  1.00  0.00     0.030 A 
HETATM    6  C12 UNL     1       4.360  49.889 -10.603  1.00  0.00     0.002 A 
HETATM    7  C13 UNL     1       4.102  50.393  -9.320  1.00  0.00     0.001 A 
HETATM    8  C14 UNL     1       3.095  51.337  -9.116  1.00  0.00     0.010 A 
HETATM    9  C15 UNL     1       2.353  51.756 -10.211  1.00  0.00    -0.018 A 
HETATM   10  C16 UNL     1       1.257  52.777 -10.278  1.00  0.00     0.043 C 
HETATM   11  C17 UNL     1       1.831  54.198 -10.252  1.00  0.00     0.049 C 
HETATM   12  C18 UNL     1       0.593  55.054 -10.039  1.00  0.00     0.274 C 
HETATM   13  N3  UNL     1      -0.315  54.226  -9.242  1.00  0.00     0.098 N 
HETATM   14  C19 UNL     1      -1.714  54.333  -9.635  1.00  0.00     0.307 C 
HETATM   15  C20 UNL     1      -2.168  53.354 -10.718  1.00  0.00    -0.049 C 
HETATM   16  C21 UNL     1      -3.125  53.767 -11.581  1.00  0.00     0.004 C 
HETATM   17  C23 UNL     1      -1.614  51.931 -10.599  1.00  0.00     0.027 C 
HETATM   18  C24 UNL     1      -0.903  51.798  -9.237  1.00  0.00     0.046 C 
HETATM   19  C25 UNL     1       0.211  52.848  -9.152  1.00  0.00     0.239 C 
HETATM   20  C26 UNL     1      -0.550  51.492 -11.636  1.00  0.00     0.052 C 
HETATM   21  C27 UNL     1      -1.022  51.252 -13.083  1.00  0.00     0.160 C 
HETATM   22  C28 UNL     1       0.653  52.451 -11.672  1.00  0.00     0.112 C 
ENDROOT
BRANCH   1  23
HETATM   23  C7  UNL     1      -0.207  50.341 -15.360  1.00  0.00    -0.016 A 
HETATM   24  C3  UNL     1      -0.881  49.120 -15.559  1.00  0.00    -0.032 A 
HETATM   25  C4  UNL     1      -1.080  48.688 -16.875  1.00  0.00     0.099 A 
HETATM   26  N1  UNL     1      -0.711  49.437 -17.939  1.00  0.00    -0.354 N 
HETATM   27  C5  UNL     1      -0.126  50.653 -17.759  1.00  0.00     0.062 A 
HETATM   28  C32 UNL     1      -0.856  48.853 -19.320  1.00  0.00     0.133 C 
HETATM   29  C6  UNL     1       0.149  51.107 -16.477  1.00  0.00     0.044 A 
HETATM   30  C29 UNL     1       0.134  51.426 -18.959  1.00  0.00     0.067 A 
HETATM   31  C30 UNL     1      -0.358  51.099 -20.205  1.00  0.00    -0.015 A 
HETATM   32  N4  UNL     1       0.829  52.601 -19.084  1.00  0.00    -0.353 N 
HETATM   33  C31 UNL     1      -1.214  49.901 -20.379  1.00  0.00     0.062 C 
HETATM   34  C33 UNL     1       0.084  52.077 -21.131  1.00  0.00    -0.001 A 
HETATM   35  C34 UNL     1      -0.082  52.273 -22.516  1.00  0.00     0.014 A 
HETATM   36  C38 UNL     1       0.829  53.008 -20.403  1.00  0.00     0.043 A 
HETATM   37  C35 UNL     1       0.506  53.389 -23.122  1.00  0.00     0.001 A 
HETATM   38  C36 UNL     1       1.244  54.302 -22.372  1.00  0.00     0.002 A 
HETATM   39  C37 UNL     1       1.418  54.130 -20.995  1.00  0.00     0.030 A 
HETATM   40  H39 UNL     1       1.281  53.120 -18.340  1.00  0.00     0.166 HD
BRANCH  24  41
HETATM   41  C2  UNL     1      -1.360  48.279 -14.388  1.00  0.00     0.036 C 
HETATM   42  C1  UNL     1      -1.407  46.769 -14.607  1.00  0.00     0.010 C 
ENDBRANCH  24  41
ENDBRANCH   1  23
BRANCH  21  43
HETATM   43  O2  UNL     1      -1.964  50.176 -13.100  1.00  0.00    -0.390 OA
HETATM   44  H29 UNL     1      -1.541  49.417 -12.663  1.00  0.00     0.210 HD
ENDBRANCH  21  43
BRANCH  16  45
HETATM   45  C22 UNL     1      -3.905  52.980 -12.581  1.00  0.00     0.191 C 
BRANCH  45  46
HETATM   46  O1  UNL     1      -4.305  53.860 -13.627  1.00  0.00    -0.397 OA
HETATM   47  H22 UNL     1      -5.051  54.373 -13.270  1.00  0.00     0.209 HD
ENDBRANCH  45  46
ENDBRANCH  16  45
TORSDOF 6
ENDMDL
MODEL 4
REMARK minimizedAffinity -10.9705839
REMARK CNNscore 0.201767385
REMARK CNNaffinity 7.13870811
REMARK  6 active torsions:
REMARK  status: ('A' for Active; 'I' for Inactive)
REMARK    1  A    between atoms: C2_2  and  C3_3 
REMARK    2  A    between atoms: C7_8  and  C8_9 
REMARK    3  A    between atoms: C21_24  and  C22_25 
REMARK    4  A    between atoms: C22_25  and  O1_26 
REMARK    5  A    between atoms: C23_27  and  C26_30 
REMARK    6  A    between atoms: C27_31  and  O2_32 
ROOT
HETATM    1  C8  UNL     1       0.018  50.302 -16.016  1.00  0.00    -0.003 C 
HETATM    2  C9  UNL     1       0.999  49.535 -15.501  1.00  0.00     0.102 C 
HETATM    3  N2  UNL     1       0.898  48.921 -14.269  1.00  0.00    -0.349 N 
HETATM    4  C10 UNL     1       1.078  47.526 -14.052  1.00  0.00     0.041 A 
HETATM    5  C11 UNL     1       1.781  46.635 -14.848  1.00  0.00     0.030 A 
HETATM    6  C12 UNL     1       1.811  45.285 -14.483  1.00  0.00     0.002 A 
HETATM    7  C13 UNL     1       1.144  44.840 -13.333  1.00  0.00     0.001 A 
HETATM    8  C14 UNL     1       0.442  45.737 -12.527  1.00  0.00     0.010 A 
HETATM    9  C15 UNL     1       0.415  47.074 -12.898  1.00  0.00    -0.018 A 
HETATM   10  C16 UNL     1      -0.220  48.239 -12.198  1.00  0.00     0.043 C 
HETATM   11  C17 UNL     1       0.631  48.691 -11.005  1.00  0.00     0.049 C 
HETATM   12  C18 UNL     1      -0.295  49.653 -10.281  1.00  0.00     0.274 C 
HETATM   13  N3  UNL     1      -1.648  49.149 -10.530  1.00  0.00     0.098 N 
HETATM   14  C19 UNL     1      -2.634  50.193 -10.777  1.00  0.00     0.307 C 
HETATM   15  C20 UNL     1      -2.788  50.618 -12.238  1.00  0.00    -0.049 C 
HETATM   16  C21 UNL     1      -3.105  51.908 -12.490  1.00  0.00     0.004 C 
HETATM   17  C23 UNL     1      -2.744  49.483 -13.266  1.00  0.00     0.027 C 
HETATM   18  C24 UNL     1      -2.789  48.139 -12.510  1.00  0.00     0.046 C 
HETATM   19  C25 UNL     1      -1.603  48.072 -11.542  1.00  0.00     0.239 C 
HETATM   20  C26 UNL     1      -1.484  49.382 -14.161  1.00  0.00     0.052 C 
HETATM   21  C27 UNL     1      -1.294  50.456 -15.249  1.00  0.00     0.160 C 
HETATM   22  C28 UNL     1      -0.190  49.300 -13.332  1.00  0.00     0.112 C 
ENDROOT
BRANCH   1  23
HETATM   23  C7  UNL     1       0.191  51.051 -17.279  1.00  0.00    -0.016 A 
HETATM   24  C3  UNL     1       1.011  52.187 -17.420  1.00  0.00    -0.032 A 
HETATM   25  C4  UNL     1       1.038  52.827 -18.665  1.00  0.00     0.099 A 
HETATM   26  N1  UNL     1       0.361  52.344 -19.733  1.00  0.00    -0.354 N 
HETATM   27  C5  UNL     1      -0.375  51.205 -19.628  1.00  0.00     0.062 A 
HETATM   28  C32 UNL     1       0.349  53.150 -21.005  1.00  0.00     0.133 C 
HETATM   29  C6  UNL     1      -0.485  50.560 -18.404  1.00  0.00     0.044 A 
HETATM   30  C29 UNL     1      -0.975  50.709 -20.853  1.00  0.00     0.067 A 
HETATM   31  C30 UNL     1      -0.669  51.195 -22.107  1.00  0.00    -0.015 A 
HETATM   32  N4  UNL     1      -1.867  49.681 -21.013  1.00  0.00    -0.353 N 
HETATM   33  C31 UNL     1       0.329  52.279 -22.266  1.00  0.00     0.062 C 
HETATM   34  C33 UNL     1      -1.429  50.473 -23.063  1.00  0.00    -0.001 A 
HETATM   35  C34 UNL     1      -1.551  50.518 -24.465  1.00  0.00     0.014 A 
HETATM   36  C38 UNL     1      -2.173  49.531 -22.350  1.00  0.00     0.043 A 
HETATM   37  C35 UNL     1      -2.418  49.622 -25.102  1.00  0.00     0.001 A 
HETATM   38  C36 UNL     1      -3.149  48.692 -24.367  1.00  0.00     0.002 A 
HETATM   39  C37 UNL     1      -3.039  48.627 -22.975  1.00  0.00     0.030 A 
HETATM   40  H39 UNL     1      -2.256  49.097 -20.282  1.00  0.00     0.166 HD
BRANCH  24  41
HETATM   41  C2  UNL     1       1.829  52.725 -16.258  1.00  0.00     0.036 C 
HETATM   42  C1  UNL     1       3.342  52.554 -16.353  1.00  0.00     0.010 C 
ENDBRANCH  24  41
ENDBRANCH   1  23
BRANCH  21  43
HETATM   43  O2  UNL     1      -2.373  50.375 -16.185  1.00  0.00    -0.390 OA
HETATM   44  H29 UNL     1      -2.409  49.456 -16.502  1.00  0.00     0.210 HD
ENDBRANCH  21  43
BRANCH  16  45
HETATM   45  C22 UNL     1      -3.524  52.552 -13.770  1.00  0.00     0.191 C 
BRANCH  45  46
HETATM   46  O1  UNL     1      -4.282  53.716 -13.457  1.00  0.00    -0.397 OA
HETATM   47  H22 UNL     1      -5.161  53.395 -13.191  1.00  0.00     0.209 HD
ENDBRANCH  45  46
ENDBRANCH  16  45
TORSDOF 6
ENDMDL
MODEL 5
REMARK minimizedAffinity -10.5737505
REMARK CNNscore 0.201206833
REMARK CNNaffinity 7.29041529
REMARK  6 active torsions:
REMARK  status: ('A' for Active; 'I' for Inactive)
REMARK    1  A    between atoms: C2_2  and  C3_3 
REMARK    2  A    between atoms: C7_8  and  C8_9 
REMARK    3  A    between atoms: C21_24  and  C22_25 
REMARK    4  A    between atoms: C22_25  and  O1_26 
REMARK    5  A    between atoms: C23_27  and  C26_30 
REMARK    6  A    between atoms: C27_31  and  O2_32 
ROOT
HETATM    1  C8  UNL     1      -0.610  50.619 -14.847  1.00  0.00    -0.003 C 
HETATM    2  C9  UNL     1      -1.658  50.654 -14.000  1.00  0.00     0.102 C 
HETATM    3  N2  UNL     1      -1.530  50.990 -12.668  1.00  0.00    -0.349 N 
HETATM    4  C10 UNL     1      -2.275  52.021 -12.028  1.00  0.00     0.041 A 
HETATM    5  C11 UNL     1      -3.496  52.545 -12.422  1.00  0.00     0.030 A 
HETATM    6  C12 UNL     1      -4.054  53.588 -11.675  1.00  0.00     0.002 A 
HETATM    7  C13 UNL     1      -3.392  54.093 -10.548  1.00  0.00     0.001 A 
HETATM    8  C14 UNL     1      -2.167  53.562 -10.145  1.00  0.00     0.010 A 
HETATM    9  C15 UNL     1      -1.619  52.530 -10.893  1.00  0.00    -0.018 A 
HETATM   10  C16 UNL     1      -0.353  51.759 -10.660  1.00  0.00     0.043 C 
HETATM   11  C17 UNL     1      -0.541  50.720  -9.550  1.00  0.00     0.049 C 
HETATM   12  C18 UNL     1       0.882  50.265  -9.274  1.00  0.00     0.274 C 
HETATM   13  N3  UNL     1       1.721  51.435  -9.546  1.00  0.00     0.098 N 
HETATM   14  C19 UNL     1       2.974  51.122 -10.222  1.00  0.00     0.307 C 
HETATM   15  C20 UNL     1       2.912  51.118 -11.749  1.00  0.00    -0.049 C 
HETATM   16  C21 UNL     1       3.714  50.252 -12.411  1.00  0.00     0.004 C 
HETATM   17  C23 UNL     1       2.070  52.231 -12.382  1.00  0.00     0.027 C 
HETATM   18  C24 UNL     1       1.683  53.235 -11.277  1.00  0.00     0.046 C 
HETATM   19  C25 UNL     1       0.910  52.496 -10.180  1.00  0.00     0.239 C 
HETATM   20  C26 UNL     1       0.722  51.825 -13.027  1.00  0.00     0.052 C 
HETATM   21  C27 UNL     1       0.773  51.031 -14.346  1.00  0.00     0.160 C 
HETATM   22  C28 UNL     1      -0.186  51.068 -12.042  1.00  0.00     0.112 C 
ENDROOT
BRANCH   1  23
HETATM   23  C7  UNL     1      -0.743  50.137 -16.239  1.00  0.00    -0.016 A 
HETATM   24  C3  UNL     1      -1.335  48.911 -16.600  1.00  0.00    -0.032 A 
HETATM   25  C4  UNL     1      -1.346  48.562 -17.954  1.00  0.00     0.099 A 
HETATM   26  N1  UNL     1      -0.873  49.391 -18.913  1.00  0.00    -0.354 N 
HETATM   27  C5  UNL     1      -0.367  50.611 -18.583  1.00  0.00     0.062 A 
HETATM   28  C32 UNL     1      -0.815  48.897 -20.334  1.00  0.00     0.133 C 
HETATM   29  C6  UNL     1      -0.278  50.988 -17.250  1.00  0.00     0.044 A 
HETATM   30  C29 UNL     1       0.014  51.471 -19.688  1.00  0.00     0.067 A 
HETATM   31  C30 UNL     1      -0.300  51.212 -21.005  1.00  0.00    -0.015 A 
HETATM   32  N4  UNL     1       0.670  52.674 -19.647  1.00  0.00    -0.353 N 
HETATM   33  C31 UNL     1      -1.077  50.001 -21.364  1.00  0.00     0.062 C 
HETATM   34  C33 UNL     1       0.218  52.264 -21.803  1.00  0.00    -0.001 A 
HETATM   35  C34 UNL     1       0.223  52.546 -23.182  1.00  0.00     0.014 A 
HETATM   36  C38 UNL     1       0.823  53.167 -20.927  1.00  0.00     0.043 A 
HETATM   37  C35 UNL     1       0.838  53.719 -23.636  1.00  0.00     0.001 A 
HETATM   38  C36 UNL     1       1.435  54.603 -22.740  1.00  0.00     0.002 A 
HETATM   39  C37 UNL     1       1.438  54.345 -21.367  1.00  0.00     0.030 A 
HETATM   40  H39 UNL     1       1.000  53.157 -18.820  1.00  0.00     0.166 HD
BRANCH  24  41
HETATM   41  C2  UNL     1      -1.927  47.979 -15.556  1.00  0.00     0.036 C 
HETATM   42  C1  UNL     1      -3.314  47.416 -15.853  1.00  0.00     0.010 C 
ENDBRANCH  24  41
ENDBRANCH   1  23
BRANCH  21  43
HETATM   43  O2  UNL     1       1.394  51.832 -15.355  1.00  0.00    -0.390 OA
HETATM   44  H29 UNL     1       0.912  52.676 -15.390  1.00  0.00     0.210 HD
ENDBRANCH  21  43
BRANCH  16  45
HETATM   45  C22 UNL     1       4.026  50.170 -13.868  1.00  0.00     0.191 C 
BRANCH  45  46
HETATM   46  O1  UNL     1       4.449  48.842 -14.160  1.00  0.00    -0.397 OA
HETATM   47  H22 UNL     1       5.364  48.779 -13.838  1.00  0.00     0.209 HD
ENDBRANCH  45  46
ENDBRANCH  16  45
TORSDOF 6
ENDMDL
MODEL 6
REMARK minimizedAffinity -10.6490374
REMARK CNNscore 0.170565784
REMARK CNNaffinity 7.29689217
REMARK  6 active torsions:
REMARK  status: ('A' for Active; 'I' for Inactive)
REMARK    1  A    between atoms: C2_2  and  C3_3 
REMARK    2  A    between atoms: C7_8  and  C8_9 
REMARK    3  A    between atoms: C21_24  and  C22_25 
REMARK    4  A    between atoms: C22_25  and  O1_26 
REMARK    5  A    between atoms: C23_27  and  C26_30 
REMARK    6  A    between atoms: C27_31  and  O2_32 
ROOT
HETATM    1  C8  UNL     1      -1.777  49.651 -21.455  1.00  0.00    -0.003 C 
HETATM    2  C9  UNL     1      -0.539  50.181 -21.499  1.00  0.00     0.102 C 
HETATM    3  N2  UNL     1      -0.069  50.890 -22.585  1.00  0.00    -0.349 N 
HETATM    4  C10 UNL     1       0.468  52.206 -22.510  1.00  0.00     0.041 A 
HETATM    5  C11 UNL     1       1.022  52.827 -21.401  1.00  0.00     0.030 A 
HETATM    6  C12 UNL     1       1.465  54.148 -21.518  1.00  0.00     0.002 A 
HETATM    7  C13 UNL     1       1.354  54.833 -22.736  1.00  0.00     0.001 A 
HETATM    8  C14 UNL     1       0.804  54.207 -23.856  1.00  0.00     0.010 A 
HETATM    9  C15 UNL     1       0.365  52.898 -23.730  1.00  0.00    -0.018 A 
HETATM   10  C16 UNL     1      -0.218  51.989 -24.771  1.00  0.00     0.043 C 
HETATM   11  C17 UNL     1       0.878  51.426 -25.682  1.00  0.00     0.049 C 
HETATM   12  C18 UNL     1       0.082  50.789 -26.808  1.00  0.00     0.274 C 
HETATM   13  N3  UNL     1      -1.132  51.600 -26.930  1.00  0.00     0.098 N 
HETATM   14  C19 UNL     1      -2.340  50.825 -27.181  1.00  0.00     0.307 C 
HETATM   15  C20 UNL     1      -3.083  50.346 -25.934  1.00  0.00    -0.049 C 
HETATM   16  C21 UNL     1      -3.735  49.163 -26.004  1.00  0.00     0.004 C 
HETATM   17  C23 UNL     1      -3.160  51.351 -24.780  1.00  0.00     0.027 C 
HETATM   18  C24 UNL     1      -2.650  52.715 -25.289  1.00  0.00     0.046 C 
HETATM   19  C25 UNL     1      -1.215  52.550 -25.801  1.00  0.00     0.239 C 
HETATM   20  C26 UNL     1      -2.302  51.060 -23.524  1.00  0.00     0.052 C 
HETATM   21  C27 UNL     1      -2.739  49.895 -22.616  1.00  0.00     0.160 C 
HETATM   22  C28 UNL     1      -0.815  50.873 -23.870  1.00  0.00     0.112 C 
ENDROOT
BRANCH   1  23
HETATM   23  C7  UNL     1      -2.222  48.790 -20.338  1.00  0.00    -0.016 A 
HETATM   24  C3  UNL     1      -1.888  49.010 -18.987  1.00  0.00    -0.032 A 
HETATM   25  C4  UNL     1      -2.338  48.082 -18.041  1.00  0.00     0.099 A 
HETATM   26  N1  UNL     1      -3.130  47.039 -18.380  1.00  0.00    -0.354 N 
HETATM   27  C5  UNL     1      -3.521  46.860 -19.671  1.00  0.00     0.062 A 
HETATM   28  C32 UNL     1      -3.479  46.023 -17.326  1.00  0.00     0.133 C 
HETATM   29  C6  UNL     1      -3.059  47.715 -20.662  1.00  0.00     0.044 A 
HETATM   30  C29 UNL     1      -4.457  45.778 -19.916  1.00  0.00     0.067 A 
HETATM   31  C30 UNL     1      -5.112  45.089 -18.918  1.00  0.00    -0.015 A 
HETATM   32  N4  UNL     1      -4.902  45.289 -21.117  1.00  0.00    -0.353 N 
HETATM   33  C31 UNL     1      -4.886  45.441 -17.495  1.00  0.00     0.062 C 
HETATM   34  C33 UNL     1      -5.951  44.117 -19.520  1.00  0.00    -0.001 A 
HETATM   35  C34 UNL     1      -6.834  43.135 -19.033  1.00  0.00     0.014 A 
HETATM   36  C38 UNL     1      -5.799  44.263 -20.901  1.00  0.00     0.043 A 
HETATM   37  C35 UNL     1      -7.528  42.330 -19.943  1.00  0.00     0.001 A 
HETATM   38  C36 UNL     1      -7.359  42.496 -21.315  1.00  0.00     0.002 A 
HETATM   39  C37 UNL     1      -6.491  43.468 -21.822  1.00  0.00     0.030 A 
HETATM   40  H39 UNL     1      -4.637  45.614 -22.039  1.00  0.00     0.166 HD
BRANCH  24  41
HETATM   41  C2  UNL     1      -1.046  50.201 -18.562  1.00  0.00     0.036 C 
HETATM   42  C1  UNL     1      -0.114  49.987 -17.373  1.00  0.00     0.010 C 
ENDBRANCH  24  41
ENDBRANCH   1  23
BRANCH  21  43
HETATM   43  O2  UNL     1      -4.033  50.176 -22.076  1.00  0.00    -0.390 OA
HETATM   44  H29 UNL     1      -3.981  51.048 -21.647  1.00  0.00     0.210 HD
ENDBRANCH  21  43
BRANCH  16  45
HETATM   45  C22 UNL     1      -4.702  48.553 -25.045  1.00  0.00     0.191 C 
BRANCH  45  46
HETATM   46  O1  UNL     1      -5.993  48.559 -25.647  1.00  0.00    -0.397 OA
HETATM   47  H22 UNL     1      -6.314  49.475 -25.575  1.00  0.00     0.209 HD
ENDBRANCH  45  46
ENDBRANCH  16  45
TORSDOF 6
ENDMDL
MODEL 7
REMARK minimizedAffinity -10.9713039
REMARK CNNscore 0.170342565
REMARK CNNaffinity 6.45425558
REMARK  6 active torsions:
REMARK  status: ('A' for Active; 'I' for Inactive)
REMARK    1  A    between atoms: C2_2  and  C3_3 
REMARK    2  A    between atoms: C7_8  and  C8_9 
REMARK    3  A    between atoms: C21_24  and  C22_25 
REMARK    4  A    between atoms: C22_25  and  O1_26 
REMARK    5  A    between atoms: C23_27  and  C26_30 
REMARK    6  A    between atoms: C27_31  and  O2_32 
ROOT
HETATM    1  C8  UNL     1      -0.630  51.038 -18.590  1.00  0.00    -0.003 C 
HETATM    2  C9  UNL     1       0.075  51.980 -17.933  1.00  0.00     0.102 C 
HETATM    3  N2  UNL     1       0.499  51.823 -16.630  1.00  0.00    -0.349 N 
HETATM    4  C10 UNL     1       1.852  51.958 -16.206  1.00  0.00     0.041 A 
HETATM    5  C11 UNL     1       2.864  52.664 -16.838  1.00  0.00     0.030 A 
HETATM    6  C12 UNL     1       4.146  52.647 -16.280  1.00  0.00     0.002 A 
HETATM    7  C13 UNL     1       4.405  51.931 -15.103  1.00  0.00     0.001 A 
HETATM    8  C14 UNL     1       3.385  51.225 -14.462  1.00  0.00     0.010 A 
HETATM    9  C15 UNL     1       2.117  51.245 -15.023  1.00  0.00    -0.018 A 
HETATM   10  C16 UNL     1       0.849  50.617 -14.524  1.00  0.00     0.043 C 
HETATM   11  C17 UNL     1       0.246  51.439 -13.379  1.00  0.00     0.049 C 
HETATM   12  C18 UNL     1      -0.831  50.514 -12.837  1.00  0.00     0.274 C 
HETATM   13  N3  UNL     1      -0.324  49.159 -13.061  1.00  0.00     0.098 N 
HETATM   14  C19 UNL     1      -1.342  48.209 -13.493  1.00  0.00     0.307 C 
HETATM   15  C20 UNL     1      -1.551  48.115 -15.004  1.00  0.00    -0.049 C 
HETATM   16  C21 UNL     1      -2.798  47.841 -15.453  1.00  0.00     0.004 C 
HETATM   17  C23 UNL     1      -0.278  48.165 -15.855  1.00  0.00     0.027 C 
HETATM   18  C24 UNL     1       0.939  48.059 -14.914  1.00  0.00     0.046 C 
HETATM   19  C25 UNL     1       0.889  49.210 -13.904  1.00  0.00     0.239 C 
HETATM   20  C26 UNL     1      -0.022  49.451 -16.679  1.00  0.00     0.052 C 
HETATM   21  C27 UNL     1      -0.921  49.705 -17.903  1.00  0.00     0.160 C 
HETATM   22  C28 UNL     1      -0.034  50.713 -15.798  1.00  0.00     0.112 C 
ENDROOT
BRANCH   1  23
HETATM   23  C7  UNL     1      -1.182  51.272 -19.941  1.00  0.00    -0.016 A 
HETATM   24  C3  UNL     1      -0.497  51.945 -20.972  1.00  0.00    -0.032 A 
HETATM   25  C4  UNL     1      -1.164  52.139 -22.186  1.00  0.00     0.099 A 
HETATM   26  N1  UNL     1      -2.403  51.642 -22.411  1.00  0.00    -0.354 N 
HETATM   27  C5  UNL     1      -3.045  50.926 -21.448  1.00  0.00     0.062 A 
HETATM   28  C32 UNL     1      -3.099  51.990 -23.699  1.00  0.00     0.133 C 
HETATM   29  C6  UNL     1      -2.456  50.751 -20.204  1.00  0.00     0.044 A 
HETATM   30  C29 UNL     1      -4.321  50.344 -21.821  1.00  0.00     0.067 A 
HETATM   31  C30 UNL     1      -4.794  50.299 -23.116  1.00  0.00    -0.015 A 
HETATM   32  N4  UNL     1      -5.235  49.705 -21.024  1.00  0.00    -0.353 N 
HETATM   33  C31 UNL     1      -3.986  50.857 -24.226  1.00  0.00     0.062 C 
HETATM   34  C33 UNL     1      -6.056  49.653 -23.108  1.00  0.00    -0.001 A 
HETATM   35  C34 UNL     1      -7.005  49.327 -24.096  1.00  0.00     0.014 A 
HETATM   36  C38 UNL     1      -6.310  49.291 -21.784  1.00  0.00     0.043 A 
HETATM   37  C35 UNL     1      -8.176  48.657 -23.723  1.00  0.00     0.001 A 
HETATM   38  C36 UNL     1      -8.404  48.308 -22.394  1.00  0.00     0.002 A 
HETATM   39  C37 UNL     1      -7.474  48.617 -21.397  1.00  0.00     0.030 A 
HETATM   40  H39 UNL     1      -5.158  49.539 -20.028  1.00  0.00     0.166 HD
BRANCH  24  41
HETATM   41  C2  UNL     1       0.916  52.468 -20.774  1.00  0.00     0.036 C 
HETATM   42  C1  UNL     1       1.113  53.974 -20.923  1.00  0.00     0.010 C 
ENDBRANCH  24  41
ENDBRANCH   1  23
BRANCH  21  43
HETATM   43  O2  UNL     1      -0.727  48.657 -18.857  1.00  0.00    -0.390 OA
HETATM   44  H29 UNL     1       0.227  48.607 -19.038  1.00  0.00     0.210 HD
ENDBRANCH  21  43
BRANCH  16  45
HETATM   45  C22 UNL     1      -3.256  47.482 -16.827  1.00  0.00     0.191 C 
BRANCH  45  46
HETATM   46  O1  UNL     1      -4.167  46.392 -16.724  1.00  0.00    -0.397 OA
HETATM   47  H22 UNL     1      -3.619  45.603 -16.571  1.00  0.00     0.209 HD
ENDBRANCH  45  46
ENDBRANCH  16  45
TORSDOF 6
ENDMDL
MODEL 8
REMARK minimizedAffinity -9.31091309
REMARK CNNscore 0.15986383
REMARK CNNaffinity 6.5514183
REMARK  6 active torsions:
REMARK  status: ('A' for Active; 'I' for Inactive)
REMARK    1  A    between atoms: C2_2  and  C3_3 
REMARK    2  A    between atoms: C7_8  and  C8_9 
REMARK    3  A    between atoms: C21_24  and  C22_25 
REMARK    4  A    between atoms: C22_25  and  O1_26 
REMARK    5  A    between atoms: C23_27  and  C26_30 
REMARK    6  A    between atoms: C27_31  and  O2_32 
ROOT
HETATM    1  C8  UNL     1      -8.771  45.541 -28.575  1.00  0.00    -0.003 C 
HETATM    2  C9  UNL     1      -9.918  44.855 -28.748  1.00  0.00     0.102 C 
HETATM    3  N2  UNL     1     -10.362  44.443 -29.988  1.00  0.00    -0.349 N 
HETATM    4  C10 UNL     1     -10.692  43.097 -30.313  1.00  0.00     0.041 A 
HETATM    5  C11 UNL     1     -11.060  42.086 -29.439  1.00  0.00     0.030 A 
HETATM    6  C12 UNL     1     -11.312  40.810 -29.952  1.00  0.00     0.002 A 
HETATM    7  C13 UNL     1     -11.197  40.556 -31.326  1.00  0.00     0.001 A 
HETATM    8  C14 UNL     1     -10.833  41.574 -32.209  1.00  0.00     0.010 A 
HETATM    9  C15 UNL     1     -10.582  42.837 -31.691  1.00  0.00    -0.018 A 
HETATM   10  C16 UNL     1     -10.222  44.102 -32.411  1.00  0.00     0.043 C 
HETATM   11  C17 UNL     1     -11.457  44.728 -33.069  1.00  0.00     0.049 C 
HETATM   12  C18 UNL     1     -10.853  45.800 -33.961  1.00  0.00     0.274 C 
HETATM   13  N3  UNL     1      -9.546  45.275 -34.365  1.00  0.00     0.098 N 
HETATM   14  C19 UNL     1      -8.488  46.276 -34.394  1.00  0.00     0.307 C 
HETATM   15  C20 UNL     1      -7.729  46.468 -33.081  1.00  0.00    -0.049 C 
HETATM   16  C21 UNL     1      -7.266  47.706 -32.795  1.00  0.00     0.004 C 
HETATM   17  C23 UNL     1      -7.416  45.186 -32.303  1.00  0.00     0.027 C 
HETATM   18  C24 UNL     1      -7.758  43.977 -33.199  1.00  0.00     0.046 C 
HETATM   19  C25 UNL     1      -9.237  44.053 -33.593  1.00  0.00     0.239 C 
HETATM   20  C26 UNL     1      -8.207  44.935 -30.995  1.00  0.00     0.052 C 
HETATM   21  C27 UNL     1      -7.877  45.824 -29.781  1.00  0.00     0.160 C 
HETATM   22  C28 UNL     1      -9.728  44.973 -31.223  1.00  0.00     0.112 C 
ENDROOT
BRANCH   1  23
HETATM   23  C7  UNL     1      -8.372  46.081 -27.257  1.00  0.00    -0.016 A 
HETATM   24  C3  UNL     1      -9.054  45.815 -26.053  1.00  0.00    -0.032 A 
HETATM   25  C4  UNL     1      -8.593  46.437 -24.888  1.00  0.00     0.099 A 
HETATM   26  N1  UNL     1      -7.487  47.217 -24.880  1.00  0.00    -0.354 N 
HETATM   27  C5  UNL     1      -6.777  47.420 -26.024  1.00  0.00     0.062 A 
HETATM   28  C32 UNL     1      -7.120  47.941 -23.613  1.00  0.00     0.133 C 
HETATM   29  C6  UNL     1      -7.219  46.876 -27.222  1.00  0.00     0.044 A 
HETATM   30  C29 UNL     1      -5.548  48.180 -25.893  1.00  0.00     0.067 A 
HETATM   31  C30 UNL     1      -4.974  48.508 -24.683  1.00  0.00    -0.015 A 
HETATM   32  N4  UNL     1      -4.723  48.648 -26.883  1.00  0.00    -0.353 N 
HETATM   33  C31 UNL     1      -5.607  48.075 -23.414  1.00  0.00     0.062 C 
HETATM   34  C33 UNL     1      -3.784  49.237 -24.935  1.00  0.00    -0.001 A 
HETATM   35  C34 UNL     1      -2.799  49.832 -24.123  1.00  0.00     0.014 A 
HETATM   36  C38 UNL     1      -3.651  49.313 -26.323  1.00  0.00     0.043 A 
HETATM   37  C35 UNL     1      -1.720  50.486 -24.729  1.00  0.00     0.001 A 
HETATM   38  C36 UNL     1      -1.611  50.546 -26.117  1.00  0.00     0.002 A 
HETATM   39  C37 UNL     1      -2.575  49.959 -26.942  1.00  0.00     0.030 A 
HETATM   40  H39 UNL     1      -4.850  48.535 -27.881  1.00  0.00     0.166 HD
BRANCH  24  41
HETATM   41  C2  UNL     1     -10.266  44.901 -26.014  1.00  0.00     0.036 C 
HETATM   42  C1  UNL     1     -11.571  45.520 -25.520  1.00  0.00     0.010 C 
ENDBRANCH  24  41
ENDBRANCH   1  23
BRANCH  21  43
HETATM   43  O2  UNL     1      -6.518  45.607 -29.392  1.00  0.00    -0.390 OA
HETATM   44  H29 UNL     1      -6.408  44.650 -29.256  1.00  0.00     0.210 HD
ENDBRANCH  21  43
BRANCH  16  45
HETATM   45  C22 UNL     1      -6.327  48.144 -31.721  1.00  0.00     0.191 C 
BRANCH  45  46
HETATM   46  O1  UNL     1      -7.035  49.000 -30.830  1.00  0.00    -0.397 OA
HETATM   47  H22 UNL     1      -7.105  49.857 -31.286  1.00  0.00     0.209 HD
ENDBRANCH  45  46
ENDBRANCH  16  45
TORSDOF 6
ENDMDL
MODEL 9
REMARK minimizedAffinity -9.20483112
REMARK CNNscore 0.159443006
REMARK CNNaffinity 6.72557783
REMARK  6 active torsions:
REMARK  status: ('A' for Active; 'I' for Inactive)
REMARK    1  A    between atoms: C2_2  and  C3_3 
REMARK    2  A    between atoms: C7_8  and  C8_9 
REMARK    3  A    between atoms: C21_24  and  C22_25 
REMARK    4  A    between atoms: C22_25  and  O1_26 
REMARK    5  A    between atoms: C23_27  and  C26_30 
REMARK    6  A    between atoms: C27_31  and  O2_32 
ROOT
HETATM    1  C8  UNL     1      -0.701  50.416 -15.566  1.00  0.00    -0.003 C 
HETATM    2  C9  UNL     1      -0.749  50.950 -14.331  1.00  0.00     0.102 C 
HETATM    3  N2  UNL     1      -1.341  50.309 -13.262  1.00  0.00    -0.349 N 
HETATM    4  C10 UNL     1      -0.689  50.047 -12.024  1.00  0.00     0.041 A 
HETATM    5  C11 UNL     1       0.402  50.715 -11.491  1.00  0.00     0.030 A 
HETATM    6  C12 UNL     1       0.926  50.282 -10.268  1.00  0.00     0.002 A 
HETATM    7  C13 UNL     1       0.358  49.192  -9.593  1.00  0.00     0.001 A 
HETATM    8  C14 UNL     1      -0.745  48.523 -10.125  1.00  0.00     0.010 A 
HETATM    9  C15 UNL     1      -1.257  48.958 -11.339  1.00  0.00    -0.018 A 
HETATM   10  C16 UNL     1      -2.445  48.453 -12.103  1.00  0.00     0.043 C 
HETATM   11  C17 UNL     1      -3.751  48.964 -11.484  1.00  0.00     0.049 C 
HETATM   12  C18 UNL     1      -4.805  48.134 -12.196  1.00  0.00     0.274 C 
HETATM   13  N3  UNL     1      -4.159  46.850 -12.480  1.00  0.00     0.098 N 
HETATM   14  C19 UNL     1      -4.489  46.296 -13.787  1.00  0.00     0.307 C 
HETATM   15  C20 UNL     1      -3.575  46.730 -14.933  1.00  0.00    -0.049 C 
HETATM   16  C21 UNL     1      -4.121  46.851 -16.164  1.00  0.00     0.004 C 
HETATM   17  C23 UNL     1      -2.082  46.809 -14.597  1.00  0.00     0.027 C 
HETATM   18  C24 UNL     1      -1.863  46.183 -13.205  1.00  0.00     0.046 C 
HETATM   19  C25 UNL     1      -2.714  46.940 -12.179  1.00  0.00     0.239 C 
HETATM   20  C26 UNL     1      -1.449  48.218 -14.493  1.00  0.00     0.052 C 
HETATM   21  C27 UNL     1      -1.259  49.013 -15.799  1.00  0.00     0.160 C 
HETATM   22  C28 UNL     1      -2.193  49.113 -13.486  1.00  0.00     0.112 C 
ENDROOT
BRANCH   1  23
HETATM   23  C7  UNL     1      -0.174  51.168 -16.726  1.00  0.00    -0.016 A 
HETATM   24  C3  UNL     1       1.066  51.836 -16.739  1.00  0.00    -0.032 A 
HETATM   25  C4  UNL     1       1.414  52.551 -17.890  1.00  0.00     0.099 A 
HETATM   26  N1  UNL     1       0.633  52.556 -18.994  1.00  0.00    -0.354 N 
HETATM   27  C5  UNL     1      -0.532  51.852 -19.019  1.00  0.00     0.062 A 
HETATM   28  C32 UNL     1       1.019  53.440 -20.150  1.00  0.00     0.133 C 
HETATM   29  C6  UNL     1      -0.957  51.171 -17.887  1.00  0.00     0.044 A 
HETATM   30  C29 UNL     1      -1.245  51.831 -20.283  1.00  0.00     0.067 A 
HETATM   31  C30 UNL     1      -0.715  52.289 -21.471  1.00  0.00    -0.015 A 
HETATM   32  N4  UNL     1      -2.492  51.329 -20.553  1.00  0.00    -0.353 N 
HETATM   33  C31 UNL     1       0.663  52.835 -21.512  1.00  0.00     0.062 C 
HETATM   34  C33 UNL     1      -1.680  52.103 -22.493  1.00  0.00    -0.001 A 
HETATM   35  C34 UNL     1      -1.721  52.375 -23.874  1.00  0.00     0.014 A 
HETATM   36  C38 UNL     1      -2.786  51.501 -21.891  1.00  0.00     0.043 A 
HETATM   37  C35 UNL     1      -2.870  52.041 -24.600  1.00  0.00     0.001 A 
HETATM   38  C36 UNL     1      -3.960  51.441 -23.974  1.00  0.00     0.002 A 
HETATM   39  C37 UNL     1      -3.939  51.157 -22.606  1.00  0.00     0.030 A 
HETATM   40  H39 UNL     1      -3.123  50.887 -19.895  1.00  0.00     0.166 HD
BRANCH  24  41
HETATM   41  C2  UNL     1       1.996  51.806 -15.537  1.00  0.00     0.036 C 
HETATM   42  C1  UNL     1       3.458  52.155 -15.798  1.00  0.00     0.010 C 
ENDBRANCH  24  41
ENDBRANCH   1  23
BRANCH  21  43
HETATM   43  O2  UNL     1      -0.355  48.307 -16.654  1.00  0.00    -0.390 OA
HETATM   44  H29 UNL     1       0.454  48.140 -16.140  1.00  0.00     0.210 HD
ENDBRANCH  21  43
BRANCH  16  45
HETATM   45  C22 UNL     1      -3.454  47.041 -17.486  1.00  0.00     0.191 C 
BRANCH  45  46
HETATM   46  O1  UNL     1      -2.430  46.060 -17.614  1.00  0.00    -0.397 OA
HETATM   47  H22 UNL     1      -1.693  46.374 -17.062  1.00  0.00     0.209 HD
ENDBRANCH  45  46
ENDBRANCH  16  45
TORSDOF 6
ENDMDL
