MODEL 1
REMARK minimizedAffinity -9.69326496
REMARK  6 active torsions:
REMARK  status: ('A' for Active; 'I' for Inactive)
REMARK    1  A    between atoms: C2_2  and  C3_3 
REMARK    2  A    between atoms: C2_2  and  C4_5 
REMARK    3  A    between atoms: C3_3  and  O1_4 
REMARK    4  A    between atoms: C4_5  and  C6_7 
REMARK    5  A    between atoms: C7_8  and  C8_9 
REMARK    6  A    between atoms: C8_9  and  C10_11 
ROOT
HETATM    1  C10 UNL     1       0.465   6.039  13.313  1.00  0.00     0.002 C 
HETATM    2  C11 UNL     1      -0.156   7.072  14.289  1.00  0.00     0.007 C 
HETATM    3  C12 UNL     1      -1.649   6.724  14.402  1.00  0.00     0.010 C 
HETATM    4  C13 UNL     1      -1.788   5.395  13.658  1.00  0.00     0.023 C 
HETATM    5  C14 UNL     1      -3.139   4.883  13.225  1.00  0.00    -0.070 C 
HETATM    6  C15 UNL     1      -4.300   5.404  13.652  1.00  0.00     0.004 C 
HETATM    7  C16 UNL     1      -5.560   4.750  13.420  1.00  0.00     0.004 C 
HETATM    8  C17 UNL     1      -5.700   3.726  12.560  1.00  0.00    -0.071 C 
HETATM    9  C18 UNL     1      -7.056   3.102  12.323  1.00  0.00     0.035 C 
HETATM   10  C19 UNL     1      -6.995   1.579  12.286  1.00  0.00     0.004 C 
HETATM   11  C20 UNL     1      -5.948   1.093  11.291  1.00  0.00     0.001 C 
HETATM   12  C21 UNL     1      -4.570   1.652  11.642  1.00  0.00     0.014 C 
HETATM   13  C22 UNL     1      -4.511   3.205  11.738  1.00  0.00    -0.013 C 
HETATM   14  C23 UNL     1      -4.669   3.815  10.322  1.00  0.00     0.021 C 
HETATM   15  C24 UNL     1      -3.111   3.594  12.400  1.00  0.00     0.027 C 
HETATM   16  C25 UNL     1      -1.933   3.547  11.385  1.00  0.00     0.011 C 
HETATM   17  C26 UNL     1      -0.599   4.098  11.914  1.00  0.00     0.011 C 
HETATM   18  C27 UNL     1      -0.761   5.512  12.504  1.00  0.00    -0.032 C 
HETATM   19  C28 UNL     1      -1.221   6.500  11.410  1.00  0.00     0.016 C 
ENDROOT
BRANCH   1  20
HETATM   20  C8  UNL     1       1.771   6.524  12.619  1.00  0.00     0.008 C 
HETATM   21  C9  UNL     1       2.626   7.540  13.386  1.00  0.00     0.014 C 
BRANCH  20  22
HETATM   22  C7  UNL     1       1.512   6.896  11.169  1.00  0.00    -0.026 C 
HETATM   23  C6  UNL     1       2.195   7.776  10.415  1.00  0.00    -0.026 C 
BRANCH  23  24
HETATM   24  C4  UNL     1       1.931   8.141   8.961  1.00  0.00     0.009 C 
HETATM   25  C5  UNL     1       0.434   8.280   8.642  1.00  0.00     0.014 C 
BRANCH  24  26
HETATM   26  C2  UNL     1       2.648   7.147   7.995  1.00  0.00     0.012 C 
HETATM   27  C1  UNL     1       1.885   6.993   6.668  1.00  0.00     0.012 C 
BRANCH  26  28
HETATM   28  C3  UNL     1       2.873   5.757   8.616  1.00  0.00     0.168 C 
BRANCH  28  29
HETATM   29  O1  UNL     1       3.335   4.818   7.655  1.00  0.00    -0.400 OA
HETATM   30  H7  UNL     1       4.237   5.075   7.398  1.00  0.00     0.209 HD
ENDBRANCH  28  29
ENDBRANCH  26  28
ENDBRANCH  24  26
ENDBRANCH  23  24
ENDBRANCH  20  22
ENDBRANCH   1  20
TORSDOF 6
ENDMDL
MODEL 2
REMARK minimizedAffinity -9.2821455
REMARK  6 active torsions:
REMARK  status: ('A' for Active; 'I' for Inactive)
REMARK    1  A    between atoms: C2_2  and  C3_3 
REMARK    2  A    between atoms: C2_2  and  C4_5 
REMARK    3  A    between atoms: C3_3  and  O1_4 
REMARK    4  A    between atoms: C4_5  and  C6_7 
REMARK    5  A    between atoms: C7_8  and  C8_9 
REMARK    6  A    between atoms: C8_9  and  C10_11 
ROOT
HETATM    1  C10 UNL     1      -0.012   6.262  12.252  1.00  0.00     0.002 C 
HETATM    2  C11 UNL     1       0.246   4.815  11.755  1.00  0.00     0.007 C 
HETATM    3  C12 UNL     1      -1.111   4.095  11.783  1.00  0.00     0.010 C 
HETATM    4  C13 UNL     1      -2.123   5.199  12.094  1.00  0.00     0.023 C 
HETATM    5  C14 UNL     1      -3.518   4.867  12.560  1.00  0.00    -0.070 C 
HETATM    6  C15 UNL     1      -4.043   3.633  12.508  1.00  0.00     0.004 C 
HETATM    7  C16 UNL     1      -5.444   3.391  12.727  1.00  0.00     0.004 C 
HETATM    8  C17 UNL     1      -6.270   4.318  13.241  1.00  0.00    -0.071 C 
HETATM    9  C18 UNL     1      -7.726   3.997  13.490  1.00  0.00     0.035 C 
HETATM   10  C19 UNL     1      -8.652   5.122  13.047  1.00  0.00     0.004 C 
HETATM   11  C20 UNL     1      -8.237   6.454  13.661  1.00  0.00     0.001 C 
HETATM   12  C21 UNL     1      -6.797   6.797  13.282  1.00  0.00     0.014 C 
HETATM   13  C22 UNL     1      -5.755   5.704  13.660  1.00  0.00    -0.013 C 
HETATM   14  C23 UNL     1      -5.596   5.654  15.201  1.00  0.00     0.021 C 
HETATM   15  C24 UNL     1      -4.382   6.075  12.933  1.00  0.00     0.027 C 
HETATM   16  C25 UNL     1      -3.587   7.184  13.680  1.00  0.00     0.011 C 
HETATM   17  C26 UNL     1      -2.173   7.445  13.138  1.00  0.00     0.011 C 
HETATM   18  C27 UNL     1      -1.350   6.146  13.046  1.00  0.00    -0.032 C 
HETATM   19  C28 UNL     1      -1.157   5.532  14.451  1.00  0.00     0.016 C 
ENDROOT
BRANCH   1  20
HETATM   20  C8  UNL     1       1.245   6.966  12.841  1.00  0.00     0.008 C 
HETATM   21  C9  UNL     1       0.995   8.113  13.827  1.00  0.00     0.014 C 
BRANCH  20  22
HETATM   22  C7  UNL     1       2.250   7.290  11.749  1.00  0.00    -0.026 C 
HETATM   23  C6  UNL     1       2.259   6.836  10.483  1.00  0.00    -0.026 C 
BRANCH  23  24
HETATM   24  C4  UNL     1       3.269   7.169   9.394  1.00  0.00     0.009 C 
HETATM   25  C5  UNL     1       4.265   8.260   9.816  1.00  0.00     0.014 C 
BRANCH  24  26
HETATM   26  C2  UNL     1       2.552   7.515   8.052  1.00  0.00     0.012 C 
HETATM   27  C1  UNL     1       1.196   8.201   8.291  1.00  0.00     0.012 C 
BRANCH  26  28
HETATM   28  C3  UNL     1       2.349   6.290   7.142  1.00  0.00     0.168 C 
BRANCH  28  29
HETATM   29  O1  UNL     1       3.154   5.192   7.546  1.00  0.00    -0.400 OA
HETATM   30  H7  UNL     1       2.814   4.872   8.398  1.00  0.00     0.209 HD
ENDBRANCH  28  29
ENDBRANCH  26  28
ENDBRANCH  24  26
ENDBRANCH  23  24
ENDBRANCH  20  22
ENDBRANCH   1  20
TORSDOF 6
ENDMDL
MODEL 3
REMARK minimizedAffinity -8.98648453
REMARK  6 active torsions:
REMARK  status: ('A' for Active; 'I' for Inactive)
REMARK    1  A    between atoms: C2_2  and  C3_3 
REMARK    2  A    between atoms: C2_2  and  C4_5 
REMARK    3  A    between atoms: C3_3  and  O1_4 
REMARK    4  A    between atoms: C4_5  and  C6_7 
REMARK    5  A    between atoms: C7_8  and  C8_9 
REMARK    6  A    between atoms: C8_9  and  C10_11 
ROOT
HETATM    1  C10 UNL     1      -5.686   7.068  13.932  1.00  0.00     0.002 C 
HETATM    2  C11 UNL     1      -5.651   8.562  14.349  1.00  0.00     0.007 C 
HETATM    3  C12 UNL     1      -4.234   9.069  14.039  1.00  0.00     0.010 C 
HETATM    4  C13 UNL     1      -3.576   7.921  13.272  1.00  0.00     0.023 C 
HETATM    5  C14 UNL     1      -2.081   7.862  13.091  1.00  0.00    -0.070 C 
HETATM    6  C15 UNL     1      -1.260   8.889  13.361  1.00  0.00     0.004 C 
HETATM    7  C16 UNL     1       0.119   8.891  12.953  1.00  0.00     0.004 C 
HETATM    8  C17 UNL     1       0.747   7.789  12.509  1.00  0.00    -0.071 C 
HETATM    9  C18 UNL     1       2.210   7.837  12.132  1.00  0.00     0.035 C 
HETATM   10  C19 UNL     1       2.499   7.090  10.835  1.00  0.00     0.004 C 
HETATM   11  C20 UNL     1       1.958   5.666  10.886  1.00  0.00     0.001 C 
HETATM   12  C21 UNL     1       0.453   5.670  11.148  1.00  0.00     0.014 C 
HETATM   13  C22 UNL     1       0.027   6.433  12.438  1.00  0.00    -0.013 C 
HETATM   14  C23 UNL     1       0.490   5.636  13.684  1.00  0.00     0.021 C 
HETATM   15  C24 UNL     1      -1.560   6.601  12.395  1.00  0.00     0.027 C 
HETATM   16  C25 UNL     1      -2.313   5.311  12.831  1.00  0.00     0.011 C 
HETATM   17  C26 UNL     1      -3.832   5.472  12.998  1.00  0.00     0.011 C 
HETATM   18  C27 UNL     1      -4.182   6.652  13.924  1.00  0.00    -0.032 C 
HETATM   19  C28 UNL     1      -3.626   6.402  15.343  1.00  0.00     0.016 C 
ENDROOT
BRANCH   1  20
HETATM   20  C8  UNL     1      -6.775   6.229  14.660  1.00  0.00     0.008 C 
HETATM   21  C9  UNL     1      -6.606   6.039  16.173  1.00  0.00     0.014 C 
BRANCH  20  22
HETATM   22  C7  UNL     1      -7.075   4.948  13.901  1.00  0.00    -0.026 C 
HETATM   23  C6  UNL     1      -6.517   4.528  12.751  1.00  0.00    -0.026 C 
BRANCH  23  24
HETATM   24  C4  UNL     1      -6.821   3.240  11.999  1.00  0.00     0.009 C 
HETATM   25  C5  UNL     1      -7.435   2.154  12.896  1.00  0.00     0.014 C 
BRANCH  24  26
HETATM   26  C2  UNL     1      -5.560   2.727  11.235  1.00  0.00     0.012 C 
HETATM   27  C1  UNL     1      -5.592   3.129   9.750  1.00  0.00     0.012 C 
BRANCH  26  28
HETATM   28  C3  UNL     1      -5.364   1.205  11.346  1.00  0.00     0.168 C 
BRANCH  28  29
HETATM   29  O1  UNL     1      -3.991   0.855  11.451  1.00  0.00    -0.400 OA
HETATM   30  H7  UNL     1      -3.671   1.165  12.315  1.00  0.00     0.209 HD
ENDBRANCH  28  29
ENDBRANCH  26  28
ENDBRANCH  24  26
ENDBRANCH  23  24
ENDBRANCH  20  22
ENDBRANCH   1  20
TORSDOF 6
ENDMDL
MODEL 4
REMARK minimizedAffinity -8.95413303
REMARK  6 active torsions:
REMARK  status: ('A' for Active; 'I' for Inactive)
REMARK    1  A    between atoms: C2_2  and  C3_3 
REMARK    2  A    between atoms: C2_2  and  C4_5 
REMARK    3  A    between atoms: C3_3  and  O1_4 
REMARK    4  A    between atoms: C4_5  and  C6_7 
REMARK    5  A    between atoms: C7_8  and  C8_9 
REMARK    6  A    between atoms: C8_9  and  C10_11 
ROOT
HETATM    1  C10 UNL     1      -6.163   6.653  13.883  1.00  0.00     0.002 C 
HETATM    2  C11 UNL     1      -6.191   8.172  14.194  1.00  0.00     0.007 C 
HETATM    3  C12 UNL     1      -4.793   8.714  13.856  1.00  0.00     0.010 C 
HETATM    4  C13 UNL     1      -4.084   7.542  13.175  1.00  0.00     0.023 C 
HETATM    5  C14 UNL     1      -2.586   7.531  13.007  1.00  0.00    -0.070 C 
HETATM    6  C15 UNL     1      -1.809   8.607  13.208  1.00  0.00     0.004 C 
HETATM    7  C16 UNL     1      -0.428   8.636  12.808  1.00  0.00     0.004 C 
HETATM    8  C17 UNL     1       0.247   7.531  12.445  1.00  0.00    -0.071 C 
HETATM    9  C18 UNL     1       1.710   7.612  12.074  1.00  0.00     0.035 C 
HETATM   10  C19 UNL     1       2.039   6.789  10.834  1.00  0.00     0.004 C 
HETATM   11  C20 UNL     1       1.555   5.351  10.982  1.00  0.00     0.001 C 
HETATM   12  C21 UNL     1       0.049   5.313  11.235  1.00  0.00     0.014 C 
HETATM   13  C22 UNL     1      -0.417   6.146  12.466  1.00  0.00    -0.013 C 
HETATM   14  C23 UNL     1       0.067   5.458  13.767  1.00  0.00     0.021 C 
HETATM   15  C24 UNL     1      -2.010   6.246  12.403  1.00  0.00     0.027 C 
HETATM   16  C25 UNL     1      -2.714   4.961  12.925  1.00  0.00     0.011 C 
HETATM   17  C26 UNL     1      -4.240   5.071  13.072  1.00  0.00     0.011 C 
HETATM   18  C27 UNL     1      -4.643   6.299  13.912  1.00  0.00    -0.032 C 
HETATM   19  C28 UNL     1      -4.089   6.171  15.348  1.00  0.00     0.016 C 
ENDROOT
BRANCH   1  20
HETATM   20  C8  UNL     1      -7.224   5.823  14.662  1.00  0.00     0.008 C 
HETATM   21  C9  UNL     1      -7.496   4.401  14.158  1.00  0.00     0.014 C 
BRANCH  20  22
HETATM   22  C7  UNL     1      -8.476   6.644  14.920  1.00  0.00    -0.026 C 
HETATM   23  C6  UNL     1      -9.610   6.655  14.199  1.00  0.00    -0.026 C 
BRANCH  23  24
HETATM   24  C4  UNL     1     -10.863   7.478  14.467  1.00  0.00     0.009 C 
HETATM   25  C5  UNL     1     -12.159   6.676  14.271  1.00  0.00     0.014 C 
BRANCH  24  26
HETATM   26  C2  UNL     1     -10.855   8.796  13.631  1.00  0.00     0.012 C 
HETATM   27  C1  UNL     1     -10.736  10.040  14.529  1.00  0.00     0.012 C 
BRANCH  26  28
HETATM   28  C3  UNL     1     -12.089   8.942  12.722  1.00  0.00     0.168 C 
BRANCH  28  29
HETATM   29  O1  UNL     1     -11.772   9.594  11.501  1.00  0.00    -0.400 OA
HETATM   30  H7  UNL     1     -11.207   8.996  10.983  1.00  0.00     0.209 HD
ENDBRANCH  28  29
ENDBRANCH  26  28
ENDBRANCH  24  26
ENDBRANCH  23  24
ENDBRANCH  20  22
ENDBRANCH   1  20
TORSDOF 6
ENDMDL
MODEL 5
REMARK minimizedAffinity -8.91371346
REMARK  6 active torsions:
REMARK  status: ('A' for Active; 'I' for Inactive)
REMARK    1  A    between atoms: C2_2  and  C3_3 
REMARK    2  A    between atoms: C2_2  and  C4_5 
REMARK    3  A    between atoms: C3_3  and  O1_4 
REMARK    4  A    between atoms: C4_5  and  C6_7 
REMARK    5  A    between atoms: C7_8  and  C8_9 
REMARK    6  A    between atoms: C8_9  and  C10_11 
ROOT
HETATM    1  C10 UNL     1      -1.669   5.646  12.393  1.00  0.00     0.002 C 
HETATM    2  C11 UNL     1      -2.100   4.307  11.740  1.00  0.00     0.007 C 
HETATM    3  C12 UNL     1      -3.611   4.167  11.984  1.00  0.00     0.010 C 
HETATM    4  C13 UNL     1      -4.027   5.513  12.582  1.00  0.00     0.023 C 
HETATM    5  C14 UNL     1      -5.346   5.674  13.294  1.00  0.00    -0.070 C 
HETATM    6  C15 UNL     1      -6.328   4.760  13.250  1.00  0.00     0.004 C 
HETATM    7  C16 UNL     1      -7.655   5.042  13.729  1.00  0.00     0.004 C 
HETATM    8  C17 UNL     1      -7.944   6.124  14.473  1.00  0.00    -0.071 C 
HETATM    9  C18 UNL     1      -9.347   6.351  14.985  1.00  0.00     0.035 C 
HETATM   10  C19 UNL     1      -9.793   7.800  14.831  1.00  0.00     0.004 C 
HETATM   11  C20 UNL     1      -8.785   8.758  15.453  1.00  0.00     0.001 C 
HETATM   12  C21 UNL     1      -7.407   8.577  14.819  1.00  0.00     0.014 C 
HETATM   13  C22 UNL     1      -6.853   7.123  14.888  1.00  0.00    -0.013 C 
HETATM   14  C23 UNL     1      -6.493   6.778  16.356  1.00  0.00     0.021 C 
HETATM   15  C24 UNL     1      -5.578   7.047  13.930  1.00  0.00     0.027 C 
HETATM   16  C25 UNL     1      -4.296   7.636  14.587  1.00  0.00     0.011 C 
HETATM   17  C26 UNL     1      -3.000   7.415  13.792  1.00  0.00     0.011 C 
HETATM   18  C27 UNL     1      -2.799   5.931  13.431  1.00  0.00    -0.032 C 
HETATM   19  C28 UNL     1      -2.659   5.081  14.713  1.00  0.00     0.016 C 
ENDROOT
BRANCH   1  20
HETATM   20  C8  UNL     1      -0.161   5.714  12.770  1.00  0.00     0.008 C 
HETATM   21  C9  UNL     1       0.275   6.876  13.671  1.00  0.00     0.014 C 
BRANCH  20  22
HETATM   22  C7  UNL     1       0.716   5.511  11.546  1.00  0.00    -0.026 C 
HETATM   23  C6  UNL     1       1.007   6.410  10.590  1.00  0.00    -0.026 C 
BRANCH  23  24
HETATM   24  C4  UNL     1       1.891   6.199   9.368  1.00  0.00     0.009 C 
HETATM   25  C5  UNL     1       3.320   5.766   9.731  1.00  0.00     0.014 C 
BRANCH  24  26
HETATM   26  C2  UNL     1       1.875   7.456   8.442  1.00  0.00     0.012 C 
HETATM   27  C1  UNL     1       1.887   7.066   6.953  1.00  0.00     0.012 C 
BRANCH  26  28
HETATM   28  C3  UNL     1       3.035   8.428   8.722  1.00  0.00     0.168 C 
BRANCH  28  29
HETATM   29  O1  UNL     1       3.383   9.181   7.569  1.00  0.00    -0.400 OA
HETATM   30  H7  UNL     1       2.649   9.789   7.379  1.00  0.00     0.209 HD
ENDBRANCH  28  29
ENDBRANCH  26  28
ENDBRANCH  24  26
ENDBRANCH  23  24
ENDBRANCH  20  22
ENDBRANCH   1  20
TORSDOF 6
ENDMDL
MODEL 6
REMARK minimizedAffinity -8.89368248
REMARK  6 active torsions:
REMARK  status: ('A' for Active; 'I' for Inactive)
REMARK    1  A    between atoms: C2_2  and  C3_3 
REMARK    2  A    between atoms: C2_2  and  C4_5 
REMARK    3  A    between atoms: C3_3  and  O1_4 
REMARK    4  A    between atoms: C4_5  and  C6_7 
REMARK    5  A    between atoms: C7_8  and  C8_9 
REMARK    6  A    between atoms: C8_9  and  C10_11 
ROOT
HETATM    1  C10 UNL     1      -0.145   6.843  12.392  1.00  0.00     0.002 C 
HETATM    2  C11 UNL     1       0.332   5.420  11.999  1.00  0.00     0.007 C 
HETATM    3  C12 UNL     1      -0.916   4.524  12.005  1.00  0.00     0.010 C 
HETATM    4  C13 UNL     1      -2.083   5.494  12.195  1.00  0.00     0.023 C 
HETATM    5  C14 UNL     1      -3.445   5.001  12.612  1.00  0.00    -0.070 C 
HETATM    6  C15 UNL     1      -3.797   3.706  12.610  1.00  0.00     0.004 C 
HETATM    7  C16 UNL     1      -5.163   3.286  12.775  1.00  0.00     0.004 C 
HETATM    8  C17 UNL     1      -6.134   4.118  13.188  1.00  0.00    -0.071 C 
HETATM    9  C18 UNL     1      -7.546   3.615  13.384  1.00  0.00     0.035 C 
HETATM   10  C19 UNL     1      -8.587   4.577  12.825  1.00  0.00     0.004 C 
HETATM   11  C20 UNL     1      -8.390   5.985  13.375  1.00  0.00     0.001 C 
HETATM   12  C21 UNL     1      -6.989   6.501  13.047  1.00  0.00     0.014 C 
HETATM   13  C22 UNL     1      -5.834   5.583  13.544  1.00  0.00    -0.013 C 
HETATM   14  C23 UNL     1      -5.759   5.640  15.091  1.00  0.00     0.021 C 
HETATM   15  C24 UNL     1      -4.484   6.098  12.865  1.00  0.00     0.027 C 
HETATM   16  C25 UNL     1      -3.888   7.345  13.580  1.00  0.00     0.011 C 
HETATM   17  C26 UNL     1      -2.493   7.766  13.094  1.00  0.00     0.011 C 
HETATM   18  C27 UNL     1      -1.499   6.589  13.124  1.00  0.00    -0.032 C 
HETATM   19  C28 UNL     1      -1.308   6.086  14.572  1.00  0.00     0.016 C 
ENDROOT
BRANCH   1  20
HETATM   20  C8  UNL     1       0.970   7.744  12.997  1.00  0.00     0.008 C 
HETATM   21  C9  UNL     1       0.526   9.083  13.599  1.00  0.00     0.014 C 
BRANCH  20  22
HETATM   22  C7  UNL     1       2.159   7.846  12.058  1.00  0.00    -0.026 C 
HETATM   23  C6  UNL     1       2.149   7.774  10.715  1.00  0.00    -0.026 C 
BRANCH  23  24
HETATM   24  C4  UNL     1       3.346   7.881   9.780  1.00  0.00     0.009 C 
HETATM   25  C5  UNL     1       2.965   8.370   8.374  1.00  0.00     0.014 C 
BRANCH  24  26
HETATM   26  C2  UNL     1       4.146   6.542   9.739  1.00  0.00     0.012 C 
HETATM   27  C1  UNL     1       3.212   5.319   9.755  1.00  0.00     0.012 C 
BRANCH  26  28
HETATM   28  C3  UNL     1       5.170   6.414  10.882  1.00  0.00     0.168 C 
BRANCH  28  29
HETATM   29  O1  UNL     1       5.949   5.232  10.763  1.00  0.00    -0.400 OA
HETATM   30  H7  UNL     1       6.523   5.331   9.985  1.00  0.00     0.209 HD
ENDBRANCH  28  29
ENDBRANCH  26  28
ENDBRANCH  24  26
ENDBRANCH  23  24
ENDBRANCH  20  22
ENDBRANCH   1  20
TORSDOF 6
ENDMDL
MODEL 7
REMARK minimizedAffinity -8.75357056
REMARK  6 active torsions:
REMARK  status: ('A' for Active; 'I' for Inactive)
REMARK    1  A    between atoms: C2_2  and  C3_3 
REMARK    2  A    between atoms: C2_2  and  C4_5 
REMARK    3  A    between atoms: C3_3  and  O1_4 
REMARK    4  A    between atoms: C4_5  and  C6_7 
REMARK    5  A    between atoms: C7_8  and  C8_9 
REMARK    6  A    between atoms: C8_9  and  C10_11 
ROOT
HETATM    1  C10 UNL     1      -2.016   5.651  13.376  1.00  0.00     0.002 C 
HETATM    2  C11 UNL     1      -2.165   4.887  12.034  1.00  0.00     0.007 C 
HETATM    3  C12 UNL     1      -0.806   4.986  11.323  1.00  0.00     0.010 C 
HETATM    4  C13 UNL     1       0.124   5.617  12.360  1.00  0.00     0.023 C 
HETATM    5  C14 UNL     1       1.448   6.214  11.957  1.00  0.00    -0.070 C 
HETATM    6  C15 UNL     1       2.007   6.030  10.751  1.00  0.00     0.004 C 
HETATM    7  C16 UNL     1       3.370   6.402  10.477  1.00  0.00     0.004 C 
HETATM    8  C17 UNL     1       4.092   7.176  11.306  1.00  0.00    -0.071 C 
HETATM    9  C18 UNL     1       5.507   7.571  10.950  1.00  0.00     0.035 C 
HETATM   10  C19 UNL     1       6.457   7.458  12.137  1.00  0.00     0.004 C 
HETATM   11  C20 UNL     1       5.925   8.222  13.343  1.00  0.00     0.001 C 
HETATM   12  C21 UNL     1       4.544   7.706  13.743  1.00  0.00     0.014 C 
HETATM   13  C22 UNL     1       3.488   7.744  12.599  1.00  0.00    -0.013 C 
HETATM   14  C23 UNL     1       3.117   9.216  12.288  1.00  0.00     0.021 C 
HETATM   15  C24 UNL     1       2.221   6.903  13.086  1.00  0.00     0.027 C 
HETATM   16  C25 UNL     1       1.301   7.705  14.050  1.00  0.00     0.011 C 
HETATM   17  C26 UNL     1      -0.031   7.021  14.396  1.00  0.00     0.011 C 
HETATM   18  C27 UNL     1      -0.799   6.596  13.130  1.00  0.00    -0.032 C 
HETATM   19  C28 UNL     1      -1.169   7.836  12.287  1.00  0.00     0.016 C 
ENDROOT
BRANCH   1  20
HETATM   20  C8  UNL     1      -3.360   6.166  13.968  1.00  0.00     0.008 C 
HETATM   21  C9  UNL     1      -3.531   6.065  15.488  1.00  0.00     0.014 C 
BRANCH  20  22
HETATM   22  C7  UNL     1      -4.543   5.642  13.171  1.00  0.00    -0.026 C 
HETATM   23  C6  UNL     1      -5.029   4.388  13.158  1.00  0.00    -0.026 C 
BRANCH  23  24
HETATM   24  C4  UNL     1      -6.217   3.871  12.359  1.00  0.00     0.009 C 
HETATM   25  C5  UNL     1      -7.294   3.221  13.242  1.00  0.00     0.014 C 
BRANCH  24  26
HETATM   26  C2  UNL     1      -5.751   2.925  11.210  1.00  0.00     0.012 C 
HETATM   27  C1  UNL     1      -6.060   1.451  11.525  1.00  0.00     0.012 C 
BRANCH  26  28
HETATM   28  C3  UNL     1      -4.255   3.070  10.876  1.00  0.00     0.168 C 
BRANCH  28  29
HETATM   29  O1  UNL     1      -4.051   3.476   9.530  1.00  0.00    -0.400 OA
HETATM   30  H7  UNL     1      -4.369   4.390   9.444  1.00  0.00     0.209 HD
ENDBRANCH  28  29
ENDBRANCH  26  28
ENDBRANCH  24  26
ENDBRANCH  23  24
ENDBRANCH  20  22
ENDBRANCH   1  20
TORSDOF 6
ENDMDL
MODEL 8
REMARK minimizedAffinity -8.60215759
REMARK  6 active torsions:
REMARK  status: ('A' for Active; 'I' for Inactive)
REMARK    1  A    between atoms: C2_2  and  C3_3 
REMARK    2  A    between atoms: C2_2  and  C4_5 
REMARK    3  A    between atoms: C3_3  and  O1_4 
REMARK    4  A    between atoms: C4_5  and  C6_7 
REMARK    5  A    between atoms: C7_8  and  C8_9 
REMARK    6  A    between atoms: C8_9  and  C10_11 
ROOT
HETATM    1  C10 UNL     1      -1.656   6.185  13.361  1.00  0.00     0.002 C 
HETATM    2  C11 UNL     1      -1.845   5.237  12.147  1.00  0.00     0.007 C 
HETATM    3  C12 UNL     1      -0.473   5.122  11.464  1.00  0.00     0.010 C 
HETATM    4  C13 UNL     1       0.489   5.833  12.417  1.00  0.00     0.023 C 
HETATM    5  C14 UNL     1       1.862   6.259  11.962  1.00  0.00    -0.070 C 
HETATM    6  C15 UNL     1       2.421   5.851  10.813  1.00  0.00     0.004 C 
HETATM    7  C16 UNL     1       3.813   6.072  10.521  1.00  0.00     0.004 C 
HETATM    8  C17 UNL     1       4.582   6.907  11.241  1.00  0.00    -0.071 C 
HETATM    9  C18 UNL     1       6.028   7.135  10.866  1.00  0.00     0.035 C 
HETATM   10  C19 UNL     1       6.949   7.134  12.080  1.00  0.00     0.004 C 
HETATM   11  C20 UNL     1       6.463   8.112  13.142  1.00  0.00     0.001 C 
HETATM   12  C21 UNL     1       5.040   7.770  13.580  1.00  0.00     0.014 C 
HETATM   13  C22 UNL     1       4.006   7.711  12.416  1.00  0.00    -0.013 C 
HETATM   14  C23 UNL     1       3.757   9.142  11.876  1.00  0.00     0.021 C 
HETATM   15  C24 UNL     1       2.670   7.053  12.993  1.00  0.00     0.027 C 
HETATM   16  C25 UNL     1       1.802   8.061  13.800  1.00  0.00     0.011 C 
HETATM   17  C26 UNL     1       0.417   7.540  14.211  1.00  0.00     0.011 C 
HETATM   18  C27 UNL     1      -0.365   6.986  13.005  1.00  0.00    -0.032 C 
HETATM   19  C28 UNL     1      -0.624   8.106  11.973  1.00  0.00     0.016 C 
ENDROOT
BRANCH   1  20
HETATM   20  C8  UNL     1      -2.963   6.885  13.831  1.00  0.00     0.008 C 
HETATM   21  C9  UNL     1      -3.155   7.045  15.345  1.00  0.00     0.014 C 
BRANCH  20  22
HETATM   22  C7  UNL     1      -4.174   6.324  13.106  1.00  0.00    -0.026 C 
HETATM   23  C6  UNL     1      -5.166   5.578  13.624  1.00  0.00    -0.026 C 
BRANCH  23  24
HETATM   24  C4  UNL     1      -6.378   5.022  12.889  1.00  0.00     0.009 C 
HETATM   25  C5  UNL     1      -7.703   5.630  13.377  1.00  0.00     0.014 C 
BRANCH  24  26
HETATM   26  C2  UNL     1      -6.395   3.462  12.937  1.00  0.00     0.012 C 
HETATM   27  C1  UNL     1      -5.817   2.847  11.650  1.00  0.00     0.012 C 
BRANCH  26  28
HETATM   28  C3  UNL     1      -7.797   2.881  13.192  1.00  0.00     0.168 C 
BRANCH  28  29
HETATM   29  O1  UNL     1      -7.978   1.632  12.539  1.00  0.00    -0.400 OA
HETATM   30  H7  UNL     1      -7.404   0.982  12.978  1.00  0.00     0.209 HD
ENDBRANCH  28  29
ENDBRANCH  26  28
ENDBRANCH  24  26
ENDBRANCH  23  24
ENDBRANCH  20  22
ENDBRANCH   1  20
TORSDOF 6
ENDMDL
MODEL 9
REMARK minimizedAffinity -8.55384445
REMARK  6 active torsions:
REMARK  status: ('A' for Active; 'I' for Inactive)
REMARK    1  A    between atoms: C2_2  and  C3_3 
REMARK    2  A    between atoms: C2_2  and  C4_5 
REMARK    3  A    between atoms: C3_3  and  O1_4 
REMARK    4  A    between atoms: C4_5  and  C6_7 
REMARK    5  A    between atoms: C7_8  and  C8_9 
REMARK    6  A    between atoms: C8_9  and  C10_11 
ROOT
HETATM    1  C10 UNL     1       1.577   7.055  10.062  1.00  0.00     0.002 C 
HETATM    2  C11 UNL     1       1.996   5.624  10.494  1.00  0.00     0.007 C 
HETATM    3  C12 UNL     1       0.934   5.142  11.495  1.00  0.00     0.010 C 
HETATM    4  C13 UNL     1      -0.153   6.217  11.447  1.00  0.00     0.023 C 
HETATM    5  C14 UNL     1      -1.198   6.316  12.529  1.00  0.00    -0.070 C 
HETATM    6  C15 UNL     1      -1.402   5.363  13.452  1.00  0.00     0.004 C 
HETATM    7  C16 UNL     1      -2.554   5.369  14.313  1.00  0.00     0.004 C 
HETATM    8  C17 UNL     1      -3.363   6.435  14.436  1.00  0.00    -0.071 C 
HETATM    9  C18 UNL     1      -4.537   6.403  15.387  1.00  0.00     0.035 C 
HETATM   10  C19 UNL     1      -5.798   7.001  14.773  1.00  0.00     0.004 C 
HETATM   11  C20 UNL     1      -5.535   8.397  14.222  1.00  0.00     0.001 C 
HETATM   12  C21 UNL     1      -4.423   8.362  13.174  1.00  0.00     0.014 C 
HETATM   13  C22 UNL     1      -3.085   7.742  13.677  1.00  0.00    -0.013 C 
HETATM   14  C23 UNL     1      -2.426   8.701  14.701  1.00  0.00     0.021 C 
HETATM   15  C24 UNL     1      -2.155   7.505  12.401  1.00  0.00     0.027 C 
HETATM   16  C25 UNL     1      -1.448   8.805  11.922  1.00  0.00     0.011 C 
HETATM   17  C26 UNL     1      -0.393   8.603  10.823  1.00  0.00     0.011 C 
HETATM   18  C27 UNL     1       0.640   7.529  11.216  1.00  0.00    -0.032 C 
HETATM   19  C28 UNL     1       1.419   7.969  12.474  1.00  0.00     0.016 C 
ENDROOT
BRANCH   1  20
HETATM   20  C8  UNL     1       2.751   7.929   9.535  1.00  0.00     0.008 C 
HETATM   21  C9  UNL     1       2.787   8.201   8.026  1.00  0.00     0.014 C 
BRANCH  20  22
HETATM   22  C7  UNL     1       4.077   7.471  10.117  1.00  0.00    -0.026 C 
HETATM   23  C6  UNL     1       5.087   8.242  10.559  1.00  0.00    -0.026 C 
BRANCH  23  24
HETATM   24  C4  UNL     1       6.412   7.774  11.145  1.00  0.00     0.009 C 
HETATM   25  C5  UNL     1       6.596   6.250  11.066  1.00  0.00     0.014 C 
BRANCH  24  26
HETATM   26  C2  UNL     1       6.605   8.315  12.596  1.00  0.00     0.012 C 
HETATM   27  C1  UNL     1       7.429   9.615  12.614  1.00  0.00     0.012 C 
BRANCH  26  28
HETATM   28  C3  UNL     1       7.254   7.289  13.542  1.00  0.00     0.168 C 
BRANCH  28  29
HETATM   29  O1  UNL     1       6.316   6.753  14.464  1.00  0.00    -0.400 OA
HETATM   30  H7  UNL     1       5.690   6.202  13.964  1.00  0.00     0.209 HD
ENDBRANCH  28  29
ENDBRANCH  26  28
ENDBRANCH  24  26
ENDBRANCH  23  24
ENDBRANCH  20  22
ENDBRANCH   1  20
TORSDOF 6
ENDMDL
