MODEL 1
REMARK minimizedAffinity -10.5114393
REMARK CNNscore 0.356068403
REMARK CNNaffinity 7.03063726
REMARK  11 active torsions:
REMARK  status: ('A' for Active; 'I' for Inactive)
REMARK    1  A    between atoms: O1_2  and  C2_3 
REMARK    2  A    between atoms: C16_18  and  C17_19 
REMARK    3  A    between atoms: C17_19  and  C19_21 
REMARK    4  A    between atoms: C23_25  and  C24_26 
REMARK    5  A    between atoms: C24_26  and  O3_27 
REMARK    6  A    between atoms: O3_27  and  C25_28 
REMARK    7  A    between atoms: C26_30  and  C27_31 
REMARK    8  A    between atoms: C27_31  and  O5_32 
REMARK    9  A    between atoms: C28_33  and  O6_34 
REMARK   10  A    between atoms: C29_35  and  O7_36 
REMARK   11  A    between atoms: C30_37  and  O8_38 
ROOT
HETATM    1  C19 UNL     1       1.686   7.770  11.874  1.00  0.00     0.140 C 
HETATM    2  C20 UNL     1       1.825   9.202  12.404  1.00  0.00     0.067 C 
HETATM    3  C21 UNL     1       3.264   9.621  12.530  1.00  0.00    -0.067 C 
HETATM    4  C22 UNL     1       3.497  10.791  13.448  1.00  0.00     0.044 C 
HETATM    5  C23 UNL     1       4.221   9.007  11.802  1.00  0.00     0.043 C 
HETATM    6  C31 UNL     1       3.862   7.936  10.837  1.00  0.00     0.292 C 
HETATM    7  O9  UNL     1       4.705   7.400  10.129  1.00  0.00    -0.260 OA
HETATM    8  O10 UNL     1       2.548   7.624  10.732  1.00  0.00    -0.311 OA
ENDROOT
BRANCH   1   9
HETATM    9  C17 UNL     1       0.236   7.423  11.420  1.00  0.00     0.016 C 
HETATM   10  C18 UNL     1      -0.489   8.660  10.844  1.00  0.00     0.013 C 
BRANCH   9  11
HETATM   11  C16 UNL     1      -0.718   6.764  12.465  1.00  0.00     0.000 C 
HETATM   12  C14 UNL     1      -0.511   5.333  13.043  1.00  0.00    -0.036 C 
HETATM   13  C13 UNL     1      -0.555   4.198  12.013  1.00  0.00     0.010 C 
HETATM   14  C15 UNL     1       0.802   5.160  13.850  1.00  0.00     0.016 C 
HETATM   15  C34 UNL     1      -1.714   5.279  14.036  1.00  0.00     0.001 C 
HETATM   16  C12 UNL     1      -1.916   3.969  11.382  1.00  0.00     0.007 C 
HETATM   17  C11 UNL     1      -3.014   3.707  12.430  1.00  0.00     0.008 C 
HETATM   18  C9  UNL     1      -4.396   3.298  11.758  1.00  0.00     0.025 C 
HETATM   19  C35 UNL     1      -3.123   4.900  13.445  1.00  0.00     0.024 C 
HETATM   20  C4  UNL     1      -5.542   3.818  12.660  1.00  0.00     0.004 C 
HETATM   21  C8  UNL     1      -4.511   1.758  11.679  1.00  0.00     0.136 C 
HETATM   22  C10 UNL     1      -4.549   3.802  10.300  1.00  0.00     0.024 C 
HETATM   23  C3  UNL     1      -5.522   5.354  12.741  1.00  0.00     0.038 C 
HETATM   24  C5  UNL     1      -6.933   3.295  12.272  1.00  0.00     0.006 C 
HETATM   25  C2  UNL     1      -4.099   5.960  12.869  1.00  0.00     0.126 C 
HETATM   26  C6  UNL     1      -6.950   1.768  12.292  1.00  0.00     0.008 C 
HETATM   27  C7  UNL     1      -5.883   1.176  11.387  1.00  0.00     0.079 C 
HETATM   28  O2  UNL     1      -3.529   1.015  11.740  1.00  0.00    -0.297 OA
HETATM   29  C33 UNL     1      -1.606   6.636  14.749  1.00  0.00     0.006 C 
HETATM   30  C32 UNL     1      -1.043   7.617  13.711  1.00  0.00     0.006 C 
BRANCH  25  31
HETATM   31  O1  UNL     1      -4.195   7.121  13.693  1.00  0.00    -0.390 OA
HETATM   32  C1  UNL     1      -5.186   8.049  13.262  1.00  0.00     0.202 C 
ENDBRANCH  25  31
ENDBRANCH   9  11
ENDBRANCH   1   9
BRANCH   5  33
HETATM   33  C24 UNL     1       5.676   9.389  11.797  1.00  0.00     0.216 C 
BRANCH  33  34
HETATM   34  O3  UNL     1       6.369   8.478  12.649  1.00  0.00    -0.354 OA
BRANCH  34  35
HETATM   35  C25 UNL     1       6.302   8.842  14.028  1.00  0.00     0.291 C 
HETATM   36  O4  UNL     1       7.136   9.964  14.306  1.00  0.00    -0.348 OA
HETATM   37  C26 UNL     1       8.554   9.746  14.163  1.00  0.00     0.179 C 
HETATM   38  C28 UNL     1       8.989   8.259  14.168  1.00  0.00     0.180 C 
HETATM   39  C29 UNL     1       8.160   7.499  15.206  1.00  0.00     0.183 C 
HETATM   40  C30 UNL     1       6.650   7.617  14.912  1.00  0.00     0.204 C 
BRANCH  37  41
HETATM   41  C27 UNL     1       9.104  10.539  12.966  1.00  0.00     0.198 C 
BRANCH  41  42
HETATM   42  O5  UNL     1      10.414  10.114  12.599  1.00  0.00    -0.398 OA
HETATM   43  H42 UNL     1      10.761  10.768  11.968  1.00  0.00     0.209 HD
ENDBRANCH  41  42
ENDBRANCH  37  41
BRANCH  38  44
HETATM   44  O6  UNL     1       8.872   7.610  12.899  1.00  0.00    -0.390 OA
HETATM   45  H44 UNL     1       8.447   8.250  12.276  1.00  0.00     0.210 HD
ENDBRANCH  38  44
BRANCH  39  46
HETATM   46  O7  UNL     1       8.472   7.994  16.521  1.00  0.00    -0.390 OA
HETATM   47  H46 UNL     1       7.922   8.779  16.697  1.00  0.00     0.210 HD
ENDBRANCH  39  46
BRANCH  40  48
HETATM   48  O8  UNL     1       6.159   6.418  14.293  1.00  0.00    -0.388 OA
HETATM   49  H48 UNL     1       6.443   6.486  13.356  1.00  0.00     0.210 HD
ENDBRANCH  40  48
ENDBRANCH  34  35
ENDBRANCH  33  34
ENDBRANCH   5  33
TORSDOF 11
ENDMDL
MODEL 2
REMARK minimizedAffinity -7.59515429
REMARK CNNscore 0.340887666
REMARK CNNaffinity 7.17518425
REMARK  11 active torsions:
REMARK  status: ('A' for Active; 'I' for Inactive)
REMARK    1  A    between atoms: O1_2  and  C2_3 
REMARK    2  A    between atoms: C16_18  and  C17_19 
REMARK    3  A    between atoms: C17_19  and  C19_21 
REMARK    4  A    between atoms: C23_25  and  C24_26 
REMARK    5  A    between atoms: C24_26  and  O3_27 
REMARK    6  A    between atoms: O3_27  and  C25_28 
REMARK    7  A    between atoms: C26_30  and  C27_31 
REMARK    8  A    between atoms: C27_31  and  O5_32 
REMARK    9  A    between atoms: C28_33  and  O6_34 
REMARK   10  A    between atoms: C29_35  and  O7_36 
REMARK   11  A    between atoms: C30_37  and  O8_38 
ROOT
HETATM    1  C19 UNL     1     -10.551   7.430  13.528  1.00  0.00     0.140 C 
HETATM    2  C20 UNL     1     -11.782   6.548  13.286  1.00  0.00     0.067 C 
HETATM    3  C21 UNL     1     -13.032   7.152  13.866  1.00  0.00    -0.067 C 
HETATM    4  C22 UNL     1     -14.157   6.175  14.079  1.00  0.00     0.044 C 
HETATM    5  C23 UNL     1     -13.109   8.481  14.093  1.00  0.00     0.043 C 
HETATM    6  C31 UNL     1     -11.974   9.372  13.737  1.00  0.00     0.292 C 
HETATM    7  O9  UNL     1     -12.038  10.585  13.886  1.00  0.00    -0.260 OA
HETATM    8  O10 UNL     1     -10.888   8.785  13.180  1.00  0.00    -0.311 OA
ENDROOT
BRANCH   1   9
HETATM    9  C17 UNL     1      -9.320   7.012  12.669  1.00  0.00     0.016 C 
HETATM   10  C18 UNL     1      -9.747   6.208  11.420  1.00  0.00     0.013 C 
BRANCH   9  11
HETATM   11  C16 UNL     1      -8.176   6.217  13.371  1.00  0.00     0.000 C 
HETATM   12  C14 UNL     1      -7.676   6.515  14.815  1.00  0.00    -0.036 C 
HETATM   13  C13 UNL     1      -7.085   7.914  15.029  1.00  0.00     0.010 C 
HETATM   14  C15 UNL     1      -8.752   6.306  15.913  1.00  0.00     0.016 C 
HETATM   15  C34 UNL     1      -6.602   5.390  14.955  1.00  0.00     0.001 C 
HETATM   16  C12 UNL     1      -5.776   8.165  14.304  1.00  0.00     0.007 C 
HETATM   17  C11 UNL     1      -4.695   7.129  14.665  1.00  0.00     0.008 C 
HETATM   18  C9  UNL     1      -3.281   7.497  14.039  1.00  0.00     0.025 C 
HETATM   19  C35 UNL     1      -5.179   5.670  14.342  1.00  0.00     0.024 C 
HETATM   20  C4  UNL     1      -2.531   6.177  13.733  1.00  0.00     0.004 C 
HETATM   21  C8  UNL     1      -2.441   8.298  15.062  1.00  0.00     0.136 C 
HETATM   22  C10 UNL     1      -3.376   8.399  12.782  1.00  0.00     0.024 C 
HETATM   23  C3  UNL     1      -3.285   5.350  12.678  1.00  0.00     0.038 C 
HETATM   24  C5  UNL     1      -1.056   6.367  13.349  1.00  0.00     0.006 C 
HETATM   25  C2  UNL     1      -4.826   5.341  12.867  1.00  0.00     0.126 C 
HETATM   26  C6  UNL     1      -0.310   7.108  14.456  1.00  0.00     0.008 C 
HETATM   27  C7  UNL     1      -0.956   8.444  14.781  1.00  0.00     0.079 C 
HETATM   28  O2  UNL     1      -2.948   8.893  16.015  1.00  0.00    -0.297 OA
HETATM   29  C33 UNL     1      -7.353   4.158  14.424  1.00  0.00     0.006 C 
HETATM   30  C32 UNL     1      -8.308   4.678  13.340  1.00  0.00     0.006 C 
BRANCH  25  31
HETATM   31  O1  UNL     1      -5.304   4.059  12.463  1.00  0.00    -0.390 OA
HETATM   32  C1  UNL     1      -4.436   3.383  11.558  1.00  0.00     0.202 C 
ENDBRANCH  25  31
ENDBRANCH   9  11
ENDBRANCH   1   9
BRANCH   5  33
HETATM   33  C24 UNL     1     -14.328   9.198  14.603  1.00  0.00     0.216 C 
BRANCH  33  34
HETATM   34  O3  UNL     1     -13.981   9.826  15.836  1.00  0.00    -0.354 OA
BRANCH  34  35
HETATM   35  C25 UNL     1     -13.470   8.910  16.806  1.00  0.00     0.291 C 
HETATM   36  O4  UNL     1     -14.527   8.275  17.521  1.00  0.00    -0.348 OA
HETATM   37  C26 UNL     1     -15.321   9.131  18.365  1.00  0.00     0.179 C 
HETATM   38  C28 UNL     1     -14.664  10.489  18.719  1.00  0.00     0.180 C 
HETATM   39  C29 UNL     1     -13.171  10.270  18.975  1.00  0.00     0.183 C 
HETATM   40  C30 UNL     1     -12.479   9.641  17.747  1.00  0.00     0.204 C 
BRANCH  37  41
HETATM   41  C27 UNL     1     -16.746   9.271  17.804  1.00  0.00     0.198 C 
BRANCH  41  42
HETATM   42  O5  UNL     1     -17.473   8.047  17.879  1.00  0.00    -0.398 OA
HETATM   43  H42 UNL     1     -18.282   8.162  17.350  1.00  0.00     0.209 HD
ENDBRANCH  41  42
ENDBRANCH  37  41
BRANCH  38  44
HETATM   44  O6  UNL     1     -14.832  11.500  17.722  1.00  0.00    -0.390 OA
HETATM   45  H44 UNL     1     -15.284  11.081  16.948  1.00  0.00     0.210 HD
ENDBRANCH  38  44
BRANCH  39  46
HETATM   46  O7  UNL     1     -13.003   9.445  20.143  1.00  0.00    -0.390 OA
HETATM   47  H46 UNL     1     -13.066   8.510  19.876  1.00  0.00     0.210 HD
ENDBRANCH  39  46
BRANCH  40  48
HETATM   48  O8  UNL     1     -11.754  10.637  17.010  1.00  0.00    -0.388 OA
HETATM   49  H48 UNL     1     -12.440  11.116  16.496  1.00  0.00     0.210 HD
ENDBRANCH  40  48
ENDBRANCH  34  35
ENDBRANCH  33  34
ENDBRANCH   5  33
TORSDOF 11
ENDMDL
MODEL 3
REMARK minimizedAffinity -9.6869173
REMARK CNNscore 0.264470041
REMARK CNNaffinity 6.52623034
REMARK  11 active torsions:
REMARK  status: ('A' for Active; 'I' for Inactive)
REMARK    1  A    between atoms: O1_2  and  C2_3 
REMARK    2  A    between atoms: C16_18  and  C17_19 
REMARK    3  A    between atoms: C17_19  and  C19_21 
REMARK    4  A    between atoms: C23_25  and  C24_26 
REMARK    5  A    between atoms: C24_26  and  O3_27 
REMARK    6  A    between atoms: O3_27  and  C25_28 
REMARK    7  A    between atoms: C26_30  and  C27_31 
REMARK    8  A    between atoms: C27_31  and  O5_32 
REMARK    9  A    between atoms: C28_33  and  O6_34 
REMARK   10  A    between atoms: C29_35  and  O7_36 
REMARK   11  A    between atoms: C30_37  and  O8_38 
ROOT
HETATM    1  C19 UNL     1       0.743   9.398  15.839  1.00  0.00     0.140 C 
HETATM    2  C20 UNL     1       1.711   9.264  14.656  1.00  0.00     0.067 C 
HETATM    3  C21 UNL     1       2.946  10.102  14.839  1.00  0.00    -0.067 C 
HETATM    4  C22 UNL     1       3.703  10.387  13.570  1.00  0.00     0.044 C 
HETATM    5  C23 UNL     1       3.338  10.484  16.074  1.00  0.00     0.043 C 
HETATM    6  C31 UNL     1       2.577  10.048  17.273  1.00  0.00     0.292 C 
HETATM    7  O9  UNL     1       2.940  10.338  18.406  1.00  0.00    -0.260 OA
HETATM    8  O10 UNL     1       1.496   9.260  17.058  1.00  0.00    -0.311 OA
ENDROOT
BRANCH   1   9
HETATM    9  C17 UNL     1      -0.371   8.309  15.845  1.00  0.00     0.016 C 
HETATM   10  C18 UNL     1       0.224   6.890  15.985  1.00  0.00     0.013 C 
BRANCH   9  11
HETATM   11  C16 UNL     1      -1.372   8.283  14.648  1.00  0.00     0.000 C 
HETATM   12  C14 UNL     1      -2.399   9.415  14.354  1.00  0.00    -0.036 C 
HETATM   13  C13 UNL     1      -3.438   9.659  15.456  1.00  0.00     0.010 C 
HETATM   14  C15 UNL     1      -1.753  10.788  14.030  1.00  0.00     0.016 C 
HETATM   15  C34 UNL     1      -3.042   8.850  13.049  1.00  0.00     0.001 C 
HETATM   16  C12 UNL     1      -4.430   8.529  15.651  1.00  0.00     0.007 C 
HETATM   17  C11 UNL     1      -5.183   8.175  14.354  1.00  0.00     0.008 C 
HETATM   18  C9  UNL     1      -6.339   7.113  14.604  1.00  0.00     0.025 C 
HETATM   19  C35 UNL     1      -4.182   7.777  13.211  1.00  0.00     0.024 C 
HETATM   20  C4  UNL     1      -6.481   6.247  13.328  1.00  0.00     0.004 C 
HETATM   21  C8  UNL     1      -7.684   7.840  14.841  1.00  0.00     0.136 C 
HETATM   22  C10 UNL     1      -6.113   6.236  15.862  1.00  0.00     0.024 C 
HETATM   23  C3  UNL     1      -5.193   5.450  13.060  1.00  0.00     0.038 C 
HETATM   24  C5  UNL     1      -7.717   5.335  13.323  1.00  0.00     0.006 C 
HETATM   25  C2  UNL     1      -3.890   6.256  13.309  1.00  0.00     0.126 C 
HETATM   26  C6  UNL     1      -8.988   6.162  13.497  1.00  0.00     0.008 C 
HETATM   27  C7  UNL     1      -8.949   7.006  14.760  1.00  0.00     0.079 C 
HETATM   28  O2  UNL     1      -7.747   9.021  15.189  1.00  0.00    -0.297 OA
HETATM   29  C33 UNL     1      -1.807   8.428  12.236  1.00  0.00     0.006 C 
HETATM   30  C32 UNL     1      -0.757   7.980  13.263  1.00  0.00     0.006 C 
BRANCH  25  31
HETATM   31  O1  UNL     1      -2.924   5.822  12.353  1.00  0.00    -0.390 OA
HETATM   32  C1  UNL     1      -2.512   4.470  12.529  1.00  0.00     0.202 C 
ENDBRANCH  25  31
ENDBRANCH   9  11
ENDBRANCH   1   9
BRANCH   5  33
HETATM   33  C24 UNL     1       4.589  11.261  16.379  1.00  0.00     0.216 C 
BRANCH  33  34
HETATM   34  O3  UNL     1       5.682  10.344  16.384  1.00  0.00    -0.354 OA
BRANCH  34  35
HETATM   35  C25 UNL     1       6.952  10.988  16.271  1.00  0.00     0.291 C 
HETATM   36  O4  UNL     1       7.557  10.717  15.009  1.00  0.00    -0.348 OA
HETATM   37  C26 UNL     1       7.938   9.348  14.774  1.00  0.00     0.179 C 
HETATM   38  C28 UNL     1       8.050   8.473  16.048  1.00  0.00     0.180 C 
HETATM   39  C29 UNL     1       8.682   9.302  17.169  1.00  0.00     0.183 C 
HETATM   40  C30 UNL     1       7.858  10.573  17.459  1.00  0.00     0.204 C 
BRANCH  37  41
HETATM   41  C27 UNL     1       7.055   8.723  13.680  1.00  0.00     0.198 C 
BRANCH  41  42
HETATM   42  O5  UNL     1       7.614   8.892  12.380  1.00  0.00    -0.398 OA
HETATM   43  H42 UNL     1       6.928   8.639  11.738  1.00  0.00     0.209 HD
ENDBRANCH  41  42
ENDBRANCH  37  41
BRANCH  38  44
HETATM   44  O6  UNL     1       6.804   7.934  16.501  1.00  0.00    -0.390 OA
HETATM   45  H44 UNL     1       6.092   8.312  15.927  1.00  0.00     0.210 HD
ENDBRANCH  38  44
BRANCH  39  46
HETATM   46  O7  UNL     1      10.037   9.633  16.810  1.00  0.00    -0.390 OA
HETATM   47  H46 UNL     1      10.025  10.437  16.259  1.00  0.00     0.210 HD
ENDBRANCH  39  46
BRANCH  40  48
HETATM   48  O8  UNL     1       7.060  10.400  18.640  1.00  0.00    -0.388 OA
HETATM   49  H48 UNL     1       6.296   9.858  18.348  1.00  0.00     0.210 HD
ENDBRANCH  40  48
ENDBRANCH  34  35
ENDBRANCH  33  34
ENDBRANCH   5  33
TORSDOF 11
ENDMDL
MODEL 4
REMARK minimizedAffinity -8.14846611
REMARK CNNscore 0.261605501
REMARK CNNaffinity 7.01129007
REMARK  11 active torsions:
REMARK  status: ('A' for Active; 'I' for Inactive)
REMARK    1  A    between atoms: O1_2  and  C2_3 
REMARK    2  A    between atoms: C16_18  and  C17_19 
REMARK    3  A    between atoms: C17_19  and  C19_21 
REMARK    4  A    between atoms: C23_25  and  C24_26 
REMARK    5  A    between atoms: C24_26  and  O3_27 
REMARK    6  A    between atoms: O3_27  and  C25_28 
REMARK    7  A    between atoms: C26_30  and  C27_31 
REMARK    8  A    between atoms: C27_31  and  O5_32 
REMARK    9  A    between atoms: C28_33  and  O6_34 
REMARK   10  A    between atoms: C29_35  and  O7_36 
REMARK   11  A    between atoms: C30_37  and  O8_38 
ROOT
HETATM    1  C19 UNL     1     -10.578   7.324  14.313  1.00  0.00     0.140 C 
HETATM    2  C20 UNL     1     -11.685   6.365  13.858  1.00  0.00     0.067 C 
HETATM    3  C21 UNL     1     -13.022   6.729  14.442  1.00  0.00    -0.067 C 
HETATM    4  C22 UNL     1     -14.035   5.616  14.428  1.00  0.00     0.044 C 
HETATM    5  C23 UNL     1     -13.264   7.989  14.866  1.00  0.00     0.043 C 
HETATM    6  C31 UNL     1     -12.226   9.042  14.727  1.00  0.00     0.292 C 
HETATM    7  O9  UNL     1     -12.438  10.202  15.057  1.00  0.00    -0.260 OA
HETATM    8  O10 UNL     1     -11.054   8.673  14.157  1.00  0.00    -0.311 OA
ENDROOT
BRANCH   1   9
HETATM    9  C17 UNL     1      -9.268   7.185  13.481  1.00  0.00     0.016 C 
HETATM   10  C18 UNL     1      -9.512   6.417  12.162  1.00  0.00     0.013 C 
BRANCH   9  11
HETATM   11  C16 UNL     1      -8.027   6.544  14.175  1.00  0.00     0.000 C 
HETATM   12  C14 UNL     1      -7.370   7.110  15.469  1.00  0.00    -0.036 C 
HETATM   13  C13 UNL     1      -6.799   8.528  15.346  1.00  0.00     0.010 C 
HETATM   14  C15 UNL     1      -8.305   7.104  16.707  1.00  0.00     0.016 C 
HETATM   15  C34 UNL     1      -6.256   6.039  15.684  1.00  0.00     0.001 C 
HETATM   16  C12 UNL     1      -5.591   8.647  14.436  1.00  0.00     0.007 C 
HETATM   17  C11 UNL     1      -4.446   7.704  14.850  1.00  0.00     0.008 C 
HETATM   18  C9  UNL     1      -3.126   7.957  14.001  1.00  0.00     0.025 C 
HETATM   19  C35 UNL     1      -4.923   6.208  14.864  1.00  0.00     0.024 C 
HETATM   20  C4  UNL     1      -2.380   6.608  13.858  1.00  0.00     0.004 C 
HETATM   21  C8  UNL     1      -2.196   8.941  14.749  1.00  0.00     0.136 C 
HETATM   22  C10 UNL     1      -3.394   8.607  12.620  1.00  0.00     0.024 C 
HETATM   23  C3  UNL     1      -3.228   5.593  13.073  1.00  0.00     0.038 C 
HETATM   24  C5  UNL     1      -0.966   6.732  13.270  1.00  0.00     0.006 C 
HETATM   25  C2  UNL     1      -4.735   5.610  13.444  1.00  0.00     0.126 C 
HETATM   26  C6  UNL     1      -0.117   7.673  14.123  1.00  0.00     0.008 C 
HETATM   27  C7  UNL     1      -0.759   9.042  14.270  1.00  0.00     0.079 C 
HETATM   28  O2  UNL     1      -2.605   9.702  15.629  1.00  0.00    -0.297 OA
HETATM   29  C33 UNL     1      -7.027   4.724  15.486  1.00  0.00     0.006 C 
HETATM   30  C32 UNL     1      -8.118   5.025  14.447  1.00  0.00     0.006 C 
BRANCH  25  31
HETATM   31  O1  UNL     1      -5.220   4.272  13.345  1.00  0.00    -0.390 OA
HETATM   32  C1  UNL     1      -4.709   3.559  12.223  1.00  0.00     0.202 C 
ENDBRANCH  25  31
ENDBRANCH   9  11
ENDBRANCH   1   9
BRANCH   5  33
HETATM   33  C24 UNL     1     -14.582   8.479  15.401  1.00  0.00     0.216 C 
BRANCH  33  34
HETATM   34  O3  UNL     1     -15.200   9.265  14.384  1.00  0.00    -0.354 OA
BRANCH  34  35
HETATM   35  C25 UNL     1     -15.085   8.686  13.083  1.00  0.00     0.291 C 
HETATM   36  O4  UNL     1     -14.343   9.530  12.207  1.00  0.00    -0.348 OA
HETATM   37  C26 UNL     1     -14.957  10.792  11.877  1.00  0.00     0.179 C 
HETATM   38  C28 UNL     1     -16.481  10.866  12.144  1.00  0.00     0.180 C 
HETATM   39  C29 UNL     1     -17.122   9.533  11.750  1.00  0.00     0.183 C 
HETATM   40  C30 UNL     1     -16.495   8.358  12.529  1.00  0.00     0.204 C 
BRANCH  37  41
HETATM   41  C27 UNL     1     -14.170  11.955  12.505  1.00  0.00     0.198 C 
BRANCH  41  42
HETATM   42  O5  UNL     1     -14.901  13.178  12.465  1.00  0.00    -0.398 OA
HETATM   43  H42 UNL     1     -14.282  13.889  12.707  1.00  0.00     0.209 HD
ENDBRANCH  41  42
ENDBRANCH  37  41
BRANCH  38  44
HETATM   44  O6  UNL     1     -16.825  11.176  13.497  1.00  0.00    -0.390 OA
HETATM   45  H44 UNL     1     -15.985  11.204  14.018  1.00  0.00     0.210 HD
ENDBRANCH  38  44
BRANCH  39  46
HETATM   46  O7  UNL     1     -16.990   9.342  10.329  1.00  0.00    -0.390 OA
HETATM   47  H46 UNL     1     -16.119   8.945  10.148  1.00  0.00     0.210 HD
ENDBRANCH  39  46
BRANCH  40  48
HETATM   48  O8  UNL     1     -17.355   7.947  13.603  1.00  0.00    -0.388 OA
HETATM   49  H48 UNL     1     -17.211   8.614  14.308  1.00  0.00     0.210 HD
ENDBRANCH  40  48
ENDBRANCH  34  35
ENDBRANCH  33  34
ENDBRANCH   5  33
TORSDOF 11
ENDMDL
MODEL 5
REMARK minimizedAffinity -8.97445488
REMARK CNNscore 0.260743886
REMARK CNNaffinity 6.49777269
REMARK  11 active torsions:
REMARK  status: ('A' for Active; 'I' for Inactive)
REMARK    1  A    between atoms: O1_2  and  C2_3 
REMARK    2  A    between atoms: C16_18  and  C17_19 
REMARK    3  A    between atoms: C17_19  and  C19_21 
REMARK    4  A    between atoms: C23_25  and  C24_26 
REMARK    5  A    between atoms: C24_26  and  O3_27 
REMARK    6  A    between atoms: O3_27  and  C25_28 
REMARK    7  A    between atoms: C26_30  and  C27_31 
REMARK    8  A    between atoms: C27_31  and  O5_32 
REMARK    9  A    between atoms: C28_33  and  O6_34 
REMARK   10  A    between atoms: C29_35  and  O7_36 
REMARK   11  A    between atoms: C30_37  and  O8_38 
ROOT
HETATM    1  C19 UNL     1      -5.207   6.504  14.470  1.00  0.00     0.140 C 
HETATM    2  C20 UNL     1      -6.126   6.760  15.671  1.00  0.00     0.067 C 
HETATM    3  C21 UNL     1      -7.574   6.825  15.272  1.00  0.00    -0.067 C 
HETATM    4  C22 UNL     1      -8.468   7.511  16.269  1.00  0.00     0.044 C 
HETATM    5  C23 UNL     1      -7.997   6.238  14.131  1.00  0.00     0.043 C 
HETATM    6  C31 UNL     1      -7.044   5.485  13.275  1.00  0.00     0.292 C 
HETATM    7  O9  UNL     1      -7.412   4.901  12.264  1.00  0.00    -0.260 OA
HETATM    8  O10 UNL     1      -5.759   5.421  13.700  1.00  0.00    -0.311 OA
ENDROOT
BRANCH   1   9
HETATM    9  C17 UNL     1      -3.759   6.103  14.881  1.00  0.00     0.016 C 
HETATM   10  C18 UNL     1      -3.727   5.448  16.280  1.00  0.00     0.013 C 
BRANCH   9  11
HETATM   11  C16 UNL     1      -2.660   7.211  14.856  1.00  0.00     0.000 C 
HETATM   12  C14 UNL     1      -2.596   8.341  13.787  1.00  0.00    -0.036 C 
HETATM   13  C13 UNL     1      -2.410   7.866  12.341  1.00  0.00     0.010 C 
HETATM   14  C15 UNL     1      -3.823   9.292  13.797  1.00  0.00     0.016 C 
HETATM   15  C34 UNL     1      -1.356   9.128  14.317  1.00  0.00     0.001 C 
HETATM   16  C12 UNL     1      -1.062   7.235  12.051  1.00  0.00     0.007 C 
HETATM   17  C11 UNL     1       0.113   8.167  12.403  1.00  0.00     0.008 C 
HETATM   18  C9  UNL     1       1.511   7.570  11.937  1.00  0.00     0.025 C 
HETATM   19  C35 UNL     1       0.067   8.588  13.915  1.00  0.00     0.024 C 
HETATM   20  C4  UNL     1       2.594   8.046  12.935  1.00  0.00     0.004 C 
HETATM   21  C8  UNL     1       1.879   8.114  10.537  1.00  0.00     0.136 C 
HETATM   22  C10 UNL     1       1.508   6.027  11.796  1.00  0.00     0.024 C 
HETATM   23  C3  UNL     1       2.321   7.494  14.345  1.00  0.00     0.038 C 
HETATM   24  C5  UNL     1       4.034   7.751  12.487  1.00  0.00     0.006 C 
HETATM   25  C2  UNL     1       0.824   7.523  14.754  1.00  0.00     0.126 C 
HETATM   26  C6  UNL     1       4.307   8.390  11.128  1.00  0.00     0.008 C 
HETATM   27  C7  UNL     1       3.313   7.932  10.074  1.00  0.00     0.079 C 
HETATM   28  O2  UNL     1       1.039   8.583   9.765  1.00  0.00    -0.297 OA
HETATM   29  C33 UNL     1      -1.656   9.232  15.820  1.00  0.00     0.006 C 
HETATM   30  C32 UNL     1      -2.424   7.955  16.189  1.00  0.00     0.006 C 
BRANCH  25  31
HETATM   31  O1  UNL     1       0.762   7.786  16.155  1.00  0.00    -0.390 OA
HETATM   32  C1  UNL     1       1.859   8.552  16.642  1.00  0.00     0.202 C 
ENDBRANCH  25  31
ENDBRANCH   9  11
ENDBRANCH   1   9
BRANCH   5  33
HETATM   33  C24 UNL     1      -9.427   6.182  13.671  1.00  0.00     0.216 C 
BRANCH  33  34
HETATM   34  O3  UNL     1     -10.076   7.371  14.117  1.00  0.00    -0.354 OA
BRANCH  34  35
HETATM   35  C25 UNL     1     -11.143   7.780  13.260  1.00  0.00     0.291 C 
HETATM   36  O4  UNL     1     -11.147   9.195  13.082  1.00  0.00    -0.348 OA
HETATM   37  C26 UNL     1     -11.441   9.977  14.256  1.00  0.00     0.179 C 
HETATM   38  C28 UNL     1     -12.132   9.199  15.403  1.00  0.00     0.180 C 
HETATM   39  C29 UNL     1     -13.157   8.232  14.805  1.00  0.00     0.183 C 
HETATM   40  C30 UNL     1     -12.492   7.254  13.814  1.00  0.00     0.204 C 
BRANCH  37  41
HETATM   41  C27 UNL     1     -10.195  10.756  14.711  1.00  0.00     0.198 C 
BRANCH  41  42
HETATM   42  O5  UNL     1     -10.232  12.118  14.290  1.00  0.00    -0.398 OA
HETATM   43  H42 UNL     1      -9.348  12.491  14.451  1.00  0.00     0.209 HD
ENDBRANCH  41  42
ENDBRANCH  37  41
BRANCH  38  44
HETATM   44  O6  UNL     1     -11.231   8.474  16.246  1.00  0.00    -0.390 OA
HETATM   45  H44 UNL     1     -10.326   8.562  15.857  1.00  0.00     0.210 HD
ENDBRANCH  38  44
BRANCH  39  46
HETATM   46  O7  UNL     1     -14.205   8.985  14.166  1.00  0.00    -0.390 OA
HETATM   47  H46 UNL     1     -13.923   9.204  13.259  1.00  0.00     0.210 HD
ENDBRANCH  39  46
BRANCH  40  48
HETATM   48  O8  UNL     1     -12.298   5.969  14.425  1.00  0.00    -0.388 OA
HETATM   49  H48 UNL     1     -11.505   6.081  14.993  1.00  0.00     0.210 HD
ENDBRANCH  40  48
ENDBRANCH  34  35
ENDBRANCH  33  34
ENDBRANCH   5  33
TORSDOF 11
ENDMDL
MODEL 6
REMARK minimizedAffinity -8.19799328
REMARK CNNscore 0.258773506
REMARK CNNaffinity 7.36939859
REMARK  11 active torsions:
REMARK  status: ('A' for Active; 'I' for Inactive)
REMARK    1  A    between atoms: O1_2  and  C2_3 
REMARK    2  A    between atoms: C16_18  and  C17_19 
REMARK    3  A    between atoms: C17_19  and  C19_21 
REMARK    4  A    between atoms: C23_25  and  C24_26 
REMARK    5  A    between atoms: C24_26  and  O3_27 
REMARK    6  A    between atoms: O3_27  and  C25_28 
REMARK    7  A    between atoms: C26_30  and  C27_31 
REMARK    8  A    between atoms: C27_31  and  O5_32 
REMARK    9  A    between atoms: C28_33  and  O6_34 
REMARK   10  A    between atoms: C29_35  and  O7_36 
REMARK   11  A    between atoms: C30_37  and  O8_38 
ROOT
HETATM    1  C19 UNL     1     -10.611   7.213  13.381  1.00  0.00     0.140 C 
HETATM    2  C20 UNL     1     -11.844   7.328  12.477  1.00  0.00     0.067 C 
HETATM    3  C21 UNL     1     -13.024   7.911  13.203  1.00  0.00    -0.067 C 
HETATM    4  C22 UNL     1     -14.355   7.637  12.555  1.00  0.00     0.044 C 
HETATM    5  C23 UNL     1     -12.843   8.672  14.305  1.00  0.00     0.043 C 
HETATM    6  C31 UNL     1     -11.473   8.975  14.792  1.00  0.00     0.292 C 
HETATM    7  O9  UNL     1     -11.280   9.702  15.758  1.00  0.00    -0.260 OA
HETATM    8  O10 UNL     1     -10.443   8.460  14.079  1.00  0.00    -0.311 OA
ENDROOT
BRANCH   1   9
HETATM    9  C17 UNL     1      -9.297   6.932  12.592  1.00  0.00     0.016 C 
HETATM   10  C18 UNL     1      -9.584   6.244  11.239  1.00  0.00     0.013 C 
BRANCH   9  11
HETATM   11  C16 UNL     1      -8.178   6.112  13.307  1.00  0.00     0.000 C 
HETATM   12  C14 UNL     1      -7.696   6.391  14.761  1.00  0.00    -0.036 C 
HETATM   13  C13 UNL     1      -7.085   7.778  14.994  1.00  0.00     0.010 C 
HETATM   14  C15 UNL     1      -8.794   6.194  15.840  1.00  0.00     0.016 C 
HETATM   15  C34 UNL     1      -6.644   5.247  14.910  1.00  0.00     0.001 C 
HETATM   16  C12 UNL     1      -5.760   8.012  14.293  1.00  0.00     0.007 C 
HETATM   17  C11 UNL     1      -4.703   6.955  14.664  1.00  0.00     0.008 C 
HETATM   18  C9  UNL     1      -3.273   7.303  14.064  1.00  0.00     0.025 C 
HETATM   19  C35 UNL     1      -5.207   5.507  14.323  1.00  0.00     0.024 C 
HETATM   20  C4  UNL     1      -2.541   5.972  13.761  1.00  0.00     0.004 C 
HETATM   21  C8  UNL     1      -2.436   8.082  15.105  1.00  0.00     0.136 C 
HETATM   22  C10 UNL     1      -3.332   8.214  12.812  1.00  0.00     0.024 C 
HETATM   23  C3  UNL     1      -3.292   5.165  12.688  1.00  0.00     0.038 C 
HETATM   24  C5  UNL     1      -1.057   6.139  13.402  1.00  0.00     0.006 C 
HETATM   25  C2  UNL     1      -4.835   5.182  12.851  1.00  0.00     0.126 C 
HETATM   26  C6  UNL     1      -0.317   6.860  14.526  1.00  0.00     0.008 C 
HETATM   27  C7  UNL     1      -0.945   8.205  14.850  1.00  0.00     0.079 C 
HETATM   28  O2  UNL     1      -2.948   8.679  16.054  1.00  0.00    -0.297 OA
HETATM   29  C33 UNL     1      -7.407   4.032  14.359  1.00  0.00     0.006 C 
HETATM   30  C32 UNL     1      -8.336   4.576  13.264  1.00  0.00     0.006 C 
BRANCH  25  31
HETATM   31  O1  UNL     1      -5.329   3.911  12.431  1.00  0.00    -0.390 OA
HETATM   32  C1  UNL     1      -4.508   3.272  11.457  1.00  0.00     0.202 C 
ENDBRANCH  25  31
ENDBRANCH   9  11
ENDBRANCH   1   9
BRANCH   5  33
HETATM   33  C24 UNL     1     -13.943   9.359  15.066  1.00  0.00     0.216 C 
BRANCH  33  34
HETATM   34  O3  UNL     1     -15.012   8.429  15.224  1.00  0.00    -0.354 OA
BRANCH  34  35
HETATM   35  C25 UNL     1     -15.173   7.986  16.573  1.00  0.00     0.291 C 
HETATM   36  O4  UNL     1     -14.959   6.581  16.683  1.00  0.00    -0.348 OA
HETATM   37  C26 UNL     1     -15.923   5.743  16.017  1.00  0.00     0.179 C 
HETATM   38  C28 UNL     1     -17.262   6.438  15.667  1.00  0.00     0.180 C 
HETATM   39  C29 UNL     1     -17.662   7.362  16.820  1.00  0.00     0.183 C 
HETATM   40  C30 UNL     1     -16.567   8.412  17.101  1.00  0.00     0.204 C 
BRANCH  37  41
HETATM   41  C27 UNL     1     -15.277   5.024  14.820  1.00  0.00     0.198 C 
BRANCH  41  42
HETATM   42  O5  UNL     1     -15.656   3.651  14.752  1.00  0.00    -0.398 OA
HETATM   43  H42 UNL     1     -15.078   3.227  14.095  1.00  0.00     0.209 HD
ENDBRANCH  41  42
ENDBRANCH  37  41
BRANCH  38  44
HETATM   44  O6  UNL     1     -17.233   7.186  14.448  1.00  0.00    -0.390 OA
HETATM   45  H44 UNL     1     -16.304   7.165  14.109  1.00  0.00     0.210 HD
ENDBRANCH  38  44
BRANCH  39  46
HETATM   46  O7  UNL     1     -17.935   6.571  17.992  1.00  0.00    -0.390 OA
HETATM   47  H46 UNL     1     -17.095   6.401  18.455  1.00  0.00     0.210 HD
ENDBRANCH  39  46
BRANCH  40  48
HETATM   48  O8  UNL     1     -16.930   9.684  16.543  1.00  0.00    -0.388 OA
HETATM   49  H48 UNL     1     -16.736   9.601  15.585  1.00  0.00     0.210 HD
ENDBRANCH  40  48
ENDBRANCH  34  35
ENDBRANCH  33  34
ENDBRANCH   5  33
TORSDOF 11
ENDMDL
MODEL 7
REMARK minimizedAffinity -7.63626623
REMARK CNNscore 0.24512586
REMARK CNNaffinity 5.409513
REMARK  11 active torsions:
REMARK  status: ('A' for Active; 'I' for Inactive)
REMARK    1  A    between atoms: O1_2  and  C2_3 
REMARK    2  A    between atoms: C16_18  and  C17_19 
REMARK    3  A    between atoms: C17_19  and  C19_21 
REMARK    4  A    between atoms: C23_25  and  C24_26 
REMARK    5  A    between atoms: C24_26  and  O3_27 
REMARK    6  A    between atoms: O3_27  and  C25_28 
REMARK    7  A    between atoms: C26_30  and  C27_31 
REMARK    8  A    between atoms: C27_31  and  O5_32 
REMARK    9  A    between atoms: C28_33  and  O6_34 
REMARK   10  A    between atoms: C29_35  and  O7_36 
REMARK   11  A    between atoms: C30_37  and  O8_38 
ROOT
HETATM    1  C19 UNL     1       0.054  11.368  18.089  1.00  0.00     0.140 C 
HETATM    2  C20 UNL     1      -1.207  10.838  18.781  1.00  0.00     0.067 C 
HETATM    3  C21 UNL     1      -2.363  10.708  17.827  1.00  0.00    -0.067 C 
HETATM    4  C22 UNL     1      -3.714  10.645  18.486  1.00  0.00     0.044 C 
HETATM    5  C23 UNL     1      -2.145  10.591  16.499  1.00  0.00     0.043 C 
HETATM    6  C31 UNL     1      -0.759  10.549  15.965  1.00  0.00     0.292 C 
HETATM    7  O9  UNL     1      -0.534  10.393  14.772  1.00  0.00    -0.260 OA
HETATM    8  O10 UNL     1       0.247  10.628  16.869  1.00  0.00    -0.311 OA
ENDROOT
BRANCH   1   9
HETATM    9  C17 UNL     1       1.342  11.202  18.951  1.00  0.00     0.016 C 
HETATM   10  C18 UNL     1       1.004  10.785  20.400  1.00  0.00     0.013 C 
BRANCH   9  11
HETATM   11  C16 UNL     1       2.329  12.409  19.027  1.00  0.00     0.000 C 
HETATM   12  C14 UNL     1       3.726  12.428  18.340  1.00  0.00    -0.036 C 
HETATM   13  C13 UNL     1       4.709  11.355  18.824  1.00  0.00     0.010 C 
HETATM   14  C15 UNL     1       3.671  12.326  16.793  1.00  0.00     0.016 C 
HETATM   15  C34 UNL     1       4.184  13.870  18.725  1.00  0.00     0.001 C 
HETATM   16  C12 UNL     1       5.183  11.531  20.255  1.00  0.00     0.007 C 
HETATM   17  C11 UNL     1       5.823  12.911  20.497  1.00  0.00     0.008 C 
HETATM   18  C9  UNL     1       6.470  13.024  21.945  1.00  0.00     0.025 C 
HETATM   19  C35 UNL     1       4.819  14.068  20.152  1.00  0.00     0.024 C 
HETATM   20  C4  UNL     1       6.351  14.495  22.412  1.00  0.00     0.004 C 
HETATM   21  C8  UNL     1       7.973  12.663  21.883  1.00  0.00     0.136 C 
HETATM   22  C10 UNL     1       5.851  12.049  22.978  1.00  0.00     0.024 C 
HETATM   23  C3  UNL     1       4.876  14.909  22.550  1.00  0.00     0.038 C 
HETATM   24  C5  UNL     1       7.145  14.815  23.688  1.00  0.00     0.006 C 
HETATM   25  C2  UNL     1       3.964  14.382  21.410  1.00  0.00     0.126 C 
HETATM   26  C6  UNL     1       8.622  14.482  23.492  1.00  0.00     0.008 C 
HETATM   27  C7  UNL     1       8.829  13.035  23.080  1.00  0.00     0.079 C 
HETATM   28  O2  UNL     1       8.459  12.005  20.960  1.00  0.00    -0.297 OA
HETATM   29  C33 UNL     1       2.934  14.704  18.402  1.00  0.00     0.006 C 
HETATM   30  C32 UNL     1       1.732  13.790  18.679  1.00  0.00     0.006 C 
BRANCH  25  31
HETATM   31  O1  UNL     1       2.966  15.370  21.161  1.00  0.00    -0.390 OA
HETATM   32  C1  UNL     1       3.335  16.677  21.591  1.00  0.00     0.202 C 
ENDBRANCH  25  31
ENDBRANCH   9  11
ENDBRANCH   1   9
BRANCH   5  33
HETATM   33  C24 UNL     1      -3.218  10.387  15.465  1.00  0.00     0.216 C 
BRANCH  33  34
HETATM   34  O3  UNL     1      -3.376   8.982  15.273  1.00  0.00    -0.354 OA
BRANCH  34  35
HETATM   35  C25 UNL     1      -3.341   8.599  13.897  1.00  0.00     0.291 C 
HETATM   36  O4  UNL     1      -4.657   8.412  13.381  1.00  0.00    -0.348 OA
HETATM   37  C26 UNL     1      -5.402   7.312  13.938  1.00  0.00     0.179 C 
HETATM   38  C28 UNL     1      -4.547   6.247  14.667  1.00  0.00     0.180 C 
HETATM   39  C29 UNL     1      -3.252   6.023  13.883  1.00  0.00     0.183 C 
HETATM   40  C30 UNL     1      -2.458   7.337  13.727  1.00  0.00     0.204 C 
BRANCH  37  41
HETATM   41  C27 UNL     1      -6.579   7.831  14.781  1.00  0.00     0.198 C 
BRANCH  41  42
HETATM   42  O5  UNL     1      -6.462   9.224  15.065  1.00  0.00    -0.398 OA
HETATM   43  H42 UNL     1      -7.130   9.435  15.740  1.00  0.00     0.209 HD
ENDBRANCH  41  42
ENDBRANCH  37  41
BRANCH  38  44
HETATM   44  O6  UNL     1      -4.229   6.576  16.023  1.00  0.00    -0.390 OA
HETATM   45  H44 UNL     1      -4.571   7.488  16.194  1.00  0.00     0.210 HD
ENDBRANCH  38  44
BRANCH  39  46
HETATM   46  O7  UNL     1      -3.565   5.451  12.599  1.00  0.00    -0.390 OA
HETATM   47  H46 UNL     1      -3.782   6.173  11.981  1.00  0.00     0.210 HD
ENDBRANCH  39  46
BRANCH  40  48
HETATM   48  O8  UNL     1      -1.364   7.380  14.657  1.00  0.00    -0.388 OA
HETATM   49  H48 UNL     1      -1.776   7.621  15.515  1.00  0.00     0.210 HD
ENDBRANCH  40  48
ENDBRANCH  34  35
ENDBRANCH  33  34
ENDBRANCH   5  33
TORSDOF 11
ENDMDL
MODEL 8
REMARK minimizedAffinity -10.6122446
REMARK CNNscore 0.22681202
REMARK CNNaffinity 6.65442801
REMARK  11 active torsions:
REMARK  status: ('A' for Active; 'I' for Inactive)
REMARK    1  A    between atoms: O1_2  and  C2_3 
REMARK    2  A    between atoms: C16_18  and  C17_19 
REMARK    3  A    between atoms: C17_19  and  C19_21 
REMARK    4  A    between atoms: C23_25  and  C24_26 
REMARK    5  A    between atoms: C24_26  and  O3_27 
REMARK    6  A    between atoms: O3_27  and  C25_28 
REMARK    7  A    between atoms: C26_30  and  C27_31 
REMARK    8  A    between atoms: C27_31  and  O5_32 
REMARK    9  A    between atoms: C28_33  and  O6_34 
REMARK   10  A    between atoms: C29_35  and  O7_36 
REMARK   11  A    between atoms: C30_37  and  O8_38 
ROOT
HETATM    1  C19 UNL     1       1.408   7.648  11.746  1.00  0.00     0.140 C 
HETATM    2  C20 UNL     1       1.790   9.084  12.128  1.00  0.00     0.067 C 
HETATM    3  C21 UNL     1       3.279   9.294  12.118  1.00  0.00    -0.067 C 
HETATM    4  C22 UNL     1       3.747  10.490  12.903  1.00  0.00     0.044 C 
HETATM    5  C23 UNL     1       4.080   8.487  11.389  1.00  0.00     0.043 C 
HETATM    6  C31 UNL     1       3.497   7.403  10.556  1.00  0.00     0.292 C 
HETATM    7  O9  UNL     1       4.197   6.690   9.848  1.00  0.00    -0.260 OA
HETATM    8  O10 UNL     1       2.148   7.281  10.568  1.00  0.00    -0.311 OA
ENDROOT
BRANCH   1   9
HETATM    9  C17 UNL     1      -0.107   7.483  11.424  1.00  0.00     0.016 C 
HETATM   10  C18 UNL     1      -0.770   8.840  11.098  1.00  0.00     0.013 C 
BRANCH   9  11
HETATM   11  C16 UNL     1      -1.003   6.764  12.480  1.00  0.00     0.000 C 
HETATM   12  C14 UNL     1      -0.737   5.322  13.003  1.00  0.00    -0.036 C 
HETATM   13  C13 UNL     1      -0.788   4.219  11.938  1.00  0.00     0.010 C 
HETATM   14  C15 UNL     1       0.610   5.161  13.756  1.00  0.00     0.016 C 
HETATM   15  C34 UNL     1      -1.900   5.202  14.037  1.00  0.00     0.001 C 
HETATM   16  C12 UNL     1      -2.164   3.971  11.350  1.00  0.00     0.007 C 
HETATM   17  C11 UNL     1      -3.215   3.645  12.427  1.00  0.00     0.008 C 
HETATM   18  C9  UNL     1      -4.609   3.219  11.793  1.00  0.00     0.025 C 
HETATM   19  C35 UNL     1      -3.319   4.802  13.485  1.00  0.00     0.024 C 
HETATM   20  C4  UNL     1      -5.735   3.677  12.752  1.00  0.00     0.004 C 
HETATM   21  C8  UNL     1      -4.685   1.679  11.668  1.00  0.00     0.136 C 
HETATM   22  C10 UNL     1      -4.830   3.764  10.359  1.00  0.00     0.024 C 
HETATM   23  C3  UNL     1      -5.754   5.210  12.883  1.00  0.00     0.038 C 
HETATM   24  C5  UNL     1      -7.125   3.126  12.398  1.00  0.00     0.006 C 
HETATM   25  C2  UNL     1      -4.345   5.852  12.979  1.00  0.00     0.126 C 
HETATM   26  C6  UNL     1      -7.099   1.600  12.368  1.00  0.00     0.008 C 
HETATM   27  C7  UNL     1      -6.050   1.068  11.406  1.00  0.00     0.079 C 
HETATM   28  O2  UNL     1      -3.682   0.963  11.669  1.00  0.00    -0.297 OA
HETATM   29  C33 UNL     1      -1.803   6.539  14.790  1.00  0.00     0.006 C 
HETATM   30  C32 UNL     1      -1.306   7.568  13.764  1.00  0.00     0.006 C 
BRANCH  25  31
HETATM   31  O1  UNL     1      -4.442   6.982  13.843  1.00  0.00    -0.390 OA
HETATM   32  C1  UNL     1      -5.703   7.098  14.494  1.00  0.00     0.202 C 
ENDBRANCH  25  31
ENDBRANCH   9  11
ENDBRANCH   1   9
BRANCH   5  33
HETATM   33  C24 UNL     1       5.569   8.647  11.252  1.00  0.00     0.216 C 
BRANCH  33  34
HETATM   34  O3  UNL     1       6.113   8.803  12.561  1.00  0.00    -0.354 OA
BRANCH  34  35
HETATM   35  C25 UNL     1       6.859   7.665  12.995  1.00  0.00     0.291 C 
HETATM   36  O4  UNL     1       6.105   6.873  13.909  1.00  0.00    -0.348 OA
HETATM   37  C26 UNL     1       5.806   7.487  15.178  1.00  0.00     0.179 C 
HETATM   38  C28 UNL     1       6.695   8.703  15.540  1.00  0.00     0.180 C 
HETATM   39  C29 UNL     1       8.134   8.417  15.105  1.00  0.00     0.183 C 
HETATM   40  C30 UNL     1       8.214   8.123  13.593  1.00  0.00     0.204 C 
BRANCH  37  41
HETATM   41  C27 UNL     1       4.300   7.775  15.296  1.00  0.00     0.198 C 
BRANCH  41  42
HETATM   42  O5  UNL     1       3.572   6.638  15.754  1.00  0.00    -0.398 OA
HETATM   43  H42 UNL     1       2.627   6.835  15.631  1.00  0.00     0.209 HD
ENDBRANCH  41  42
ENDBRANCH  37  41
BRANCH  38  44
HETATM   44  O6  UNL     1       6.261   9.939  14.963  1.00  0.00    -0.390 OA
HETATM   45  H44 UNL     1       5.499   9.736  14.367  1.00  0.00     0.210 HD
ENDBRANCH  38  44
BRANCH  39  46
HETATM   46  O7  UNL     1       8.656   7.318  15.876  1.00  0.00    -0.390 OA
HETATM   47  H46 UNL     1       8.389   6.484  15.448  1.00  0.00     0.210 HD
ENDBRANCH  39  46
BRANCH  40  48
HETATM   48  O8  UNL     1       8.697   9.271  12.878  1.00  0.00    -0.388 OA
HETATM   49  H48 UNL     1       7.922   9.870  12.816  1.00  0.00     0.210 HD
ENDBRANCH  40  48
ENDBRANCH  34  35
ENDBRANCH  33  34
ENDBRANCH   5  33
TORSDOF 11
ENDMDL
MODEL 9
REMARK minimizedAffinity -8.48559189
REMARK CNNscore 0.2234613
REMARK CNNaffinity 5.52300644
REMARK  11 active torsions:
REMARK  status: ('A' for Active; 'I' for Inactive)
REMARK    1  A    between atoms: O1_2  and  C2_3 
REMARK    2  A    between atoms: C16_18  and  C17_19 
REMARK    3  A    between atoms: C17_19  and  C19_21 
REMARK    4  A    between atoms: C23_25  and  C24_26 
REMARK    5  A    between atoms: C24_26  and  O3_27 
REMARK    6  A    between atoms: O3_27  and  C25_28 
REMARK    7  A    between atoms: C26_30  and  C27_31 
REMARK    8  A    between atoms: C27_31  and  O5_32 
REMARK    9  A    between atoms: C28_33  and  O6_34 
REMARK   10  A    between atoms: C29_35  and  O7_36 
REMARK   11  A    between atoms: C30_37  and  O8_38 
ROOT
HETATM    1  C19 UNL     1       2.203  10.777  19.378  1.00  0.00     0.140 C 
HETATM    2  C20 UNL     1       0.717  10.823  19.754  1.00  0.00     0.067 C 
HETATM    3  C21 UNL     1      -0.171  10.879  18.542  1.00  0.00    -0.067 C 
HETATM    4  C22 UNL     1      -1.565  11.380  18.811  1.00  0.00     0.044 C 
HETATM    5  C23 UNL     1       0.274  10.438  17.346  1.00  0.00     0.043 C 
HETATM    6  C31 UNL     1       1.634   9.854  17.218  1.00  0.00     0.292 C 
HETATM    7  O9  UNL     1       2.042   9.401  16.157  1.00  0.00    -0.260 OA
HETATM    8  O10 UNL     1       2.379   9.788  18.348  1.00  0.00    -0.311 OA
ENDROOT
BRANCH   1   9
HETATM    9  C17 UNL     1       3.125  10.386  20.571  1.00  0.00     0.016 C 
HETATM   10  C18 UNL     1       2.306   9.871  21.776  1.00  0.00     0.013 C 
BRANCH   9  11
HETATM   11  C16 UNL     1       4.122  11.462  21.106  1.00  0.00     0.000 C 
HETATM   12  C14 UNL     1       4.431  11.679  22.617  1.00  0.00    -0.036 C 
HETATM   13  C13 UNL     1       3.233  12.095  23.478  1.00  0.00     0.010 C 
HETATM   14  C15 UNL     1       5.084  10.454  23.311  1.00  0.00     0.016 C 
HETATM   15  C34 UNL     1       5.500  12.811  22.502  1.00  0.00     0.001 C 
HETATM   16  C12 UNL     1       2.690  13.480  23.180  1.00  0.00     0.007 C 
HETATM   17  C11 UNL     1       3.768  14.573  23.300  1.00  0.00     0.008 C 
HETATM   18  C9  UNL     1       3.158  16.034  23.157  1.00  0.00     0.025 C 
HETATM   19  C35 UNL     1       4.975  14.286  22.338  1.00  0.00     0.024 C 
HETATM   20  C4  UNL     1       4.228  16.942  22.503  1.00  0.00     0.004 C 
HETATM   21  C8  UNL     1       2.831  16.611  24.555  1.00  0.00     0.136 C 
HETATM   22  C10 UNL     1       1.823  16.073  22.370  1.00  0.00     0.024 C 
HETATM   23  C3  UNL     1       4.564  16.457  21.082  1.00  0.00     0.038 C 
HETATM   24  C5  UNL     1       3.878  18.437  22.518  1.00  0.00     0.006 C 
HETATM   25  C2  UNL     1       4.670  14.914  20.951  1.00  0.00     0.126 C 
HETATM   26  C6  UNL     1       3.641  18.913  23.949  1.00  0.00     0.008 C 
HETATM   27  C7  UNL     1       2.563  18.102  24.648  1.00  0.00     0.079 C 
HETATM   28  O2  UNL     1       2.683  15.897  25.549  1.00  0.00    -0.297 OA
HETATM   29  C33 UNL     1       6.419  12.277  21.392  1.00  0.00     0.006 C 
HETATM   30  C32 UNL     1       5.516  11.477  20.442  1.00  0.00     0.006 C 
BRANCH  25  31
HETATM   31  O1  UNL     1       5.683  14.630  19.987  1.00  0.00    -0.390 OA
HETATM   32  C1  UNL     1       6.740  15.585  19.970  1.00  0.00     0.202 C 
ENDBRANCH  25  31
ENDBRANCH   9  11
ENDBRANCH   1   9
BRANCH   5  33
HETATM   33  C24 UNL     1      -0.549  10.384  16.088  1.00  0.00     0.216 C 
BRANCH  33  34
HETATM   34  O3  UNL     1      -1.152   9.093  16.016  1.00  0.00    -0.354 OA
BRANCH  34  35
HETATM   35  C25 UNL     1      -0.933   8.444  14.763  1.00  0.00     0.291 C 
HETATM   36  O4  UNL     1      -2.069   8.576  13.910  1.00  0.00    -0.348 OA
HETATM   37  C26 UNL     1      -3.266   7.903  14.347  1.00  0.00     0.179 C 
HETATM   38  C28 UNL     1      -3.043   6.797  15.409  1.00  0.00     0.180 C 
HETATM   39  C29 UNL     1      -1.768   6.024  15.065  1.00  0.00     0.183 C 
HETATM   40  C30 UNL     1      -0.545   6.962  15.000  1.00  0.00     0.204 C 
BRANCH  37  41
HETATM   41  C27 UNL     1      -4.343   8.925  14.747  1.00  0.00     0.198 C 
BRANCH  41  42
HETATM   42  O5  UNL     1      -4.703   8.813  16.122  1.00  0.00    -0.398 OA
HETATM   43  H42 UNL     1      -5.501   9.354  16.254  1.00  0.00     0.209 HD
ENDBRANCH  41  42
ENDBRANCH  37  41
BRANCH  38  44
HETATM   44  O6  UNL     1      -2.957   7.283  16.752  1.00  0.00    -0.390 OA
HETATM   45  H44 UNL     1      -2.981   8.270  16.712  1.00  0.00     0.210 HD
ENDBRANCH  38  44
BRANCH  39  46
HETATM   46  O7  UNL     1      -1.954   5.327  13.819  1.00  0.00    -0.390 OA
HETATM   47  H46 UNL     1      -1.748   5.938  13.087  1.00  0.00     0.210 HD
ENDBRANCH  39  46
BRANCH  40  48
HETATM   48  O8  UNL     1       0.242   6.852  16.196  1.00  0.00    -0.388 OA
HETATM   49  H48 UNL     1      -0.246   7.380  16.865  1.00  0.00     0.210 HD
ENDBRANCH  40  48
ENDBRANCH  34  35
ENDBRANCH  33  34
ENDBRANCH   5  33
TORSDOF 11
ENDMDL
