MODEL 1
REMARK minimizedAffinity -8.8749342
REMARK CNNscore 0.622531593
REMARK CNNaffinity 7.48541784
REMARK  11 active torsions:
REMARK  status: ('A' for Active; 'I' for Inactive)
REMARK    1  A    between atoms: C2_2  and  O2_4 
REMARK    2  A    between atoms: O2_4  and  C3_5 
REMARK    3  A    between atoms: C4_6  and  O3_7 
REMARK    4  A    between atoms: O3_7  and  C5_8 
REMARK    5  A    between atoms: C15_18  and  C16_19 
REMARK    6  A    between atoms: C20_23  and  C21_24 
REMARK    7  A    between atoms: C21_24  and  O4_27 
REMARK    8  A    between atoms: C24_29  and  O6_30 
REMARK    9  A    between atoms: C30_36  and  O7_37 
REMARK   10  A    between atoms: C36_44  and  O9_45 
REMARK   11  A    between atoms: C37_46  and  O10_47 
ROOT
HETATM    1  C5  UNL     1      -4.796   4.668  13.473  1.00  0.00     0.133 C 
HETATM    2  C6  UNL     1      -4.869   5.368  14.836  1.00  0.00     0.034 C 
HETATM    3  C7  UNL     1      -6.264   5.777  15.279  1.00  0.00     0.013 C 
HETATM    4  C8  UNL     1      -7.056   6.411  14.149  1.00  0.00    -0.025 A 
HETATM    5  C9  UNL     1      -6.903   7.906  14.007  1.00  0.00     0.021 A 
HETATM    6  C10 UNL     1      -8.241   7.370  14.483  1.00  0.00    -0.027 A 
HETATM    7  C11 UNL     1      -8.542   7.599  15.982  1.00  0.00     0.011 C 
HETATM    8  C12 UNL     1      -9.884   8.201  16.414  1.00  0.00     0.011 C 
HETATM    9  C13 UNL     1     -10.686   8.825  15.279  1.00  0.00    -0.028 C 
HETATM   10  C14 UNL     1      -9.987  10.145  14.881  1.00  0.00     0.016 C 
HETATM   11  C15 UNL     1     -12.198   9.102  15.587  1.00  0.00     0.057 C 
HETATM   12  C24 UNL     1     -12.890   8.984  14.190  1.00  0.00     0.126 C 
HETATM   13  C25 UNL     1     -11.848   8.372  13.234  1.00  0.00     0.042 C 
HETATM   14  C26 UNL     1     -10.770   7.750  14.134  1.00  0.00    -0.029 C 
HETATM   15  C27 UNL     1     -11.301   6.363  14.603  1.00  0.00     0.016 C 
HETATM   16  C28 UNL     1      -9.383   7.590  13.462  1.00  0.00     0.006 C 
HETATM   17  C29 UNL     1      -9.366   6.623  12.259  1.00  0.00     0.038 C 
HETATM   18  C30 UNL     1      -8.584   5.319  12.445  1.00  0.00     0.124 C 
HETATM   19  C31 UNL     1      -7.119   5.582  12.853  1.00  0.00     0.034 C 
HETATM   20  C32 UNL     1      -6.186   4.311  12.851  1.00  0.00    -0.015 C 
HETATM   21  C33 UNL     1      -6.774   3.080  13.585  1.00  0.00     0.018 C 
HETATM   22  C34 UNL     1      -5.965   3.858  11.377  1.00  0.00     0.018 C 
ENDROOT
BRANCH   1  23
HETATM   23  O3  UNL     1      -4.092   5.516  12.548  1.00  0.00    -0.352 OA
BRANCH  23  24
HETATM   24  C4  UNL     1      -2.711   5.715  12.874  1.00  0.00     0.292 C 
HETATM   25  C3  UNL     1      -1.873   4.881  11.877  1.00  0.00     0.218 C 
HETATM   26  C37 UNL     1      -0.373   5.219  12.017  1.00  0.00     0.183 C 
HETATM   27  C36 UNL     1      -0.110   6.723  12.129  1.00  0.00     0.173 C 
HETATM   28  C35 UNL     1      -1.037   7.353  13.159  1.00  0.00     0.205 C 
HETATM   29  O8  UNL     1      -2.395   7.099  12.821  1.00  0.00    -0.356 OA
BRANCH  25  30
HETATM   30  O2  UNL     1      -2.102   3.479  12.238  1.00  0.00    -0.309 OA
BRANCH  30  31
HETATM   31  C2  UNL     1      -2.238   2.577  11.237  1.00  0.00     0.255 C 
HETATM   32  C1  UNL     1      -3.168   1.484  11.656  1.00  0.00     0.126 C 
HETATM   33  O1  UNL     1      -1.668   2.638  10.155  1.00  0.00    -0.266 OA
ENDBRANCH  30  31
ENDBRANCH  25  30
BRANCH  26  34
HETATM   34  O10 UNL     1       0.420   4.728  10.915  1.00  0.00    -0.390 OA
HETATM   35  H60 UNL     1      -0.059   3.986  10.494  1.00  0.00     0.210 HD
ENDBRANCH  26  34
BRANCH  27  36
HETATM   36  O9  UNL     1       1.247   6.936  12.533  1.00  0.00    -0.391 OA
HETATM   37  H58 UNL     1       1.796   6.787  11.733  1.00  0.00     0.210 HD
ENDBRANCH  27  36
ENDBRANCH  23  24
ENDBRANCH   1  23
BRANCH  18  38
HETATM   38  O7  UNL     1      -9.259   4.474  13.368  1.00  0.00    -0.395 OA
HETATM   39  H47 UNL     1     -10.036   4.132  12.904  1.00  0.00     0.210 HD
ENDBRANCH  18  38
BRANCH  11  40
HETATM   40  C16 UNL     1     -12.659  10.261  16.523  1.00  0.00     0.065 C 
HETATM   41  C17 UNL     1     -13.832  11.143  16.052  1.00  0.00     0.046 C 
HETATM   42  C18 UNL     1     -11.481  11.151  16.949  1.00  0.00     0.041 C 
HETATM   43  C19 UNL     1     -11.902  11.658  18.310  1.00  0.00     0.038 C 
HETATM   44  C20 UNL     1     -12.702  10.492  18.897  1.00  0.00     0.156 C 
HETATM   45  O5  UNL     1     -13.059   9.637  17.781  1.00  0.00    -0.372 OA
BRANCH  44  46
HETATM   46  C21 UNL     1     -11.962   9.653  19.974  1.00  0.00     0.076 C 
HETATM   47  C22 UNL     1     -11.016  10.504  20.832  1.00  0.00     0.048 C 
HETATM   48  C23 UNL     1     -12.961   8.930  20.890  1.00  0.00     0.048 C 
BRANCH  46  49
HETATM   49  O4  UNL     1     -11.167   8.644  19.335  1.00  0.00    -0.388 OA
HETATM   50  H35 UNL     1     -11.796   8.095  18.818  1.00  0.00     0.210 HD
ENDBRANCH  46  49
ENDBRANCH  44  46
ENDBRANCH  11  40
BRANCH  12  51
HETATM   51  O6  UNL     1     -13.343  10.206  13.638  1.00  0.00    -0.395 OA
HETATM   52  H37 UNL     1     -13.936  10.010  12.889  1.00  0.00     0.210 HD
ENDBRANCH  12  51
TORSDOF 11
ENDMDL
MODEL 2
REMARK minimizedAffinity -8.54448318
REMARK CNNscore 0.598103285
REMARK CNNaffinity 7.26813173
REMARK  11 active torsions:
REMARK  status: ('A' for Active; 'I' for Inactive)
REMARK    1  A    between atoms: C2_2  and  O2_4 
REMARK    2  A    between atoms: O2_4  and  C3_5 
REMARK    3  A    between atoms: C4_6  and  O3_7 
REMARK    4  A    between atoms: O3_7  and  C5_8 
REMARK    5  A    between atoms: C15_18  and  C16_19 
REMARK    6  A    between atoms: C20_23  and  C21_24 
REMARK    7  A    between atoms: C21_24  and  O4_27 
REMARK    8  A    between atoms: C24_29  and  O6_30 
REMARK    9  A    between atoms: C30_36  and  O7_37 
REMARK   10  A    between atoms: C36_44  and  O9_45 
REMARK   11  A    between atoms: C37_46  and  O10_47 
ROOT
HETATM    1  C5  UNL     1      -4.724   4.561  13.354  1.00  0.00     0.133 C 
HETATM    2  C6  UNL     1      -4.746   5.231  14.734  1.00  0.00     0.034 C 
HETATM    3  C7  UNL     1      -6.116   5.683  15.212  1.00  0.00     0.013 C 
HETATM    4  C8  UNL     1      -6.902   6.374  14.113  1.00  0.00    -0.025 A 
HETATM    5  C9  UNL     1      -6.693   7.866  14.003  1.00  0.00     0.021 A 
HETATM    6  C10 UNL     1      -8.043   7.370  14.491  1.00  0.00    -0.027 A 
HETATM    7  C11 UNL     1      -8.309   7.574  16.000  1.00  0.00     0.011 C 
HETATM    8  C12 UNL     1      -9.618   8.218  16.471  1.00  0.00     0.011 C 
HETATM    9  C13 UNL     1     -10.414   8.900  15.366  1.00  0.00    -0.028 C 
HETATM   10  C14 UNL     1      -9.671  10.201  14.987  1.00  0.00     0.016 C 
HETATM   11  C15 UNL     1     -11.909   9.227  15.709  1.00  0.00     0.057 C 
HETATM   12  C24 UNL     1     -12.629   9.171  14.321  1.00  0.00     0.126 C 
HETATM   13  C25 UNL     1     -11.629   8.542  13.332  1.00  0.00     0.042 C 
HETATM   14  C26 UNL     1     -10.561   7.857  14.197  1.00  0.00    -0.029 C 
HETATM   15  C27 UNL     1     -11.137   6.481  14.643  1.00  0.00     0.016 C 
HETATM   16  C28 UNL     1      -9.193   7.659  13.496  1.00  0.00     0.006 C 
HETATM   17  C29 UNL     1      -9.235   6.723  12.271  1.00  0.00     0.038 C 
HETATM   18  C30 UNL     1      -8.501   5.385  12.412  1.00  0.00     0.124 C 
HETATM   19  C31 UNL     1      -7.020   5.581  12.799  1.00  0.00     0.034 C 
HETATM   20  C32 UNL     1      -6.138   4.275  12.750  1.00  0.00    -0.015 C 
HETATM   21  C33 UNL     1      -6.761   3.050  13.465  1.00  0.00     0.018 C 
HETATM   22  C34 UNL     1      -5.961   3.849  11.261  1.00  0.00     0.018 C 
ENDROOT
BRANCH   1  23
HETATM   23  O3  UNL     1      -4.004   5.405  12.437  1.00  0.00    -0.352 OA
BRANCH  23  24
HETATM   24  C4  UNL     1      -2.923   4.746  11.766  1.00  0.00     0.292 C 
HETATM   25  C3  UNL     1      -1.606   5.360  12.292  1.00  0.00     0.218 C 
HETATM   26  C37 UNL     1      -0.391   4.550  11.787  1.00  0.00     0.183 C 
HETATM   27  C36 UNL     1      -0.600   3.037  11.897  1.00  0.00     0.173 C 
HETATM   28  C35 UNL     1      -1.954   2.640  11.325  1.00  0.00     0.205 C 
HETATM   29  O8  UNL     1      -2.995   3.345  11.990  1.00  0.00    -0.356 OA
BRANCH  25  30
HETATM   30  O2  UNL     1      -1.554   6.721  11.750  1.00  0.00    -0.309 OA
BRANCH  30  31
HETATM   31  C2  UNL     1      -1.389   7.747  12.618  1.00  0.00     0.255 C 
HETATM   32  C1  UNL     1      -2.560   8.674  12.542  1.00  0.00     0.126 C 
HETATM   33  O1  UNL     1      -0.417   7.903  13.345  1.00  0.00    -0.266 OA
ENDBRANCH  30  31
ENDBRANCH  25  30
BRANCH  26  34
HETATM   34  O10 UNL     1       0.828   4.865  12.492  1.00  0.00    -0.390 OA
HETATM   35  H60 UNL     1       0.740   5.758  12.882  1.00  0.00     0.210 HD
ENDBRANCH  26  34
BRANCH  27  36
HETATM   36  O9  UNL     1       0.429   2.365  11.161  1.00  0.00    -0.391 OA
HETATM   37  H58 UNL     1       1.235   2.406  11.722  1.00  0.00     0.210 HD
ENDBRANCH  27  36
ENDBRANCH  23  24
ENDBRANCH   1  23
BRANCH  18  38
HETATM   38  O7  UNL     1      -9.193   4.544  13.326  1.00  0.00    -0.395 OA
HETATM   39  H47 UNL     1      -9.991   4.244  12.869  1.00  0.00     0.210 HD
ENDBRANCH  18  38
BRANCH  11  40
HETATM   40  C16 UNL     1     -12.307  10.381  16.680  1.00  0.00     0.065 C 
HETATM   41  C17 UNL     1     -13.357  11.399  16.195  1.00  0.00     0.046 C 
HETATM   42  C18 UNL     1     -11.075  11.124  17.216  1.00  0.00     0.041 C 
HETATM   43  C19 UNL     1     -11.523  11.605  18.578  1.00  0.00     0.038 C 
HETATM   44  C20 UNL     1     -12.467  10.499  19.057  1.00  0.00     0.156 C 
HETATM   45  O5  UNL     1     -12.840   9.740  17.879  1.00  0.00    -0.372 OA
BRANCH  44  46
HETATM   46  C21 UNL     1     -11.879   9.537  20.125  1.00  0.00     0.076 C 
HETATM   47  C22 UNL     1     -11.010  10.270  21.157  1.00  0.00     0.048 C 
HETATM   48  C23 UNL     1     -12.995   8.776  20.854  1.00  0.00     0.048 C 
BRANCH  46  49
HETATM   49  O4  UNL     1     -11.047   8.559  19.485  1.00  0.00    -0.388 OA
HETATM   50  H35 UNL     1     -11.630   8.084  18.853  1.00  0.00     0.210 HD
ENDBRANCH  46  49
ENDBRANCH  44  46
ENDBRANCH  11  40
BRANCH  12  51
HETATM   51  O6  UNL     1     -13.043  10.423  13.808  1.00  0.00    -0.395 OA
HETATM   52  H37 UNL     1     -13.656  10.268  13.065  1.00  0.00     0.210 HD
ENDBRANCH  12  51
TORSDOF 11
ENDMDL
MODEL 3
REMARK minimizedAffinity -9.260499
REMARK CNNscore 0.597223282
REMARK CNNaffinity 7.3013835
REMARK  11 active torsions:
REMARK  status: ('A' for Active; 'I' for Inactive)
REMARK    1  A    between atoms: C2_2  and  O2_4 
REMARK    2  A    between atoms: O2_4  and  C3_5 
REMARK    3  A    between atoms: C4_6  and  O3_7 
REMARK    4  A    between atoms: O3_7  and  C5_8 
REMARK    5  A    between atoms: C15_18  and  C16_19 
REMARK    6  A    between atoms: C20_23  and  C21_24 
REMARK    7  A    between atoms: C21_24  and  O4_27 
REMARK    8  A    between atoms: C24_29  and  O6_30 
REMARK    9  A    between atoms: C30_36  and  O7_37 
REMARK   10  A    between atoms: C36_44  and  O9_45 
REMARK   11  A    between atoms: C37_46  and  O10_47 
ROOT
HETATM    1  C5  UNL     1       0.608   5.047  11.418  1.00  0.00     0.133 C 
HETATM    2  C6  UNL     1       1.534   5.630  12.494  1.00  0.00     0.034 C 
HETATM    3  C7  UNL     1       0.829   6.325  13.646  1.00  0.00     0.013 C 
HETATM    4  C8  UNL     1      -0.298   7.221  13.166  1.00  0.00    -0.025 A 
HETATM    5  C9  UNL     1       0.096   8.643  12.841  1.00  0.00     0.021 A 
HETATM    6  C10 UNL     1      -0.775   8.407  14.063  1.00  0.00    -0.027 A 
HETATM    7  C11 UNL     1      -0.057   8.577  15.420  1.00  0.00     0.011 C 
HETATM    8  C12 UNL     1      -0.681   9.448  16.518  1.00  0.00     0.011 C 
HETATM    9  C13 UNL     1      -1.820  10.338  16.039  1.00  0.00    -0.028 C 
HETATM   10  C14 UNL     1      -1.204  11.478  15.198  1.00  0.00     0.016 C 
HETATM   11  C15 UNL     1      -2.728  10.944  17.165  1.00  0.00     0.057 C 
HETATM   12  C24 UNL     1      -4.119  11.112  16.471  1.00  0.00     0.126 C 
HETATM   13  C25 UNL     1      -4.039  10.348  15.135  1.00  0.00     0.042 C 
HETATM   14  C26 UNL     1      -2.827   9.413  15.261  1.00  0.00    -0.029 C 
HETATM   15  C27 UNL     1      -3.289   8.161  16.064  1.00  0.00     0.016 C 
HETATM   16  C28 UNL     1      -2.205   8.979  13.910  1.00  0.00     0.006 C 
HETATM   17  C29 UNL     1      -3.142   8.139  13.017  1.00  0.00     0.038 C 
HETATM   18  C30 UNL     1      -2.748   6.674  12.804  1.00  0.00     0.124 C 
HETATM   19  C31 UNL     1      -1.319   6.543  12.235  1.00  0.00     0.034 C 
HETATM   20  C32 UNL     1      -0.913   5.089  11.779  1.00  0.00    -0.015 C 
HETATM   21  C33 UNL     1      -1.223   3.979  12.815  1.00  0.00     0.018 C 
HETATM   22  C34 UNL     1      -1.733   4.719  10.506  1.00  0.00     0.018 C 
ENDROOT
BRANCH   1  23
HETATM   23  O3  UNL     1       0.800   5.775  10.192  1.00  0.00    -0.352 OA
BRANCH  23  24
HETATM   24  C4  UNL     1       2.175   5.965   9.836  1.00  0.00     0.292 C 
HETATM   25  C3  UNL     1       2.521   7.449  10.095  1.00  0.00     0.218 C 
HETATM   26  C37 UNL     1       4.041   7.684   9.953  1.00  0.00     0.183 C 
HETATM   27  C36 UNL     1       4.877   6.597  10.637  1.00  0.00     0.173 C 
HETATM   28  C35 UNL     1       4.373   5.213  10.252  1.00  0.00     0.205 C 
HETATM   29  O8  UNL     1       2.997   5.080  10.584  1.00  0.00    -0.356 OA
BRANCH  25  30
HETATM   30  O2  UNL     1       1.804   8.212   9.070  1.00  0.00    -0.309 OA
BRANCH  30  31
HETATM   31  C2  UNL     1       2.392   8.363   7.859  1.00  0.00     0.255 C 
HETATM   32  C1  UNL     1       1.878   7.329   6.910  1.00  0.00     0.126 C 
HETATM   33  O1  UNL     1       3.232   9.210   7.587  1.00  0.00    -0.266 OA
ENDBRANCH  30  31
ENDBRANCH  25  30
BRANCH  26  34
HETATM   34  O10 UNL     1       4.469   8.953  10.491  1.00  0.00    -0.390 OA
HETATM   35  H60 UNL     1       3.701   9.558  10.505  1.00  0.00     0.210 HD
ENDBRANCH  26  34
BRANCH  27  36
HETATM   36  O9  UNL     1       6.242   6.725  10.227  1.00  0.00    -0.391 OA
HETATM   37  H58 UNL     1       6.609   7.482  10.735  1.00  0.00     0.210 HD
ENDBRANCH  27  36
ENDBRANCH  23  24
ENDBRANCH   1  23
BRANCH  18  38
HETATM   38  O7  UNL     1      -2.919   5.943  14.011  1.00  0.00    -0.395 OA
HETATM   39  H47 UNL     1      -3.873   5.838  14.132  1.00  0.00     0.210 HD
ENDBRANCH  18  38
BRANCH  11  40
HETATM   40  C16 UNL     1      -2.242  12.099  18.094  1.00  0.00     0.065 C 
HETATM   41  C17 UNL     1      -3.310  12.897  18.868  1.00  0.00     0.046 C 
HETATM   42  C18 UNL     1      -1.306  13.068  17.356  1.00  0.00     0.041 C 
HETATM   43  C19 UNL     1      -0.405  13.585  18.454  1.00  0.00     0.038 C 
HETATM   44  C20 UNL     1      -0.268  12.391  19.401  1.00  0.00     0.156 C 
HETATM   45  O5  UNL     1      -1.356  11.486  19.079  1.00  0.00    -0.372 OA
BRANCH  44  46
HETATM   46  C21 UNL     1       1.081  11.625  19.318  1.00  0.00     0.076 C 
HETATM   47  C22 UNL     1       2.162  12.425  18.577  1.00  0.00     0.048 C 
HETATM   48  C23 UNL     1       1.594  11.260  20.719  1.00  0.00     0.048 C 
BRANCH  46  49
HETATM   49  O4  UNL     1       0.893  10.396  18.602  1.00  0.00    -0.388 OA
HETATM   50  H35 UNL     1       0.221   9.891  19.110  1.00  0.00     0.210 HD
ENDBRANCH  46  49
ENDBRANCH  44  46
ENDBRANCH  11  40
BRANCH  12  51
HETATM   51  O6  UNL     1      -4.499  12.449  16.202  1.00  0.00    -0.395 OA
HETATM   52  H37 UNL     1      -5.447  12.464  15.974  1.00  0.00     0.210 HD
ENDBRANCH  12  51
TORSDOF 11
ENDMDL
MODEL 4
REMARK minimizedAffinity -9.59563637
REMARK CNNscore 0.581301332
REMARK CNNaffinity 7.46407461
REMARK  11 active torsions:
REMARK  status: ('A' for Active; 'I' for Inactive)
REMARK    1  A    between atoms: C2_2  and  O2_4 
REMARK    2  A    between atoms: O2_4  and  C3_5 
REMARK    3  A    between atoms: C4_6  and  O3_7 
REMARK    4  A    between atoms: O3_7  and  C5_8 
REMARK    5  A    between atoms: C15_18  and  C16_19 
REMARK    6  A    between atoms: C20_23  and  C21_24 
REMARK    7  A    between atoms: C21_24  and  O4_27 
REMARK    8  A    between atoms: C24_29  and  O6_30 
REMARK    9  A    between atoms: C30_36  and  O7_37 
REMARK   10  A    between atoms: C36_44  and  O9_45 
REMARK   11  A    between atoms: C37_46  and  O10_47 
ROOT
HETATM    1  C5  UNL     1      -7.861   6.268  14.624  1.00  0.00     0.133 C 
HETATM    2  C6  UNL     1      -7.270   5.668  13.341  1.00  0.00     0.034 C 
HETATM    3  C7  UNL     1      -5.752   5.622  13.289  1.00  0.00     0.013 C 
HETATM    4  C8  UNL     1      -5.126   6.914  13.781  1.00  0.00    -0.025 A 
HETATM    5  C9  UNL     1      -4.910   7.974  12.728  1.00  0.00     0.021 A 
HETATM    6  C10 UNL     1      -3.685   7.297  13.320  1.00  0.00    -0.027 A 
HETATM    7  C11 UNL     1      -2.973   6.298  12.381  1.00  0.00     0.011 C 
HETATM    8  C12 UNL     1      -1.456   6.381  12.175  1.00  0.00     0.011 C 
HETATM    9  C13 UNL     1      -0.825   7.672  12.682  1.00  0.00    -0.028 C 
HETATM   10  C14 UNL     1      -1.227   8.804  11.710  1.00  0.00     0.016 C 
HETATM   11  C15 UNL     1       0.734   7.647  12.847  1.00  0.00     0.057 C 
HETATM   12  C24 UNL     1       1.001   8.664  14.005  1.00  0.00     0.126 C 
HETATM   13  C25 UNL     1      -0.368   8.984  14.634  1.00  0.00     0.042 C 
HETATM   14  C26 UNL     1      -1.314   7.869  14.164  1.00  0.00    -0.029 C 
HETATM   15  C27 UNL     1      -1.069   6.635  15.083  1.00  0.00     0.016 C 
HETATM   16  C28 UNL     1      -2.816   8.251  14.174  1.00  0.00     0.006 C 
HETATM   17  C29 UNL     1      -3.385   8.559  15.575  1.00  0.00     0.038 C 
HETATM   18  C30 UNL     1      -4.413   7.565  16.126  1.00  0.00     0.124 C 
HETATM   19  C31 UNL     1      -5.607   7.384  15.167  1.00  0.00     0.034 C 
HETATM   20  C32 UNL     1      -6.813   6.552  15.749  1.00  0.00    -0.015 C 
HETATM   21  C33 UNL     1      -6.408   5.215  16.420  1.00  0.00     0.018 C 
HETATM   22  C34 UNL     1      -7.504   7.392  16.866  1.00  0.00     0.018 C 
ENDROOT
BRANCH   1  23
HETATM   23  O3  UNL     1      -8.522   7.505  14.300  1.00  0.00    -0.352 OA
BRANCH  23  24
HETATM   24  C4  UNL     1      -9.925   7.509  14.589  1.00  0.00     0.292 C 
HETATM   25  C3  UNL     1     -10.419   8.969  14.475  1.00  0.00     0.218 C 
HETATM   26  C37 UNL     1     -11.961   9.027  14.548  1.00  0.00     0.183 C 
HETATM   27  C36 UNL     1     -12.637   7.946  13.698  1.00  0.00     0.173 C 
HETATM   28  C35 UNL     1     -12.004   6.586  13.958  1.00  0.00     0.205 C 
HETATM   29  O8  UNL     1     -10.606   6.636  13.699  1.00  0.00    -0.356 OA
BRANCH  25  30
HETATM   30  O2  UNL     1      -9.842   9.678  15.620  1.00  0.00    -0.309 OA
BRANCH  30  31
HETATM   31  C2  UNL     1      -9.998  11.022  15.684  1.00  0.00     0.255 C 
HETATM   32  C1  UNL     1     -10.442  11.420  17.055  1.00  0.00     0.126 C 
HETATM   33  O1  UNL     1      -9.819  11.794  14.752  1.00  0.00    -0.266 OA
ENDBRANCH  30  31
ENDBRANCH  25  30
BRANCH  26  34
HETATM   34  O10 UNL     1     -12.498  10.298  14.129  1.00  0.00    -0.390 OA
HETATM   35  H60 UNL     1     -11.802  10.978  14.229  1.00  0.00     0.210 HD
ENDBRANCH  26  34
BRANCH  27  36
HETATM   36  O9  UNL     1     -14.027   7.883  14.035  1.00  0.00    -0.391 OA
HETATM   37  H58 UNL     1     -14.449   8.652  13.592  1.00  0.00     0.210 HD
ENDBRANCH  27  36
ENDBRANCH  23  24
ENDBRANCH   1  23
BRANCH  18  38
HETATM   38  O7  UNL     1      -3.778   6.331  16.438  1.00  0.00    -0.395 OA
HETATM   39  H47 UNL     1      -3.259   6.488  17.239  1.00  0.00     0.210 HD
ENDBRANCH  18  38
BRANCH  11  40
HETATM   40  C16 UNL     1       1.701   7.678  11.624  1.00  0.00     0.065 C 
HETATM   41  C17 UNL     1       1.184   8.301  10.313  1.00  0.00     0.046 C 
HETATM   42  C18 UNL     1       2.301   6.293  11.337  1.00  0.00     0.041 C 
HETATM   43  C19 UNL     1       3.647   6.615  10.730  1.00  0.00     0.038 C 
HETATM   44  C20 UNL     1       4.070   7.897  11.452  1.00  0.00     0.156 C 
HETATM   45  O5  UNL     1       2.867   8.450  12.045  1.00  0.00    -0.372 OA
BRANCH  44  46
HETATM   46  C21 UNL     1       5.151   7.716  12.553  1.00  0.00     0.076 C 
HETATM   47  C22 UNL     1       6.151   6.601  12.213  1.00  0.00     0.048 C 
HETATM   48  C23 UNL     1       5.917   9.025  12.793  1.00  0.00     0.048 C 
BRANCH  46  49
HETATM   49  O4  UNL     1       4.520   7.360  13.791  1.00  0.00    -0.388 OA
HETATM   50  H35 UNL     1       3.910   8.099  14.003  1.00  0.00     0.210 HD
ENDBRANCH  46  49
ENDBRANCH  44  46
ENDBRANCH  11  40
BRANCH  12  51
HETATM   51  O6  UNL     1       1.609   9.879  13.609  1.00  0.00    -0.395 OA
HETATM   52  H37 UNL     1       1.925  10.344  14.406  1.00  0.00     0.210 HD
ENDBRANCH  12  51
TORSDOF 11
ENDMDL
MODEL 5
REMARK minimizedAffinity -9.7248373
REMARK CNNscore 0.579272449
REMARK CNNaffinity 7.63742781
REMARK  11 active torsions:
REMARK  status: ('A' for Active; 'I' for Inactive)
REMARK    1  A    between atoms: C2_2  and  O2_4 
REMARK    2  A    between atoms: O2_4  and  C3_5 
REMARK    3  A    between atoms: C4_6  and  O3_7 
REMARK    4  A    between atoms: O3_7  and  C5_8 
REMARK    5  A    between atoms: C15_18  and  C16_19 
REMARK    6  A    between atoms: C20_23  and  C21_24 
REMARK    7  A    between atoms: C21_24  and  O4_27 
REMARK    8  A    between atoms: C24_29  and  O6_30 
REMARK    9  A    between atoms: C30_36  and  O7_37 
REMARK   10  A    between atoms: C36_44  and  O9_45 
REMARK   11  A    between atoms: C37_46  and  O10_47 
ROOT
HETATM    1  C5  UNL     1       2.647   6.542  11.243  1.00  0.00     0.133 C 
HETATM    2  C6  UNL     1       1.694   5.340  11.225  1.00  0.00     0.034 C 
HETATM    3  C7  UNL     1       0.229   5.671  11.455  1.00  0.00     0.013 C 
HETATM    4  C8  UNL     1       0.042   6.665  12.587  1.00  0.00    -0.025 A 
HETATM    5  C9  UNL     1      -0.107   6.062  13.963  1.00  0.00     0.021 A 
HETATM    6  C10 UNL     1      -1.323   6.726  13.341  1.00  0.00    -0.027 A 
HETATM    7  C11 UNL     1      -2.423   5.755  12.856  1.00  0.00     0.011 C 
HETATM    8  C12 UNL     1      -3.885   5.984  13.259  1.00  0.00     0.011 C 
HETATM    9  C13 UNL     1      -4.074   6.991  14.385  1.00  0.00    -0.028 C 
HETATM   10  C14 UNL     1      -3.603   6.323  15.696  1.00  0.00     0.016 C 
HETATM   11  C15 UNL     1      -5.531   7.541  14.568  1.00  0.00     0.057 C 
HETATM   12  C24 UNL     1      -5.317   8.973  15.158  1.00  0.00     0.126 C 
HETATM   13  C25 UNL     1      -3.816   9.290  15.010  1.00  0.00     0.042 C 
HETATM   14  C26 UNL     1      -3.278   8.286  13.980  1.00  0.00    -0.029 C 
HETATM   15  C27 UNL     1      -3.635   8.835  12.567  1.00  0.00     0.016 C 
HETATM   16  C28 UNL     1      -1.755   8.017  14.077  1.00  0.00     0.006 C 
HETATM   17  C29 UNL     1      -0.871   9.249  13.789  1.00  0.00     0.038 C 
HETATM   18  C30 UNL     1      -0.030   9.199  12.509  1.00  0.00     0.124 C 
HETATM   19  C31 UNL     1       0.879   7.953  12.469  1.00  0.00     0.034 C 
HETATM   20  C32 UNL     1       1.934   7.933  11.298  1.00  0.00    -0.015 C 
HETATM   21  C33 UNL     1       1.353   8.265   9.901  1.00  0.00     0.018 C 
HETATM   22  C34 UNL     1       3.009   9.026  11.578  1.00  0.00     0.018 C 
ENDROOT
BRANCH   1  23
HETATM   23  O3  UNL     1       3.514   6.434  12.386  1.00  0.00    -0.352 OA
BRANCH  23  24
HETATM   24  C4  UNL     1       4.689   7.250  12.306  1.00  0.00     0.292 C 
HETATM   25  C3  UNL     1       5.058   7.677  13.745  1.00  0.00     0.218 C 
HETATM   26  C37 UNL     1       6.439   8.369  13.768  1.00  0.00     0.183 C 
HETATM   27  C36 UNL     1       7.484   7.637  12.920  1.00  0.00     0.173 C 
HETATM   28  C35 UNL     1       6.922   7.307  11.544  1.00  0.00     0.205 C 
HETATM   29  O8  UNL     1       5.736   6.531  11.670  1.00  0.00    -0.356 OA
BRANCH  25  30
HETATM   30  O2  UNL     1       4.021   8.626  14.159  1.00  0.00    -0.309 OA
BRANCH  30  31
HETATM   31  C2  UNL     1       3.687   8.675  15.471  1.00  0.00     0.255 C 
HETATM   32  C1  UNL     1       2.608   7.682  15.761  1.00  0.00     0.126 C 
HETATM   33  O1  UNL     1       4.184   9.433  16.294  1.00  0.00    -0.266 OA
ENDBRANCH  30  31
ENDBRANCH  25  30
BRANCH  26  34
HETATM   34  O10 UNL     1       6.983   8.499  15.098  1.00  0.00    -0.390 OA
HETATM   35  H60 UNL     1       6.245   8.465  15.739  1.00  0.00     0.210 HD
ENDBRANCH  26  34
BRANCH  27  36
HETATM   36  O9  UNL     1       8.634   8.475  12.763  1.00  0.00    -0.391 OA
HETATM   37  H58 UNL     1       9.125   8.424  13.612  1.00  0.00     0.210 HD
ENDBRANCH  27  36
ENDBRANCH  23  24
ENDBRANCH   1  23
BRANCH  18  38
HETATM   38  O7  UNL     1      -0.874   9.290  11.368  1.00  0.00    -0.395 OA
HETATM   39  H47 UNL     1      -1.177  10.208  11.328  1.00  0.00     0.210 HD
ENDBRANCH  18  38
BRANCH  11  40
HETATM   40  C16 UNL     1      -6.677   6.675  15.176  1.00  0.00     0.065 C 
HETATM   41  C17 UNL     1      -7.462   7.255  16.369  1.00  0.00     0.046 C 
HETATM   42  C18 UNL     1      -6.200   5.254  15.513  1.00  0.00     0.041 C 
HETATM   43  C19 UNL     1      -7.450   4.419  15.349  1.00  0.00     0.038 C 
HETATM   44  C20 UNL     1      -8.200   5.114  14.210  1.00  0.00     0.156 C 
HETATM   45  O5  UNL     1      -7.632   6.444  14.096  1.00  0.00    -0.372 OA
BRANCH  44  46
HETATM   46  C21 UNL     1      -8.126   4.402  12.832  1.00  0.00     0.076 C 
HETATM   47  C22 UNL     1      -8.594   5.305  11.681  1.00  0.00     0.048 C 
HETATM   48  C23 UNL     1      -6.700   3.912  12.541  1.00  0.00     0.048 C 
BRANCH  46  49
HETATM   49  O4  UNL     1      -8.977   3.247  12.841  1.00  0.00    -0.388 OA
HETATM   50  H35 UNL     1      -8.640   2.672  13.562  1.00  0.00     0.210 HD
ENDBRANCH  46  49
ENDBRANCH  44  46
ENDBRANCH  11  40
BRANCH  12  51
HETATM   51  O6  UNL     1      -5.676   9.121  16.519  1.00  0.00    -0.395 OA
HETATM   52  H37 UNL     1      -5.710  10.073  16.731  1.00  0.00     0.210 HD
ENDBRANCH  12  51
TORSDOF 11
ENDMDL
MODEL 6
REMARK minimizedAffinity -9.37142372
REMARK CNNscore 0.460073084
REMARK CNNaffinity 6.55986452
REMARK  11 active torsions:
REMARK  status: ('A' for Active; 'I' for Inactive)
REMARK    1  A    between atoms: C2_2  and  O2_4 
REMARK    2  A    between atoms: O2_4  and  C3_5 
REMARK    3  A    between atoms: C4_6  and  O3_7 
REMARK    4  A    between atoms: O3_7  and  C5_8 
REMARK    5  A    between atoms: C15_18  and  C16_19 
REMARK    6  A    between atoms: C20_23  and  C21_24 
REMARK    7  A    between atoms: C21_24  and  O4_27 
REMARK    8  A    between atoms: C24_29  and  O6_30 
REMARK    9  A    between atoms: C30_36  and  O7_37 
REMARK   10  A    between atoms: C36_44  and  O9_45 
REMARK   11  A    between atoms: C37_46  and  O10_47 
ROOT
HETATM    1  C5  UNL     1      -3.864   7.953  13.251  1.00  0.00     0.133 C 
HETATM    2  C6  UNL     1      -4.332   9.235  13.952  1.00  0.00     0.034 C 
HETATM    3  C7  UNL     1      -3.223  10.106  14.517  1.00  0.00     0.013 C 
HETATM    4  C8  UNL     1      -2.170   9.286  15.240  1.00  0.00    -0.025 A 
HETATM    5  C9  UNL     1      -2.428   9.047  16.709  1.00  0.00     0.021 A 
HETATM    6  C10 UNL     1      -1.279   9.964  16.328  1.00  0.00    -0.027 A 
HETATM    7  C11 UNL     1      -1.528  11.468  16.586  1.00  0.00     0.011 C 
HETATM    8  C12 UNL     1      -0.485  12.303  17.337  1.00  0.00     0.011 C 
HETATM    9  C13 UNL     1       0.579  11.482  18.052  1.00  0.00    -0.028 C 
HETATM   10  C14 UNL     1      -0.083  10.825  19.284  1.00  0.00     0.016 C 
HETATM   11  C15 UNL     1       1.859  12.270  18.499  1.00  0.00     0.057 C 
HETATM   12  C24 UNL     1       2.990  11.191  18.466  1.00  0.00     0.126 C 
HETATM   13  C25 UNL     1       2.406   9.963  17.741  1.00  0.00     0.042 C 
HETATM   14  C26 UNL     1       1.162  10.471  16.997  1.00  0.00    -0.029 C 
HETATM   15  C27 UNL     1       1.651  11.141  15.679  1.00  0.00     0.016 C 
HETATM   16  C28 UNL     1       0.110   9.378  16.681  1.00  0.00     0.006 C 
HETATM   17  C29 UNL     1       0.606   8.275  15.722  1.00  0.00     0.038 C 
HETATM   18  C30 UNL     1      -0.047   8.235  14.336  1.00  0.00     0.124 C 
HETATM   19  C31 UNL     1      -1.583   8.117  14.428  1.00  0.00     0.034 C 
HETATM   20  C32 UNL     1      -2.316   7.848  13.059  1.00  0.00    -0.015 C 
HETATM   21  C33 UNL     1      -1.880   8.780  11.901  1.00  0.00     0.018 C 
HETATM   22  C34 UNL     1      -1.975   6.402  12.587  1.00  0.00     0.018 C 
ENDROOT
BRANCH   1  23
HETATM   23  O3  UNL     1      -4.302   6.816  14.017  1.00  0.00    -0.352 OA
BRANCH  23  24
HETATM   24  C4  UNL     1      -5.717   6.773  14.239  1.00  0.00     0.292 C 
HETATM   25  C3  UNL     1      -6.076   5.332  14.670  1.00  0.00     0.218 C 
HETATM   26  C37 UNL     1      -7.544   5.259  15.147  1.00  0.00     0.183 C 
HETATM   27  C36 UNL     1      -7.929   6.425  16.063  1.00  0.00     0.173 C 
HETATM   28  C35 UNL     1      -7.485   7.750  15.458  1.00  0.00     0.205 C 
HETATM   29  O8  UNL     1      -6.084   7.737  15.216  1.00  0.00    -0.356 OA
BRANCH  25  30
HETATM   30  O2  UNL     1      -5.902   4.502  13.475  1.00  0.00    -0.309 OA
BRANCH  30  31
HETATM   31  C2  UNL     1      -6.997   4.214  12.732  1.00  0.00     0.255 C 
HETATM   32  C1  UNL     1      -7.233   2.738  12.720  1.00  0.00     0.126 C 
HETATM   33  O1  UNL     1      -7.683   5.039  12.143  1.00  0.00    -0.266 OA
ENDBRANCH  30  31
ENDBRANCH  25  30
BRANCH  26  34
HETATM   34  O10 UNL     1      -7.846   4.040  15.857  1.00  0.00    -0.390 OA
HETATM   35  H60 UNL     1      -7.198   3.357  15.591  1.00  0.00     0.210 HD
ENDBRANCH  26  34
BRANCH  27  36
HETATM   36  O9  UNL     1      -9.350   6.444  16.229  1.00  0.00    -0.391 OA
HETATM   37  H58 UNL     1      -9.559   5.728  16.869  1.00  0.00     0.210 HD
ENDBRANCH  27  36
ENDBRANCH  23  24
ENDBRANCH   1  23
BRANCH  18  38
HETATM   38  O7  UNL     1       0.365   9.360  13.571  1.00  0.00    -0.395 OA
HETATM   39  H47 UNL     1       1.285   9.197  13.322  1.00  0.00     0.210 HD
ENDBRANCH  18  38
BRANCH  11  40
HETATM   40  C16 UNL     1       1.847  13.264  19.701  1.00  0.00     0.065 C 
HETATM   41  C17 UNL     1       0.496  13.879  20.113  1.00  0.00     0.046 C 
HETATM   42  C18 UNL     1       2.891  14.377  19.529  1.00  0.00     0.041 C 
HETATM   43  C19 UNL     1       3.263  14.729  20.952  1.00  0.00     0.038 C 
HETATM   44  C20 UNL     1       3.153  13.395  21.693  1.00  0.00     0.156 C 
HETATM   45  O5  UNL     1       2.358  12.522  20.850  1.00  0.00    -0.372 OA
BRANCH  44  46
HETATM   46  C21 UNL     1       4.503  12.703  22.023  1.00  0.00     0.076 C 
HETATM   47  C22 UNL     1       5.380  13.547  22.960  1.00  0.00     0.048 C 
HETATM   48  C23 UNL     1       4.274  11.322  22.655  1.00  0.00     0.048 C 
BRANCH  46  49
HETATM   49  O4  UNL     1       5.247  12.497  20.814  1.00  0.00    -0.388 OA
HETATM   50  H35 UNL     1       4.680  11.931  20.245  1.00  0.00     0.210 HD
ENDBRANCH  46  49
ENDBRANCH  44  46
ENDBRANCH  11  40
BRANCH  12  51
HETATM   51  O6  UNL     1       3.467  10.780  19.734  1.00  0.00    -0.395 OA
HETATM   52  H37 UNL     1       4.296  10.281  19.609  1.00  0.00     0.210 HD
ENDBRANCH  12  51
TORSDOF 11
ENDMDL
MODEL 7
REMARK minimizedAffinity -8.85983372
REMARK CNNscore 0.450221896
REMARK CNNaffinity 6.60796928
REMARK  11 active torsions:
REMARK  status: ('A' for Active; 'I' for Inactive)
REMARK    1  A    between atoms: C2_2  and  O2_4 
REMARK    2  A    between atoms: O2_4  and  C3_5 
REMARK    3  A    between atoms: C4_6  and  O3_7 
REMARK    4  A    between atoms: O3_7  and  C5_8 
REMARK    5  A    between atoms: C15_18  and  C16_19 
REMARK    6  A    between atoms: C20_23  and  C21_24 
REMARK    7  A    between atoms: C21_24  and  O4_27 
REMARK    8  A    between atoms: C24_29  and  O6_30 
REMARK    9  A    between atoms: C30_36  and  O7_37 
REMARK   10  A    between atoms: C36_44  and  O9_45 
REMARK   11  A    between atoms: C37_46  and  O10_47 
ROOT
HETATM    1  C5  UNL     1      -2.087   6.407  13.895  1.00  0.00     0.133 C 
HETATM    2  C6  UNL     1      -0.842   6.617  14.767  1.00  0.00     0.034 C 
HETATM    3  C7  UNL     1      -0.987   7.662  15.861  1.00  0.00     0.013 C 
HETATM    4  C8  UNL     1      -1.682   8.916  15.360  1.00  0.00    -0.025 A 
HETATM    5  C9  UNL     1      -0.776   9.973  14.776  1.00  0.00     0.021 A 
HETATM    6  C10 UNL     1      -1.456  10.271  16.102  1.00  0.00    -0.027 A 
HETATM    7  C11 UNL     1      -0.527  10.234  17.336  1.00  0.00     0.011 C 
HETATM    8  C12 UNL     1      -0.535  11.394  18.339  1.00  0.00     0.011 C 
HETATM    9  C13 UNL     1      -1.243  12.647  17.843  1.00  0.00    -0.028 C 
HETATM   10  C14 UNL     1      -0.341  13.306  16.775  1.00  0.00     0.016 C 
HETATM   11  C15 UNL     1      -1.611  13.701  18.945  1.00  0.00     0.057 C 
HETATM   12  C24 UNL     1      -2.888  14.403  18.376  1.00  0.00     0.126 C 
HETATM   13  C25 UNL     1      -3.357  13.557  17.176  1.00  0.00     0.042 C 
HETATM   14  C26 UNL     1      -2.660  12.197  17.326  1.00  0.00    -0.029 C 
HETATM   15  C27 UNL     1      -3.478  11.368  18.359  1.00  0.00     0.016 C 
HETATM   16  C28 UNL     1      -2.507  11.402  16.005  1.00  0.00     0.006 C 
HETATM   17  C29 UNL     1      -3.843  10.986  15.355  1.00  0.00     0.038 C 
HETATM   18  C30 UNL     1      -4.153   9.486  15.337  1.00  0.00     0.124 C 
HETATM   19  C31 UNL     1      -3.030   8.676  14.655  1.00  0.00     0.034 C 
HETATM   20  C32 UNL     1      -3.364   7.157  14.397  1.00  0.00    -0.015 C 
HETATM   21  C33 UNL     1      -3.949   6.409  15.620  1.00  0.00     0.018 C 
HETATM   22  C34 UNL     1      -4.455   7.069  13.287  1.00  0.00     0.018 C 
ENDROOT
BRANCH   1  23
HETATM   23  O3  UNL     1      -1.800   6.849  12.556  1.00  0.00    -0.352 OA
BRANCH  23  24
HETATM   24  C4  UNL     1      -0.404   7.034  12.290  1.00  0.00     0.292 C 
HETATM   25  C3  UNL     1       0.031   5.930  11.299  1.00  0.00     0.218 C 
HETATM   26  C37 UNL     1       1.464   6.196  10.787  1.00  0.00     0.183 C 
HETATM   27  C36 UNL     1       1.698   7.663  10.412  1.00  0.00     0.173 C 
HETATM   28  C35 UNL     1       1.199   8.584  11.517  1.00  0.00     0.205 C 
HETATM   29  O8  UNL     1      -0.178   8.340  11.778  1.00  0.00    -0.356 OA
BRANCH  25  30
HETATM   30  O2  UNL     1       0.001   4.677  12.059  1.00  0.00    -0.309 OA
BRANCH  30  31
HETATM   31  C2  UNL     1      -0.511   3.577  11.456  1.00  0.00     0.255 C 
HETATM   32  C1  UNL     1      -1.901   3.855  10.981  1.00  0.00     0.126 C 
HETATM   33  O1  UNL     1       0.072   2.509  11.333  1.00  0.00    -0.266 OA
ENDBRANCH  30  31
ENDBRANCH  25  30
BRANCH  26  34
HETATM   34  O10 UNL     1       1.806   5.401   9.633  1.00  0.00    -0.390 OA
HETATM   35  H60 UNL     1       1.231   4.610   9.619  1.00  0.00     0.210 HD
ENDBRANCH  26  34
BRANCH  27  36
HETATM   36  O9  UNL     1       3.099   7.883  10.222  1.00  0.00    -0.391 OA
HETATM   37  H58 UNL     1       3.316   7.508   9.340  1.00  0.00     0.210 HD
ENDBRANCH  27  36
ENDBRANCH  23  24
ENDBRANCH   1  23
BRANCH  18  38
HETATM   38  O7  UNL     1      -4.426   9.029  16.656  1.00  0.00    -0.395 OA
HETATM   39  H47 UNL     1      -5.300   9.373  16.887  1.00  0.00     0.210 HD
ENDBRANCH  18  38
BRANCH  11  40
HETATM   40  C16 UNL     1      -0.537  14.603  19.626  1.00  0.00     0.065 C 
HETATM   41  C17 UNL     1      -1.028  15.799  20.465  1.00  0.00     0.046 C 
HETATM   42  C18 UNL     1       0.527  15.077  18.624  1.00  0.00     0.041 C 
HETATM   43  C19 UNL     1       1.764  15.236  19.479  1.00  0.00     0.038 C 
HETATM   44  C20 UNL     1       1.620  14.133  20.530  1.00  0.00     0.156 C 
HETATM   45  O5  UNL     1       0.227  13.730  20.514  1.00  0.00    -0.372 OA
BRANCH  44  46
HETATM   46  C21 UNL     1       2.519  12.885  20.313  1.00  0.00     0.076 C 
HETATM   47  C22 UNL     1       1.901  11.609  20.902  1.00  0.00     0.048 C 
HETATM   48  C23 UNL     1       2.804  12.665  18.820  1.00  0.00     0.048 C 
BRANCH  46  49
HETATM   49  O4  UNL     1       3.784  13.085  20.961  1.00  0.00    -0.388 OA
HETATM   50  H35 UNL     1       4.172  13.886  20.547  1.00  0.00     0.210 HD
ENDBRANCH  46  49
ENDBRANCH  44  46
ENDBRANCH  11  40
BRANCH  12  51
HETATM   51  O6  UNL     1      -2.696  15.736  17.939  1.00  0.00    -0.395 OA
HETATM   52  H37 UNL     1      -3.570  16.149  17.807  1.00  0.00     0.210 HD
ENDBRANCH  12  51
TORSDOF 11
ENDMDL
MODEL 8
REMARK minimizedAffinity -8.01657295
REMARK CNNscore 0.40653348
REMARK CNNaffinity 7.20793295
REMARK  11 active torsions:
REMARK  status: ('A' for Active; 'I' for Inactive)
REMARK    1  A    between atoms: C2_2  and  O2_4 
REMARK    2  A    between atoms: O2_4  and  C3_5 
REMARK    3  A    between atoms: C4_6  and  O3_7 
REMARK    4  A    between atoms: O3_7  and  C5_8 
REMARK    5  A    between atoms: C15_18  and  C16_19 
REMARK    6  A    between atoms: C20_23  and  C21_24 
REMARK    7  A    between atoms: C21_24  and  O4_27 
REMARK    8  A    between atoms: C24_29  and  O6_30 
REMARK    9  A    between atoms: C30_36  and  O7_37 
REMARK   10  A    between atoms: C36_44  and  O9_45 
REMARK   11  A    between atoms: C37_46  and  O10_47 
ROOT
HETATM    1  C5  UNL     1     -12.385  10.720  16.228  1.00  0.00     0.133 C 
HETATM    2  C6  UNL     1     -10.928  11.154  16.434  1.00  0.00     0.034 C 
HETATM    3  C7  UNL     1      -9.908  10.425  15.576  1.00  0.00     0.013 C 
HETATM    4  C8  UNL     1     -10.168   8.930  15.529  1.00  0.00    -0.025 A 
HETATM    5  C9  UNL     1      -9.503   8.120  16.617  1.00  0.00     0.021 A 
HETATM    6  C10 UNL     1      -8.997   7.954  15.195  1.00  0.00    -0.027 A 
HETATM    7  C11 UNL     1      -7.622   8.598  14.910  1.00  0.00     0.011 C 
HETATM    8  C12 UNL     1      -6.520   7.788  14.216  1.00  0.00     0.011 C 
HETATM    9  C13 UNL     1      -6.787   6.290  14.157  1.00  0.00    -0.028 C 
HETATM   10  C14 UNL     1      -6.593   5.722  15.581  1.00  0.00     0.016 C 
HETATM   11  C15 UNL     1      -5.906   5.482  13.143  1.00  0.00     0.057 C 
HETATM   12  C24 UNL     1      -6.819   4.281  12.732  1.00  0.00     0.126 C 
HETATM   13  C25 UNL     1      -8.230   4.600  13.262  1.00  0.00     0.042 C 
HETATM   14  C26 UNL     1      -8.232   6.106  13.563  1.00  0.00    -0.029 C 
HETATM   15  C27 UNL     1      -8.464   6.848  12.214  1.00  0.00     0.016 C 
HETATM   16  C28 UNL     1      -9.289   6.553  14.605  1.00  0.00     0.006 C 
HETATM   17  C29 UNL     1     -10.751   6.331  14.165  1.00  0.00     0.038 C 
HETATM   18  C30 UNL     1     -11.582   7.592  13.904  1.00  0.00     0.124 C 
HETATM   19  C31 UNL     1     -11.600   8.530  15.129  1.00  0.00     0.034 C 
HETATM   20  C32 UNL     1     -12.606   9.740  15.029  1.00  0.00    -0.015 C 
HETATM   21  C33 UNL     1     -12.529  10.533  13.700  1.00  0.00     0.018 C 
HETATM   22  C34 UNL     1     -14.061   9.187  15.107  1.00  0.00     0.018 C 
ENDROOT
BRANCH   1  23
HETATM   23  O3  UNL     1     -12.856  10.080  17.427  1.00  0.00    -0.352 OA
BRANCH  23  24
HETATM   24  C4  UNL     1     -13.738  10.890  18.213  1.00  0.00     0.292 C 
HETATM   25  C3  UNL     1     -13.118  11.021  19.623  1.00  0.00     0.218 C 
HETATM   26  C37 UNL     1     -13.890  12.064  20.460  1.00  0.00     0.183 C 
HETATM   27  C36 UNL     1     -14.214  13.336  19.672  1.00  0.00     0.173 C 
HETATM   28  C35 UNL     1     -14.813  12.989  18.316  1.00  0.00     0.205 C 
HETATM   29  O8  UNL     1     -13.925  12.151  17.586  1.00  0.00    -0.356 OA
BRANCH  25  30
HETATM   30  O2  UNL     1     -13.245   9.697  20.239  1.00  0.00    -0.309 OA
BRANCH  30  31
HETATM   31  C2  UNL     1     -12.216   9.244  20.995  1.00  0.00     0.255 C 
HETATM   32  C1  UNL     1     -12.730   8.723  22.299  1.00  0.00     0.126 C 
HETATM   33  O1  UNL     1     -11.037   9.272  20.666  1.00  0.00    -0.266 OA
ENDBRANCH  30  31
ENDBRANCH  25  30
BRANCH  26  34
HETATM   34  O10 UNL     1     -13.181  12.467  21.651  1.00  0.00    -0.390 OA
HETATM   35  H60 UNL     1     -12.546  11.762  21.888  1.00  0.00     0.210 HD
ENDBRANCH  26  34
BRANCH  27  36
HETATM   36  O9  UNL     1     -15.158  14.120  20.410  1.00  0.00    -0.391 OA
HETATM   37  H58 UNL     1     -14.647  14.560  21.124  1.00  0.00     0.210 HD
ENDBRANCH  27  36
ENDBRANCH  23  24
ENDBRANCH   1  23
BRANCH  18  38
HETATM   38  O7  UNL     1     -11.119   8.245  12.729  1.00  0.00    -0.395 OA
HETATM   39  H47 UNL     1     -11.411   7.702  11.984  1.00  0.00     0.210 HD
ENDBRANCH  18  38
BRANCH  11  40
HETATM   40  C16 UNL     1      -4.398   5.182  13.405  1.00  0.00     0.065 C 
HETATM   41  C17 UNL     1      -3.877   3.770  13.076  1.00  0.00     0.046 C 
HETATM   42  C18 UNL     1      -3.981   5.568  14.832  1.00  0.00     0.041 C 
HETATM   43  C19 UNL     1      -2.520   5.929  14.683  1.00  0.00     0.038 C 
HETATM   44  C20 UNL     1      -2.443   6.543  13.283  1.00  0.00     0.156 C 
HETATM   45  O5  UNL     1      -3.645   6.128  12.586  1.00  0.00    -0.372 OA
BRANCH  44  46
HETATM   46  C21 UNL     1      -2.331   8.092  13.240  1.00  0.00     0.076 C 
HETATM   47  C22 UNL     1      -1.198   8.572  12.322  1.00  0.00     0.048 C 
HETATM   48  C23 UNL     1      -3.653   8.726  12.784  1.00  0.00     0.048 C 
BRANCH  46  49
HETATM   49  O4  UNL     1      -2.054   8.590  14.557  1.00  0.00    -0.388 OA
HETATM   50  H35 UNL     1      -2.805   8.298  15.117  1.00  0.00     0.210 HD
ENDBRANCH  46  49
ENDBRANCH  44  46
ENDBRANCH  11  40
BRANCH  12  51
HETATM   51  O6  UNL     1      -6.422   3.021  13.240  1.00  0.00    -0.395 OA
HETATM   52  H37 UNL     1      -6.912   2.324  12.765  1.00  0.00     0.210 HD
ENDBRANCH  12  51
TORSDOF 11
ENDMDL
MODEL 9
REMARK minimizedAffinity -9.48089504
REMARK CNNscore 0.309470206
REMARK CNNaffinity 6.75400543
REMARK  11 active torsions:
REMARK  status: ('A' for Active; 'I' for Inactive)
REMARK    1  A    between atoms: C2_2  and  O2_4 
REMARK    2  A    between atoms: O2_4  and  C3_5 
REMARK    3  A    between atoms: C4_6  and  O3_7 
REMARK    4  A    between atoms: O3_7  and  C5_8 
REMARK    5  A    between atoms: C15_18  and  C16_19 
REMARK    6  A    between atoms: C20_23  and  C21_24 
REMARK    7  A    between atoms: C21_24  and  O4_27 
REMARK    8  A    between atoms: C24_29  and  O6_30 
REMARK    9  A    between atoms: C30_36  and  O7_37 
REMARK   10  A    between atoms: C36_44  and  O9_45 
REMARK   11  A    between atoms: C37_46  and  O10_47 
ROOT
HETATM    1  C5  UNL     1      -4.064   6.369  14.200  1.00  0.00     0.133 C 
HETATM    2  C6  UNL     1      -2.993   5.461  14.817  1.00  0.00     0.034 C 
HETATM    3  C7  UNL     1      -1.605   6.072  14.914  1.00  0.00     0.013 C 
HETATM    4  C8  UNL     1      -1.217   6.808  13.644  1.00  0.00    -0.025 A 
HETATM    5  C9  UNL     1      -0.534   5.970  12.590  1.00  0.00     0.021 A 
HETATM    6  C10 UNL     1       0.292   7.023  13.308  1.00  0.00    -0.027 A 
HETATM    7  C11 UNL     1       1.312   6.471  14.330  1.00  0.00     0.011 C 
HETATM    8  C12 UNL     1       2.769   6.946  14.296  1.00  0.00     0.011 C 
HETATM    9  C13 UNL     1       3.155   7.695  13.028  1.00  0.00    -0.028 C 
HETATM   10  C14 UNL     1       3.249   6.663  11.882  1.00  0.00     0.016 C 
HETATM   11  C15 UNL     1       4.486   8.521  13.105  1.00  0.00     0.057 C 
HETATM   12  C24 UNL     1       4.254   9.695  12.099  1.00  0.00     0.126 C 
HETATM   13  C25 UNL     1       2.757   9.673  11.735  1.00  0.00     0.042 C 
HETATM   14  C26 UNL     1       2.077   8.822  12.817  1.00  0.00    -0.029 C 
HETATM   15  C27 UNL     1       1.862   9.736  14.059  1.00  0.00     0.016 C 
HETATM   16  C28 UNL     1       0.731   8.185  12.385  1.00  0.00     0.006 C 
HETATM   17  C29 UNL     1      -0.380   9.205  12.060  1.00  0.00     0.038 C 
HETATM   18  C30 UNL     1      -1.574   9.239  13.020  1.00  0.00     0.124 C 
HETATM   19  C31 UNL     1      -2.238   7.854  13.160  1.00  0.00     0.034 C 
HETATM   20  C32 UNL     1      -3.601   7.842  13.952  1.00  0.00    -0.015 C 
HETATM   21  C33 UNL     1      -3.567   8.601  15.302  1.00  0.00     0.018 C 
HETATM   22  C34 UNL     1      -4.684   8.561  13.091  1.00  0.00     0.018 C 
ENDROOT
BRANCH   1  23
HETATM   23  O3  UNL     1      -4.482   5.810  12.941  1.00  0.00    -0.352 OA
BRANCH  23  24
HETATM   24  C4  UNL     1      -4.982   4.470  13.036  1.00  0.00     0.292 C 
HETATM   25  C3  UNL     1      -6.506   4.559  13.280  1.00  0.00     0.218 C 
HETATM   26  C37 UNL     1      -7.154   3.162  13.167  1.00  0.00     0.183 C 
HETATM   27  C36 UNL     1      -6.641   2.364  11.964  1.00  0.00     0.173 C 
HETATM   28  C35 UNL     1      -5.120   2.404  11.905  1.00  0.00     0.205 C 
HETATM   29  O8  UNL     1      -4.664   3.750  11.853  1.00  0.00    -0.356 OA
BRANCH  25  30
HETATM   30  O2  UNL     1      -6.663   5.070  14.645  1.00  0.00    -0.309 OA
BRANCH  30  31
HETATM   31  C2  UNL     1      -7.681   5.928  14.891  1.00  0.00     0.255 C 
HETATM   32  C1  UNL     1      -7.606   6.419  16.301  1.00  0.00     0.126 C 
HETATM   33  O1  UNL     1      -8.546   6.243  14.083  1.00  0.00    -0.266 OA
ENDBRANCH  30  31
ENDBRANCH  25  30
BRANCH  26  34
HETATM   34  O10 UNL     1      -8.593   3.215  13.062  1.00  0.00    -0.390 OA
HETATM   35  H60 UNL     1      -8.901   4.062  13.441  1.00  0.00     0.210 HD
ENDBRANCH  26  34
BRANCH  27  36
HETATM   36  O9  UNL     1      -7.065   1.002  12.087  1.00  0.00    -0.391 OA
HETATM   37  H58 UNL     1      -8.014   0.989  11.831  1.00  0.00     0.210 HD
ENDBRANCH  27  36
ENDBRANCH  23  24
ENDBRANCH   1  23
BRANCH  18  38
HETATM   38  O7  UNL     1      -1.175   9.777  14.275  1.00  0.00    -0.395 OA
HETATM   39  H47 UNL     1      -1.050  10.726  14.136  1.00  0.00     0.210 HD
ENDBRANCH  18  38
BRANCH  11  40
HETATM   40  C16 UNL     1       5.889   7.840  13.105  1.00  0.00     0.065 C 
HETATM   41  C17 UNL     1       6.102   6.632  12.172  1.00  0.00     0.046 C 
HETATM   42  C18 UNL     1       6.349   7.482  14.526  1.00  0.00     0.041 C 
HETATM   43  C19 UNL     1       7.855   7.569  14.437  1.00  0.00     0.038 C 
HETATM   44  C20 UNL     1       8.092   8.694  13.428  1.00  0.00     0.156 C 
HETATM   45  O5  UNL     1       6.844   8.871  12.710  1.00  0.00    -0.372 OA
BRANCH  44  46
HETATM   46  C21 UNL     1       8.534  10.053  14.037  1.00  0.00     0.076 C 
HETATM   47  C22 UNL     1       9.896  10.519  13.503  1.00  0.00     0.048 C 
HETATM   48  C23 UNL     1       7.486  11.144  13.767  1.00  0.00     0.048 C 
BRANCH  46  49
HETATM   49  O4  UNL     1       8.654   9.926  15.461  1.00  0.00    -0.388 OA
HETATM   50  H35 UNL     1       7.766   9.658  15.782  1.00  0.00     0.210 HD
ENDBRANCH  46  49
ENDBRANCH  44  46
ENDBRANCH  11  40
BRANCH  12  51
HETATM   51  O6  UNL     1       5.009   9.622  10.904  1.00  0.00    -0.395 OA
HETATM   52  H37 UNL     1       4.960  10.484  10.451  1.00  0.00     0.210 HD
ENDBRANCH  12  51
TORSDOF 11
ENDMDL
