MODEL 1
REMARK minimizedAffinity -6.79765654
REMARK CNNscore 0.675195336
REMARK CNNaffinity 5.89053583
REMARK  7 active torsions:
REMARK  status: ('A' for Active; 'I' for Inactive)
REMARK    1  A    between atoms: C2_2  and  C30_32 
REMARK    2  A    between atoms: C3_3  and  C4_4 
REMARK    3  A    between atoms: C4_4  and  O1_5 
REMARK    4  A    between atoms: C4_4  and  C5_6 
REMARK    5  A    between atoms: C5_6  and  C6_7 
REMARK    6  A    between atoms: C6_7  and  C8_9 
REMARK    7  A    between atoms: C30_32  and  O3_33 
ROOT
HETATM    1  C8  UNL     1     -10.140  -7.778  -4.432  1.00  0.00    -0.002 C 
HETATM    2  C9  UNL     1     -11.202  -7.420  -3.350  1.00  0.00     0.007 C 
HETATM    3  C10 UNL     1     -10.665  -7.944  -2.003  1.00  0.00     0.015 C 
HETATM    4  C11 UNL     1      -9.542  -8.929  -2.385  1.00  0.00    -0.013 C 
HETATM    5  C12 UNL     1     -10.251 -10.276  -2.753  1.00  0.00     0.021 C 
HETATM    6  C13 UNL     1      -8.500  -9.289  -1.329  1.00  0.00    -0.070 C 
HETATM    7  C14 UNL     1      -8.799  -9.351  -0.019  1.00  0.00    -0.022 C 
HETATM    8  C15 UNL     1      -7.866  -9.853   1.040  1.00  0.00     0.034 C 
HETATM    9  C16 UNL     1      -6.409 -10.084   0.572  1.00  0.00     0.013 C 
HETATM   10  C17 UNL     1      -5.512 -10.797   1.649  1.00  0.00     0.018 C 
HETATM   11  C18 UNL     1      -6.292 -11.777   2.555  1.00  0.00     0.023 C 
HETATM   12  C19 UNL     1      -4.906  -9.709   2.573  1.00  0.00     0.023 C 
HETATM   13  C20 UNL     1      -4.314 -11.580   1.091  1.00  0.00     0.135 C 
HETATM   14  O2  UNL     1      -3.567 -12.219   1.851  1.00  0.00    -0.297 OA
HETATM   15  C21 UNL     1      -4.011 -11.612  -0.388  1.00  0.00     0.080 C 
HETATM   16  C22 UNL     1      -4.859 -10.722  -1.272  1.00  0.00     0.017 C 
HETATM   17  C23 UNL     1      -6.350 -10.671  -0.877  1.00  0.00    -0.031 C 
HETATM   18  C24 UNL     1      -6.972 -12.081  -0.967  1.00  0.00     0.016 C 
HETATM   19  C25 UNL     1      -7.101  -9.652  -1.834  1.00  0.00     0.024 C 
HETATM   20  C26 UNL     1      -7.082 -10.040  -3.334  1.00  0.00     0.010 C 
HETATM   21  C27 UNL     1      -7.880  -9.121  -4.288  1.00  0.00     0.011 C 
HETATM   22  C28 UNL     1      -8.879  -8.172  -3.592  1.00  0.00    -0.029 C 
HETATM   23  C29 UNL     1      -8.129  -6.874  -3.171  1.00  0.00     0.016 C 
ENDROOT
BRANCH   1  24
HETATM   24  C6  UNL     1     -10.086  -6.783  -5.636  1.00  0.00    -0.011 C 
HETATM   25  C7  UNL     1     -10.502  -7.330  -7.008  1.00  0.00     0.010 C 
BRANCH  24  26
HETATM   26  C5  UNL     1     -10.847  -5.470  -5.320  1.00  0.00     0.040 C 
BRANCH  26  27
HETATM   27  C4  UNL     1     -10.143  -4.189  -5.790  1.00  0.00     0.141 C 
BRANCH  27  28
HETATM   28  C3  UNL     1     -10.680  -2.959  -5.104  1.00  0.00     0.009 C 
HETATM   29  C2  UNL     1     -10.087  -1.760  -4.909  1.00  0.00    -0.062 C 
HETATM   30  C1  UNL     1     -10.847  -0.653  -4.224  1.00  0.00     0.045 C 
BRANCH  29  31
HETATM   31  C30 UNL     1      -8.678  -1.416  -5.329  1.00  0.00     0.198 C 
BRANCH  31  32
HETATM   32  O3  UNL     1      -7.767  -1.818  -4.311  1.00  0.00    -0.397 OA
HETATM   33  H48 UNL     1      -7.814  -1.150  -3.607  1.00  0.00     0.209 HD
ENDBRANCH  31  32
ENDBRANCH  29  31
ENDBRANCH  27  28
BRANCH  27  34
HETATM   34  O1  UNL     1      -8.740  -4.283  -5.582  1.00  0.00    -0.392 OA
HETATM   35  H6  UNL     1      -8.361  -3.423  -5.831  1.00  0.00     0.210 HD
ENDBRANCH  27  34
ENDBRANCH  26  27
ENDBRANCH  24  26
ENDBRANCH   1  24
TORSDOF 7
ENDMDL
MODEL 2
REMARK minimizedAffinity -8.81120682
REMARK CNNscore 0.61967063
REMARK CNNaffinity 7.39482307
REMARK  7 active torsions:
REMARK  status: ('A' for Active; 'I' for Inactive)
REMARK    1  A    between atoms: C2_2  and  C30_32 
REMARK    2  A    between atoms: C3_3  and  C4_4 
REMARK    3  A    between atoms: C4_4  and  O1_5 
REMARK    4  A    between atoms: C4_4  and  C5_6 
REMARK    5  A    between atoms: C5_6  and  C6_7 
REMARK    6  A    between atoms: C6_7  and  C8_9 
REMARK    7  A    between atoms: C30_32  and  O3_33 
ROOT
HETATM    1  C8  UNL     1      -3.213   6.824  14.356  1.00  0.00    -0.002 C 
HETATM    2  C9  UNL     1      -3.439   5.539  13.506  1.00  0.00     0.007 C 
HETATM    3  C10 UNL     1      -4.960   5.400  13.297  1.00  0.00     0.015 C 
HETATM    4  C11 UNL     1      -5.587   6.340  14.347  1.00  0.00    -0.013 C 
HETATM    5  C12 UNL     1      -5.588   5.545  15.696  1.00  0.00     0.021 C 
HETATM    6  C13 UNL     1      -7.028   6.800  14.142  1.00  0.00    -0.070 C 
HETATM    7  C14 UNL     1      -7.951   6.024  13.546  1.00  0.00    -0.022 C 
HETATM    8  C15 UNL     1      -9.409   6.355  13.461  1.00  0.00     0.034 C 
HETATM    9  C16 UNL     1      -9.781   7.793  13.900  1.00  0.00     0.013 C 
HETATM   10  C17 UNL     1     -11.330   8.038  13.990  1.00  0.00     0.018 C 
HETATM   11  C18 UNL     1     -12.135   6.780  14.391  1.00  0.00     0.023 C 
HETATM   12  C19 UNL     1     -11.836   8.474  12.590  1.00  0.00     0.023 C 
HETATM   13  C20 UNL     1     -11.764   9.156  14.952  1.00  0.00     0.135 C 
HETATM   14  O2  UNL     1     -12.968   9.402  15.134  1.00  0.00    -0.297 OA
HETATM   15  C21 UNL     1     -10.751   9.979  15.713  1.00  0.00     0.080 C 
HETATM   16  C22 UNL     1      -9.295   9.743  15.373  1.00  0.00     0.017 C 
HETATM   17  C23 UNL     1      -8.932   8.263  15.127  1.00  0.00    -0.031 C 
HETATM   18  C24 UNL     1      -9.216   7.428  16.395  1.00  0.00     0.016 C 
HETATM   19  C25 UNL     1      -7.403   8.171  14.712  1.00  0.00     0.024 C 
HETATM   20  C26 UNL     1      -6.409   8.668  15.792  1.00  0.00     0.010 C 
HETATM   21  C27 UNL     1      -4.906   8.510  15.462  1.00  0.00     0.011 C 
HETATM   22  C28 UNL     1      -4.595   7.556  14.288  1.00  0.00    -0.029 C 
HETATM   23  C29 UNL     1      -4.676   8.356  12.956  1.00  0.00     0.016 C 
ENDROOT
BRANCH   1  24
HETATM   24  C6  UNL     1      -1.852   7.544  14.088  1.00  0.00    -0.011 C 
HETATM   25  C7  UNL     1      -0.671   7.155  14.988  1.00  0.00     0.010 C 
BRANCH  24  26
HETATM   26  C5  UNL     1      -1.450   7.454  12.593  1.00  0.00     0.040 C 
BRANCH  26  27
HETATM   27  C4  UNL     1      -0.610   8.634  12.082  1.00  0.00     0.141 C 
BRANCH  27  28
HETATM   28  C3  UNL     1      -0.414   8.587  10.588  1.00  0.00     0.009 C 
HETATM   29  C2  UNL     1       0.649   8.146   9.878  1.00  0.00    -0.062 C 
HETATM   30  C1  UNL     1       0.599   8.159   8.371  1.00  0.00     0.045 C 
BRANCH  29  31
HETATM   31  C30 UNL     1       1.931   7.622  10.479  1.00  0.00     0.198 C 
BRANCH  31  32
HETATM   32  O3  UNL     1       3.040   8.093   9.721  1.00  0.00    -0.397 OA
HETATM   33  H48 UNL     1       3.089   7.547   8.919  1.00  0.00     0.209 HD
ENDBRANCH  31  32
ENDBRANCH  29  31
ENDBRANCH  27  28
BRANCH  27  34
HETATM   34  O1  UNL     1      -1.204   9.870  12.453  1.00  0.00    -0.392 OA
HETATM   35  H6  UNL     1      -0.670  10.572  12.042  1.00  0.00     0.210 HD
ENDBRANCH  27  34
ENDBRANCH  26  27
ENDBRANCH  24  26
ENDBRANCH   1  24
TORSDOF 7
ENDMDL
MODEL 3
REMARK minimizedAffinity -9.72023201
REMARK CNNscore 0.591253459
REMARK CNNaffinity 7.40463591
REMARK  7 active torsions:
REMARK  status: ('A' for Active; 'I' for Inactive)
REMARK    1  A    between atoms: C2_2  and  C30_32 
REMARK    2  A    between atoms: C3_3  and  C4_4 
REMARK    3  A    between atoms: C4_4  and  O1_5 
REMARK    4  A    between atoms: C4_4  and  C5_6 
REMARK    5  A    between atoms: C5_6  and  C6_7 
REMARK    6  A    between atoms: C6_7  and  C8_9 
REMARK    7  A    between atoms: C30_32  and  O3_33 
ROOT
HETATM    1  C8  UNL     1      -5.291   7.203  15.477  1.00  0.00    -0.002 C 
HETATM    2  C9  UNL     1      -5.343   8.754  15.355  1.00  0.00     0.007 C 
HETATM    3  C10 UNL     1      -4.127   9.180  14.508  1.00  0.00     0.015 C 
HETATM    4  C11 UNL     1      -3.197   7.949  14.510  1.00  0.00    -0.013 C 
HETATM    5  C12 UNL     1      -2.412   8.000  15.864  1.00  0.00     0.021 C 
HETATM    6  C13 UNL     1      -2.133   7.840  13.422  1.00  0.00    -0.070 C 
HETATM    7  C14 UNL     1      -1.533   8.923  12.895  1.00  0.00    -0.022 C 
HETATM    8  C15 UNL     1      -0.374   8.872  11.947  1.00  0.00     0.034 C 
HETATM    9  C16 UNL     1      -0.038   7.464  11.398  1.00  0.00     0.013 C 
HETATM   10  C17 UNL     1       1.297   7.417  10.572  1.00  0.00     0.018 C 
HETATM   11  C18 UNL     1       2.361   8.430  11.055  1.00  0.00     0.023 C 
HETATM   12  C19 UNL     1       0.969   7.770   9.098  1.00  0.00     0.023 C 
HETATM   13  C20 UNL     1       1.992   6.047  10.523  1.00  0.00     0.135 C 
HETATM   14  O2  UNL     1       3.078   5.909   9.935  1.00  0.00    -0.297 OA
HETATM   15  C21 UNL     1       1.391   4.833  11.192  1.00  0.00     0.080 C 
HETATM   16  C22 UNL     1       0.009   5.002  11.787  1.00  0.00     0.017 C 
HETATM   17  C23 UNL     1      -0.217   6.358  12.490  1.00  0.00    -0.031 C 
HETATM   18  C24 UNL     1       0.776   6.520  13.662  1.00  0.00     0.016 C 
HETATM   19  C25 UNL     1      -1.719   6.428  12.999  1.00  0.00     0.024 C 
HETATM   20  C26 UNL     1      -2.099   5.349  14.044  1.00  0.00     0.010 C 
HETATM   21  C27 UNL     1      -3.527   5.440  14.632  1.00  0.00     0.011 C 
HETATM   22  C28 UNL     1      -4.245   6.784  14.389  1.00  0.00    -0.029 C 
HETATM   23  C29 UNL     1      -4.954   6.732  13.004  1.00  0.00     0.016 C 
ENDROOT
BRANCH   1  24
HETATM   24  C6  UNL     1      -6.689   6.520  15.623  1.00  0.00    -0.011 C 
HETATM   25  C7  UNL     1      -7.636   7.097  16.684  1.00  0.00     0.010 C 
BRANCH  24  26
HETATM   26  C5  UNL     1      -7.408   6.407  14.255  1.00  0.00     0.040 C 
BRANCH  26  27
HETATM   27  C4  UNL     1      -7.672   4.968  13.785  1.00  0.00     0.141 C 
BRANCH  27  28
HETATM   28  C3  UNL     1      -6.608   4.475  12.838  1.00  0.00     0.009 C 
HETATM   29  C2  UNL     1      -6.392   3.224  12.370  1.00  0.00    -0.062 C 
HETATM   30  C1  UNL     1      -5.276   2.977  11.388  1.00  0.00     0.045 C 
BRANCH  29  31
HETATM   31  C30 UNL     1      -7.198   2.008  12.757  1.00  0.00     0.198 C 
BRANCH  31  32
HETATM   32  O3  UNL     1      -8.568   2.221  12.434  1.00  0.00    -0.397 OA
HETATM   33  H48 UNL     1      -8.937   2.795  13.126  1.00  0.00     0.209 HD
ENDBRANCH  31  32
ENDBRANCH  29  31
ENDBRANCH  27  28
BRANCH  27  34
HETATM   34  O1  UNL     1      -7.776   4.089  14.896  1.00  0.00    -0.392 OA
HETATM   35  H6  UNL     1      -7.870   3.191  14.535  1.00  0.00     0.210 HD
ENDBRANCH  27  34
ENDBRANCH  26  27
ENDBRANCH  24  26
ENDBRANCH   1  24
TORSDOF 7
ENDMDL
MODEL 4
REMARK minimizedAffinity -7.35908985
REMARK CNNscore 0.538246334
REMARK CNNaffinity 7.0728488
REMARK  7 active torsions:
REMARK  status: ('A' for Active; 'I' for Inactive)
REMARK    1  A    between atoms: C2_2  and  C30_32 
REMARK    2  A    between atoms: C3_3  and  C4_4 
REMARK    3  A    between atoms: C4_4  and  O1_5 
REMARK    4  A    between atoms: C4_4  and  C5_6 
REMARK    5  A    between atoms: C5_6  and  C6_7 
REMARK    6  A    between atoms: C6_7  and  C8_9 
REMARK    7  A    between atoms: C30_32  and  O3_33 
ROOT
HETATM    1  C8  UNL     1      -9.162   7.784  14.659  1.00  0.00    -0.002 C 
HETATM    2  C9  UNL     1      -9.110   8.220  16.153  1.00  0.00     0.007 C 
HETATM    3  C10 UNL     1     -10.427   8.965  16.451  1.00  0.00     0.015 C 
HETATM    4  C11 UNL     1     -11.010   9.300  15.063  1.00  0.00    -0.013 C 
HETATM    5  C12 UNL     1     -10.262  10.587  14.576  1.00  0.00     0.021 C 
HETATM    6  C13 UNL     1     -12.497   9.626  14.959  1.00  0.00    -0.070 C 
HETATM    7  C14 UNL     1     -13.166  10.244  15.948  1.00  0.00    -0.022 C 
HETATM    8  C15 UNL     1     -14.579  10.731  15.840  1.00  0.00     0.034 C 
HETATM    9  C16 UNL     1     -15.337  10.265  14.573  1.00  0.00     0.013 C 
HETATM   10  C17 UNL     1     -16.738  10.954  14.393  1.00  0.00     0.018 C 
HETATM   11  C18 UNL     1     -16.796  12.396  14.950  1.00  0.00     0.023 C 
HETATM   12  C19 UNL     1     -17.791  10.124  15.172  1.00  0.00     0.023 C 
HETATM   13  C20 UNL     1     -17.254  11.026  12.947  1.00  0.00     0.135 C 
HETATM   14  O2  UNL     1     -18.329  11.591  12.688  1.00  0.00    -0.297 OA
HETATM   15  C21 UNL     1     -16.474  10.428  11.801  1.00  0.00     0.080 C 
HETATM   16  C22 UNL     1     -15.236   9.635  12.164  1.00  0.00     0.017 C 
HETATM   17  C23 UNL     1     -14.408  10.245  13.315  1.00  0.00    -0.031 C 
HETATM   18  C24 UNL     1     -13.913  11.655  12.925  1.00  0.00     0.016 C 
HETATM   19  C25 UNL     1     -13.189   9.280  13.637  1.00  0.00     0.024 C 
HETATM   20  C26 UNL     1     -12.193   9.084  12.467  1.00  0.00     0.010 C 
HETATM   21  C27 UNL     1     -10.944   8.223  12.771  1.00  0.00     0.011 C 
HETATM   22  C28 UNL     1     -10.666   7.987  14.271  1.00  0.00    -0.029 C 
HETATM   23  C29 UNL     1     -11.480   6.749  14.744  1.00  0.00     0.016 C 
ENDROOT
BRANCH   1  24
HETATM   24  C6  UNL     1      -8.369   6.476  14.341  1.00  0.00    -0.011 C 
HETATM   25  C7  UNL     1      -8.144   5.499  15.503  1.00  0.00     0.010 C 
BRANCH  24  26
HETATM   26  C5  UNL     1      -8.966   5.737  13.116  1.00  0.00     0.040 C 
BRANCH  26  27
HETATM   27  C4  UNL     1      -8.143   4.536  12.627  1.00  0.00     0.141 C 
BRANCH  27  28
HETATM   28  C3  UNL     1      -6.673   4.693  12.926  1.00  0.00     0.009 C 
HETATM   29  C2  UNL     1      -5.616   4.053  12.379  1.00  0.00    -0.062 C 
HETATM   30  C1  UNL     1      -4.218   4.412  12.815  1.00  0.00     0.045 C 
BRANCH  29  31
HETATM   31  C30 UNL     1      -5.710   2.969  11.332  1.00  0.00     0.198 C 
BRANCH  31  32
HETATM   32  O3  UNL     1      -4.404   2.495  11.019  1.00  0.00    -0.397 OA
HETATM   33  H48 UNL     1      -3.997   3.151  10.430  1.00  0.00     0.209 HD
ENDBRANCH  31  32
ENDBRANCH  29  31
ENDBRANCH  27  28
BRANCH  27  34
HETATM   34  O1  UNL     1      -8.626   3.330  13.201  1.00  0.00    -0.392 OA
HETATM   35  H6  UNL     1      -8.025   2.621  12.912  1.00  0.00     0.210 HD
ENDBRANCH  27  34
ENDBRANCH  26  27
ENDBRANCH  24  26
ENDBRANCH   1  24
TORSDOF 7
ENDMDL
MODEL 5
REMARK minimizedAffinity -9.80163383
REMARK CNNscore 0.530602276
REMARK CNNaffinity 7.1587739
REMARK  7 active torsions:
REMARK  status: ('A' for Active; 'I' for Inactive)
REMARK    1  A    between atoms: C2_2  and  C30_32 
REMARK    2  A    between atoms: C3_3  and  C4_4 
REMARK    3  A    between atoms: C4_4  and  O1_5 
REMARK    4  A    between atoms: C4_4  and  C5_6 
REMARK    5  A    between atoms: C5_6  and  C6_7 
REMARK    6  A    between atoms: C6_7  and  C8_9 
REMARK    7  A    between atoms: C30_32  and  O3_33 
ROOT
HETATM    1  C8  UNL     1       0.846   6.596  12.420  1.00  0.00    -0.002 C 
HETATM    2  C9  UNL     1       0.878   5.085  12.043  1.00  0.00     0.007 C 
HETATM    3  C10 UNL     1      -0.548   4.538  12.259  1.00  0.00     0.015 C 
HETATM    4  C11 UNL     1      -1.250   5.603  13.126  1.00  0.00    -0.013 C 
HETATM    5  C12 UNL     1      -0.801   5.329  14.600  1.00  0.00     0.021 C 
HETATM    6  C13 UNL     1      -2.776   5.624  13.158  1.00  0.00    -0.070 C 
HETATM    7  C14 UNL     1      -3.510   4.503  13.046  1.00  0.00    -0.022 C 
HETATM    8  C15 UNL     1      -4.996   4.442  13.231  1.00  0.00     0.034 C 
HETATM    9  C16 UNL     1      -5.701   5.817  13.328  1.00  0.00     0.013 C 
HETATM   10  C17 UNL     1      -7.219   5.715  13.722  1.00  0.00     0.018 C 
HETATM   11  C18 UNL     1      -7.542   4.514  14.641  1.00  0.00     0.023 C 
HETATM   12  C19 UNL     1      -8.045   5.528  12.423  1.00  0.00     0.023 C 
HETATM   13  C20 UNL     1      -7.804   6.958  14.410  1.00  0.00     0.135 C 
HETATM   14  O2  UNL     1      -8.982   6.967  14.803  1.00  0.00    -0.297 OA
HETATM   15  C21 UNL     1      -6.973   8.198  14.639  1.00  0.00     0.080 C 
HETATM   16  C22 UNL     1      -5.585   8.204  14.034  1.00  0.00     0.017 C 
HETATM   17  C23 UNL     1      -4.845   6.852  14.130  1.00  0.00    -0.031 C 
HETATM   18  C24 UNL     1      -4.665   6.448  15.610  1.00  0.00     0.016 C 
HETATM   19  C25 UNL     1      -3.443   6.981  13.397  1.00  0.00     0.024 C 
HETATM   20  C26 UNL     1      -2.482   8.026  14.019  1.00  0.00     0.010 C 
HETATM   21  C27 UNL     1      -1.072   8.117  13.390  1.00  0.00     0.011 C 
HETATM   22  C28 UNL     1      -0.684   6.924  12.490  1.00  0.00    -0.029 C 
HETATM   23  C29 UNL     1      -1.207   7.191  11.049  1.00  0.00     0.016 C 
ENDROOT
BRANCH   1  24
HETATM   24  C6  UNL     1       1.873   7.477  11.638  1.00  0.00    -0.011 C 
HETATM   25  C7  UNL     1       2.051   8.924  12.116  1.00  0.00     0.010 C 
BRANCH  24  26
HETATM   26  C5  UNL     1       3.247   6.770  11.516  1.00  0.00     0.040 C 
BRANCH  26  27
HETATM   27  C4  UNL     1       3.332   5.719  10.400  1.00  0.00     0.141 C 
BRANCH  27  28
HETATM   28  C3  UNL     1       2.551   6.125   9.175  1.00  0.00     0.009 C 
HETATM   29  C2  UNL     1       2.684   7.226   8.402  1.00  0.00    -0.062 C 
HETATM   30  C1  UNL     1       1.804   7.397   7.189  1.00  0.00     0.045 C 
BRANCH  29  31
HETATM   31  C30 UNL     1       3.668   8.342   8.652  1.00  0.00     0.198 C 
BRANCH  31  32
HETATM   32  O3  UNL     1       3.490   9.362   7.674  1.00  0.00    -0.397 OA
HETATM   33  H48 UNL     1       3.915   9.050   6.858  1.00  0.00     0.209 HD
ENDBRANCH  31  32
ENDBRANCH  29  31
ENDBRANCH  27  28
BRANCH  27  34
HETATM   34  O1  UNL     1       4.686   5.470  10.048  1.00  0.00    -0.392 OA
HETATM   35  H6  UNL     1       4.671   4.856   9.294  1.00  0.00     0.210 HD
ENDBRANCH  27  34
ENDBRANCH  26  27
ENDBRANCH  24  26
ENDBRANCH   1  24
TORSDOF 7
ENDMDL
MODEL 6
REMARK minimizedAffinity -6.88296556
REMARK CNNscore 0.515320361
REMARK CNNaffinity 5.35460663
REMARK  7 active torsions:
REMARK  status: ('A' for Active; 'I' for Inactive)
REMARK    1  A    between atoms: C2_2  and  C30_32 
REMARK    2  A    between atoms: C3_3  and  C4_4 
REMARK    3  A    between atoms: C4_4  and  O1_5 
REMARK    4  A    between atoms: C4_4  and  C5_6 
REMARK    5  A    between atoms: C5_6  and  C6_7 
REMARK    6  A    between atoms: C6_7  and  C8_9 
REMARK    7  A    between atoms: C30_32  and  O3_33 
ROOT
HETATM    1  C8  UNL     1      -4.793 -11.030   6.109  1.00  0.00    -0.002 C 
HETATM    2  C9  UNL     1      -4.238 -12.441   6.461  1.00  0.00     0.007 C 
HETATM    3  C10 UNL     1      -3.968 -13.165   5.126  1.00  0.00     0.015 C 
HETATM    4  C11 UNL     1      -4.740 -12.344   4.073  1.00  0.00    -0.013 C 
HETATM    5  C12 UNL     1      -6.229 -12.820   4.157  1.00  0.00     0.021 C 
HETATM    6  C13 UNL     1      -4.345 -12.490   2.606  1.00  0.00    -0.070 C 
HETATM    7  C14 UNL     1      -3.879 -13.647   2.100  1.00  0.00    -0.022 C 
HETATM    8  C15 UNL     1      -3.630 -13.895   0.644  1.00  0.00     0.034 C 
HETATM    9  C16 UNL     1      -3.712 -12.639  -0.258  1.00  0.00     0.013 C 
HETATM   10  C17 UNL     1      -3.646 -12.967  -1.793  1.00  0.00     0.018 C 
HETATM   11  C18 UNL     1      -4.264 -14.336  -2.163  1.00  0.00     0.023 C 
HETATM   12  C19 UNL     1      -2.155 -13.013  -2.216  1.00  0.00     0.023 C 
HETATM   13  C20 UNL     1      -4.305 -11.929  -2.716  1.00  0.00     0.135 C 
HETATM   14  O2  UNL     1      -4.350 -12.113  -3.943  1.00  0.00    -0.297 OA
HETATM   15  C21 UNL     1      -4.927 -10.667  -2.166  1.00  0.00     0.080 C 
HETATM   16  C22 UNL     1      -4.742 -10.411  -0.685  1.00  0.00     0.017 C 
HETATM   17  C23 UNL     1      -4.856 -11.673   0.196  1.00  0.00    -0.031 C 
HETATM   18  C24 UNL     1      -6.257 -12.304   0.042  1.00  0.00     0.016 C 
HETATM   19  C25 UNL     1      -4.571 -11.273   1.705  1.00  0.00     0.024 C 
HETATM   20  C26 UNL     1      -5.574 -10.255   2.305  1.00  0.00     0.010 C 
HETATM   21  C27 UNL     1      -5.384  -9.909   3.800  1.00  0.00     0.011 C 
HETATM   22  C28 UNL     1      -4.475 -10.882   4.583  1.00  0.00    -0.029 C 
HETATM   23  C29 UNL     1      -2.996 -10.428   4.419  1.00  0.00     0.016 C 
ENDROOT
BRANCH   1  24
HETATM   24  C6  UNL     1      -4.459  -9.924   7.161  1.00  0.00    -0.011 C 
HETATM   25  C7  UNL     1      -5.562  -8.903   7.470  1.00  0.00     0.010 C 
BRANCH  24  26
HETATM   26  C5  UNL     1      -3.905 -10.540   8.471  1.00  0.00     0.040 C 
BRANCH  26  27
HETATM   27  C4  UNL     1      -4.328  -9.808   9.754  1.00  0.00     0.141 C 
BRANCH  27  28
HETATM   28  C3  UNL     1      -5.143 -10.687  10.668  1.00  0.00     0.009 C 
HETATM   29  C2  UNL     1      -6.159 -10.352  11.496  1.00  0.00    -0.062 C 
HETATM   30  C1  UNL     1      -6.859 -11.424  12.292  1.00  0.00     0.045 C 
BRANCH  29  31
HETATM   31  C30 UNL     1      -6.674  -8.949  11.704  1.00  0.00     0.198 C 
BRANCH  31  32
HETATM   32  O3  UNL     1      -5.576  -8.059  11.876  1.00  0.00    -0.397 OA
HETATM   33  H48 UNL     1      -5.257  -8.173  12.787  1.00  0.00     0.209 HD
ENDBRANCH  31  32
ENDBRANCH  29  31
ENDBRANCH  27  28
BRANCH  27  34
HETATM   34  O1  UNL     1      -3.191  -9.314  10.447  1.00  0.00    -0.392 OA
HETATM   35  H6  UNL     1      -3.515  -8.928  11.279  1.00  0.00     0.210 HD
ENDBRANCH  27  34
ENDBRANCH  26  27
ENDBRANCH  24  26
ENDBRANCH   1  24
TORSDOF 7
ENDMDL
MODEL 7
REMARK minimizedAffinity -6.84847546
REMARK CNNscore 0.481783301
REMARK CNNaffinity 6.2795105
REMARK  7 active torsions:
REMARK  status: ('A' for Active; 'I' for Inactive)
REMARK    1  A    between atoms: C2_2  and  C30_32 
REMARK    2  A    between atoms: C3_3  and  C4_4 
REMARK    3  A    between atoms: C4_4  and  O1_5 
REMARK    4  A    between atoms: C4_4  and  C5_6 
REMARK    5  A    between atoms: C5_6  and  C6_7 
REMARK    6  A    between atoms: C6_7  and  C8_9 
REMARK    7  A    between atoms: C30_32  and  O3_33 
ROOT
HETATM    1  C8  UNL     1      -9.284  -8.191  -3.854  1.00  0.00    -0.002 C 
HETATM    2  C9  UNL     1     -10.797  -8.055  -3.512  1.00  0.00     0.007 C 
HETATM    3  C10 UNL     1     -10.959  -8.434  -2.026  1.00  0.00     0.015 C 
HETATM    4  C11 UNL     1      -9.648  -9.161  -1.662  1.00  0.00    -0.013 C 
HETATM    5  C12 UNL     1      -9.811 -10.632  -2.170  1.00  0.00     0.021 C 
HETATM    6  C13 UNL     1      -9.265  -9.275  -0.189  1.00  0.00    -0.070 C 
HETATM    7  C14 UNL     1     -10.187  -9.382   0.785  1.00  0.00    -0.022 C 
HETATM    8  C15 UNL     1      -9.871  -9.658   2.223  1.00  0.00     0.034 C 
HETATM    9  C16 UNL     1      -8.369  -9.578   2.591  1.00  0.00     0.013 C 
HETATM   10  C17 UNL     1      -8.056 -10.068   4.051  1.00  0.00     0.018 C 
HETATM   11  C18 UNL     1      -9.007 -11.181   4.549  1.00  0.00     0.023 C 
HETATM   12  C19 UNL     1      -8.222  -8.864   5.013  1.00  0.00     0.023 C 
HETATM   13  C20 UNL     1      -6.626 -10.584   4.278  1.00  0.00     0.135 C 
HETATM   14  O2  UNL     1      -6.286 -11.038   5.383  1.00  0.00    -0.297 OA
HETATM   15  C21 UNL     1      -5.597 -10.570   3.173  1.00  0.00     0.080 C 
HETATM   16  C22 UNL     1      -6.001  -9.894   1.880  1.00  0.00     0.017 C 
HETATM   17  C23 UNL     1      -7.462 -10.158   1.456  1.00  0.00    -0.031 C 
HETATM   18  C24 UNL     1      -7.686 -11.670   1.236  1.00  0.00     0.016 C 
HETATM   19  C25 UNL     1      -7.769  -9.337   0.133  1.00  0.00     0.024 C 
HETATM   20  C26 UNL     1      -6.903  -9.732  -1.090  1.00  0.00     0.010 C 
HETATM   21  C27 UNL     1      -7.235  -9.017  -2.421  1.00  0.00     0.011 C 
HETATM   22  C28 UNL     1      -8.599  -8.295  -2.449  1.00  0.00    -0.029 C 
HETATM   23  C29 UNL     1      -8.421  -6.862  -1.869  1.00  0.00     0.016 C 
ENDROOT
BRANCH   1  24
HETATM   24  C6  UNL     1      -8.787  -7.224  -4.976  1.00  0.00    -0.011 C 
HETATM   25  C7  UNL     1      -8.313  -7.866  -6.287  1.00  0.00     0.010 C 
BRANCH  24  26
HETATM   26  C5  UNL     1      -9.823  -6.107  -5.260  1.00  0.00     0.040 C 
BRANCH  26  27
HETATM   27  C4  UNL     1      -9.384  -4.699  -4.832  1.00  0.00     0.141 C 
BRANCH  27  28
HETATM   28  C3  UNL     1      -9.441  -3.714  -5.972  1.00  0.00     0.009 C 
HETATM   29  C2  UNL     1      -8.813  -2.524  -6.107  1.00  0.00    -0.062 C 
HETATM   30  C1  UNL     1      -8.994  -1.723  -7.372  1.00  0.00     0.045 C 
BRANCH  29  31
HETATM   31  C30 UNL     1      -7.915  -1.900  -5.067  1.00  0.00     0.198 C 
BRANCH  31  32
HETATM   32  O3  UNL     1      -6.554  -2.166  -5.392  1.00  0.00    -0.397 OA
HETATM   33  H48 UNL     1      -6.372  -3.083  -5.127  1.00  0.00     0.209 HD
ENDBRANCH  31  32
ENDBRANCH  29  31
ENDBRANCH  27  28
BRANCH  27  34
HETATM   34  O1  UNL     1     -10.179  -4.232  -3.751  1.00  0.00    -0.392 OA
HETATM   35  H6  UNL     1      -9.903  -3.316  -3.575  1.00  0.00     0.210 HD
ENDBRANCH  27  34
ENDBRANCH  26  27
ENDBRANCH  24  26
ENDBRANCH   1  24
TORSDOF 7
ENDMDL
MODEL 8
REMARK minimizedAffinity -7.73593044
REMARK CNNscore 0.47368148
REMARK CNNaffinity 6.83976507
REMARK  7 active torsions:
REMARK  status: ('A' for Active; 'I' for Inactive)
REMARK    1  A    between atoms: C2_2  and  C30_32 
REMARK    2  A    between atoms: C3_3  and  C4_4 
REMARK    3  A    between atoms: C4_4  and  O1_5 
REMARK    4  A    between atoms: C4_4  and  C5_6 
REMARK    5  A    between atoms: C5_6  and  C6_7 
REMARK    6  A    between atoms: C6_7  and  C8_9 
REMARK    7  A    between atoms: C30_32  and  O3_33 
ROOT
HETATM    1  C8  UNL     1      -1.679   6.912  13.243  1.00  0.00    -0.002 C 
HETATM    2  C9  UNL     1      -3.156   6.985  12.756  1.00  0.00     0.007 C 
HETATM    3  C10 UNL     1      -3.838   8.116  13.553  1.00  0.00     0.015 C 
HETATM    4  C11 UNL     1      -2.890   8.385  14.739  1.00  0.00    -0.013 C 
HETATM    5  C12 UNL     1      -3.210   7.287  15.809  1.00  0.00     0.021 C 
HETATM    6  C13 UNL     1      -3.005   9.719  15.473  1.00  0.00    -0.070 C 
HETATM    7  C14 UNL     1      -4.177  10.363  15.609  1.00  0.00    -0.022 C 
HETATM    8  C15 UNL     1      -4.379  11.586  16.451  1.00  0.00     0.034 C 
HETATM    9  C16 UNL     1      -3.079  12.232  16.989  1.00  0.00     0.013 C 
HETATM   10  C17 UNL     1      -3.336  13.384  18.026  1.00  0.00     0.018 C 
HETATM   11  C18 UNL     1      -4.613  13.181  18.875  1.00  0.00     0.023 C 
HETATM   12  C19 UNL     1      -3.518  14.710  17.244  1.00  0.00     0.023 C 
HETATM   13  C20 UNL     1      -2.192  13.643  19.018  1.00  0.00     0.135 C 
HETATM   14  O2  UNL     1      -2.309  14.500  19.909  1.00  0.00    -0.297 OA
HETATM   15  C21 UNL     1      -0.899  12.863  18.953  1.00  0.00     0.080 C 
HETATM   16  C22 UNL     1      -0.737  11.920  17.780  1.00  0.00     0.017 C 
HETATM   17  C23 UNL     1      -2.022  11.154  17.398  1.00  0.00    -0.031 C 
HETATM   18  C24 UNL     1      -2.494  10.285  18.584  1.00  0.00     0.016 C 
HETATM   19  C25 UNL     1      -1.728  10.264  16.117  1.00  0.00     0.024 C 
HETATM   20  C26 UNL     1      -0.641   9.178  16.320  1.00  0.00     0.010 C 
HETATM   21  C27 UNL     1      -0.391   8.231  15.123  1.00  0.00     0.011 C 
HETATM   22  C28 UNL     1      -1.490   8.248  14.040  1.00  0.00    -0.029 C 
HETATM   23  C29 UNL     1      -1.186   9.395  13.034  1.00  0.00     0.016 C 
ENDROOT
BRANCH   1  24
HETATM   24  C6  UNL     1      -0.667   6.415  12.161  1.00  0.00    -0.011 C 
HETATM   25  C7  UNL     1       0.211   7.479  11.489  1.00  0.00     0.010 C 
BRANCH  24  26
HETATM   26  C5  UNL     1       0.204   5.249  12.696  1.00  0.00     0.040 C 
BRANCH  26  27
HETATM   27  C4  UNL     1      -0.166   3.865  12.143  1.00  0.00     0.141 C 
BRANCH  27  28
HETATM   28  C3  UNL     1      -1.606   3.794  11.704  1.00  0.00     0.009 C 
HETATM   29  C2  UNL     1      -2.307   2.736  11.237  1.00  0.00    -0.062 C 
HETATM   30  C1  UNL     1      -3.767   2.898  10.896  1.00  0.00     0.045 C 
BRANCH  29  31
HETATM   31  C30 UNL     1      -1.740   1.354  11.016  1.00  0.00     0.198 C 
BRANCH  31  32
HETATM   32  O3  UNL     1      -1.149   1.284   9.722  1.00  0.00    -0.397 OA
HETATM   33  H48 UNL     1      -1.875   1.184   9.084  1.00  0.00     0.209 HD
ENDBRANCH  31  32
ENDBRANCH  29  31
ENDBRANCH  27  28
BRANCH  27  34
HETATM   34  O1  UNL     1       0.686   3.513  11.061  1.00  0.00    -0.392 OA
HETATM   35  H6  UNL     1       0.359   2.666  10.711  1.00  0.00     0.210 HD
ENDBRANCH  27  34
ENDBRANCH  26  27
ENDBRANCH  24  26
ENDBRANCH   1  24
TORSDOF 7
ENDMDL
MODEL 9
REMARK minimizedAffinity -7.04098892
REMARK CNNscore 0.441647083
REMARK CNNaffinity 5.7293725
REMARK  7 active torsions:
REMARK  status: ('A' for Active; 'I' for Inactive)
REMARK    1  A    between atoms: C2_2  and  C30_32 
REMARK    2  A    between atoms: C3_3  and  C4_4 
REMARK    3  A    between atoms: C4_4  and  O1_5 
REMARK    4  A    between atoms: C4_4  and  C5_6 
REMARK    5  A    between atoms: C5_6  and  C6_7 
REMARK    6  A    between atoms: C6_7  and  C8_9 
REMARK    7  A    between atoms: C30_32  and  O3_33 
ROOT
HETATM    1  C8  UNL     1      -5.440 -10.696   7.017  1.00  0.00    -0.002 C 
HETATM    2  C9  UNL     1      -4.456 -11.901   6.965  1.00  0.00     0.007 C 
HETATM    3  C10 UNL     1      -4.373 -12.352   5.493  1.00  0.00     0.015 C 
HETATM    4  C11 UNL     1      -5.589 -11.692   4.812  1.00  0.00    -0.013 C 
HETATM    5  C12 UNL     1      -6.819 -12.604   5.138  1.00  0.00     0.021 C 
HETATM    6  C13 UNL     1      -5.580 -11.543   3.293  1.00  0.00    -0.070 C 
HETATM    7  C14 UNL     1      -4.977 -12.437   2.489  1.00  0.00    -0.022 C 
HETATM    8  C15 UNL     1      -5.072 -12.431   0.994  1.00  0.00     0.034 C 
HETATM    9  C16 UNL     1      -5.725 -11.166   0.384  1.00  0.00     0.013 C 
HETATM   10  C17 UNL     1      -5.990 -11.282  -1.160  1.00  0.00     0.018 C 
HETATM   11  C18 UNL     1      -6.298 -12.722  -1.631  1.00  0.00     0.023 C 
HETATM   12  C19 UNL     1      -4.711 -10.823  -1.908  1.00  0.00     0.023 C 
HETATM   13  C20 UNL     1      -7.124 -10.396  -1.700  1.00  0.00     0.135 C 
HETATM   14  O2  UNL     1      -7.447 -10.444  -2.899  1.00  0.00    -0.297 OA
HETATM   15  C21 UNL     1      -7.887  -9.454  -0.800  1.00  0.00     0.080 C 
HETATM   16  C22 UNL     1      -7.386  -9.324   0.623  1.00  0.00     0.017 C 
HETATM   17  C23 UNL     1      -6.918 -10.652   1.256  1.00  0.00    -0.031 C 
HETATM   18  C24 UNL     1      -8.089 -11.658   1.305  1.00  0.00     0.016 C 
HETATM   19  C25 UNL     1      -6.355 -10.358   2.710  1.00  0.00     0.024 C 
HETATM   20  C26 UNL     1      -7.393  -9.770   3.699  1.00  0.00     0.010 C 
HETATM   21  C27 UNL     1      -6.906  -9.554   5.151  1.00  0.00     0.011 C 
HETATM   22  C28 UNL     1      -5.596 -10.286   5.514  1.00  0.00    -0.029 C 
HETATM   23  C29 UNL     1      -4.391  -9.387   5.110  1.00  0.00     0.016 C 
ENDROOT
BRANCH   1  24
HETATM   24  C6  UNL     1      -5.142  -9.668   8.155  1.00  0.00    -0.011 C 
HETATM   25  C7  UNL     1      -6.327  -8.841   8.673  1.00  0.00     0.010 C 
BRANCH  24  26
HETATM   26  C5  UNL     1      -4.386 -10.333   9.334  1.00  0.00     0.040 C 
BRANCH  26  27
HETATM   27  C4  UNL     1      -4.783  -9.817  10.725  1.00  0.00     0.141 C 
BRANCH  27  28
HETATM   28  C3  UNL     1      -5.600 -10.825  11.494  1.00  0.00     0.009 C 
HETATM   29  C2  UNL     1      -6.654 -10.623  12.315  1.00  0.00    -0.062 C 
HETATM   30  C1  UNL     1      -7.345 -11.805  12.948  1.00  0.00     0.045 C 
BRANCH  29  31
HETATM   31  C30 UNL     1      -7.225  -9.272  12.672  1.00  0.00     0.198 C 
BRANCH  31  32
HETATM   32  O3  UNL     1      -6.318  -8.583  13.527  1.00  0.00    -0.397 OA
HETATM   33  H48 UNL     1      -6.423  -8.961  14.416  1.00  0.00     0.209 HD
ENDBRANCH  31  32
ENDBRANCH  29  31
ENDBRANCH  27  28
BRANCH  27  34
HETATM   34  O1  UNL     1      -3.631  -9.457  11.474  1.00  0.00    -0.392 OA
HETATM   35  H6  UNL     1      -3.940  -9.209  12.362  1.00  0.00     0.210 HD
ENDBRANCH  27  34
ENDBRANCH  26  27
ENDBRANCH  24  26
ENDBRANCH   1  24
TORSDOF 7
ENDMDL
