MODEL 1
REMARK minimizedAffinity -7.24845123
REMARK CNNscore 0.821873724
REMARK CNNaffinity 7.34207296
REMARK  8 active torsions:
REMARK  status: ('A' for Active; 'I' for Inactive)
REMARK    1  A    between atoms: C12_12  and  O1_13 
REMARK    2  A    between atoms: C17_18  and  O2_19 
REMARK    3  A    between atoms: C18_20  and  C19_21 
REMARK    4  A    between atoms: C19_21  and  C21_23 
REMARK    5  A    between atoms: C21_23  and  C22_24 
REMARK    6  A    between atoms: C22_24  and  C23_25 
REMARK    7  A    between atoms: C24_26  and  C26_28 
REMARK    8  A    between atoms: C26_28  and  O3_29 
ROOT
HETATM    1  C1  UNL     1       0.680  52.288 -13.861  1.00  0.00     0.044 C 
HETATM    2  C2  UNL     1      -0.492  52.198 -12.916  1.00  0.00    -0.074 C 
HETATM    3  C3  UNL     1      -0.591  52.763 -11.684  1.00  0.00    -0.044 C 
HETATM    4  C4  UNL     1       0.530  53.338 -10.880  1.00  0.00    -0.048 C 
HETATM    5  C5  UNL     1       0.282  54.145  -9.811  1.00  0.00    -0.064 C 
HETATM    6  C6  UNL     1      -1.099  54.597  -9.410  1.00  0.00     0.036 C 
HETATM    7  C7  UNL     1      -2.174  54.213 -10.412  1.00  0.00     0.014 C 
HETATM    8  C8  UNL     1      -1.948  52.786 -10.942  1.00  0.00     0.030 C 
HETATM    9  C9  UNL     1      -3.194  52.266 -11.749  1.00  0.00    -0.014 C 
HETATM   10  C10 UNL     1      -3.792  53.344 -12.685  1.00  0.00     0.018 C 
HETATM   11  C11 UNL     1      -4.314  51.843 -10.770  1.00  0.00     0.018 C 
HETATM   12  C12 UNL     1      -2.735  51.026 -12.546  1.00  0.00     0.130 C 
HETATM   13  C13 UNL     1      -1.619  51.388 -13.525  1.00  0.00     0.067 C 
HETATM   14  C14 UNL     1       1.409  54.548  -8.855  1.00  0.00    -0.010 C 
HETATM   15  C15 UNL     1       1.391  53.437  -7.753  1.00  0.00     0.021 C 
HETATM   16  C16 UNL     1       1.357  55.910  -8.135  1.00  0.00     0.046 C 
HETATM   17  C17 UNL     1       2.817  56.170  -7.683  1.00  0.00     0.124 C 
HETATM   18  C18 UNL     1       3.719  55.207  -8.515  1.00  0.00     0.027 C 
HETATM   19  C27 UNL     1       2.763  54.710  -9.640  1.00  0.00    -0.026 C 
HETATM   20  C28 UNL     1       2.660  55.758 -10.789  1.00  0.00     0.016 C 
HETATM   21  C29 UNL     1       3.098  53.345 -10.245  1.00  0.00     0.015 C 
HETATM   22  C30 UNL     1       1.965  52.882 -11.190  1.00  0.00     0.040 C 
ENDROOT
BRANCH  18  23
HETATM   23  C19 UNL     1       5.196  55.610  -8.821  1.00  0.00    -0.011 C 
HETATM   24  C20 UNL     1       5.926  54.378  -9.396  1.00  0.00     0.010 C 
BRANCH  23  25
HETATM   25  C21 UNL     1       6.037  56.234  -7.681  1.00  0.00     0.008 C 
BRANCH  25  26
HETATM   26  C22 UNL     1       6.993  55.278  -6.948  1.00  0.00     0.028 C 
BRANCH  26  27
HETATM   27  C23 UNL     1       8.157  55.968  -6.292  1.00  0.00    -0.022 C 
HETATM   28  C24 UNL     1       8.900  55.524  -5.257  1.00  0.00    -0.064 C 
HETATM   29  C25 UNL     1      10.067  56.333  -4.752  1.00  0.00     0.045 C 
BRANCH  28  30
HETATM   30  C26 UNL     1       8.666  54.233  -4.521  1.00  0.00     0.197 C 
BRANCH  30  31
HETATM   31  O3  UNL     1       9.081  54.387  -3.171  1.00  0.00    -0.397 OA
HETATM   32  H41 UNL     1       8.626  55.179  -2.832  1.00  0.00     0.209 HD
ENDBRANCH  30  31
ENDBRANCH  28  30
ENDBRANCH  26  27
ENDBRANCH  25  26
ENDBRANCH  23  25
ENDBRANCH  18  23
BRANCH  17  33
HETATM   33  O2  UNL     1       3.128  57.537  -7.858  1.00  0.00    -0.395 OA
HETATM   34  H25 UNL     1       2.517  58.053  -7.303  1.00  0.00     0.210 HD
ENDBRANCH  17  33
BRANCH  12  35
HETATM   35  O1  UNL     1      -3.814  50.407 -13.250  1.00  0.00    -0.394 OA
HETATM   36  H16 UNL     1      -4.057  50.972 -14.002  1.00  0.00     0.210 HD
ENDBRANCH  12  35
TORSDOF 8
ENDMDL
MODEL 2
REMARK minimizedAffinity -6.70052338
REMARK CNNscore 0.794125974
REMARK CNNaffinity 7.20725107
REMARK  8 active torsions:
REMARK  status: ('A' for Active; 'I' for Inactive)
REMARK    1  A    between atoms: C12_12  and  O1_13 
REMARK    2  A    between atoms: C17_18  and  O2_19 
REMARK    3  A    between atoms: C18_20  and  C19_21 
REMARK    4  A    between atoms: C19_21  and  C21_23 
REMARK    5  A    between atoms: C21_23  and  C22_24 
REMARK    6  A    between atoms: C22_24  and  C23_25 
REMARK    7  A    between atoms: C24_26  and  C26_28 
REMARK    8  A    between atoms: C26_28  and  O3_29 
ROOT
HETATM    1  C1  UNL     1       6.126  52.354  -6.839  1.00  0.00     0.044 C 
HETATM    2  C2  UNL     1       6.176  53.856  -6.714  1.00  0.00    -0.074 C 
HETATM    3  C3  UNL     1       5.268  54.744  -7.198  1.00  0.00    -0.044 C 
HETATM    4  C4  UNL     1       4.196  54.459  -8.199  1.00  0.00    -0.048 C 
HETATM    5  C5  UNL     1       3.161  55.326  -8.382  1.00  0.00    -0.064 C 
HETATM    6  C6  UNL     1       2.956  56.567  -7.551  1.00  0.00     0.036 C 
HETATM    7  C7  UNL     1       3.912  56.669  -6.375  1.00  0.00     0.014 C 
HETATM    8  C8  UNL     1       5.330  56.232  -6.778  1.00  0.00     0.030 C 
HETATM    9  C9  UNL     1       6.386  56.601  -5.672  1.00  0.00    -0.014 C 
HETATM   10  C10 UNL     1       5.875  56.313  -4.239  1.00  0.00     0.018 C 
HETATM   11  C11 UNL     1       6.713  58.110  -5.742  1.00  0.00     0.018 C 
HETATM   12  C12 UNL     1       7.668  55.798  -5.979  1.00  0.00     0.130 C 
HETATM   13  C13 UNL     1       7.397  54.295  -5.932  1.00  0.00     0.067 C 
HETATM   14  C14 UNL     1       2.191  55.153  -9.554  1.00  0.00    -0.010 C 
HETATM   15  C15 UNL     1       2.827  56.000 -10.706  1.00  0.00     0.021 C 
HETATM   16  C16 UNL     1       0.723  55.601  -9.412  1.00  0.00     0.046 C 
HETATM   17  C17 UNL     1      -0.028  54.849 -10.539  1.00  0.00     0.124 C 
HETATM   18  C18 UNL     1       0.905  53.686 -10.997  1.00  0.00     0.027 C 
HETATM   19  C27 UNL     1       1.976  53.626  -9.868  1.00  0.00    -0.026 C 
HETATM   20  C28 UNL     1       1.442  52.837  -8.634  1.00  0.00     0.016 C 
HETATM   21  C29 UNL     1       3.337  53.054 -10.269  1.00  0.00     0.015 C 
HETATM   22  C30 UNL     1       4.360  53.242  -9.125  1.00  0.00     0.040 C 
ENDROOT
BRANCH  18  23
HETATM   23  C19 UNL     1       0.279  52.388 -11.596  1.00  0.00    -0.011 C 
HETATM   24  C20 UNL     1       1.246  51.215 -11.332  1.00  0.00     0.010 C 
BRANCH  23  25
HETATM   25  C21 UNL     1      -0.143  52.396 -13.085  1.00  0.00     0.008 C 
BRANCH  25  26
HETATM   26  C22 UNL     1       0.544  51.356 -13.985  1.00  0.00     0.028 C 
BRANCH  26  27
HETATM   27  C23 UNL     1       1.724  51.896 -14.746  1.00  0.00    -0.022 C 
HETATM   28  C24 UNL     1       2.981  51.407 -14.770  1.00  0.00    -0.064 C 
HETATM   29  C25 UNL     1       4.037  52.054 -15.631  1.00  0.00     0.045 C 
BRANCH  28  30
HETATM   30  C26 UNL     1       3.457  50.215 -13.984  1.00  0.00     0.197 C 
BRANCH  30  31
HETATM   31  O3  UNL     1       4.864  50.092 -14.135  1.00  0.00    -0.397 OA
HETATM   32  H41 UNL     1       5.242  50.959 -13.899  1.00  0.00     0.209 HD
ENDBRANCH  30  31
ENDBRANCH  28  30
ENDBRANCH  26  27
ENDBRANCH  25  26
ENDBRANCH  23  25
ENDBRANCH  18  23
BRANCH  17  33
HETATM   33  O2  UNL     1      -1.285  54.417 -10.062  1.00  0.00    -0.395 OA
HETATM   34  H25 UNL     1      -1.791  55.207  -9.802  1.00  0.00     0.210 HD
ENDBRANCH  17  33
BRANCH  12  35
HETATM   35  O1  UNL     1       8.737  56.125  -5.088  1.00  0.00    -0.394 OA
HETATM   36  H16 UNL     1       8.541  55.743  -4.217  1.00  0.00     0.210 HD
ENDBRANCH  12  35
TORSDOF 8
ENDMDL
MODEL 3
REMARK minimizedAffinity -7.29047155
REMARK CNNscore 0.791782439
REMARK CNNaffinity 7.3431077
REMARK  8 active torsions:
REMARK  status: ('A' for Active; 'I' for Inactive)
REMARK    1  A    between atoms: C12_12  and  O1_13 
REMARK    2  A    between atoms: C17_18  and  O2_19 
REMARK    3  A    between atoms: C18_20  and  C19_21 
REMARK    4  A    between atoms: C19_21  and  C21_23 
REMARK    5  A    between atoms: C21_23  and  C22_24 
REMARK    6  A    between atoms: C22_24  and  C23_25 
REMARK    7  A    between atoms: C24_26  and  C26_28 
REMARK    8  A    between atoms: C26_28  and  O3_29 
ROOT
HETATM    1  C1  UNL     1      -1.615  53.259  -8.701  1.00  0.00     0.044 C 
HETATM    2  C2  UNL     1      -1.143  52.989 -10.108  1.00  0.00    -0.074 C 
HETATM    3  C3  UNL     1       0.099  53.221 -10.609  1.00  0.00    -0.044 C 
HETATM    4  C4  UNL     1       1.167  54.054  -9.979  1.00  0.00    -0.048 C 
HETATM    5  C5  UNL     1       2.460  53.971 -10.402  1.00  0.00    -0.064 C 
HETATM    6  C6  UNL     1       2.934  52.994 -11.447  1.00  0.00     0.036 C 
HETATM    7  C7  UNL     1       1.873  51.989 -11.858  1.00  0.00     0.014 C 
HETATM    8  C8  UNL     1       0.498  52.665 -11.996  1.00  0.00     0.030 C 
HETATM    9  C9  UNL     1      -0.545  51.717 -12.694  1.00  0.00    -0.014 C 
HETATM   10  C10 UNL     1      -0.459  50.257 -12.187  1.00  0.00     0.018 C 
HETATM   11  C11 UNL     1      -0.286  51.683 -14.218  1.00  0.00     0.018 C 
HETATM   12  C12 UNL     1      -1.946  52.314 -12.440  1.00  0.00     0.130 C 
HETATM   13  C13 UNL     1      -2.250  52.379 -10.944  1.00  0.00     0.067 C 
HETATM   14  C14 UNL     1       3.509  54.978  -9.920  1.00  0.00    -0.010 C 
HETATM   15  C15 UNL     1       3.455  56.125 -10.983  1.00  0.00     0.021 C 
HETATM   16  C16 UNL     1       4.983  54.548  -9.782  1.00  0.00     0.046 C 
HETATM   17  C17 UNL     1       5.613  55.608  -8.843  1.00  0.00     0.124 C 
HETATM   18  C18 UNL     1       4.431  56.333  -8.131  1.00  0.00     0.027 C 
HETATM   19  C27 UNL     1       3.214  55.409  -8.435  1.00  0.00    -0.026 C 
HETATM   20  C28 UNL     1       3.180  54.192  -7.461  1.00  0.00     0.016 C 
HETATM   21  C29 UNL     1       1.843  56.087  -8.427  1.00  0.00     0.015 C 
HETATM   22  C30 UNL     1       0.758  55.116  -8.945  1.00  0.00     0.040 C 
ENDROOT
BRANCH  18  23
HETATM   23  C19 UNL     1       4.650  56.950  -6.714  1.00  0.00    -0.011 C 
HETATM   24  C20 UNL     1       3.435  57.841  -6.379  1.00  0.00     0.010 C 
BRANCH  23  25
HETATM   25  C21 UNL     1       5.961  57.728  -6.447  1.00  0.00     0.008 C 
BRANCH  25  26
HETATM   26  C22 UNL     1       6.693  57.386  -5.139  1.00  0.00     0.028 C 
BRANCH  26  27
HETATM   27  C23 UNL     1       8.008  56.684  -5.346  1.00  0.00    -0.022 C 
HETATM   28  C24 UNL     1       9.242  57.147  -5.054  1.00  0.00    -0.064 C 
HETATM   29  C25 UNL     1      10.456  56.284  -5.287  1.00  0.00     0.045 C 
BRANCH  28  30
HETATM   30  C26 UNL     1       9.539  58.508  -4.486  1.00  0.00     0.197 C 
BRANCH  30  31
HETATM   31  O3  UNL     1      10.441  59.184  -5.351  1.00  0.00    -0.397 OA
HETATM   32  H41 UNL     1      10.045  59.151  -6.241  1.00  0.00     0.209 HD
ENDBRANCH  30  31
ENDBRANCH  28  30
ENDBRANCH  26  27
ENDBRANCH  25  26
ENDBRANCH  23  25
ENDBRANCH  18  23
BRANCH  17  33
HETATM   33  O2  UNL     1       6.513  54.976  -7.956  1.00  0.00    -0.395 OA
HETATM   34  H25 UNL     1       7.210  54.555  -8.490  1.00  0.00     0.210 HD
ENDBRANCH  17  33
BRANCH  12  35
HETATM   35  O1  UNL     1      -2.974  51.584 -13.112  1.00  0.00    -0.394 OA
HETATM   36  H16 UNL     1      -3.101  50.736 -12.654  1.00  0.00     0.210 HD
ENDBRANCH  12  35
TORSDOF 8
ENDMDL
MODEL 4
REMARK minimizedAffinity -6.77702665
REMARK CNNscore 0.675629079
REMARK CNNaffinity 7.12140989
REMARK  8 active torsions:
REMARK  status: ('A' for Active; 'I' for Inactive)
REMARK    1  A    between atoms: C12_12  and  O1_13 
REMARK    2  A    between atoms: C17_18  and  O2_19 
REMARK    3  A    between atoms: C18_20  and  C19_21 
REMARK    4  A    between atoms: C19_21  and  C21_23 
REMARK    5  A    between atoms: C21_23  and  C22_24 
REMARK    6  A    between atoms: C22_24  and  C23_25 
REMARK    7  A    between atoms: C24_26  and  C26_28 
REMARK    8  A    between atoms: C26_28  and  O3_29 
ROOT
HETATM    1  C1  UNL     1      -1.236  53.661  -7.443  1.00  0.00     0.044 C 
HETATM    2  C2  UNL     1      -1.162  53.414  -8.929  1.00  0.00    -0.074 C 
HETATM    3  C3  UNL     1      -0.071  53.563  -9.726  1.00  0.00    -0.044 C 
HETATM    4  C4  UNL     1       1.194  54.275  -9.373  1.00  0.00    -0.048 C 
HETATM    5  C5  UNL     1       2.325  54.103 -10.114  1.00  0.00    -0.064 C 
HETATM    6  C6  UNL     1       2.427  53.136 -11.266  1.00  0.00     0.036 C 
HETATM    7  C7  UNL     1       1.208  52.242 -11.412  1.00  0.00     0.014 C 
HETATM    8  C8  UNL     1      -0.089  53.036 -11.180  1.00  0.00     0.030 C 
HETATM    9  C9  UNL     1      -1.357  52.210 -11.608  1.00  0.00    -0.014 C 
HETATM   10  C10 UNL     1      -1.281  50.727 -11.169  1.00  0.00     0.018 C 
HETATM   11  C11 UNL     1      -1.496  52.221 -13.148  1.00  0.00     0.018 C 
HETATM   12  C12 UNL     1      -2.587  52.911 -10.992  1.00  0.00     0.130 C 
HETATM   13  C13 UNL     1      -2.495  52.936  -9.466  1.00  0.00     0.067 C 
HETATM   14  C14 UNL     1       3.549  54.996  -9.896  1.00  0.00    -0.010 C 
HETATM   15  C15 UNL     1       3.334  56.189 -10.886  1.00  0.00     0.021 C 
HETATM   16  C16 UNL     1       4.963  54.439 -10.148  1.00  0.00     0.046 C 
HETATM   17  C17 UNL     1       5.906  55.400  -9.381  1.00  0.00     0.124 C 
HETATM   18  C18 UNL     1       5.014  56.190  -8.374  1.00  0.00     0.027 C 
HETATM   19  C27 UNL     1       3.680  55.385  -8.377  1.00  0.00    -0.026 C 
HETATM   20  C28 UNL     1       3.781  54.135  -7.452  1.00  0.00     0.016 C 
HETATM   21  C29 UNL     1       2.424  56.175  -8.004  1.00  0.00     0.015 C 
HETATM   22  C30 UNL     1       1.159  55.321  -8.246  1.00  0.00     0.040 C 
ENDROOT
BRANCH  18  23
HETATM   23  C19 UNL     1       5.640  56.725  -7.048  1.00  0.00    -0.011 C 
HETATM   24  C20 UNL     1       6.020  55.516  -6.167  1.00  0.00     0.010 C 
BRANCH  23  25
HETATM   25  C21 UNL     1       4.831  57.748  -6.215  1.00  0.00     0.008 C 
BRANCH  25  26
HETATM   26  C22 UNL     1       5.497  58.238  -4.918  1.00  0.00     0.028 C 
BRANCH  26  27
HETATM   27  C23 UNL     1       4.691  59.266  -4.173  1.00  0.00    -0.022 C 
HETATM   28  C24 UNL     1       5.118  60.449  -3.683  1.00  0.00    -0.064 C 
HETATM   29  C25 UNL     1       4.155  61.384  -2.996  1.00  0.00     0.045 C 
BRANCH  28  30
HETATM   30  C26 UNL     1       6.534  60.952  -3.762  1.00  0.00     0.197 C 
BRANCH  30  31
HETATM   31  O3  UNL     1       6.518  62.322  -4.139  1.00  0.00    -0.397 OA
HETATM   32  H41 UNL     1       5.921  62.772  -3.515  1.00  0.00     0.209 HD
ENDBRANCH  30  31
ENDBRANCH  28  30
ENDBRANCH  26  27
ENDBRANCH  25  26
ENDBRANCH  23  25
ENDBRANCH  18  23
BRANCH  17  33
HETATM   33  O2  UNL     1       6.939  54.657  -8.766  1.00  0.00    -0.395 OA
HETATM   34  H25 UNL     1       7.436  54.203  -9.469  1.00  0.00     0.210 HD
ENDBRANCH  17  33
BRANCH  12  35
HETATM   35  O1  UNL     1      -3.815  52.299 -11.393  1.00  0.00    -0.394 OA
HETATM   36  H16 UNL     1      -3.899  51.446 -10.935  1.00  0.00     0.210 HD
ENDBRANCH  12  35
TORSDOF 8
ENDMDL
MODEL 5
REMARK minimizedAffinity -7.09490156
REMARK CNNscore 0.600247264
REMARK CNNaffinity 6.945683
REMARK  8 active torsions:
REMARK  status: ('A' for Active; 'I' for Inactive)
REMARK    1  A    between atoms: C12_12  and  O1_13 
REMARK    2  A    between atoms: C17_18  and  O2_19 
REMARK    3  A    between atoms: C18_20  and  C19_21 
REMARK    4  A    between atoms: C19_21  and  C21_23 
REMARK    5  A    between atoms: C21_23  and  C22_24 
REMARK    6  A    between atoms: C22_24  and  C23_25 
REMARK    7  A    between atoms: C24_26  and  C26_28 
REMARK    8  A    between atoms: C26_28  and  O3_29 
ROOT
HETATM    1  C1  UNL     1       0.762  52.287 -13.747  1.00  0.00     0.044 C 
HETATM    2  C2  UNL     1      -0.419  52.201 -12.813  1.00  0.00    -0.074 C 
HETATM    3  C3  UNL     1      -0.536  52.786 -11.591  1.00  0.00    -0.044 C 
HETATM    4  C4  UNL     1       0.572  53.384 -10.786  1.00  0.00    -0.048 C 
HETATM    5  C5  UNL     1       0.305  54.207  -9.732  1.00  0.00    -0.064 C 
HETATM    6  C6  UNL     1      -1.084  54.651  -9.353  1.00  0.00     0.036 C 
HETATM    7  C7  UNL     1      -2.145  54.240 -10.359  1.00  0.00     0.014 C 
HETATM    8  C8  UNL     1      -1.900  52.807 -10.863  1.00  0.00     0.030 C 
HETATM    9  C9  UNL     1      -3.132  52.261 -11.673  1.00  0.00    -0.014 C 
HETATM   10  C10 UNL     1      -3.732  53.318 -12.634  1.00  0.00     0.018 C 
HETATM   11  C11 UNL     1      -4.258  51.844 -10.699  1.00  0.00     0.018 C 
HETATM   12  C12 UNL     1      -2.654  51.014 -12.446  1.00  0.00     0.130 C 
HETATM   13  C13 UNL     1      -1.531  51.370 -13.420  1.00  0.00     0.067 C 
HETATM   14  C14 UNL     1       1.418  54.636  -8.772  1.00  0.00    -0.010 C 
HETATM   15  C15 UNL     1       1.400  53.544  -7.652  1.00  0.00     0.021 C 
HETATM   16  C16 UNL     1       1.346  56.009  -8.076  1.00  0.00     0.046 C 
HETATM   17  C17 UNL     1       2.799  56.291  -7.614  1.00  0.00     0.124 C 
HETATM   18  C18 UNL     1       3.718  55.324  -8.421  1.00  0.00     0.027 C 
HETATM   19  C27 UNL     1       2.778  54.799  -9.547  1.00  0.00    -0.026 C 
HETATM   20  C28 UNL     1       2.677  55.827 -10.714  1.00  0.00     0.016 C 
HETATM   21  C29 UNL     1       3.133  53.428 -10.126  1.00  0.00     0.015 C 
HETATM   22  C30 UNL     1       2.015  52.938 -11.074  1.00  0.00     0.040 C 
ENDROOT
BRANCH  18  23
HETATM   23  C19 UNL     1       5.194  55.736  -8.718  1.00  0.00    -0.011 C 
HETATM   24  C20 UNL     1       5.572  55.211 -10.120  1.00  0.00     0.010 C 
BRANCH  23  25
HETATM   25  C21 UNL     1       6.287  55.340  -7.697  1.00  0.00     0.008 C 
BRANCH  25  26
HETATM   26  C22 UNL     1       5.815  54.503  -6.496  1.00  0.00     0.028 C 
BRANCH  26  27
HETATM   27  C23 UNL     1       6.686  53.311  -6.207  1.00  0.00    -0.022 C 
HETATM   28  C24 UNL     1       6.858  52.213  -6.972  1.00  0.00    -0.064 C 
HETATM   29  C25 UNL     1       7.813  51.126  -6.545  1.00  0.00     0.045 C 
BRANCH  28  30
HETATM   30  C26 UNL     1       6.157  51.954  -8.278  1.00  0.00     0.197 C 
BRANCH  30  31
HETATM   31  O3  UNL     1       7.065  52.186  -9.345  1.00  0.00    -0.397 OA
HETATM   32  H41 UNL     1       7.857  51.651  -9.153  1.00  0.00     0.209 HD
ENDBRANCH  30  31
ENDBRANCH  28  30
ENDBRANCH  26  27
ENDBRANCH  25  26
ENDBRANCH  23  25
ENDBRANCH  18  23
BRANCH  17  33
HETATM   33  O2  UNL     1       3.098  57.658  -7.808  1.00  0.00    -0.395 OA
HETATM   34  H25 UNL     1       2.477  58.177  -7.268  1.00  0.00     0.210 HD
ENDBRANCH  17  33
BRANCH  12  35
HETATM   35  O1  UNL     1      -3.719  50.372 -13.150  1.00  0.00    -0.394 OA
HETATM   36  H16 UNL     1      -3.961  50.922 -13.913  1.00  0.00     0.210 HD
ENDBRANCH  12  35
TORSDOF 8
ENDMDL
MODEL 6
REMARK minimizedAffinity -6.90495253
REMARK CNNscore 0.568540096
REMARK CNNaffinity 7.10633802
REMARK  8 active torsions:
REMARK  status: ('A' for Active; 'I' for Inactive)
REMARK    1  A    between atoms: C12_12  and  O1_13 
REMARK    2  A    between atoms: C17_18  and  O2_19 
REMARK    3  A    between atoms: C18_20  and  C19_21 
REMARK    4  A    between atoms: C19_21  and  C21_23 
REMARK    5  A    between atoms: C21_23  and  C22_24 
REMARK    6  A    between atoms: C22_24  and  C23_25 
REMARK    7  A    between atoms: C24_26  and  C26_28 
REMARK    8  A    between atoms: C26_28  and  O3_29 
ROOT
HETATM    1  C1  UNL     1      -1.475  53.430  -8.375  1.00  0.00     0.044 C 
HETATM    2  C2  UNL     1      -1.062  53.156  -9.799  1.00  0.00    -0.074 C 
HETATM    3  C3  UNL     1       0.156  53.394 -10.354  1.00  0.00    -0.044 C 
HETATM    4  C4  UNL     1       1.244  54.238  -9.775  1.00  0.00    -0.048 C 
HETATM    5  C5  UNL     1       2.518  54.162 -10.253  1.00  0.00    -0.064 C 
HETATM    6  C6  UNL     1       2.954  53.183 -11.312  1.00  0.00     0.036 C 
HETATM    7  C7  UNL     1       1.883  52.167 -11.672  1.00  0.00     0.014 C 
HETATM    8  C8  UNL     1       0.499  52.833 -11.755  1.00  0.00     0.030 C 
HETATM    9  C9  UNL     1      -0.566  51.874 -12.402  1.00  0.00    -0.014 C 
HETATM   10  C10 UNL     1      -0.448  50.417 -11.891  1.00  0.00     0.018 C 
HETATM   11  C11 UNL     1      -0.372  51.833 -13.935  1.00  0.00     0.018 C 
HETATM   12  C12 UNL     1      -1.959  52.462 -12.091  1.00  0.00     0.130 C 
HETATM   13  C13 UNL     1      -2.199  52.533 -10.583  1.00  0.00     0.067 C 
HETATM   14  C14 UNL     1       3.579  55.180  -9.822  1.00  0.00    -0.010 C 
HETATM   15  C15 UNL     1       3.471  56.320 -10.888  1.00  0.00     0.021 C 
HETATM   16  C16 UNL     1       5.060  54.761  -9.746  1.00  0.00     0.046 C 
HETATM   17  C17 UNL     1       5.723  55.830  -8.840  1.00  0.00     0.124 C 
HETATM   18  C18 UNL     1       4.567  56.550  -8.081  1.00  0.00     0.027 C 
HETATM   19  C27 UNL     1       3.345  55.616  -8.328  1.00  0.00    -0.026 C 
HETATM   20  C28 UNL     1       3.361  54.405  -7.347  1.00  0.00     0.016 C 
HETATM   21  C29 UNL     1       1.970  56.285  -8.265  1.00  0.00     0.015 C 
HETATM   22  C30 UNL     1       0.871  55.303  -8.730  1.00  0.00     0.040 C 
ENDROOT
BRANCH  18  23
HETATM   23  C19 UNL     1       4.842  57.178  -6.678  1.00  0.00    -0.011 C 
HETATM   24  C20 UNL     1       5.436  56.085  -5.765  1.00  0.00     0.010 C 
BRANCH  23  25
HETATM   25  C21 UNL     1       3.676  57.892  -5.953  1.00  0.00     0.008 C 
BRANCH  25  26
HETATM   26  C22 UNL     1       3.291  57.325  -4.577  1.00  0.00     0.028 C 
BRANCH  26  27
HETATM   27  C23 UNL     1       2.107  58.008  -3.949  1.00  0.00    -0.022 C 
HETATM   28  C24 UNL     1       0.807  57.661  -4.053  1.00  0.00    -0.064 C 
HETATM   29  C25 UNL     1      -0.253  58.439  -3.314  1.00  0.00     0.045 C 
BRANCH  28  30
HETATM   30  C26 UNL     1       0.285  56.514  -4.875  1.00  0.00     0.197 C 
BRANCH  30  31
HETATM   31  O3  UNL     1      -0.547  57.024  -5.907  1.00  0.00    -0.397 OA
HETATM   32  H41 UNL     1      -0.023  57.701  -6.372  1.00  0.00     0.209 HD
ENDBRANCH  30  31
ENDBRANCH  28  30
ENDBRANCH  26  27
ENDBRANCH  25  26
ENDBRANCH  23  25
ENDBRANCH  18  23
BRANCH  17  33
HETATM   33  O2  UNL     1       6.665  55.210  -7.989  1.00  0.00    -0.395 OA
HETATM   34  H25 UNL     1       7.341  54.791  -8.551  1.00  0.00     0.210 HD
ENDBRANCH  17  33
BRANCH  12  35
HETATM   35  O1  UNL     1      -3.010  51.721 -12.714  1.00  0.00    -0.394 OA
HETATM   36  H16 UNL     1      -3.111  50.875 -12.247  1.00  0.00     0.210 HD
ENDBRANCH  12  35
TORSDOF 8
ENDMDL
MODEL 7
REMARK minimizedAffinity -8.80664539
REMARK CNNscore 0.439408302
REMARK CNNaffinity 7.03777075
REMARK  8 active torsions:
REMARK  status: ('A' for Active; 'I' for Inactive)
REMARK    1  A    between atoms: C12_12  and  O1_13 
REMARK    2  A    between atoms: C17_18  and  O2_19 
REMARK    3  A    between atoms: C18_20  and  C19_21 
REMARK    4  A    between atoms: C19_21  and  C21_23 
REMARK    5  A    between atoms: C21_23  and  C22_24 
REMARK    6  A    between atoms: C22_24  and  C23_25 
REMARK    7  A    between atoms: C24_26  and  C26_28 
REMARK    8  A    between atoms: C26_28  and  O3_29 
ROOT
HETATM    1  C1  UNL     1      -2.337  48.741 -26.622  1.00  0.00     0.044 C 
HETATM    2  C2  UNL     1      -1.854  50.091 -26.155  1.00  0.00    -0.074 C 
HETATM    3  C3  UNL     1      -1.710  50.504 -24.869  1.00  0.00    -0.044 C 
HETATM    4  C4  UNL     1      -2.268  49.834 -23.655  1.00  0.00    -0.048 C 
HETATM    5  C5  UNL     1      -1.813  50.151 -22.410  1.00  0.00    -0.064 C 
HETATM    6  C6  UNL     1      -0.676  51.106 -22.156  1.00  0.00     0.036 C 
HETATM    7  C7  UNL     1       0.035  51.549 -23.423  1.00  0.00     0.014 C 
HETATM    8  C8  UNL     1      -0.974  51.827 -24.551  1.00  0.00     0.030 C 
HETATM    9  C9  UNL     1      -0.294  52.557 -25.767  1.00  0.00    -0.014 C 
HETATM   10  C10 UNL     1       1.097  51.972 -26.113  1.00  0.00     0.018 C 
HETATM   11  C11 UNL     1      -0.088  54.052 -25.433  1.00  0.00     0.018 C 
HETATM   12  C12 UNL     1      -1.260  52.443 -26.966  1.00  0.00     0.130 C 
HETATM   13  C13 UNL     1      -1.507  50.979 -27.332  1.00  0.00     0.067 C 
HETATM   14  C14 UNL     1      -2.534  49.639 -21.159  1.00  0.00    -0.010 C 
HETATM   15  C15 UNL     1      -3.577  50.759 -20.832  1.00  0.00     0.021 C 
HETATM   16  C16 UNL     1      -1.735  49.365 -19.869  1.00  0.00     0.046 C 
HETATM   17  C17 UNL     1      -2.649  48.434 -19.033  1.00  0.00     0.124 C 
HETATM   18  C18 UNL     1      -3.711  47.852 -20.016  1.00  0.00     0.027 C 
HETATM   19  C27 UNL     1      -3.128  48.205 -21.416  1.00  0.00    -0.026 C 
HETATM   20  C28 UNL     1      -2.035  47.178 -21.841  1.00  0.00     0.016 C 
HETATM   21  C29 UNL     1      -4.148  48.337 -22.549  1.00  0.00     0.015 C 
HETATM   22  C30 UNL     1      -3.469  48.889 -23.824  1.00  0.00     0.040 C 
ENDROOT
BRANCH  18  23
HETATM   23  C19 UNL     1      -4.344  46.455 -19.725  1.00  0.00    -0.011 C 
HETATM   24  C20 UNL     1      -5.041  45.960 -21.009  1.00  0.00     0.010 C 
BRANCH  23  25
HETATM   25  C21 UNL     1      -5.306  46.321 -18.520  1.00  0.00     0.008 C 
BRANCH  25  26
HETATM   26  C22 UNL     1      -5.362  44.937 -17.853  1.00  0.00     0.028 C 
BRANCH  26  27
HETATM   27  C23 UNL     1      -4.040  44.473 -17.307  1.00  0.00    -0.022 C 
HETATM   28  C24 UNL     1      -3.341  43.375 -17.665  1.00  0.00    -0.064 C 
HETATM   29  C25 UNL     1      -2.000  43.084 -17.039  1.00  0.00     0.045 C 
BRANCH  28  30
HETATM   30  C26 UNL     1      -3.792  42.362 -18.683  1.00  0.00     0.197 C 
BRANCH  30  31
HETATM   31  O3  UNL     1      -2.654  41.688 -19.201  1.00  0.00    -0.397 OA
HETATM   32  H41 UNL     1      -2.158  41.354 -18.431  1.00  0.00     0.209 HD
ENDBRANCH  30  31
ENDBRANCH  28  30
ENDBRANCH  26  27
ENDBRANCH  25  26
ENDBRANCH  23  25
ENDBRANCH  18  23
BRANCH  17  33
HETATM   33  O2  UNL     1      -1.862  47.449 -18.395  1.00  0.00    -0.395 OA
HETATM   34  H25 UNL     1      -1.234  47.905 -17.808  1.00  0.00     0.210 HD
ENDBRANCH  17  33
BRANCH  12  35
HETATM   35  O1  UNL     1      -0.788  53.155 -28.110  1.00  0.00    -0.394 OA
HETATM   36  H16 UNL     1      -0.039  52.668 -28.491  1.00  0.00     0.210 HD
ENDBRANCH  12  35
TORSDOF 8
ENDMDL
MODEL 8
REMARK minimizedAffinity -8.13912964
REMARK CNNscore 0.404332548
REMARK CNNaffinity 6.94781733
REMARK  8 active torsions:
REMARK  status: ('A' for Active; 'I' for Inactive)
REMARK    1  A    between atoms: C12_12  and  O1_13 
REMARK    2  A    between atoms: C17_18  and  O2_19 
REMARK    3  A    between atoms: C18_20  and  C19_21 
REMARK    4  A    between atoms: C19_21  and  C21_23 
REMARK    5  A    between atoms: C21_23  and  C22_24 
REMARK    6  A    between atoms: C22_24  and  C23_25 
REMARK    7  A    between atoms: C24_26  and  C26_28 
REMARK    8  A    between atoms: C26_28  and  O3_29 
ROOT
HETATM    1  C1  UNL     1      -2.351  48.942 -26.529  1.00  0.00     0.044 C 
HETATM    2  C2  UNL     1      -1.811  50.304 -26.174  1.00  0.00    -0.074 C 
HETATM    3  C3  UNL     1      -1.568  50.785 -24.926  1.00  0.00    -0.044 C 
HETATM    4  C4  UNL     1      -2.050  50.196 -23.641  1.00  0.00    -0.048 C 
HETATM    5  C5  UNL     1      -1.502  50.570 -22.450  1.00  0.00    -0.064 C 
HETATM    6  C6  UNL     1      -0.331  51.512 -22.331  1.00  0.00     0.036 C 
HETATM    7  C7  UNL     1       0.295  51.867 -23.669  1.00  0.00     0.014 C 
HETATM    8  C8  UNL     1      -0.786  52.106 -24.737  1.00  0.00     0.030 C 
HETATM    9  C9  UNL     1      -0.181  52.752 -26.037  1.00  0.00    -0.014 C 
HETATM   10  C10 UNL     1       1.171  52.118 -26.446  1.00  0.00     0.018 C 
HETATM   11  C11 UNL     1       0.077  54.258 -25.803  1.00  0.00     0.018 C 
HETATM   12  C12 UNL     1      -1.232  52.594 -27.156  1.00  0.00     0.130 C 
HETATM   13  C13 UNL     1      -1.532  51.119 -27.421  1.00  0.00     0.067 C 
HETATM   14  C14 UNL     1      -2.140  50.144 -21.125  1.00  0.00    -0.010 C 
HETATM   15  C15 UNL     1      -3.137  51.304 -20.790  1.00  0.00     0.021 C 
HETATM   16  C16 UNL     1      -1.257  49.924 -19.881  1.00  0.00     0.046 C 
HETATM   17  C17 UNL     1      -2.126  49.061 -18.931  1.00  0.00     0.124 C 
HETATM   18  C18 UNL     1      -3.267  48.450 -19.803  1.00  0.00     0.027 C 
HETATM   19  C27 UNL     1      -2.778  48.712 -21.258  1.00  0.00    -0.026 C 
HETATM   20  C28 UNL     1      -1.738  47.638 -21.700  1.00  0.00     0.016 C 
HETATM   21  C29 UNL     1      -3.874  48.805 -22.323  1.00  0.00     0.015 C 
HETATM   22  C30 UNL     1      -3.277  49.270 -23.671  1.00  0.00     0.040 C 
ENDROOT
BRANCH  18  23
HETATM   23  C19 UNL     1      -3.903  47.086 -19.389  1.00  0.00    -0.011 C 
HETATM   24  C20 UNL     1      -5.292  46.977 -20.052  1.00  0.00     0.010 C 
BRANCH  23  25
HETATM   25  C21 UNL     1      -4.013  46.754 -17.882  1.00  0.00     0.008 C 
BRANCH  25  26
HETATM   26  C22 UNL     1      -5.099  45.737 -17.493  1.00  0.00     0.028 C 
BRANCH  26  27
HETATM   27  C23 UNL     1      -6.011  46.213 -16.396  1.00  0.00    -0.022 C 
HETATM   28  C24 UNL     1      -7.232  45.735 -16.076  1.00  0.00    -0.064 C 
HETATM   29  C25 UNL     1      -7.994  46.306 -14.907  1.00  0.00     0.045 C 
BRANCH  28  30
HETATM   30  C26 UNL     1      -7.942  44.629 -16.808  1.00  0.00     0.197 C 
BRANCH  30  31
HETATM   31  O3  UNL     1      -9.100  45.158 -17.436  1.00  0.00    -0.397 OA
HETATM   32  H41 UNL     1      -8.802  45.920 -17.966  1.00  0.00     0.209 HD
ENDBRANCH  30  31
ENDBRANCH  28  30
ENDBRANCH  26  27
ENDBRANCH  25  26
ENDBRANCH  23  25
ENDBRANCH  18  23
BRANCH  17  33
HETATM   33  O2  UNL     1      -1.314  48.095 -18.296  1.00  0.00    -0.395 OA
HETATM   34  H25 UNL     1      -0.638  48.569 -17.781  1.00  0.00     0.210 HD
ENDBRANCH  17  33
BRANCH  12  35
HETATM   35  O1  UNL     1      -0.830  53.231 -28.370  1.00  0.00    -0.394 OA
HETATM   36  H16 UNL     1      -0.119  52.707 -28.774  1.00  0.00     0.210 HD
ENDBRANCH  12  35
TORSDOF 8
ENDMDL
MODEL 9
REMARK minimizedAffinity -10.4890461
REMARK CNNscore 0.385355026
REMARK CNNaffinity 7.21611261
REMARK  8 active torsions:
REMARK  status: ('A' for Active; 'I' for Inactive)
REMARK    1  A    between atoms: C12_12  and  O1_13 
REMARK    2  A    between atoms: C17_18  and  O2_19 
REMARK    3  A    between atoms: C18_20  and  C19_21 
REMARK    4  A    between atoms: C19_21  and  C21_23 
REMARK    5  A    between atoms: C21_23  and  C22_24 
REMARK    6  A    between atoms: C22_24  and  C23_25 
REMARK    7  A    between atoms: C24_26  and  C26_28 
REMARK    8  A    between atoms: C26_28  and  O3_29 
ROOT
HETATM    1  C1  UNL     1       3.079  52.713 -16.726  1.00  0.00     0.044 C 
HETATM    2  C2  UNL     1       2.156  51.875 -15.877  1.00  0.00    -0.074 C 
HETATM    3  C3  UNL     1       1.056  51.197 -16.295  1.00  0.00    -0.044 C 
HETATM    4  C4  UNL     1       0.355  51.366 -17.604  1.00  0.00    -0.048 C 
HETATM    5  C5  UNL     1      -0.538  50.435 -18.045  1.00  0.00    -0.064 C 
HETATM    6  C6  UNL     1      -0.821  49.143 -17.322  1.00  0.00     0.036 C 
HETATM    7  C7  UNL     1       0.110  48.893 -16.148  1.00  0.00     0.014 C 
HETATM    8  C8  UNL     1       0.356  50.187 -15.354  1.00  0.00     0.030 C 
HETATM    9  C9  UNL     1       1.072  49.898 -13.984  1.00  0.00    -0.014 C 
HETATM   10  C10 UNL     1       2.206  48.852 -14.112  1.00  0.00     0.018 C 
HETATM   11  C11 UNL     1       0.051  49.338 -12.967  1.00  0.00     0.018 C 
HETATM   12  C12 UNL     1       1.612  51.246 -13.458  1.00  0.00     0.130 C 
HETATM   13  C13 UNL     1       2.621  51.849 -14.435  1.00  0.00     0.067 C 
HETATM   14  C14 UNL     1      -1.420  50.712 -19.266  1.00  0.00    -0.010 C 
HETATM   15  C15 UNL     1      -2.712  51.359 -18.665  1.00  0.00     0.021 C 
HETATM   16  C16 UNL     1      -1.868  49.549 -20.172  1.00  0.00     0.046 C 
HETATM   17  C17 UNL     1      -2.288  50.226 -21.501  1.00  0.00     0.124 C 
HETATM   18  C18 UNL     1      -1.670  51.658 -21.486  1.00  0.00     0.027 C 
HETATM   19  C27 UNL     1      -0.643  51.588 -20.317  1.00  0.00    -0.026 C 
HETATM   20  C28 UNL     1       0.686  50.917 -20.781  1.00  0.00     0.016 C 
HETATM   21  C29 UNL     1      -0.313  52.919 -19.638  1.00  0.00     0.015 C 
HETATM   22  C30 UNL     1       0.547  52.682 -18.376  1.00  0.00     0.040 C 
ENDROOT
BRANCH  18  23
HETATM   23  C19 UNL     1      -1.321  52.358 -22.837  1.00  0.00    -0.011 C 
HETATM   24  C20 UNL     1      -2.519  52.192 -23.794  1.00  0.00     0.010 C 
BRANCH  23  25
HETATM   25  C21 UNL     1      -0.013  51.952 -23.557  1.00  0.00     0.008 C 
BRANCH  25  26
HETATM   26  C22 UNL     1       0.617  53.023 -24.465  1.00  0.00     0.028 C 
BRANCH  26  27
HETATM   27  C23 UNL     1       0.379  52.790 -25.932  1.00  0.00    -0.022 C 
HETATM   28  C24 UNL     1       1.142  52.074 -26.785  1.00  0.00    -0.064 C 
HETATM   29  C25 UNL     1       0.726  51.907 -28.225  1.00  0.00     0.045 C 
BRANCH  28  30
HETATM   30  C26 UNL     1       2.430  51.388 -26.420  1.00  0.00     0.197 C 
BRANCH  30  31
HETATM   31  O3  UNL     1       3.371  51.583 -27.466  1.00  0.00    -0.397 OA
HETATM   32  H41 UNL     1       3.409  52.544 -27.625  1.00  0.00     0.209 HD
ENDBRANCH  30  31
ENDBRANCH  28  30
ENDBRANCH  26  27
ENDBRANCH  25  26
ENDBRANCH  23  25
ENDBRANCH  18  23
BRANCH  17  33
HETATM   33  O2  UNL     1      -1.863  49.433 -22.590  1.00  0.00    -0.395 OA
HETATM   34  H25 UNL     1      -2.299  48.566 -22.513  1.00  0.00     0.210 HD
ENDBRANCH  17  33
BRANCH  12  35
HETATM   35  O1  UNL     1       2.205  51.122 -12.164  1.00  0.00    -0.394 OA
HETATM   36  H16 UNL     1       3.054  50.660 -12.256  1.00  0.00     0.210 HD
ENDBRANCH  12  35
TORSDOF 8
ENDMDL
