MODEL 1
REMARK minimizedAffinity -9.43023872
REMARK  2 active torsions:
REMARK  status: ('A' for Active; 'I' for Inactive)
REMARK    1  A    between atoms: C3_4  and  C4_5 
REMARK       I    between atoms: N3_16  and  C13_17 
REMARK       I    between atoms: C13_17  and  N4_19 
REMARK    2  A    between atoms: N4_19  and  C14_20 
ROOT
HETATM    1  C4  UNL     1      -1.179  51.503 -23.801  1.00  0.00    -0.020 A 
HETATM    2  C5  UNL     1      -2.202  50.609 -24.158  1.00  0.00     0.015 A 
HETATM    3  C6  UNL     1      -2.722  49.697 -23.230  1.00  0.00     0.033 A 
HETATM    4  C7  UNL     1      -2.213  49.653 -21.935  1.00  0.00     0.068 A 
HETATM    5  N2  UNL     1      -2.747  48.711 -21.034  1.00  0.00    -0.325 N 
HETATM    6  C8  UNL     1      -1.998  48.179 -20.005  1.00  0.00     0.222 C 
HETATM    7  O1  UNL     1      -0.841  47.790 -20.119  1.00  0.00    -0.273 OA
HETATM    8  C9  UNL     1      -2.754  48.144 -18.694  1.00  0.00     0.108 C 
HETATM    9  C10 UNL     1      -1.815  48.353 -17.496  1.00  0.00     0.001 C 
HETATM   10  C11 UNL     1      -2.579  48.189 -16.163  1.00  0.00     0.025 C 
HETATM   11  C12 UNL     1      -2.489  49.380 -15.221  1.00  0.00     0.128 C 
HETATM   12  N3  UNL     1      -1.134  49.888 -15.047  1.00  0.00    -0.334 N 
HETATM   13  C13 UNL     1      -0.893  50.684 -13.925  1.00  0.00     0.322 C 
HETATM   14  O2  UNL     1      -1.812  51.039 -13.190  1.00  0.00    -0.247 OA
HETATM   15  N4  UNL     1       0.433  50.998 -13.729  1.00  0.00    -0.309 N 
HETATM   16  C20 UNL     1      -0.193  49.710 -16.156  1.00  0.00     0.132 C 
HETATM   17  C21 UNL     1      -0.885  49.602 -17.532  1.00  0.00     0.010 C 
HETATM   18  C22 UNL     1      -1.482  50.983 -17.917  1.00  0.00     0.033 C 
HETATM   19  C23 UNL     1      -1.819  51.245 -19.389  1.00  0.00     0.176 C 
HETATM   20  O3  UNL     1      -0.799  50.730 -20.250  1.00  0.00    -0.349 OA
HETATM   21  C24 UNL     1      -1.245  50.598 -21.546  1.00  0.00     0.096 A 
HETATM   22  C25 UNL     1      -0.707  51.486 -22.482  1.00  0.00     0.051 A 
HETATM   23  H7  UNL     1      -3.633  48.273 -21.244  1.00  0.00     0.169 HD
HETATM   24  H15 UNL     1       1.088  50.377 -14.176  1.00  0.00     0.170 HD
ENDROOT
BRANCH  15  25
HETATM   25  C14 UNL     1       0.973  51.902 -12.793  1.00  0.00     0.037 A 
HETATM   26  C15 UNL     1       2.300  51.870 -12.360  1.00  0.00     0.029 A 
HETATM   27  C16 UNL     1       2.762  52.787 -11.411  1.00  0.00     0.004 A 
HETATM   28  C17 UNL     1       1.900  53.745 -10.885  1.00  0.00     0.024 A 
HETATM   29  C18 UNL     1       0.575  53.779 -11.308  1.00  0.00     0.036 A 
HETATM   30 CL1  UNL     1      -0.502  54.951 -10.651  1.00  0.00    -0.084 Cl
HETATM   31  C19 UNL     1       0.109  52.865 -12.254  1.00  0.00     0.053 A 
ENDBRANCH  15  25
BRANCH   1  32
HETATM   32  C3  UNL     1      -0.637  52.424 -24.789  1.00  0.00     0.008 A 
HETATM   33  C2  UNL     1      -0.913  52.410 -26.141  1.00  0.00     0.123 A 
HETATM   34  N1  UNL     1      -0.200  53.434 -26.694  1.00  0.00    -0.307 N 
HETATM   35  C1  UNL     1      -0.172  53.822 -28.082  1.00  0.00     0.177 C 
HETATM   36  N5  UNL     1       0.540  54.113 -25.803  1.00  0.00    -0.310 N 
HETATM   37  C26 UNL     1       0.268  53.506 -24.646  1.00  0.00     0.120 A 
ATOM     38  H5  UNL     1       1.162  54.904 -25.971  1.00  0.00     0.186 HD
ENDBRANCH   1  32
TORSDOF 2
ENDMDL
MODEL 2
REMARK minimizedAffinity -9.40854073
REMARK  2 active torsions:
REMARK  status: ('A' for Active; 'I' for Inactive)
REMARK    1  A    between atoms: C3_4  and  C4_5 
REMARK       I    between atoms: N3_16  and  C13_17 
REMARK       I    between atoms: C13_17  and  N4_19 
REMARK    2  A    between atoms: N4_19  and  C14_20 
ROOT
HETATM    1  C4  UNL     1      -4.790  48.541 -26.583  1.00  0.00    -0.020 A 
HETATM    2  C5  UNL     1      -3.798  49.000 -27.466  1.00  0.00     0.015 A 
HETATM    3  C6  UNL     1      -2.739  49.798 -27.014  1.00  0.00     0.033 A 
HETATM    4  C7  UNL     1      -2.667  50.165 -25.672  1.00  0.00     0.068 A 
HETATM    5  N2  UNL     1      -1.598  50.983 -25.255  1.00  0.00    -0.325 N 
HETATM    6  C8  UNL     1      -1.717  51.853 -24.191  1.00  0.00     0.222 C 
HETATM    7  O1  UNL     1      -2.684  52.583 -23.997  1.00  0.00    -0.273 OA
HETATM    8  C9  UNL     1      -0.525  51.799 -23.261  1.00  0.00     0.108 C 
HETATM    9  C10 UNL     1      -0.936  52.058 -21.803  1.00  0.00     0.001 C 
HETATM   10  C11 UNL     1       0.306  52.125 -20.886  1.00  0.00     0.025 C 
HETATM   11  C12 UNL     1       0.291  51.154 -19.715  1.00  0.00     0.128 C 
HETATM   12  N3  UNL     1      -0.966  51.144 -18.978  1.00  0.00    -0.334 N 
HETATM   13  C13 UNL     1      -0.941  50.615 -17.686  1.00  0.00     0.322 C 
HETATM   14  O2  UNL     1       0.068  50.071 -17.242  1.00  0.00    -0.247 OA
HETATM   15  N4  UNL     1      -2.114  50.779 -16.985  1.00  0.00    -0.309 N 
HETATM   16  C20 UNL     1      -2.188  51.483 -19.713  1.00  0.00     0.132 C 
HETATM   17  C21 UNL     1      -2.091  51.188 -21.225  1.00  0.00     0.010 C 
HETATM   18  C22 UNL     1      -2.071  49.652 -21.450  1.00  0.00     0.033 C 
HETATM   19  C23 UNL     1      -2.420  49.115 -22.842  1.00  0.00     0.176 C 
HETATM   20  O3  UNL     1      -3.527  49.826 -23.405  1.00  0.00    -0.349 OA
HETATM   21  C24 UNL     1      -3.611  49.644 -24.767  1.00  0.00     0.096 A 
HETATM   22  C25 UNL     1      -4.683  48.874 -25.227  1.00  0.00     0.051 A 
HETATM   23  H7  UNL     1      -0.787  51.077 -25.849  1.00  0.00     0.169 HD
HETATM   24  H15 UNL     1      -2.710  51.520 -17.318  1.00  0.00     0.170 HD
ENDROOT
BRANCH  15  25
HETATM   25  C14 UNL     1      -2.455  50.223 -15.736  1.00  0.00     0.037 A 
HETATM   26  C15 UNL     1      -2.565  48.851 -15.502  1.00  0.00     0.029 A 
HETATM   27  C16 UNL     1      -2.929  48.371 -14.240  1.00  0.00     0.004 A 
HETATM   28  C17 UNL     1      -3.188  49.259 -13.200  1.00  0.00     0.024 A 
HETATM   29  C18 UNL     1      -3.085  50.628 -13.428  1.00  0.00     0.036 A 
HETATM   30 CL1  UNL     1      -3.418  51.734 -12.152  1.00  0.00    -0.084 Cl
HETATM   31  C19 UNL     1      -2.724  51.112 -14.686  1.00  0.00     0.053 A 
ENDBRANCH  15  25
BRANCH   1  32
HETATM   32  C3  UNL     1      -5.894  47.734 -27.081  1.00  0.00     0.008 A 
HETATM   33  C2  UNL     1      -6.069  47.328 -28.389  1.00  0.00     0.123 A 
HETATM   34  N1  UNL     1      -7.224  46.599 -28.418  1.00  0.00    -0.307 N 
HETATM   35  C1  UNL     1      -7.816  45.958 -29.564  1.00  0.00     0.177 C 
HETATM   36  N5  UNL     1      -7.831  46.511 -27.223  1.00  0.00    -0.310 N 
HETATM   37  C26 UNL     1      -7.018  47.192 -26.411  1.00  0.00     0.120 A 
ATOM     38  H5  UNL     1      -8.704  46.037 -26.992  1.00  0.00     0.186 HD
ENDBRANCH   1  32
TORSDOF 2
ENDMDL
MODEL 3
REMARK minimizedAffinity -9.28670025
REMARK  2 active torsions:
REMARK  status: ('A' for Active; 'I' for Inactive)
REMARK    1  A    between atoms: C3_4  and  C4_5 
REMARK       I    between atoms: N3_16  and  C13_17 
REMARK       I    between atoms: C13_17  and  N4_19 
REMARK    2  A    between atoms: N4_19  and  C14_20 
ROOT
HETATM    1  C4  UNL     1       0.481  50.934 -16.212  1.00  0.00    -0.020 A 
HETATM    2  C5  UNL     1       1.138  52.169 -16.087  1.00  0.00     0.015 A 
HETATM    3  C6  UNL     1       1.400  52.966 -17.209  1.00  0.00     0.033 A 
HETATM    4  C7  UNL     1       1.024  52.530 -18.478  1.00  0.00     0.068 A 
HETATM    5  N2  UNL     1       1.320  53.348 -19.585  1.00  0.00    -0.325 N 
HETATM    6  C8  UNL     1       1.543  52.823 -20.841  1.00  0.00     0.222 C 
HETATM    7  O1  UNL     1       2.233  51.835 -21.067  1.00  0.00    -0.273 OA
HETATM    8  C9  UNL     1       0.821  53.590 -21.927  1.00  0.00     0.108 C 
HETATM    9  C10 UNL     1       0.380  52.665 -23.072  1.00  0.00     0.001 C 
HETATM   10  C11 UNL     1      -0.242  53.479 -24.229  1.00  0.00     0.025 C 
HETATM   11  C12 UNL     1      -1.650  53.059 -24.624  1.00  0.00     0.128 C 
HETATM   12  N3  UNL     1      -1.808  51.620 -24.787  1.00  0.00    -0.334 N 
HETATM   13  C13 UNL     1      -2.909  51.181 -25.525  1.00  0.00     0.322 C 
HETATM   14  O2  UNL     1      -3.769  51.969 -25.911  1.00  0.00    -0.247 OA
HETATM   15  N4  UNL     1      -2.915  49.828 -25.779  1.00  0.00    -0.309 N 
HETATM   16  C20 UNL     1      -0.937  50.746 -23.995  1.00  0.00     0.132 C 
HETATM   17  C21 UNL     1      -0.444  51.400 -22.686  1.00  0.00     0.010 C 
HETATM   18  C22 UNL     1      -1.635  51.541 -21.701  1.00  0.00     0.033 C 
HETATM   19  C23 UNL     1      -1.329  51.743 -20.213  1.00  0.00     0.176 C 
HETATM   20  O3  UNL     1      -0.250  50.903 -19.791  1.00  0.00    -0.349 OA
HETATM   21  C24 UNL     1       0.295  51.332 -18.602  1.00  0.00     0.096 A 
HETATM   22  C25 UNL     1       0.062  50.525 -17.485  1.00  0.00     0.051 A 
HETATM   23  H7  UNL     1       1.555  54.319 -19.434  1.00  0.00     0.169 HD
HETATM   24  H15 UNL     1      -2.016  49.378 -25.719  1.00  0.00     0.170 HD
ENDROOT
BRANCH  15  25
HETATM   25  C14 UNL     1      -3.954  49.065 -26.351  1.00  0.00     0.037 A 
HETATM   26  C15 UNL     1      -4.057  48.797 -27.717  1.00  0.00     0.029 A 
HETATM   27  C16 UNL     1      -5.129  48.050 -28.218  1.00  0.00     0.004 A 
HETATM   28  C17 UNL     1      -6.109  47.567 -27.355  1.00  0.00     0.024 A 
HETATM   29  C18 UNL     1      -6.014  47.836 -25.993  1.00  0.00     0.036 A 
HETATM   30 CL1  UNL     1      -7.230  47.254 -24.922  1.00  0.00    -0.084 Cl
HETATM   31  C19 UNL     1      -4.948  48.581 -25.490  1.00  0.00     0.053 A 
ENDBRANCH  15  25
BRANCH   1  32
HETATM   32  C3  UNL     1       0.242  50.112 -15.035  1.00  0.00     0.008 A 
HETATM   33  C2  UNL     1       0.645  48.801 -14.872  1.00  0.00     0.123 A 
HETATM   34  N1  UNL     1       0.216  48.414 -13.635  1.00  0.00    -0.307 N 
HETATM   35  C1  UNL     1       0.409  47.129 -13.013  1.00  0.00     0.177 C 
HETATM   36  N5  UNL     1      -0.456  49.373 -12.977  1.00  0.00    -0.310 N 
HETATM   37  C26 UNL     1      -0.432  50.405 -13.823  1.00  0.00     0.120 A 
ATOM     38  H5  UNL     1      -0.883  49.323 -12.052  1.00  0.00     0.186 HD
ENDBRANCH   1  32
TORSDOF 2
ENDMDL
MODEL 4
REMARK minimizedAffinity -9.27820683
REMARK  2 active torsions:
REMARK  status: ('A' for Active; 'I' for Inactive)
REMARK    1  A    between atoms: C3_4  and  C4_5 
REMARK       I    between atoms: N3_16  and  C13_17 
REMARK       I    between atoms: C13_17  and  N4_19 
REMARK    2  A    between atoms: N4_19  and  C14_20 
ROOT
HETATM    1  C4  UNL     1      -1.875  51.313 -19.702  1.00  0.00    -0.020 A 
HETATM    2  C5  UNL     1      -2.183  50.635 -18.512  1.00  0.00     0.015 A 
HETATM    3  C6  UNL     1      -3.317  49.817 -18.416  1.00  0.00     0.033 A 
HETATM    4  C7  UNL     1      -4.171  49.680 -19.509  1.00  0.00     0.068 A 
HETATM    5  N2  UNL     1      -5.311  48.864 -19.372  1.00  0.00    -0.325 N 
HETATM    6  C8  UNL     1      -6.465  49.097 -20.091  1.00  0.00     0.222 C 
HETATM    7  O1  UNL     1      -6.966  50.204 -20.259  1.00  0.00    -0.273 OA
HETATM    8  C9  UNL     1      -7.048  47.830 -20.680  1.00  0.00     0.108 C 
HETATM    9  C10 UNL     1      -7.736  48.100 -22.027  1.00  0.00     0.001 C 
HETATM   10  C11 UNL     1      -8.433  46.826 -22.553  1.00  0.00     0.025 C 
HETATM   11  C12 UNL     1      -8.004  46.387 -23.945  1.00  0.00     0.128 C 
HETATM   12  N3  UNL     1      -7.980  47.471 -24.919  1.00  0.00    -0.334 N 
HETATM   13  C13 UNL     1      -8.001  47.113 -26.269  1.00  0.00     0.322 C 
HETATM   14  O2  UNL     1      -7.918  45.936 -26.615  1.00  0.00    -0.247 OA
HETATM   15  N4  UNL     1      -8.139  48.175 -27.133  1.00  0.00    -0.309 N 
HETATM   16  C20 UNL     1      -7.719  48.825 -24.423  1.00  0.00     0.132 C 
HETATM   17  C21 UNL     1      -6.905  48.849 -23.112  1.00  0.00     0.010 C 
HETATM   18  C22 UNL     1      -5.449  48.394 -23.402  1.00  0.00     0.033 C 
HETATM   19  C23 UNL     1      -4.359  48.748 -22.384  1.00  0.00     0.176 C 
HETATM   20  O3  UNL     1      -4.524  50.084 -21.897  1.00  0.00    -0.349 OA
HETATM   21  C24 UNL     1      -3.826  50.291 -20.729  1.00  0.00     0.096 A 
HETATM   22  C25 UNL     1      -2.711  51.130 -20.811  1.00  0.00     0.051 A 
HETATM   23  H7  UNL     1      -5.360  48.207 -18.606  1.00  0.00     0.169 HD
HETATM   24  H15 UNL     1      -8.537  49.007 -26.727  1.00  0.00     0.170 HD
ENDROOT
BRANCH  15  25
HETATM   25  C14 UNL     1      -8.034  48.160 -28.538  1.00  0.00     0.037 A 
HETATM   26  C15 UNL     1      -9.096  48.447 -29.398  1.00  0.00     0.029 A 
HETATM   27  C16 UNL     1      -8.926  48.390 -30.785  1.00  0.00     0.004 A 
HETATM   28  C17 UNL     1      -7.690  48.044 -31.325  1.00  0.00     0.024 A 
HETATM   29  C18 UNL     1      -6.629  47.751 -30.473  1.00  0.00     0.036 A 
HETATM   30 CL1  UNL     1      -5.102  47.306 -31.133  1.00  0.00    -0.084 Cl
HETATM   31  C19 UNL     1      -6.796  47.805 -29.089  1.00  0.00     0.053 A 
ENDBRANCH  15  25
BRANCH   1  32
HETATM   32  C3  UNL     1      -0.705  52.177 -19.769  1.00  0.00     0.008 A 
HETATM   33  C2  UNL     1      -0.194  52.753 -20.915  1.00  0.00     0.123 A 
HETATM   34  N1  UNL     1       0.898  53.477 -20.531  1.00  0.00    -0.307 N 
HETATM   35  C1  UNL     1       1.758  54.265 -21.377  1.00  0.00     0.177 C 
HETATM   36  N5  UNL     1       1.152  53.405 -19.214  1.00  0.00    -0.310 N 
HETATM   37  C26 UNL     1       0.173  52.624 -18.752  1.00  0.00     0.120 A 
ATOM     38  H5  UNL     1       1.912  53.843 -18.693  1.00  0.00     0.186 HD
ENDBRANCH   1  32
TORSDOF 2
ENDMDL
MODEL 5
REMARK minimizedAffinity -9.12264252
REMARK  2 active torsions:
REMARK  status: ('A' for Active; 'I' for Inactive)
REMARK    1  A    between atoms: C3_4  and  C4_5 
REMARK       I    between atoms: N3_16  and  C13_17 
REMARK       I    between atoms: C13_17  and  N4_19 
REMARK    2  A    between atoms: N4_19  and  C14_20 
ROOT
HETATM    1  C4  UNL     1      -0.398  52.586 -23.444  1.00  0.00    -0.020 A 
HETATM    2  C5  UNL     1       0.705  52.317 -22.618  1.00  0.00     0.015 A 
HETATM    3  C6  UNL     1       0.546  51.664 -21.388  1.00  0.00     0.033 A 
HETATM    4  C7  UNL     1      -0.724  51.287 -20.958  1.00  0.00     0.068 A 
HETATM    5  N2  UNL     1      -0.850  50.648 -19.709  1.00  0.00    -0.325 N 
HETATM    6  C8  UNL     1      -1.993  50.759 -18.944  1.00  0.00     0.222 C 
HETATM    7  O1  UNL     1      -2.601  51.807 -18.754  1.00  0.00    -0.273 OA
HETATM    8  C9  UNL     1      -2.440  49.431 -18.373  1.00  0.00     0.108 C 
HETATM    9  C10 UNL     1      -3.970  49.353 -18.262  1.00  0.00     0.001 C 
HETATM   10  C11 UNL     1      -4.405  48.046 -17.562  1.00  0.00     0.025 C 
HETATM   11  C12 UNL     1      -5.374  47.183 -18.358  1.00  0.00     0.128 C 
HETATM   12  N3  UNL     1      -6.490  47.927 -18.925  1.00  0.00    -0.334 N 
HETATM   13  C13 UNL     1      -7.615  47.193 -19.307  1.00  0.00     0.322 C 
HETATM   14  O2  UNL     1      -7.610  45.965 -19.280  1.00  0.00    -0.247 OA
HETATM   15  N4  UNL     1      -8.691  47.964 -19.684  1.00  0.00    -0.309 N 
HETATM   16  C20 UNL     1      -6.271  49.340 -19.250  1.00  0.00     0.132 C 
HETATM   17  C21 UNL     1      -4.793  49.676 -19.545  1.00  0.00     0.010 C 
HETATM   18  C22 UNL     1      -4.379  49.032 -20.895  1.00  0.00     0.033 C 
HETATM   19  C23 UNL     1      -3.135  49.573 -21.609  1.00  0.00     0.176 C 
HETATM   20  O3  UNL     1      -3.085  51.002 -21.543  1.00  0.00    -0.349 OA
HETATM   21  C24 UNL     1      -1.824  51.481 -21.816  1.00  0.00     0.096 A 
HETATM   22  C25 UNL     1      -1.666  52.160 -23.028  1.00  0.00     0.051 A 
HETATM   23  H7  UNL     1      -0.030  50.251 -19.272  1.00  0.00     0.169 HD
HETATM   24  H15 UNL     1      -8.683  48.909 -19.335  1.00  0.00     0.170 HD
ENDROOT
BRANCH  15  25
HETATM   25  C14 UNL     1      -9.899  47.528 -20.266  1.00  0.00     0.037 A 
HETATM   26  C15 UNL     1      -9.968  46.808 -21.460  1.00  0.00     0.029 A 
HETATM   27  C16 UNL     1     -11.204  46.427 -21.991  1.00  0.00     0.004 A 
HETATM   28  C17 UNL     1     -12.384  46.765 -21.333  1.00  0.00     0.024 A 
HETATM   29  C18 UNL     1     -12.321  47.488 -20.146  1.00  0.00     0.036 A 
HETATM   30 CL1  UNL     1     -13.776  47.923 -19.334  1.00  0.00    -0.084 Cl
HETATM   31  C19 UNL     1     -11.090  47.871 -19.613  1.00  0.00     0.053 A 
ENDBRANCH  15  25
BRANCH   1  32
HETATM   32  C3  UNL     1      -0.211  53.289 -24.705  1.00  0.00     0.008 A 
HETATM   33  C2  UNL     1      -0.456  52.769 -25.961  1.00  0.00     0.123 A 
HETATM   34  N1  UNL     1      -0.148  53.754 -26.855  1.00  0.00    -0.307 N 
HETATM   35  C1  UNL     1      -0.251  53.685 -28.291  1.00  0.00     0.177 C 
HETATM   36  N5  UNL     1       0.299  54.881 -26.278  1.00  0.00    -0.310 N 
HETATM   37  C26 UNL     1       0.252  54.601 -24.973  1.00  0.00     0.120 A 
ATOM     38  H5  UNL     1       0.602  55.744 -26.729  1.00  0.00     0.186 HD
ENDBRANCH   1  32
TORSDOF 2
ENDMDL
MODEL 6
REMARK minimizedAffinity -9.12030315
REMARK  2 active torsions:
REMARK  status: ('A' for Active; 'I' for Inactive)
REMARK    1  A    between atoms: C3_4  and  C4_5 
REMARK       I    between atoms: N3_16  and  C13_17 
REMARK       I    between atoms: C13_17  and  N4_19 
REMARK    2  A    between atoms: N4_19  and  C14_20 
ROOT
HETATM    1  C4  UNL     1      -5.781  48.285 -24.809  1.00  0.00    -0.020 A 
HETATM    2  C5  UNL     1      -4.737  48.374 -25.743  1.00  0.00     0.015 A 
HETATM    3  C6  UNL     1      -3.513  48.967 -25.405  1.00  0.00     0.033 A 
HETATM    4  C7  UNL     1      -3.322  49.496 -24.131  1.00  0.00     0.068 A 
HETATM    5  N2  UNL     1      -2.086  50.100 -23.832  1.00  0.00    -0.325 N 
HETATM    6  C8  UNL     1      -1.976  51.117 -22.906  1.00  0.00     0.222 C 
HETATM    7  O1  UNL     1      -2.746  52.068 -22.825  1.00  0.00    -0.273 OA
HETATM    8  C9  UNL     1      -0.801  50.926 -21.971  1.00  0.00     0.108 C 
HETATM    9  C10 UNL     1      -1.102  51.478 -20.569  1.00  0.00     0.001 C 
HETATM   10  C11 UNL     1       0.148  51.391 -19.664  1.00  0.00     0.025 C 
HETATM   11  C12 UNL     1      -0.054  50.626 -18.364  1.00  0.00     0.128 C 
HETATM   12  N3  UNL     1      -1.259  51.008 -17.641  1.00  0.00    -0.334 N 
HETATM   13  C13 UNL     1      -1.319  50.677 -16.285  1.00  0.00     0.322 C 
HETATM   14  O2  UNL     1      -0.447  49.987 -15.762  1.00  0.00    -0.247 OA
HETATM   15  N4  UNL     1      -2.405  51.202 -15.623  1.00  0.00    -0.309 N 
HETATM   16  C20 UNL     1      -2.393  51.507 -18.424  1.00  0.00     0.132 C 
HETATM   17  C21 UNL     1      -2.408  50.985 -19.877  1.00  0.00     0.010 C 
HETATM   18  C22 UNL     1      -2.741  49.469 -19.876  1.00  0.00     0.033 C 
HETATM   19  C23 UNL     1      -3.241  48.832 -21.177  1.00  0.00     0.176 C 
HETATM   20  O3  UNL     1      -4.174  49.689 -21.844  1.00  0.00    -0.349 OA
HETATM   21  C24 UNL     1      -4.334  49.338 -23.165  1.00  0.00     0.096 A 
HETATM   22  C25 UNL     1      -5.565  48.774 -23.514  1.00  0.00     0.051 A 
HETATM   23  H7  UNL     1      -1.290  49.921 -24.429  1.00  0.00     0.169 HD
HETATM   24  H15 UNL     1      -2.827  52.004 -16.063  1.00  0.00     0.170 HD
ENDROOT
BRANCH  15  25
HETATM   25  C14 UNL     1      -2.828  50.923 -14.308  1.00  0.00     0.037 A 
HETATM   26  C15 UNL     1      -2.999  49.631 -13.807  1.00  0.00     0.029 A 
HETATM   27  C16 UNL     1      -3.443  49.428 -12.496  1.00  0.00     0.004 A 
HETATM   28  C17 UNL     1      -3.722  50.517 -11.675  1.00  0.00     0.024 A 
HETATM   29  C18 UNL     1      -3.559  51.807 -12.170  1.00  0.00     0.036 A 
HETATM   30 CL1  UNL     1      -3.917  53.159 -11.166  1.00  0.00    -0.084 Cl
HETATM   31  C19 UNL     1      -3.117  52.014 -13.478  1.00  0.00     0.053 A 
ENDBRANCH  15  25
BRANCH   1  32
HETATM   32  C3  UNL     1      -7.053  47.688 -25.190  1.00  0.00     0.008 A 
HETATM   33  C2  UNL     1      -8.204  47.688 -24.428  1.00  0.00     0.123 A 
HETATM   34  N1  UNL     1      -9.151  47.024 -25.154  1.00  0.00    -0.307 N 
HETATM   35  C1  UNL     1     -10.519  46.776 -24.775  1.00  0.00     0.177 C 
HETATM   36  N5  UNL     1      -8.700  46.572 -26.335  1.00  0.00    -0.310 N 
HETATM   37  C26 UNL     1      -7.429  46.983 -26.360  1.00  0.00     0.120 A 
ATOM     38  H5  UNL     1      -9.207  46.041 -27.044  1.00  0.00     0.186 HD
ENDBRANCH   1  32
TORSDOF 2
ENDMDL
MODEL 7
REMARK minimizedAffinity -9.10035324
REMARK  2 active torsions:
REMARK  status: ('A' for Active; 'I' for Inactive)
REMARK    1  A    between atoms: C3_4  and  C4_5 
REMARK       I    between atoms: N3_16  and  C13_17 
REMARK       I    between atoms: C13_17  and  N4_19 
REMARK    2  A    between atoms: N4_19  and  C14_20 
ROOT
HETATM    1  C4  UNL     1     -14.710  46.402 -25.830  1.00  0.00    -0.020 A 
HETATM    2  C5  UNL     1     -15.346  45.773 -26.912  1.00  0.00     0.015 A 
HETATM    3  C6  UNL     1     -14.748  45.730 -28.178  1.00  0.00     0.033 A 
HETATM    4  C7  UNL     1     -13.510  46.334 -28.385  1.00  0.00     0.068 A 
HETATM    5  N2  UNL     1     -12.946  46.287 -29.674  1.00  0.00    -0.325 N 
HETATM    6  C8  UNL     1     -12.100  47.274 -30.137  1.00  0.00     0.222 C 
HETATM    7  O1  UNL     1     -12.290  48.476 -29.989  1.00  0.00    -0.273 OA
HETATM    8  C9  UNL     1     -10.882  46.712 -30.838  1.00  0.00     0.108 C 
HETATM    9  C10 UNL     1      -9.649  47.605 -30.627  1.00  0.00     0.001 C 
HETATM   10  C11 UNL     1      -8.448  47.088 -31.450  1.00  0.00     0.025 C 
HETATM   11  C12 UNL     1      -7.192  46.799 -30.641  1.00  0.00     0.128 C 
HETATM   12  N3  UNL     1      -6.835  47.865 -29.713  1.00  0.00    -0.334 N 
HETATM   13  C13 UNL     1      -5.521  47.883 -29.242  1.00  0.00     0.322 C 
HETATM   14  O2  UNL     1      -4.741  46.970 -29.502  1.00  0.00    -0.247 OA
HETATM   15  N4  UNL     1      -5.202  48.999 -28.501  1.00  0.00    -0.309 N 
HETATM   16  C20 UNL     1      -7.919  48.697 -29.183  1.00  0.00     0.132 C 
HETATM   17  C21 UNL     1      -9.285  47.976 -29.158  1.00  0.00     0.010 C 
HETATM   18  C22 UNL     1      -9.259  46.863 -28.077  1.00  0.00     0.033 C 
HETATM   19  C23 UNL     1     -10.595  46.317 -27.562  1.00  0.00     0.176 C 
HETATM   20  O3  UNL     1     -11.541  47.373 -27.366  1.00  0.00    -0.349 OA
HETATM   21  C24 UNL     1     -12.830  46.895 -27.287  1.00  0.00     0.096 A 
HETATM   22  C25 UNL     1     -13.443  46.963 -26.033  1.00  0.00     0.051 A 
HETATM   23  H7  UNL     1     -13.302  45.622 -30.346  1.00  0.00     0.169 HD
HETATM   24  H15 UNL     1      -5.793  49.799 -28.658  1.00  0.00     0.170 HD
ENDROOT
BRANCH  15  25
HETATM   25  C14 UNL     1      -4.024  49.233 -27.764  1.00  0.00     0.037 A 
HETATM   26  C15 UNL     1      -3.584  48.411 -26.724  1.00  0.00     0.029 A 
HETATM   27  C16 UNL     1      -2.415  48.718 -26.020  1.00  0.00     0.004 A 
HETATM   28  C17 UNL     1      -1.676  49.851 -26.349  1.00  0.00     0.024 A 
HETATM   29  C18 UNL     1      -2.112  50.677 -27.380  1.00  0.00     0.036 A 
HETATM   30 CL1  UNL     1      -1.212  52.088 -27.783  1.00  0.00    -0.084 Cl
HETATM   31  C19 UNL     1      -3.279  50.376 -28.084  1.00  0.00     0.053 A 
ENDBRANCH  15  25
BRANCH   1  32
HETATM   32  C3  UNL     1     -15.363  46.456 -24.529  1.00  0.00     0.008 A 
HETATM   33  C2  UNL     1     -16.685  46.146 -24.278  1.00  0.00     0.123 A 
HETATM   34  N1  UNL     1     -16.879  46.332 -22.940  1.00  0.00    -0.307 N 
HETATM   35  C1  UNL     1     -18.101  46.126 -22.204  1.00  0.00     0.177 C 
HETATM   36  N5  UNL     1     -15.783  46.760 -22.294  1.00  0.00    -0.310 N 
HETATM   37  C26 UNL     1     -14.861  46.826 -23.258  1.00  0.00     0.120 A 
ATOM     38  H5  UNL     1     -15.679  46.982 -21.303  1.00  0.00     0.186 HD
ENDBRANCH   1  32
TORSDOF 2
ENDMDL
MODEL 8
REMARK minimizedAffinity -9.0886631
REMARK  2 active torsions:
REMARK  status: ('A' for Active; 'I' for Inactive)
REMARK    1  A    between atoms: C3_4  and  C4_5 
REMARK       I    between atoms: N3_16  and  C13_17 
REMARK       I    between atoms: C13_17  and  N4_19 
REMARK    2  A    between atoms: N4_19  and  C14_20 
ROOT
HETATM    1  C4  UNL     1      -5.211  48.175 -27.637  1.00  0.00    -0.020 A 
HETATM    2  C5  UNL     1      -5.412  47.820 -28.981  1.00  0.00     0.015 A 
HETATM    3  C6  UNL     1      -6.596  47.196 -29.396  1.00  0.00     0.033 A 
HETATM    4  C7  UNL     1      -7.591  46.900 -28.466  1.00  0.00     0.068 A 
HETATM    5  N2  UNL     1      -8.760  46.255 -28.915  1.00  0.00    -0.325 N 
HETATM    6  C8  UNL     1      -9.495  45.423 -28.096  1.00  0.00     0.222 C 
HETATM    7  O1  UNL     1      -9.010  44.576 -27.353  1.00  0.00    -0.273 OA
HETATM    8  C9  UNL     1     -10.983  45.681 -28.192  1.00  0.00     0.108 C 
HETATM    9  C10 UNL     1     -11.686  45.430 -26.849  1.00  0.00     0.001 C 
HETATM   10  C11 UNL     1     -13.217  45.574 -26.994  1.00  0.00     0.025 C 
HETATM   11  C12 UNL     1     -13.859  46.583 -26.053  1.00  0.00     0.128 C 
HETATM   12  N3  UNL     1     -13.425  46.451 -24.669  1.00  0.00    -0.334 N 
HETATM   13  C13 UNL     1     -14.234  47.033 -23.691  1.00  0.00     0.322 C 
HETATM   14  O2  UNL     1     -15.199  47.729 -23.997  1.00  0.00    -0.247 OA
HETATM   15  N4  UNL     1     -13.860  46.739 -22.399  1.00  0.00    -0.309 N 
HETATM   16  C20 UNL     1     -12.082  45.916 -24.425  1.00  0.00     0.132 C 
HETATM   17  C21 UNL     1     -11.107  46.157 -25.598  1.00  0.00     0.010 C 
HETATM   18  C22 UNL     1     -10.772  47.670 -25.686  1.00  0.00     0.033 C 
HETATM   19  C23 UNL     1      -9.518  48.093 -26.459  1.00  0.00     0.176 C 
HETATM   20  O3  UNL     1      -8.423  47.213 -26.185  1.00  0.00    -0.349 OA
HETATM   21  C24 UNL     1      -7.431  47.324 -27.134  1.00  0.00     0.096 A 
HETATM   22  C25 UNL     1      -6.237  47.919 -26.718  1.00  0.00     0.051 A 
HETATM   23  H7  UNL     1      -8.973  46.249 -29.903  1.00  0.00     0.169 HD
HETATM   24  H15 UNL     1     -13.298  45.909 -22.296  1.00  0.00     0.170 HD
ENDROOT
BRANCH  15  25
HETATM   25  C14 UNL     1     -14.368  47.295 -21.208  1.00  0.00     0.037 A 
HETATM   26  C15 UNL     1     -13.652  48.177 -20.397  1.00  0.00     0.029 A 
HETATM   27  C16 UNL     1     -14.213  48.674 -19.216  1.00  0.00     0.004 A 
HETATM   28  C17 UNL     1     -15.496  48.291 -18.835  1.00  0.00     0.024 A 
HETATM   29  C18 UNL     1     -16.213  47.408 -19.636  1.00  0.00     0.036 A 
HETATM   30 CL1  UNL     1     -17.794  46.918 -19.165  1.00  0.00    -0.084 Cl
HETATM   31  C19 UNL     1     -15.656  46.909 -20.815  1.00  0.00     0.053 A 
ENDBRANCH  15  25
BRANCH   1  32
HETATM   32  C3  UNL     1      -3.963  48.800 -27.226  1.00  0.00     0.008 A 
HETATM   33  C2  UNL     1      -3.403  49.929 -27.789  1.00  0.00     0.123 A 
HETATM   34  N1  UNL     1      -2.243  50.168 -27.110  1.00  0.00    -0.307 N 
HETATM   35  C1  UNL     1      -1.314  51.247 -27.332  1.00  0.00     0.177 C 
HETATM   36  N5  UNL     1      -1.990  49.265 -26.149  1.00  0.00    -0.310 N 
HETATM   37  C26 UNL     1      -3.039  48.441 -26.213  1.00  0.00     0.120 A 
ATOM     38  H5  UNL     1      -1.188  49.220 -25.520  1.00  0.00     0.186 HD
ENDBRANCH   1  32
TORSDOF 2
ENDMDL
MODEL 9
REMARK minimizedAffinity -9.02626991
REMARK  2 active torsions:
REMARK  status: ('A' for Active; 'I' for Inactive)
REMARK    1  A    between atoms: C3_4  and  C4_5 
REMARK       I    between atoms: N3_16  and  C13_17 
REMARK       I    between atoms: C13_17  and  N4_19 
REMARK    2  A    between atoms: N4_19  and  C14_20 
ROOT
HETATM    1  C4  UNL     1      -1.179  51.103 -24.269  1.00  0.00    -0.020 A 
HETATM    2  C5  UNL     1      -0.814  50.711 -22.971  1.00  0.00     0.015 A 
HETATM    3  C6  UNL     1      -1.748  50.133 -22.101  1.00  0.00     0.033 A 
HETATM    4  C7  UNL     1      -3.067  49.955 -22.512  1.00  0.00     0.068 A 
HETATM    5  N2  UNL     1      -3.983  49.388 -21.605  1.00  0.00    -0.325 N 
HETATM    6  C8  UNL     1      -5.329  49.687 -21.644  1.00  0.00     0.222 C 
HETATM    7  O1  UNL     1      -5.785  50.817 -21.787  1.00  0.00    -0.273 OA
HETATM    8  C9  UNL     1      -6.201  48.458 -21.511  1.00  0.00     0.108 C 
HETATM    9  C10 UNL     1      -7.503  48.601 -22.315  1.00  0.00     0.001 C 
HETATM   10  C11 UNL     1      -8.437  47.395 -22.070  1.00  0.00     0.025 C 
HETATM   11  C12 UNL     1      -8.866  46.650 -23.325  1.00  0.00     0.128 C 
HETATM   12  N3  UNL     1      -9.328  47.523 -24.396  1.00  0.00    -0.334 N 
HETATM   13  C13 UNL     1     -10.105  46.942 -25.399  1.00  0.00     0.322 C 
HETATM   14  O2  UNL     1     -10.285  45.727 -25.439  1.00  0.00    -0.247 OA
HETATM   15  N4  UNL     1     -10.643  47.842 -26.291  1.00  0.00    -0.309 N 
HETATM   16  C20 UNL     1      -8.771  48.878 -24.457  1.00  0.00     0.132 C 
HETATM   17  C21 UNL     1      -7.369  48.990 -23.818  1.00  0.00     0.010 C 
HETATM   18  C22 UNL     1      -6.338  48.245 -24.707  1.00  0.00     0.033 C 
HETATM   19  C23 UNL     1      -4.852  48.578 -24.533  1.00  0.00     0.176 C 
HETATM   20  O3  UNL     1      -4.655  49.986 -24.375  1.00  0.00    -0.349 OA
HETATM   21  C24 UNL     1      -3.420  50.271 -23.837  1.00  0.00     0.096 A 
HETATM   22  C25 UNL     1      -2.495  50.876 -24.692  1.00  0.00     0.051 A 
HETATM   23  H7  UNL     1      -3.635  48.895 -20.794  1.00  0.00     0.169 HD
HETATM   24  H15 UNL     1     -10.711  48.789 -25.953  1.00  0.00     0.170 HD
ENDROOT
BRANCH  15  25
HETATM   25  C14 UNL     1     -11.329  47.561 -27.489  1.00  0.00     0.037 A 
HETATM   26  C15 UNL     1     -12.677  47.198 -27.543  1.00  0.00     0.029 A 
HETATM   27  C16 UNL     1     -13.288  46.911 -28.768  1.00  0.00     0.004 A 
HETATM   28  C17 UNL     1     -12.556  46.982 -29.950  1.00  0.00     0.024 A 
HETATM   29  C18 UNL     1     -11.211  47.338 -29.902  1.00  0.00     0.036 A 
HETATM   30 CL1  UNL     1     -10.295  47.414 -31.357  1.00  0.00    -0.084 Cl
HETATM   31  C19 UNL     1     -10.597  47.624 -28.682  1.00  0.00     0.053 A 
ENDBRANCH  15  25
BRANCH   1  32
HETATM   32  C3  UNL     1      -0.197  51.725 -25.147  1.00  0.00     0.008 A 
HETATM   33  C2  UNL     1       0.740  51.057 -25.908  1.00  0.00     0.123 A 
HETATM   34  N1  UNL     1       1.453  52.013 -26.573  1.00  0.00    -0.307 N 
HETATM   35  C1  UNL     1       2.538  51.800 -27.498  1.00  0.00     0.177 C 
HETATM   36  N5  UNL     1       1.062  53.266 -26.290  1.00  0.00    -0.310 N 
HETATM   37  C26 UNL     1       0.054  53.090 -25.432  1.00  0.00     0.120 A 
ATOM     38  H5  UNL     1       1.444  54.142 -26.646  1.00  0.00     0.186 HD
ENDBRANCH   1  32
TORSDOF 2
ENDMDL
