MODEL 1
REMARK minimizedAffinity -7.84801435
REMARK CNNscore 0.641323566
REMARK CNNaffinity 6.98236847
REMARK  12 active torsions:
REMARK  status: ('A' for Active; 'I' for Inactive)
REMARK    1  A    between atoms: C2_2  and  O2_4 
REMARK    2  A    between atoms: O2_4  and  C3_5 
REMARK    3  A    between atoms: C20_23  and  C21_24 
REMARK    4  A    between atoms: C21_24  and  C23_26 
REMARK    5  A    between atoms: C23_26  and  C24_27 
REMARK    6  A    between atoms: C24_27  and  C25_28 
REMARK    7  A    between atoms: C25_28  and  O4_29 
REMARK    8  A    between atoms: C25_28  and  C26_30 
REMARK    9  A    between atoms: C26_30  and  O5_32 
REMARK   10  A    between atoms: C26_30  and  C28_33 
REMARK   11  A    between atoms: C28_33  and  O6_34 
REMARK   12  A    between atoms: C32_38  and  O7_39 
ROOT
HETATM    1  C3  UNL     1       3.824   7.032  11.247  1.00  0.00     0.140 C 
HETATM    2  C4  UNL     1       3.191   8.055  12.209  1.00  0.00     0.034 C 
HETATM    3  C5  UNL     1       2.007   8.773  11.577  1.00  0.00     0.017 C 
HETATM    4  C6  UNL     1       0.814   7.823  11.250  1.00  0.00    -0.013 C 
HETATM    5  C7  UNL     1       0.057   8.444  10.045  1.00  0.00     0.021 C 
HETATM    6  C8  UNL     1      -0.260   7.638  12.362  1.00  0.00    -0.032 C 
HETATM    7  C9  UNL     1      -1.061   6.533  12.383  1.00  0.00     0.002 C 
HETATM    8  C10 UNL     1      -0.930   5.480  11.312  1.00  0.00     0.157 C 
HETATM    9  O3  UNL     1      -1.793   4.618  11.158  1.00  0.00    -0.293 OA
HETATM   10  C11 UNL     1       0.284   5.492  10.403  1.00  0.00     0.090 C 
HETATM   11  C12 UNL     1       1.380   6.376  10.994  1.00  0.00     0.015 C 
HETATM   12  C13 UNL     1       2.787   6.308  10.308  1.00  0.00    -0.016 C 
HETATM   13  C14 UNL     1       3.245   4.831  10.178  1.00  0.00     0.018 C 
HETATM   14  C15 UNL     1       2.791   6.877   8.875  1.00  0.00     0.018 C 
HETATM   15  C16 UNL     1      -2.043   6.288  13.524  1.00  0.00    -0.005 C 
HETATM   16  C17 UNL     1      -1.195   5.510  14.582  1.00  0.00     0.021 C 
HETATM   17  C18 UNL     1      -3.337   5.479  13.311  1.00  0.00     0.015 C 
HETATM   18  C19 UNL     1      -4.263   5.886  14.476  1.00  0.00     0.007 C 
HETATM   19  C20 UNL     1      -3.660   7.174  15.108  1.00  0.00    -0.002 C 
HETATM   20  C29 UNL     1      -2.655   7.660  14.016  1.00  0.00    -0.026 C 
HETATM   21  C30 UNL     1      -3.414   8.403  12.879  1.00  0.00     0.016 C 
HETATM   22  C31 UNL     1      -1.492   8.540  14.504  1.00  0.00     0.047 C 
HETATM   23  C32 UNL     1      -0.389   8.720  13.434  1.00  0.00     0.149 C 
ENDROOT
BRANCH  19  24
HETATM   24  C21 UNL     1      -4.730   8.090  15.773  1.00  0.00    -0.014 C 
HETATM   25  C22 UNL     1      -5.978   8.412  14.937  1.00  0.00     0.010 C 
BRANCH  24  26
HETATM   26  C23 UNL     1      -4.182   9.417  16.346  1.00  0.00     0.007 C 
BRANCH  26  27
HETATM   27  C24 UNL     1      -4.393  10.699  15.523  1.00  0.00     0.035 C 
BRANCH  27  28
HETATM   28  C25 UNL     1      -3.331  11.790  15.745  1.00  0.00     0.154 C 
BRANCH  28  29
HETATM   29  O4  UNL     1      -2.449  11.819  14.623  1.00  0.00    -0.392 OA
HETATM   30  H38 UNL     1      -1.575  12.114  14.933  1.00  0.00     0.210 HD
ENDBRANCH  28  29
BRANCH  28  31
HETATM   31  C26 UNL     1      -3.928  13.210  16.000  1.00  0.00     0.101 C 
HETATM   32  C27 UNL     1      -4.876  13.178  17.208  1.00  0.00     0.051 C 
BRANCH  31  33
HETATM   33  O5  UNL     1      -4.698  13.628  14.854  1.00  0.00    -0.385 OA
HETATM   34  H42 UNL     1      -5.441  13.008  14.749  1.00  0.00     0.210 HD
ENDBRANCH  31  33
BRANCH  31  35
HETATM   35  C28 UNL     1      -2.852  14.294  16.240  1.00  0.00     0.204 C 
BRANCH  35  36
HETATM   36  O6  UNL     1      -1.575  13.702  16.488  1.00  0.00    -0.398 OA
HETATM   37  H45 UNL     1      -1.518  12.967  15.845  1.00  0.00     0.209 HD
ENDBRANCH  35  36
ENDBRANCH  31  35
ENDBRANCH  28  31
ENDBRANCH  27  28
ENDBRANCH  26  27
ENDBRANCH  24  26
ENDBRANCH  19  24
BRANCH  23  38
HETATM   38  O7  UNL     1      -0.603   9.979  12.797  1.00  0.00    -0.391 OA
HETATM   39  H52 UNL     1      -1.400   9.908  12.251  1.00  0.00     0.210 HD
ENDBRANCH  23  38
BRANCH   1  40
HETATM   40  O2  UNL     1       4.811   7.738  10.465  1.00  0.00    -0.316 OA
BRANCH  40  41
HETATM   41  C2  UNL     1       6.113   7.616  10.841  1.00  0.00     0.255 C 
HETATM   42  C1  UNL     1       6.349   6.250  11.409  1.00  0.00     0.126 C 
HETATM   43  O1  UNL     1       6.973   8.478  10.741  1.00  0.00    -0.266 OA
ENDBRANCH  40  41
ENDBRANCH   1  40
TORSDOF 12
ENDMDL
MODEL 2
REMARK minimizedAffinity -6.19538164
REMARK CNNscore 0.583954036
REMARK CNNaffinity 6.47071314
REMARK  12 active torsions:
REMARK  status: ('A' for Active; 'I' for Inactive)
REMARK    1  A    between atoms: C2_2  and  O2_4 
REMARK    2  A    between atoms: O2_4  and  C3_5 
REMARK    3  A    between atoms: C20_23  and  C21_24 
REMARK    4  A    between atoms: C21_24  and  C23_26 
REMARK    5  A    between atoms: C23_26  and  C24_27 
REMARK    6  A    between atoms: C24_27  and  C25_28 
REMARK    7  A    between atoms: C25_28  and  O4_29 
REMARK    8  A    between atoms: C25_28  and  C26_30 
REMARK    9  A    between atoms: C26_30  and  O5_32 
REMARK   10  A    between atoms: C26_30  and  C28_33 
REMARK   11  A    between atoms: C28_33  and  O6_34 
REMARK   12  A    between atoms: C32_38  and  O7_39 
ROOT
HETATM    1  C3  UNL     1     -16.291   1.905  14.286  1.00  0.00     0.140 C 
HETATM    2  C4  UNL     1     -15.400   1.029  15.186  1.00  0.00     0.034 C 
HETATM    3  C5  UNL     1     -16.149  -0.183  15.723  1.00  0.00     0.017 C 
HETATM    4  C6  UNL     1     -16.592  -1.176  14.605  1.00  0.00    -0.013 C 
HETATM    5  C7  UNL     1     -17.868  -1.896  15.119  1.00  0.00     0.021 C 
HETATM    6  C8  UNL     1     -15.592  -2.314  14.243  1.00  0.00    -0.032 C 
HETATM    7  C9  UNL     1     -15.650  -2.933  13.028  1.00  0.00     0.002 C 
HETATM    8  C10 UNL     1     -16.700  -2.536  12.022  1.00  0.00     0.157 C 
HETATM    9  O3  UNL     1     -16.938  -3.236  11.040  1.00  0.00    -0.293 OA
HETATM   10  C11 UNL     1     -17.483  -1.254  12.232  1.00  0.00     0.090 C 
HETATM   11  C12 UNL     1     -16.787  -0.371  13.266  1.00  0.00     0.015 C 
HETATM   12  C13 UNL     1     -17.328   1.090  13.424  1.00  0.00    -0.016 C 
HETATM   13  C14 UNL     1     -17.409   1.780  12.037  1.00  0.00     0.018 C 
HETATM   14  C15 UNL     1     -18.754   1.149  14.006  1.00  0.00     0.018 C 
HETATM   15  C16 UNL     1     -14.613  -3.975  12.620  1.00  0.00    -0.005 C 
HETATM   16  C17 UNL     1     -13.474  -3.127  11.967  1.00  0.00     0.021 C 
HETATM   17  C18 UNL     1     -14.952  -5.101  11.624  1.00  0.00     0.015 C 
HETATM   18  C19 UNL     1     -13.887  -6.190  11.869  1.00  0.00     0.007 C 
HETATM   19  C20 UNL     1     -13.201  -5.858  13.225  1.00  0.00    -0.002 C 
HETATM   20  C29 UNL     1     -14.187  -4.837  13.874  1.00  0.00    -0.026 C 
HETATM   21  C30 UNL     1     -15.396  -5.584  14.508  1.00  0.00     0.016 C 
HETATM   22  C31 UNL     1     -13.587  -3.877  14.916  1.00  0.00     0.047 C 
HETATM   23  C32 UNL     1     -14.542  -2.714  15.277  1.00  0.00     0.149 C 
ENDROOT
BRANCH  19  24
HETATM   24  C21 UNL     1     -12.649  -7.117  13.957  1.00  0.00    -0.014 C 
HETATM   25  C22 UNL     1     -12.554  -7.040  15.488  1.00  0.00     0.010 C 
BRANCH  24  26
HETATM   26  C23 UNL     1     -11.296  -7.639  13.420  1.00  0.00     0.007 C 
BRANCH  26  27
HETATM   27  C24 UNL     1     -11.183  -9.135  13.084  1.00  0.00     0.035 C 
BRANCH  27  28
HETATM   28  C25 UNL     1     -10.263  -9.462  11.895  1.00  0.00     0.154 C 
BRANCH  28  29
HETATM   29  O4  UNL     1     -10.443  -8.476  10.878  1.00  0.00    -0.392 OA
HETATM   30  H38 UNL     1     -10.272  -8.894  10.017  1.00  0.00     0.210 HD
ENDBRANCH  28  29
BRANCH  28  31
HETATM   31  C26 UNL     1      -8.753  -9.573  12.277  1.00  0.00     0.101 C 
HETATM   32  C27 UNL     1      -8.601 -10.250  13.647  1.00  0.00     0.051 C 
BRANCH  31  33
HETATM   33  O5  UNL     1      -8.177  -8.254  12.377  1.00  0.00    -0.385 OA
HETATM   34  H42 UNL     1      -8.631  -7.782  13.097  1.00  0.00     0.210 HD
ENDBRANCH  31  33
BRANCH  31  35
HETATM   35  C28 UNL     1      -7.912 -10.353  11.240  1.00  0.00     0.204 C 
BRANCH  35  36
HETATM   36  O6  UNL     1      -7.040  -9.477  10.523  1.00  0.00    -0.398 OA
HETATM   37  H45 UNL     1      -6.692  -8.867  11.205  1.00  0.00     0.209 HD
ENDBRANCH  35  36
ENDBRANCH  31  35
ENDBRANCH  28  31
ENDBRANCH  27  28
ENDBRANCH  26  27
ENDBRANCH  24  26
ENDBRANCH  19  24
BRANCH  23  38
HETATM   38  O7  UNL     1     -15.200  -3.055  16.497  1.00  0.00    -0.391 OA
HETATM   39  H52 UNL     1     -15.823  -3.774  16.312  1.00  0.00     0.210 HD
ENDBRANCH  23  38
BRANCH   1  40
HETATM   40  O2  UNL     1     -16.972   2.844  15.145  1.00  0.00    -0.316 OA
BRANCH  40  41
HETATM   41  C2  UNL     1     -16.618   4.154  15.046  1.00  0.00     0.255 C 
HETATM   42  C1  UNL     1     -16.845   4.839  16.359  1.00  0.00     0.126 C 
HETATM   43  O1  UNL     1     -16.181   4.707  14.048  1.00  0.00    -0.266 OA
ENDBRANCH  40  41
ENDBRANCH   1  40
TORSDOF 12
ENDMDL
MODEL 3
REMARK minimizedAffinity -8.4749918
REMARK CNNscore 0.517885268
REMARK CNNaffinity 7.15428114
REMARK  12 active torsions:
REMARK  status: ('A' for Active; 'I' for Inactive)
REMARK    1  A    between atoms: C2_2  and  O2_4 
REMARK    2  A    between atoms: O2_4  and  C3_5 
REMARK    3  A    between atoms: C20_23  and  C21_24 
REMARK    4  A    between atoms: C21_24  and  C23_26 
REMARK    5  A    between atoms: C23_26  and  C24_27 
REMARK    6  A    between atoms: C24_27  and  C25_28 
REMARK    7  A    between atoms: C25_28  and  O4_29 
REMARK    8  A    between atoms: C25_28  and  C26_30 
REMARK    9  A    between atoms: C26_30  and  O5_32 
REMARK   10  A    between atoms: C26_30  and  C28_33 
REMARK   11  A    between atoms: C28_33  and  O6_34 
REMARK   12  A    between atoms: C32_38  and  O7_39 
ROOT
HETATM    1  C3  UNL     1      -7.827   7.187  14.228  1.00  0.00     0.140 C 
HETATM    2  C4  UNL     1      -6.934   8.203  14.963  1.00  0.00     0.034 C 
HETATM    3  C5  UNL     1      -5.919   7.519  15.868  1.00  0.00     0.017 C 
HETATM    4  C6  UNL     1      -4.884   6.653  15.087  1.00  0.00    -0.013 C 
HETATM    5  C7  UNL     1      -4.429   5.518  16.044  1.00  0.00     0.021 C 
HETATM    6  C8  UNL     1      -3.574   7.365  14.636  1.00  0.00    -0.032 C 
HETATM    7  C9  UNL     1      -2.837   6.876  13.596  1.00  0.00     0.002 C 
HETATM    8  C10 UNL     1      -3.272   5.624  12.879  1.00  0.00     0.157 C 
HETATM    9  O3  UNL     1      -2.509   5.026  12.123  1.00  0.00    -0.293 OA
HETATM   10  C11 UNL     1      -4.673   5.088  13.102  1.00  0.00     0.090 C 
HETATM   11  C12 UNL     1      -5.552   6.157  13.750  1.00  0.00     0.015 C 
HETATM   12  C13 UNL     1      -7.087   5.855  13.829  1.00  0.00    -0.016 C 
HETATM   13  C14 UNL     1      -7.619   5.439  12.432  1.00  0.00     0.018 C 
HETATM   14  C15 UNL     1      -7.426   4.685  14.773  1.00  0.00     0.018 C 
HETATM   15  C16 UNL     1      -1.611   7.620  13.076  1.00  0.00    -0.005 C 
HETATM   16  C17 UNL     1      -2.196   8.598  12.007  1.00  0.00     0.021 C 
HETATM   17  C18 UNL     1      -0.443   6.874  12.401  1.00  0.00     0.015 C 
HETATM   18  C19 UNL     1       0.760   7.835  12.500  1.00  0.00     0.007 C 
HETATM   19  C20 UNL     1       0.384   8.929  13.540  1.00  0.00    -0.002 C 
HETATM   20  C29 UNL     1      -0.842   8.304  14.277  1.00  0.00    -0.026 C 
HETATM   21  C30 UNL     1      -0.363   7.265  15.332  1.00  0.00     0.016 C 
HETATM   22  C31 UNL     1      -1.811   9.292  14.948  1.00  0.00     0.047 C 
HETATM   23  C32 UNL     1      -3.139   8.626  15.380  1.00  0.00     0.149 C 
ENDROOT
BRANCH  19  24
HETATM   24  C21 UNL     1       1.621   9.531  14.270  1.00  0.00    -0.014 C 
HETATM   25  C22 UNL     1       2.478  10.525  13.471  1.00  0.00     0.010 C 
BRANCH  24  26
HETATM   26  C23 UNL     1       2.568   8.489  14.910  1.00  0.00     0.007 C 
BRANCH  26  27
HETATM   27  C24 UNL     1       3.903   8.200  14.203  1.00  0.00     0.035 C 
BRANCH  27  28
HETATM   28  C25 UNL     1       5.061   7.820  15.143  1.00  0.00     0.154 C 
BRANCH  28  29
HETATM   29  O4  UNL     1       4.702   6.650  15.878  1.00  0.00    -0.392 OA
HETATM   30  H38 UNL     1       5.153   6.684  16.739  1.00  0.00     0.210 HD
ENDBRANCH  28  29
BRANCH  28  31
HETATM   31  C26 UNL     1       6.423   7.602  14.411  1.00  0.00     0.101 C 
HETATM   32  C27 UNL     1       6.429   8.349  13.069  1.00  0.00     0.051 C 
BRANCH  31  33
HETATM   33  O5  UNL     1       6.605   6.199  14.130  1.00  0.00    -0.385 OA
HETATM   34  H42 UNL     1       5.896   5.919  13.525  1.00  0.00     0.210 HD
ENDBRANCH  31  33
BRANCH  31  35
HETATM   35  C28 UNL     1       7.646   8.058  15.240  1.00  0.00     0.204 C 
BRANCH  35  36
HETATM   36  O6  UNL     1       7.333   8.098  16.634  1.00  0.00    -0.398 OA
HETATM   37  H45 UNL     1       6.800   7.292  16.789  1.00  0.00     0.209 HD
ENDBRANCH  35  36
ENDBRANCH  31  35
ENDBRANCH  28  31
ENDBRANCH  27  28
ENDBRANCH  26  27
ENDBRANCH  24  26
ENDBRANCH  19  24
BRANCH  23  38
HETATM   38  O7  UNL     1      -3.043   8.331  16.774  1.00  0.00    -0.391 OA
HETATM   39  H52 UNL     1      -2.410   7.604  16.884  1.00  0.00     0.210 HD
ENDBRANCH  23  38
BRANCH   1  40
HETATM   40  O2  UNL     1      -8.951   6.904  15.090  1.00  0.00    -0.316 OA
BRANCH  40  41
HETATM   41  C2  UNL     1     -10.140   7.486  14.780  1.00  0.00     0.255 C 
HETATM   42  C1  UNL     1     -10.537   7.111  13.385  1.00  0.00     0.126 C 
HETATM   43  O1  UNL     1     -10.800   8.209  15.512  1.00  0.00    -0.266 OA
ENDBRANCH  40  41
ENDBRANCH   1  40
TORSDOF 12
ENDMDL
MODEL 4
REMARK minimizedAffinity -6.24211979
REMARK CNNscore 0.42633459
REMARK CNNaffinity 6.03512049
REMARK  12 active torsions:
REMARK  status: ('A' for Active; 'I' for Inactive)
REMARK    1  A    between atoms: C2_2  and  O2_4 
REMARK    2  A    between atoms: O2_4  and  C3_5 
REMARK    3  A    between atoms: C20_23  and  C21_24 
REMARK    4  A    between atoms: C21_24  and  C23_26 
REMARK    5  A    between atoms: C23_26  and  C24_27 
REMARK    6  A    between atoms: C24_27  and  C25_28 
REMARK    7  A    between atoms: C25_28  and  O4_29 
REMARK    8  A    between atoms: C25_28  and  C26_30 
REMARK    9  A    between atoms: C26_30  and  O5_32 
REMARK   10  A    between atoms: C26_30  and  C28_33 
REMARK   11  A    between atoms: C28_33  and  O6_34 
REMARK   12  A    between atoms: C32_38  and  O7_39 
ROOT
HETATM    1  C3  UNL     1     -15.235  -3.534  14.684  1.00  0.00     0.140 C 
HETATM    2  C4  UNL     1     -15.618  -4.451  15.861  1.00  0.00     0.034 C 
HETATM    3  C5  UNL     1     -15.968  -5.858  15.396  1.00  0.00     0.017 C 
HETATM    4  C6  UNL     1     -14.764  -6.610  14.751  1.00  0.00    -0.013 C 
HETATM    5  C7  UNL     1     -15.357  -7.622  13.733  1.00  0.00     0.021 C 
HETATM    6  C8  UNL     1     -13.874  -7.457  15.707  1.00  0.00    -0.032 C 
HETATM    7  C9  UNL     1     -12.588  -7.767  15.371  1.00  0.00     0.002 C 
HETATM    8  C10 UNL     1     -12.015  -7.309  14.054  1.00  0.00     0.157 C 
HETATM    9  O3  UNL     1     -10.968  -7.780  13.616  1.00  0.00    -0.293 OA
HETATM   10  C11 UNL     1     -12.750  -6.253  13.251  1.00  0.00     0.090 C 
HETATM   11  C12 UNL     1     -13.785  -5.547  14.126  1.00  0.00     0.015 C 
HETATM   12  C13 UNL     1     -14.463  -4.269  13.525  1.00  0.00    -0.016 C 
HETATM   13  C14 UNL     1     -13.380  -3.287  13.006  1.00  0.00     0.018 C 
HETATM   14  C15 UNL     1     -15.367  -4.575  12.314  1.00  0.00     0.018 C 
HETATM   15  C16 UNL     1     -11.671  -8.505  16.341  1.00  0.00    -0.005 C 
HETATM   16  C17 UNL     1     -11.019  -7.358  17.179  1.00  0.00     0.021 C 
HETATM   17  C18 UNL     1     -10.519  -9.398  15.840  1.00  0.00     0.015 C 
HETATM   18  C19 UNL     1     -10.192 -10.334  17.022  1.00  0.00     0.007 C 
HETATM   19  C20 UNL     1     -11.378 -10.235  18.023  1.00  0.00    -0.002 C 
HETATM   20  C29 UNL     1     -12.501  -9.566  17.169  1.00  0.00    -0.026 C 
HETATM   21  C30 UNL     1     -13.180 -10.623  16.251  1.00  0.00     0.016 C 
HETATM   22  C31 UNL     1     -13.587  -8.804  17.947  1.00  0.00     0.047 C 
HETATM   23  C32 UNL     1     -14.472  -7.925  17.032  1.00  0.00     0.149 C 
ENDROOT
BRANCH  19  24
HETATM   24  C21 UNL     1     -11.581 -11.532  18.862  1.00  0.00    -0.014 C 
HETATM   25  C22 UNL     1     -12.902 -12.288  18.655  1.00  0.00     0.010 C 
BRANCH  24  26
HETATM   26  C23 UNL     1     -11.361 -11.361  20.384  1.00  0.00     0.007 C 
BRANCH  26  27
HETATM   27  C24 UNL     1     -10.166 -10.511  20.847  1.00  0.00     0.035 C 
BRANCH  27  28
HETATM   28  C25 UNL     1      -9.804 -10.664  22.335  1.00  0.00     0.154 C 
BRANCH  28  29
HETATM   29  O4  UNL     1     -10.872 -11.329  23.010  1.00  0.00    -0.392 OA
HETATM   30  H38 UNL     1     -10.886 -11.018  23.932  1.00  0.00     0.210 HD
ENDBRANCH  28  29
BRANCH  28  31
HETATM   31  C26 UNL     1      -8.458 -11.415  22.584  1.00  0.00     0.101 C 
HETATM   32  C27 UNL     1      -7.820 -10.939  23.898  1.00  0.00     0.051 C 
BRANCH  31  33
HETATM   33  O5  UNL     1      -7.531 -11.119  21.519  1.00  0.00    -0.385 OA
HETATM   34  H42 UNL     1      -7.345 -10.164  21.538  1.00  0.00     0.210 HD
ENDBRANCH  31  33
BRANCH  31  35
HETATM   35  C28 UNL     1      -8.612 -12.952  22.634  1.00  0.00     0.204 C 
BRANCH  35  36
HETATM   36  O6  UNL     1      -7.415 -13.572  23.110  1.00  0.00    -0.398 OA
HETATM   37  H45 UNL     1      -7.119 -12.998  23.845  1.00  0.00     0.209 HD
ENDBRANCH  35  36
ENDBRANCH  31  35
ENDBRANCH  28  31
ENDBRANCH  27  28
ENDBRANCH  26  27
ENDBRANCH  24  26
ENDBRANCH  19  24
BRANCH  23  38
HETATM   38  O7  UNL     1     -15.674  -8.648  16.768  1.00  0.00    -0.391 OA
HETATM   39  H52 UNL     1     -15.457  -9.389  16.182  1.00  0.00     0.210 HD
ENDBRANCH  23  38
BRANCH   1  40
HETATM   40  O2  UNL     1     -16.458  -2.947  14.187  1.00  0.00    -0.316 OA
BRANCH  40  41
HETATM   41  C2  UNL     1     -16.534  -1.589  14.159  1.00  0.00     0.255 C 
HETATM   42  C1  UNL     1     -17.795  -1.168  13.471  1.00  0.00     0.126 C 
HETATM   43  O1  UNL     1     -15.709  -0.814  14.619  1.00  0.00    -0.266 OA
ENDBRANCH  40  41
ENDBRANCH   1  40
TORSDOF 12
ENDMDL
MODEL 5
REMARK minimizedAffinity -6.9186492
REMARK CNNscore 0.42492038
REMARK CNNaffinity 6.4970932
REMARK  12 active torsions:
REMARK  status: ('A' for Active; 'I' for Inactive)
REMARK    1  A    between atoms: C2_2  and  O2_4 
REMARK    2  A    between atoms: O2_4  and  C3_5 
REMARK    3  A    between atoms: C20_23  and  C21_24 
REMARK    4  A    between atoms: C21_24  and  C23_26 
REMARK    5  A    between atoms: C23_26  and  C24_27 
REMARK    6  A    between atoms: C24_27  and  C25_28 
REMARK    7  A    between atoms: C25_28  and  O4_29 
REMARK    8  A    between atoms: C25_28  and  C26_30 
REMARK    9  A    between atoms: C26_30  and  O5_32 
REMARK   10  A    between atoms: C26_30  and  C28_33 
REMARK   11  A    between atoms: C28_33  and  O6_34 
REMARK   12  A    between atoms: C32_38  and  O7_39 
ROOT
HETATM    1  C3  UNL     1       0.761   8.000  11.301  1.00  0.00     0.140 C 
HETATM    2  C4  UNL     1      -0.534   8.787  11.574  1.00  0.00     0.034 C 
HETATM    3  C5  UNL     1      -1.384   8.128  12.651  1.00  0.00     0.017 C 
HETATM    4  C6  UNL     1      -0.694   8.103  14.050  1.00  0.00    -0.013 C 
HETATM    5  C7  UNL     1      -1.252   6.868  14.807  1.00  0.00     0.021 C 
HETATM    6  C8  UNL     1      -0.963   9.319  14.985  1.00  0.00    -0.032 C 
HETATM    7  C9  UNL     1      -0.096   9.630  15.992  1.00  0.00     0.002 C 
HETATM    8  C10 UNL     1       1.131   8.785  16.226  1.00  0.00     0.157 C 
HETATM    9  O3  UNL     1       1.782   8.883  17.264  1.00  0.00    -0.293 OA
HETATM   10  C11 UNL     1       1.562   7.791  15.165  1.00  0.00     0.090 C 
HETATM   11  C12 UNL     1       0.866   8.096  13.840  1.00  0.00     0.015 C 
HETATM   12  C13 UNL     1       1.379   7.318  12.579  1.00  0.00    -0.016 C 
HETATM   13  C14 UNL     1       2.920   7.448  12.465  1.00  0.00     0.018 C 
HETATM   14  C15 UNL     1       1.088   5.806  12.641  1.00  0.00     0.018 C 
HETATM   15  C16 UNL     1      -0.290  10.877  16.848  1.00  0.00    -0.005 C 
HETATM   16  C17 UNL     1       0.463  11.993  16.054  1.00  0.00     0.021 C 
HETATM   17  C18 UNL     1       0.221  10.945  18.300  1.00  0.00     0.015 C 
HETATM   18  C19 UNL     1      -0.589  12.079  18.961  1.00  0.00     0.007 C 
HETATM   19  C20 UNL     1      -1.792  12.384  18.023  1.00  0.00    -0.002 C 
HETATM   20  C29 UNL     1      -1.831  11.135  17.088  1.00  0.00    -0.026 C 
HETATM   21  C30 UNL     1      -2.518   9.942  17.813  1.00  0.00     0.016 C 
HETATM   22  C31 UNL     1      -2.490  11.333  15.712  1.00  0.00     0.047 C 
HETATM   23  C32 UNL     1      -2.217  10.158  14.744  1.00  0.00     0.149 C 
ENDROOT
BRANCH  19  24
HETATM   24  C21 UNL     1      -3.034  12.942  18.780  1.00  0.00    -0.014 C 
HETATM   25  C22 UNL     1      -4.077  11.914  19.246  1.00  0.00     0.010 C 
BRANCH  24  26
HETATM   26  C23 UNL     1      -3.780  14.084  18.052  1.00  0.00     0.007 C 
BRANCH  26  27
HETATM   27  C24 UNL     1      -5.303  13.958  17.886  1.00  0.00     0.035 C 
BRANCH  27  28
HETATM   28  C25 UNL     1      -5.787  13.859  16.428  1.00  0.00     0.154 C 
BRANCH  28  29
HETATM   29  O4  UNL     1      -5.712  12.498  16.001  1.00  0.00    -0.392 OA
HETATM   30  H38 UNL     1      -5.548  12.491  15.042  1.00  0.00     0.210 HD
ENDBRANCH  28  29
BRANCH  28  31
HETATM   31  C26 UNL     1      -7.227  14.418  16.201  1.00  0.00     0.101 C 
HETATM   32  C27 UNL     1      -7.959  14.560  17.544  1.00  0.00     0.051 C 
BRANCH  31  33
HETATM   33  O5  UNL     1      -7.985  13.498  15.388  1.00  0.00    -0.385 OA
HETATM   34  H42 UNL     1      -8.065  12.660  15.878  1.00  0.00     0.210 HD
ENDBRANCH  31  33
BRANCH  31  35
HETATM   35  C28 UNL     1      -7.249  15.783  15.476  1.00  0.00     0.204 C 
BRANCH  35  36
HETATM   36  O6  UNL     1      -8.034  15.717  14.283  1.00  0.00    -0.398 OA
HETATM   37  H45 UNL     1      -8.816  15.185  14.535  1.00  0.00     0.209 HD
ENDBRANCH  35  36
ENDBRANCH  31  35
ENDBRANCH  28  31
ENDBRANCH  27  28
ENDBRANCH  26  27
ENDBRANCH  24  26
ENDBRANCH  19  24
BRANCH  23  38
HETATM   38  O7  UNL     1      -3.358   9.302  14.767  1.00  0.00    -0.391 OA
HETATM   39  H52 UNL     1      -3.379   8.852  15.626  1.00  0.00     0.210 HD
ENDBRANCH  23  38
BRANCH   1  40
HETATM   40  O2  UNL     1       0.453   7.009  10.296  1.00  0.00    -0.316 OA
BRANCH  40  41
HETATM   41  C2  UNL     1       1.320   6.880   9.257  1.00  0.00     0.255 C 
HETATM   42  C1  UNL     1       1.253   8.098   8.388  1.00  0.00     0.126 C 
HETATM   43  O1  UNL     1       2.051   5.924   9.046  1.00  0.00    -0.266 OA
ENDBRANCH  40  41
ENDBRANCH   1  40
TORSDOF 12
ENDMDL
MODEL 6
REMARK minimizedAffinity -6.25225306
REMARK CNNscore 0.421150237
REMARK CNNaffinity 6.50444794
REMARK  12 active torsions:
REMARK  status: ('A' for Active; 'I' for Inactive)
REMARK    1  A    between atoms: C2_2  and  O2_4 
REMARK    2  A    between atoms: O2_4  and  C3_5 
REMARK    3  A    between atoms: C20_23  and  C21_24 
REMARK    4  A    between atoms: C21_24  and  C23_26 
REMARK    5  A    between atoms: C23_26  and  C24_27 
REMARK    6  A    between atoms: C24_27  and  C25_28 
REMARK    7  A    between atoms: C25_28  and  O4_29 
REMARK    8  A    between atoms: C25_28  and  C26_30 
REMARK    9  A    between atoms: C26_30  and  O5_32 
REMARK   10  A    between atoms: C26_30  and  C28_33 
REMARK   11  A    between atoms: C28_33  and  O6_34 
REMARK   12  A    between atoms: C32_38  and  O7_39 
ROOT
HETATM    1  C3  UNL     1      -1.633   5.940  12.364  1.00  0.00     0.140 C 
HETATM    2  C4  UNL     1      -2.594   6.193  13.540  1.00  0.00     0.034 C 
HETATM    3  C5  UNL     1      -1.862   6.251  14.873  1.00  0.00     0.017 C 
HETATM    4  C6  UNL     1      -0.867   7.448  14.977  1.00  0.00    -0.013 C 
HETATM    5  C7  UNL     1       0.260   7.016  15.954  1.00  0.00     0.021 C 
HETATM    6  C8  UNL     1      -1.431   8.779  15.556  1.00  0.00    -0.032 C 
HETATM    7  C9  UNL     1      -0.829   9.971  15.280  1.00  0.00     0.002 C 
HETATM    8  C10 UNL     1       0.410  10.015  14.421  1.00  0.00     0.157 C 
HETATM    9  O3  UNL     1       1.111  11.024  14.367  1.00  0.00    -0.293 OA
HETATM   10  C11 UNL     1       0.801   8.790  13.618  1.00  0.00     0.090 C 
HETATM   11  C12 UNL     1      -0.374   7.818  13.528  1.00  0.00     0.015 C 
HETATM   12  C13 UNL     1      -0.221   6.616  12.535  1.00  0.00    -0.016 C 
HETATM   13  C14 UNL     1       0.208   7.134  11.136  1.00  0.00     0.018 C 
HETATM   14  C15 UNL     1       0.868   5.612  12.962  1.00  0.00     0.018 C 
HETATM   15  C16 UNL     1      -1.430  11.291  15.753  1.00  0.00    -0.005 C 
HETATM   16  C17 UNL     1      -2.408  11.687  14.600  1.00  0.00     0.021 C 
HETATM   17  C18 UNL     1      -0.548  12.524  16.029  1.00  0.00     0.015 C 
HETATM   18  C19 UNL     1      -1.396  13.430  16.946  1.00  0.00     0.007 C 
HETATM   19  C20 UNL     1      -2.567  12.560  17.486  1.00  0.00    -0.002 C 
HETATM   20  C29 UNL     1      -2.094  11.105  17.176  1.00  0.00    -0.026 C 
HETATM   21  C30 UNL     1      -1.065  10.634  18.244  1.00  0.00     0.016 C 
HETATM   22  C31 UNL     1      -3.198  10.043  17.039  1.00  0.00     0.047 C 
HETATM   23  C32 UNL     1      -2.680   8.716  16.435  1.00  0.00     0.149 C 
ENDROOT
BRANCH  19  24
HETATM   24  C21 UNL     1      -3.084  13.026  18.879  1.00  0.00    -0.014 C 
HETATM   25  C22 UNL     1      -4.608  13.124  19.053  1.00  0.00     0.010 C 
BRANCH  24  26
HETATM   26  C23 UNL     1      -2.458  14.342  19.397  1.00  0.00     0.007 C 
BRANCH  26  27
HETATM   27  C24 UNL     1      -3.391  15.374  20.053  1.00  0.00     0.035 C 
BRANCH  27  28
HETATM   28  C25 UNL     1      -3.487  15.274  21.585  1.00  0.00     0.154 C 
BRANCH  28  29
HETATM   29  O4  UNL     1      -2.579  16.207  22.173  1.00  0.00    -0.392 OA
HETATM   30  H38 UNL     1      -2.288  15.847  23.028  1.00  0.00     0.210 HD
ENDBRANCH  28  29
BRANCH  28  31
HETATM   31  C26 UNL     1      -4.928  15.499  22.144  1.00  0.00     0.101 C 
HETATM   32  C27 UNL     1      -5.526  14.166  22.619  1.00  0.00     0.051 C 
BRANCH  31  33
HETATM   33  O5  UNL     1      -5.781  16.010  21.100  1.00  0.00    -0.385 OA
HETATM   34  H42 UNL     1      -5.836  15.336  20.399  1.00  0.00     0.210 HD
ENDBRANCH  31  33
BRANCH  31  35
HETATM   35  C28 UNL     1      -4.984  16.513  23.309  1.00  0.00     0.204 C 
BRANCH  35  36
HETATM   36  O6  UNL     1      -5.602  15.935  24.461  1.00  0.00    -0.398 OA
HETATM   37  H45 UNL     1      -5.239  15.027  24.504  1.00  0.00     0.209 HD
ENDBRANCH  35  36
ENDBRANCH  31  35
ENDBRANCH  28  31
ENDBRANCH  27  28
ENDBRANCH  26  27
ENDBRANCH  24  26
ENDBRANCH  19  24
BRANCH  23  38
HETATM   38  O7  UNL     1      -2.442   7.812  17.514  1.00  0.00    -0.391 OA
HETATM   39  H52 UNL     1      -1.666   8.126  18.003  1.00  0.00     0.210 HD
ENDBRANCH  23  38
BRANCH   1  40
HETATM   40  O2  UNL     1      -1.497   4.509  12.226  1.00  0.00    -0.316 OA
BRANCH  40  41
HETATM   41  C2  UNL     1      -2.175   3.911  11.210  1.00  0.00     0.255 C 
HETATM   42  C1  UNL     1      -3.648   3.988  11.470  1.00  0.00     0.126 C 
HETATM   43  O1  UNL     1      -1.677   3.384  10.226  1.00  0.00    -0.266 OA
ENDBRANCH  40  41
ENDBRANCH   1  40
TORSDOF 12
ENDMDL
MODEL 7
REMARK minimizedAffinity -8.65689564
REMARK CNNscore 0.357700318
REMARK CNNaffinity 6.76020765
REMARK  12 active torsions:
REMARK  status: ('A' for Active; 'I' for Inactive)
REMARK    1  A    between atoms: C2_2  and  O2_4 
REMARK    2  A    between atoms: O2_4  and  C3_5 
REMARK    3  A    between atoms: C20_23  and  C21_24 
REMARK    4  A    between atoms: C21_24  and  C23_26 
REMARK    5  A    between atoms: C23_26  and  C24_27 
REMARK    6  A    between atoms: C24_27  and  C25_28 
REMARK    7  A    between atoms: C25_28  and  O4_29 
REMARK    8  A    between atoms: C25_28  and  C26_30 
REMARK    9  A    between atoms: C26_30  and  O5_32 
REMARK   10  A    between atoms: C26_30  and  C28_33 
REMARK   11  A    between atoms: C28_33  and  O6_34 
REMARK   12  A    between atoms: C32_38  and  O7_39 
ROOT
HETATM    1  C3  UNL     1       4.095   7.834  11.541  1.00  0.00     0.140 C 
HETATM    2  C4  UNL     1       3.183   8.669  12.459  1.00  0.00     0.034 C 
HETATM    3  C5  UNL     1       1.959   9.193  11.722  1.00  0.00     0.017 C 
HETATM    4  C6  UNL     1       1.007   8.060  11.229  1.00  0.00    -0.013 C 
HETATM    5  C7  UNL     1       0.278   8.598   9.968  1.00  0.00     0.021 C 
HETATM    6  C8  UNL     1      -0.124   7.622  12.205  1.00  0.00    -0.032 C 
HETATM    7  C9  UNL     1      -0.702   6.390  12.097  1.00  0.00     0.002 C 
HETATM    8  C10 UNL     1      -0.264   5.439  11.012  1.00  0.00     0.157 C 
HETATM    9  O3  UNL     1      -0.929   4.444  10.732  1.00  0.00    -0.293 OA
HETATM   10  C11 UNL     1       1.015   5.721  10.248  1.00  0.00     0.090 C 
HETATM   11  C12 UNL     1       1.858   6.757  10.990  1.00  0.00     0.015 C 
HETATM   12  C13 UNL     1       3.317   6.985  10.466  1.00  0.00    -0.016 C 
HETATM   13  C14 UNL     1       4.054   5.626  10.338  1.00  0.00     0.018 C 
HETATM   14  C15 UNL     1       3.364   7.623   9.063  1.00  0.00     0.018 C 
HETATM   15  C16 UNL     1      -1.735   5.907  13.110  1.00  0.00    -0.005 C 
HETATM   16  C17 UNL     1      -0.873   5.241  14.230  1.00  0.00     0.021 C 
HETATM   17  C18 UNL     1      -2.825   4.888  12.724  1.00  0.00     0.015 C 
HETATM   18  C19 UNL     1      -3.928   5.056  13.790  1.00  0.00     0.007 C 
HETATM   19  C20 UNL     1      -3.647   6.395  14.529  1.00  0.00    -0.002 C 
HETATM   20  C29 UNL     1      -2.642   7.115  13.576  1.00  0.00    -0.026 C 
HETATM   21  C30 UNL     1      -3.403   7.769  12.387  1.00  0.00     0.016 C 
HETATM   22  C31 UNL     1      -1.722   8.165  14.223  1.00  0.00     0.047 C 
HETATM   23  C32 UNL     1      -0.566   8.601  13.292  1.00  0.00     0.149 C 
ENDROOT
BRANCH  19  24
HETATM   24  C21 UNL     1      -4.934   7.062  15.099  1.00  0.00    -0.014 C 
HETATM   25  C22 UNL     1      -5.570   6.396  16.329  1.00  0.00     0.010 C 
BRANCH  24  26
HETATM   26  C23 UNL     1      -6.050   7.313  14.059  1.00  0.00     0.007 C 
BRANCH  26  27
HETATM   27  C24 UNL     1      -7.350   6.502  14.189  1.00  0.00     0.035 C 
BRANCH  27  28
HETATM   28  C25 UNL     1      -7.171   4.977  14.096  1.00  0.00     0.154 C 
BRANCH  28  29
HETATM   29  O4  UNL     1      -7.762   4.366  15.243  1.00  0.00    -0.392 OA
HETATM   30  H38 UNL     1      -7.273   3.547  15.435  1.00  0.00     0.210 HD
ENDBRANCH  28  29
BRANCH  28  31
HETATM   31  C26 UNL     1      -7.755   4.351  12.790  1.00  0.00     0.101 C 
HETATM   32  C27 UNL     1      -8.673   5.359  12.083  1.00  0.00     0.051 C 
BRANCH  31  33
HETATM   33  O5  UNL     1      -8.550   3.193  13.118  1.00  0.00    -0.385 OA
HETATM   34  H42 UNL     1      -9.299   3.488  13.665  1.00  0.00     0.210 HD
ENDBRANCH  31  33
BRANCH  31  35
HETATM   35  C28 UNL     1      -6.668   3.884  11.794  1.00  0.00     0.204 C 
BRANCH  35  36
HETATM   36  O6  UNL     1      -6.297   2.525  12.041  1.00  0.00    -0.398 OA
HETATM   37  H45 UNL     1      -7.144   2.071  12.225  1.00  0.00     0.209 HD
ENDBRANCH  35  36
ENDBRANCH  31  35
ENDBRANCH  28  31
ENDBRANCH  27  28
ENDBRANCH  26  27
ENDBRANCH  24  26
ENDBRANCH  19  24
BRANCH  23  38
HETATM   38  O7  UNL     1      -0.944   9.833  12.678  1.00  0.00    -0.391 OA
HETATM   39  H52 UNL     1      -1.652   9.648  12.043  1.00  0.00     0.210 HD
ENDBRANCH  23  38
BRANCH   1  40
HETATM   40  O2  UNL     1       5.009   8.750  10.900  1.00  0.00    -0.316 OA
BRANCH  40  41
HETATM   41  C2  UNL     1       6.337   8.577  11.137  1.00  0.00     0.255 C 
HETATM   42  C1  UNL     1       6.858   9.721  11.952  1.00  0.00     0.126 C 
HETATM   43  O1  UNL     1       7.020   7.641  10.751  1.00  0.00    -0.266 OA
ENDBRANCH  40  41
ENDBRANCH   1  40
TORSDOF 12
ENDMDL
MODEL 8
REMARK minimizedAffinity -6.18249178
REMARK CNNscore 0.337527066
REMARK CNNaffinity 6.57334852
REMARK  12 active torsions:
REMARK  status: ('A' for Active; 'I' for Inactive)
REMARK    1  A    between atoms: C2_2  and  O2_4 
REMARK    2  A    between atoms: O2_4  and  C3_5 
REMARK    3  A    between atoms: C20_23  and  C21_24 
REMARK    4  A    between atoms: C21_24  and  C23_26 
REMARK    5  A    between atoms: C23_26  and  C24_27 
REMARK    6  A    between atoms: C24_27  and  C25_28 
REMARK    7  A    between atoms: C25_28  and  O4_29 
REMARK    8  A    between atoms: C25_28  and  C26_30 
REMARK    9  A    between atoms: C26_30  and  O5_32 
REMARK   10  A    between atoms: C26_30  and  C28_33 
REMARK   11  A    between atoms: C28_33  and  O6_34 
REMARK   12  A    between atoms: C32_38  and  O7_39 
ROOT
HETATM    1  C3  UNL     1     -13.640  -6.492  29.411  1.00  0.00     0.140 C 
HETATM    2  C4  UNL     1     -12.723  -7.694  29.118  1.00  0.00     0.034 C 
HETATM    3  C5  UNL     1     -13.444  -9.021  29.308  1.00  0.00     0.017 C 
HETATM    4  C6  UNL     1     -14.619  -9.231  28.304  1.00  0.00    -0.013 C 
HETATM    5  C7  UNL     1     -15.652 -10.155  29.004  1.00  0.00     0.021 C 
HETATM    6  C8  UNL     1     -14.274  -9.939  26.960  1.00  0.00    -0.032 C 
HETATM    7  C9  UNL     1     -15.065  -9.774  25.860  1.00  0.00     0.002 C 
HETATM    8  C10 UNL     1     -16.301  -8.914  25.937  1.00  0.00     0.157 C 
HETATM    9  O3  UNL     1     -17.157  -8.951  25.055  1.00  0.00    -0.293 OA
HETATM   10  C11 UNL     1     -16.495  -7.995  27.127  1.00  0.00     0.090 C 
HETATM   11  C12 UNL     1     -15.178  -7.821  27.882  1.00  0.00     0.015 C 
HETATM   12  C13 UNL     1     -15.142  -6.716  28.992  1.00  0.00    -0.016 C 
HETATM   13  C14 UNL     1     -15.661  -5.371  28.420  1.00  0.00     0.018 C 
HETATM   14  C15 UNL     1     -16.049  -7.038  30.197  1.00  0.00     0.018 C 
HETATM   15  C16 UNL     1     -14.682 -10.375  24.512  1.00  0.00    -0.005 C 
HETATM   16  C17 UNL     1     -13.791  -9.272  23.854  1.00  0.00     0.021 C 
HETATM   17  C18 UNL     1     -15.751 -10.761  23.470  1.00  0.00     0.015 C 
HETATM   18  C19 UNL     1     -15.054 -11.766  22.531  1.00  0.00     0.007 C 
HETATM   19  C20 UNL     1     -13.752 -12.230  23.246  1.00  0.00    -0.002 C 
HETATM   20  C29 UNL     1     -13.985 -11.778  24.722  1.00  0.00    -0.026 C 
HETATM   21  C30 UNL     1     -14.915 -12.789  25.454  1.00  0.00     0.016 C 
HETATM   22  C31 UNL     1     -12.724 -11.549  25.572  1.00  0.00     0.047 C 
HETATM   23  C32 UNL     1     -13.025 -10.817  26.902  1.00  0.00     0.149 C 
ENDROOT
BRANCH  19  24
HETATM   24  C21 UNL     1     -13.306 -13.665  22.837  1.00  0.00    -0.014 C 
HETATM   25  C22 UNL     1     -14.172 -14.828  23.345  1.00  0.00     0.010 C 
BRANCH  24  26
HETATM   26  C23 UNL     1     -11.828 -13.998  23.146  1.00  0.00     0.007 C 
BRANCH  26  27
HETATM   27  C24 UNL     1     -10.753 -13.464  22.184  1.00  0.00     0.035 C 
BRANCH  27  28
HETATM   28  C25 UNL     1      -9.322 -13.470  22.749  1.00  0.00     0.154 C 
BRANCH  28  29
HETATM   29  O4  UNL     1      -8.455 -14.121  21.819  1.00  0.00    -0.392 OA
HETATM   30  H38 UNL     1      -7.733 -14.539  22.321  1.00  0.00     0.210 HD
ENDBRANCH  28  29
BRANCH  28  31
HETATM   31  C26 UNL     1      -8.773 -12.050  23.095  1.00  0.00     0.101 C 
HETATM   32  C27 UNL     1      -7.341 -12.154  23.641  1.00  0.00     0.051 C 
BRANCH  31  33
HETATM   33  O5  UNL     1      -9.587 -11.450  24.123  1.00  0.00    -0.385 OA
HETATM   34  H42 UNL     1      -9.515 -11.999  24.923  1.00  0.00     0.210 HD
ENDBRANCH  31  33
BRANCH  31  35
HETATM   35  C28 UNL     1      -8.778 -11.079  21.892  1.00  0.00     0.204 C 
BRANCH  35  36
HETATM   36  O6  UNL     1      -7.456 -10.888  21.383  1.00  0.00    -0.398 OA
HETATM   37  H45 UNL     1      -7.056 -11.781  21.401  1.00  0.00     0.209 HD
ENDBRANCH  35  36
ENDBRANCH  31  35
ENDBRANCH  28  31
ENDBRANCH  27  28
ENDBRANCH  26  27
ENDBRANCH  24  26
ENDBRANCH  19  24
BRANCH  23  38
HETATM   38  O7  UNL     1     -13.103 -11.803  27.931  1.00  0.00    -0.391 OA
HETATM   39  H52 UNL     1     -13.916 -12.314  27.797  1.00  0.00     0.210 HD
ENDBRANCH  23  38
BRANCH   1  40
HETATM   40  O2  UNL     1     -13.542  -6.217  30.825  1.00  0.00    -0.316 OA
BRANCH  40  41
HETATM   41  C2  UNL     1     -12.927  -5.063  31.197  1.00  0.00     0.255 C 
HETATM   42  C1  UNL     1     -11.759  -4.800  30.297  1.00  0.00     0.126 C 
HETATM   43  O1  UNL     1     -13.260  -4.337  32.122  1.00  0.00    -0.266 OA
ENDBRANCH  40  41
ENDBRANCH   1  40
TORSDOF 12
ENDMDL
MODEL 9
REMARK minimizedAffinity -7.84510326
REMARK CNNscore 0.331661642
REMARK CNNaffinity 6.74088335
REMARK  12 active torsions:
REMARK  status: ('A' for Active; 'I' for Inactive)
REMARK    1  A    between atoms: C2_2  and  O2_4 
REMARK    2  A    between atoms: O2_4  and  C3_5 
REMARK    3  A    between atoms: C20_23  and  C21_24 
REMARK    4  A    between atoms: C21_24  and  C23_26 
REMARK    5  A    between atoms: C23_26  and  C24_27 
REMARK    6  A    between atoms: C24_27  and  C25_28 
REMARK    7  A    between atoms: C25_28  and  O4_29 
REMARK    8  A    between atoms: C25_28  and  C26_30 
REMARK    9  A    between atoms: C26_30  and  O5_32 
REMARK   10  A    between atoms: C26_30  and  C28_33 
REMARK   11  A    between atoms: C28_33  and  O6_34 
REMARK   12  A    between atoms: C32_38  and  O7_39 
ROOT
HETATM    1  C3  UNL     1       4.518   8.119  12.416  1.00  0.00     0.140 C 
HETATM    2  C4  UNL     1       3.442   8.828  13.260  1.00  0.00     0.034 C 
HETATM    3  C5  UNL     1       2.294   9.343  12.403  1.00  0.00     0.017 C 
HETATM    4  C6  UNL     1       1.489   8.205  11.704  1.00  0.00    -0.013 C 
HETATM    5  C7  UNL     1       0.900   8.803  10.398  1.00  0.00     0.021 C 
HETATM    6  C8  UNL     1       0.270   7.629  12.483  1.00  0.00    -0.032 C 
HETATM    7  C9  UNL     1      -0.208   6.381  12.208  1.00  0.00     0.002 C 
HETATM    8  C10 UNL     1       0.428   5.545  11.126  1.00  0.00     0.157 C 
HETATM    9  O3  UNL     1      -0.129   4.542  10.687  1.00  0.00    -0.293 OA
HETATM   10  C11 UNL     1       1.776   5.957  10.565  1.00  0.00     0.090 C 
HETATM   11  C12 UNL     1       2.446   6.973  11.489  1.00  0.00     0.015 C 
HETATM   12  C13 UNL     1       3.944   7.320  11.186  1.00  0.00    -0.016 C 
HETATM   13  C14 UNL     1       4.777   6.017  11.061  1.00  0.00     0.018 C 
HETATM   14  C15 UNL     1       4.134   8.071   9.853  1.00  0.00     0.018 C 
HETATM   15  C16 UNL     1      -1.332   5.763  13.033  1.00  0.00    -0.005 C 
HETATM   16  C17 UNL     1      -0.584   5.055  14.208  1.00  0.00     0.021 C 
HETATM   17  C18 UNL     1      -2.295   4.722  12.430  1.00  0.00     0.015 C 
HETATM   18  C19 UNL     1      -3.537   4.743  13.345  1.00  0.00     0.007 C 
HETATM   19  C20 UNL     1      -3.441   6.031  14.211  1.00  0.00    -0.002 C 
HETATM   20  C29 UNL     1      -2.368   6.879  13.459  1.00  0.00    -0.026 C 
HETATM   21  C30 UNL     1      -3.006   7.585  12.228  1.00  0.00     0.016 C 
HETATM   22  C31 UNL     1      -1.610   7.921  14.299  1.00  0.00     0.047 C 
HETATM   23  C32 UNL     1      -0.372   8.492  13.568  1.00  0.00     0.149 C 
ENDROOT
BRANCH  19  24
HETATM   24  C21 UNL     1      -4.832   6.581  14.649  1.00  0.00    -0.014 C 
HETATM   25  C22 UNL     1      -5.296   6.231  16.070  1.00  0.00     0.010 C 
BRANCH  24  26
HETATM   26  C23 UNL     1      -5.990   6.263  13.675  1.00  0.00     0.007 C 
BRANCH  26  27
HETATM   27  C24 UNL     1      -7.263   5.623  14.254  1.00  0.00     0.035 C 
BRANCH  27  28
HETATM   28  C25 UNL     1      -8.581   6.229  13.741  1.00  0.00     0.154 C 
BRANCH  28  29
HETATM   29  O4  UNL     1      -9.405   5.185  13.221  1.00  0.00    -0.392 OA
HETATM   30  H38 UNL     1      -9.957   5.561  12.513  1.00  0.00     0.210 HD
ENDBRANCH  28  29
BRANCH  28  31
HETATM   31  C26 UNL     1      -9.361   7.048  14.817  1.00  0.00     0.101 C 
HETATM   32  C27 UNL     1      -8.553   8.287  15.230  1.00  0.00     0.051 C 
BRANCH  31  33
HETATM   33  O5  UNL     1      -9.554   6.242  15.997  1.00  0.00    -0.385 OA
HETATM   34  H42 UNL     1      -8.677   6.030  16.364  1.00  0.00     0.210 HD
ENDBRANCH  31  33
BRANCH  31  35
HETATM   35  C28 UNL     1     -10.763   7.502  14.347  1.00  0.00     0.204 C 
BRANCH  35  36
HETATM   36  O6  UNL     1     -11.646   7.669  15.458  1.00  0.00    -0.398 OA
HETATM   37  H45 UNL     1     -11.098   8.106  16.142  1.00  0.00     0.209 HD
ENDBRANCH  35  36
ENDBRANCH  31  35
ENDBRANCH  28  31
ENDBRANCH  27  28
ENDBRANCH  26  27
ENDBRANCH  24  26
ENDBRANCH  19  24
BRANCH  23  38
HETATM   38  O7  UNL     1      -0.744   9.748  13.000  1.00  0.00    -0.391 OA
HETATM   39  H52 UNL     1      -1.349   9.577  12.263  1.00  0.00     0.210 HD
ENDBRANCH  23  38
BRANCH   1  40
HETATM   40  O2  UNL     1       5.448   9.132  11.974  1.00  0.00    -0.316 OA
BRANCH  40  41
HETATM   41  C2  UNL     1       6.752   8.982  12.328  1.00  0.00     0.255 C 
HETATM   42  C1  UNL     1       7.065   9.869  13.494  1.00  0.00     0.126 C 
HETATM   43  O1  UNL     1       7.563   8.242  11.790  1.00  0.00    -0.266 OA
ENDBRANCH  40  41
ENDBRANCH   1  40
TORSDOF 12
ENDMDL
