MODEL 1
REMARK minimizedAffinity -7.05025578
REMARK CNNscore 0.480207264
REMARK CNNaffinity 6.3686471
REMARK  10 active torsions:
REMARK  status: ('A' for Active; 'I' for Inactive)
REMARK    1  A    between atoms: C4_4  and  C5_5 
REMARK    2  A    between atoms: C5_5  and  O2_7 
REMARK    3  A    between atoms: O2_7  and  C6_8 
REMARK    4  A    between atoms: C6_8  and  C7_9 
REMARK    5  A    between atoms: C7_9  and  N1_10 
REMARK    6  A    between atoms: C20_24  and  O4_25 
REMARK    7  A    between atoms: O4_25  and  C21_26 
REMARK    8  A    between atoms: C21_26  and  C22_28 
REMARK    9  A    between atoms: C22_28  and  C23_29 
REMARK   10  A    between atoms: C23_29  and  O6_32 
ROOT
HETATM    1  C1  UNL     1      -7.544   5.088  15.649  1.00  0.00     0.015 C 
HETATM    2  C2  UNL     1      -7.629   5.957  14.384  1.00  0.00     0.022 C 
HETATM    3  C3  UNL     1      -8.520   7.171  14.642  1.00  0.00    -0.070 C 
HETATM    4  C4  UNL     1      -9.860   7.010  14.668  1.00  0.00     0.085 C 
HETATM    5  C10 UNL     1      -7.806   8.497  14.794  1.00  0.00     0.035 C 
HETATM    6  C11 UNL     1      -6.428   8.393  15.465  1.00  0.00     0.010 C 
HETATM    7  C12 UNL     1      -5.506   7.272  14.917  1.00  0.00     0.006 C 
HETATM    8  C13 UNL     1      -6.253   6.426  13.856  1.00  0.00     0.068 C 
HETATM    9  C14 UNL     1      -5.395   5.281  13.335  1.00  0.00     0.132 C 
HETATM   10  O3  UNL     1      -5.850   4.158  13.120  1.00  0.00    -0.298 OA
HETATM   11  C15 UNL     1      -3.968   5.620  12.951  1.00  0.00     0.085 C 
HETATM   12  C16 UNL     1      -3.291   6.399  14.090  1.00  0.00     0.011 C 
HETATM   13  C17 UNL     1      -1.724   6.530  13.987  1.00  0.00    -0.016 C 
HETATM   14  C18 UNL     1      -1.268   7.218  12.684  1.00  0.00     0.018 C 
HETATM   15  C19 UNL     1      -1.105   5.104  13.950  1.00  0.00     0.018 C 
HETATM   16  C20 UNL     1      -1.155   7.230  15.278  1.00  0.00     0.140 C 
HETATM   17  C26 UNL     1      -2.242   7.721  16.244  1.00  0.00     0.034 C 
HETATM   18  C27 UNL     1      -3.322   8.526  15.532  1.00  0.00     0.012 C 
HETATM   19  C28 UNL     1      -4.076   7.733  14.422  1.00  0.00    -0.035 C 
HETATM   20  C29 UNL     1      -4.245   8.683  13.209  1.00  0.00     0.016 C 
ENDROOT
BRANCH   4  21
HETATM   21  C5  UNL     1     -10.883   8.074  14.825  1.00  0.00     0.283 C 
HETATM   22  O1  UNL     1     -11.626   8.496  13.960  1.00  0.00    -0.260 OA
BRANCH  21  23
HETATM   23  O2  UNL     1     -10.846   8.475  16.122  1.00  0.00    -0.316 OA
BRANCH  23  24
HETATM   24  C6  UNL     1     -11.725   9.562  16.470  1.00  0.00     0.209 C 
BRANCH  24  25
HETATM   25  C7  UNL     1     -11.581   9.907  17.961  1.00  0.00     0.298 C 
BRANCH  25  26
HETATM   26  N1  UNL     1     -10.699  11.058  18.232  1.00  0.00     0.082 N 
HETATM   27  C8  UNL     1     -11.115  11.728  19.469  1.00  0.00     0.309 C 
HETATM   28  C9  UNL     1     -10.699  12.022  17.128  1.00  0.00     0.309 C 
ENDBRANCH  25  26
ENDBRANCH  24  25
ENDBRANCH  23  24
ENDBRANCH  21  23
ENDBRANCH   4  21
BRANCH  16  29
HETATM   29  O4  UNL     1      -0.338   8.379  14.954  1.00  0.00    -0.315 OA
BRANCH  29  30
HETATM   30  C21 UNL     1       0.908   8.423  15.514  1.00  0.00     0.262 C 
HETATM   31  O5  UNL     1       1.290   7.694  16.416  1.00  0.00    -0.265 OA
BRANCH  30  32
HETATM   32  C22 UNL     1       1.746   9.453  14.787  1.00  0.00     0.148 C 
BRANCH  32  33
HETATM   33  C23 UNL     1       2.214   9.037  13.382  1.00  0.00     0.059 C 
HETATM   34  C24 UNL     1       3.514   9.778  13.045  1.00  0.00     0.045 C 
HETATM   35  C25 UNL     1       2.449   7.529  13.262  1.00  0.00     0.045 C 
BRANCH  33  36
HETATM   36  O6  UNL     1       1.261   9.415  12.389  1.00  0.00    -0.390 OA
HETATM   37  H40 UNL     1       1.065  10.363  12.479  1.00  0.00     0.210 HD
ENDBRANCH  33  36
ENDBRANCH  32  33
ENDBRANCH  30  32
ENDBRANCH  29  30
ENDBRANCH  16  29
TORSDOF 10
ENDMDL
MODEL 2
REMARK minimizedAffinity -8.33377075
REMARK CNNscore 0.451450557
REMARK CNNaffinity 7.01893616
REMARK  10 active torsions:
REMARK  status: ('A' for Active; 'I' for Inactive)
REMARK    1  A    between atoms: C4_4  and  C5_5 
REMARK    2  A    between atoms: C5_5  and  O2_7 
REMARK    3  A    between atoms: O2_7  and  C6_8 
REMARK    4  A    between atoms: C6_8  and  C7_9 
REMARK    5  A    between atoms: C7_9  and  N1_10 
REMARK    6  A    between atoms: C20_24  and  O4_25 
REMARK    7  A    between atoms: O4_25  and  C21_26 
REMARK    8  A    between atoms: C21_26  and  C22_28 
REMARK    9  A    between atoms: C22_28  and  C23_29 
REMARK   10  A    between atoms: C23_29  and  O6_32 
ROOT
HETATM    1  C1  UNL     1      -4.877   8.808  13.733  1.00  0.00     0.015 C 
HETATM    2  C2  UNL     1      -4.443   7.755  14.765  1.00  0.00     0.022 C 
HETATM    3  C3  UNL     1      -5.342   6.523  14.665  1.00  0.00    -0.070 C 
HETATM    4  C4  UNL     1      -6.588   6.574  15.184  1.00  0.00     0.085 C 
HETATM    5  C10 UNL     1      -4.722   5.300  14.025  1.00  0.00     0.035 C 
HETATM    6  C11 UNL     1      -3.720   5.618  12.905  1.00  0.00     0.010 C 
HETATM    7  C12 UNL     1      -2.677   6.717  13.240  1.00  0.00     0.006 C 
HETATM    8  C13 UNL     1      -2.962   7.328  14.635  1.00  0.00     0.068 C 
HETATM    9  C14 UNL     1      -1.989   8.448  14.974  1.00  0.00     0.132 C 
HETATM   10  O3  UNL     1      -2.343   9.485  15.536  1.00  0.00    -0.298 OA
HETATM   11  C15 UNL     1      -0.520   8.176  14.716  1.00  0.00     0.085 C 
HETATM   12  C16 UNL     1      -0.331   7.637  13.289  1.00  0.00     0.011 C 
HETATM   13  C17 UNL     1       1.152   7.623  12.758  1.00  0.00    -0.016 C 
HETATM   14  C18 UNL     1       2.096   6.787  13.647  1.00  0.00     0.018 C 
HETATM   15  C19 UNL     1       1.711   9.074  12.798  1.00  0.00     0.018 C 
HETATM   16  C20 UNL     1       1.181   7.176  11.248  1.00  0.00     0.140 C 
HETATM   17  C26 UNL     1      -0.189   6.746  10.706  1.00  0.00     0.034 C 
HETATM   18  C27 UNL     1      -0.888   5.756  11.629  1.00  0.00     0.012 C 
HETATM   19  C28 UNL     1      -1.159   6.308  13.061  1.00  0.00    -0.035 C 
HETATM   20  C29 UNL     1      -0.822   5.175  14.064  1.00  0.00     0.016 C 
ENDROOT
BRANCH   4  21
HETATM   21  C5  UNL     1      -7.571   5.465  15.252  1.00  0.00     0.283 C 
HETATM   22  O1  UNL     1      -7.477   4.381  14.708  1.00  0.00    -0.260 OA
BRANCH  21  23
HETATM   23  O2  UNL     1      -8.587   5.881  16.049  1.00  0.00    -0.316 OA
BRANCH  23  24
HETATM   24  C6  UNL     1      -9.407   6.943  15.524  1.00  0.00     0.209 C 
BRANCH  24  25
HETATM   25  C7  UNL     1      -9.774   6.657  14.059  1.00  0.00     0.298 C 
BRANCH  25  26
HETATM   26  N1  UNL     1     -11.059   7.243  13.633  1.00  0.00     0.082 N 
HETATM   27  C8  UNL     1     -11.004   8.705  13.744  1.00  0.00     0.309 C 
HETATM   28  C9  UNL     1     -12.184   6.734  14.422  1.00  0.00     0.309 C 
ENDBRANCH  25  26
ENDBRANCH  24  25
ENDBRANCH  23  24
ENDBRANCH  21  23
ENDBRANCH   4  21
BRANCH  16  29
HETATM   29  O4  UNL     1       2.080   6.063  11.032  1.00  0.00    -0.315 OA
BRANCH  29  30
HETATM   30  C21 UNL     1       2.669   5.982   9.801  1.00  0.00     0.262 C 
HETATM   31  O5  UNL     1       2.787   4.954   9.153  1.00  0.00    -0.265 OA
BRANCH  30  32
HETATM   32  C22 UNL     1       3.071   7.369   9.349  1.00  0.00     0.148 C 
BRANCH  32  33
HETATM   33  C23 UNL     1       2.412   7.845   8.044  1.00  0.00     0.059 C 
HETATM   34  C24 UNL     1       2.400   6.689   7.036  1.00  0.00     0.045 C 
HETATM   35  C25 UNL     1       0.980   8.344   8.255  1.00  0.00     0.045 C 
BRANCH  33  36
HETATM   36  O6  UNL     1       3.162   8.902   7.444  1.00  0.00    -0.390 OA
HETATM   37  H40 UNL     1       4.087   8.618   7.342  1.00  0.00     0.210 HD
ENDBRANCH  33  36
ENDBRANCH  32  33
ENDBRANCH  30  32
ENDBRANCH  29  30
ENDBRANCH  16  29
TORSDOF 10
ENDMDL
MODEL 3
REMARK minimizedAffinity -6.86584473
REMARK CNNscore 0.403268307
REMARK CNNaffinity 6.64049578
REMARK  10 active torsions:
REMARK  status: ('A' for Active; 'I' for Inactive)
REMARK    1  A    between atoms: C4_4  and  C5_5 
REMARK    2  A    between atoms: C5_5  and  O2_7 
REMARK    3  A    between atoms: O2_7  and  C6_8 
REMARK    4  A    between atoms: C6_8  and  C7_9 
REMARK    5  A    between atoms: C7_9  and  N1_10 
REMARK    6  A    between atoms: C20_24  and  O4_25 
REMARK    7  A    between atoms: O4_25  and  C21_26 
REMARK    8  A    between atoms: C21_26  and  C22_28 
REMARK    9  A    between atoms: C22_28  and  C23_29 
REMARK   10  A    between atoms: C23_29  and  O6_32 
ROOT
HETATM    1  C1  UNL     1      -7.607   5.117  15.755  1.00  0.00     0.015 C 
HETATM    2  C2  UNL     1      -7.706   5.932  14.456  1.00  0.00     0.022 C 
HETATM    3  C3  UNL     1      -8.605   7.149  14.669  1.00  0.00    -0.070 C 
HETATM    4  C4  UNL     1      -9.944   6.979  14.709  1.00  0.00     0.085 C 
HETATM    5  C10 UNL     1      -7.900   8.486  14.763  1.00  0.00     0.035 C 
HETATM    6  C11 UNL     1      -6.519   8.419  15.429  1.00  0.00     0.010 C 
HETATM    7  C12 UNL     1      -5.591   7.284  14.923  1.00  0.00     0.006 C 
HETATM    8  C13 UNL     1      -6.337   6.390  13.902  1.00  0.00     0.068 C 
HETATM    9  C14 UNL     1      -5.472   5.231  13.423  1.00  0.00     0.132 C 
HETATM   10  O3  UNL     1      -5.920   4.096  13.257  1.00  0.00    -0.298 OA
HETATM   11  C15 UNL     1      -4.050   5.564  13.018  1.00  0.00     0.085 C 
HETATM   12  C16 UNL     1      -3.373   6.394  14.120  1.00  0.00     0.011 C 
HETATM   13  C17 UNL     1      -1.808   6.533  14.003  1.00  0.00    -0.016 C 
HETATM   14  C18 UNL     1      -1.364   7.170  12.670  1.00  0.00     0.018 C 
HETATM   15  C19 UNL     1      -1.178   5.110  14.021  1.00  0.00     0.018 C 
HETATM   16  C20 UNL     1      -1.237   7.289  15.261  1.00  0.00     0.140 C 
HETATM   17  C26 UNL     1      -2.323   7.812  16.211  1.00  0.00     0.034 C 
HETATM   18  C27 UNL     1      -3.413   8.579  15.473  1.00  0.00     0.012 C 
HETATM   19  C28 UNL     1      -4.166   7.734  14.401  1.00  0.00    -0.035 C 
HETATM   20  C29 UNL     1      -4.350   8.633  13.151  1.00  0.00     0.016 C 
ENDROOT
BRANCH   4  21
HETATM   21  C5  UNL     1     -10.974   8.041  14.828  1.00  0.00     0.283 C 
HETATM   22  O1  UNL     1     -11.995   8.134  14.173  1.00  0.00    -0.260 OA
BRANCH  21  23
HETATM   23  O2  UNL     1     -10.571   8.879  15.817  1.00  0.00    -0.316 OA
BRANCH  23  24
HETATM   24  C6  UNL     1     -11.173  10.187  15.818  1.00  0.00     0.209 C 
BRANCH  24  25
HETATM   25  C7  UNL     1     -10.388  11.135  14.897  1.00  0.00     0.298 C 
BRANCH  25  26
HETATM   26  N1  UNL     1     -10.316  12.526  15.382  1.00  0.00     0.082 N 
HETATM   27  C8  UNL     1      -9.653  13.372  14.382  1.00  0.00     0.309 C 
HETATM   28  C9  UNL     1      -9.604  12.626  16.659  1.00  0.00     0.309 C 
ENDBRANCH  25  26
ENDBRANCH  24  25
ENDBRANCH  23  24
ENDBRANCH  21  23
ENDBRANCH   4  21
BRANCH  16  29
HETATM   29  O4  UNL     1      -0.431   8.430  14.885  1.00  0.00    -0.315 OA
BRANCH  29  30
HETATM   30  C21 UNL     1       0.585   8.768  15.734  1.00  0.00     0.262 C 
HETATM   31  O5  UNL     1       1.185   7.981  16.449  1.00  0.00    -0.265 OA
BRANCH  30  32
HETATM   32  C22 UNL     1       0.890  10.244  15.584  1.00  0.00     0.148 C 
BRANCH  32  33
HETATM   33  C23 UNL     1       0.007  11.180  16.424  1.00  0.00     0.059 C 
HETATM   34  C24 UNL     1      -1.218  11.593  15.597  1.00  0.00     0.045 C 
HETATM   35  C25 UNL     1      -0.463  10.533  17.730  1.00  0.00     0.045 C 
BRANCH  33  36
HETATM   36  O6  UNL     1       0.700  12.384  16.754  1.00  0.00    -0.390 OA
HETATM   37  H40 UNL     1       1.045  12.787  15.938  1.00  0.00     0.210 HD
ENDBRANCH  33  36
ENDBRANCH  32  33
ENDBRANCH  30  32
ENDBRANCH  29  30
ENDBRANCH  16  29
TORSDOF 10
ENDMDL
MODEL 4
REMARK minimizedAffinity -6.4892354
REMARK CNNscore 0.391111016
REMARK CNNaffinity 5.54716682
REMARK  10 active torsions:
REMARK  status: ('A' for Active; 'I' for Inactive)
REMARK    1  A    between atoms: C4_4  and  C5_5 
REMARK    2  A    between atoms: C5_5  and  O2_7 
REMARK    3  A    between atoms: O2_7  and  C6_8 
REMARK    4  A    between atoms: C6_8  and  C7_9 
REMARK    5  A    between atoms: C7_9  and  N1_10 
REMARK    6  A    between atoms: C20_24  and  O4_25 
REMARK    7  A    between atoms: O4_25  and  C21_26 
REMARK    8  A    between atoms: C21_26  and  C22_28 
REMARK    9  A    between atoms: C22_28  and  C23_29 
REMARK   10  A    between atoms: C23_29  and  O6_32 
ROOT
HETATM    1  C1  UNL     1     -19.286   4.551  13.440  1.00  0.00     0.015 C 
HETATM    2  C2  UNL     1     -17.866   4.400  12.872  1.00  0.00     0.022 C 
HETATM    3  C3  UNL     1     -16.967   5.514  13.407  1.00  0.00    -0.070 C 
HETATM    4  C4  UNL     1     -17.083   6.757  12.891  1.00  0.00     0.085 C 
HETATM    5  C10 UNL     1     -15.958   5.105  14.457  1.00  0.00     0.035 C 
HETATM    6  C11 UNL     1     -16.445   3.989  15.393  1.00  0.00     0.010 C 
HETATM    7  C12 UNL     1     -17.108   2.776  14.691  1.00  0.00     0.006 C 
HETATM    8  C13 UNL     1     -17.220   3.026  13.166  1.00  0.00     0.068 C 
HETATM    9  C14 UNL     1     -17.916   1.876  12.450  1.00  0.00     0.132 C 
HETATM   10  O3  UNL     1     -18.728   2.056  11.544  1.00  0.00    -0.298 OA
HETATM   11  C15 UNL     1     -17.458   0.475  12.807  1.00  0.00     0.085 C 
HETATM   12  C16 UNL     1     -17.444   0.303  14.334  1.00  0.00     0.011 C 
HETATM   13  C17 UNL     1     -17.317  -1.180  14.849  1.00  0.00    -0.016 C 
HETATM   14  C18 UNL     1     -16.042  -1.882  14.340  1.00  0.00     0.018 C 
HETATM   15  C19 UNL     1     -18.508  -2.009  14.287  1.00  0.00     0.018 C 
HETATM   16  C20 UNL     1     -17.450  -1.220  16.418  1.00  0.00     0.140 C 
HETATM   17  C26 UNL     1     -17.537   0.169  17.065  1.00  0.00     0.034 C 
HETATM   18  C27 UNL     1     -16.447   1.107  16.562  1.00  0.00     0.012 C 
HETATM   19  C28 UNL     1     -16.488   1.359  15.024  1.00  0.00    -0.035 C 
HETATM   20  C29 UNL     1     -15.026   1.316  14.510  1.00  0.00     0.016 C 
ENDROOT
BRANCH   4  21
HETATM   21  C5  UNL     1     -16.252   7.941  13.223  1.00  0.00     0.283 C 
HETATM   22  O1  UNL     1     -16.584   8.886  13.913  1.00  0.00    -0.260 OA
BRANCH  21  23
HETATM   23  O2  UNL     1     -15.046   7.762  12.627  1.00  0.00    -0.316 OA
BRANCH  23  24
HETATM   24  C6  UNL     1     -13.894   8.100  13.422  1.00  0.00     0.209 C 
BRANCH  24  25
HETATM   25  C7  UNL     1     -13.118   9.257  12.772  1.00  0.00     0.298 C 
BRANCH  25  26
HETATM   26  N1  UNL     1     -11.654   9.079  12.776  1.00  0.00     0.082 N 
HETATM   27  C8  UNL     1     -11.321   7.651  12.726  1.00  0.00     0.309 C 
HETATM   28  C9  UNL     1     -11.030   9.686  13.955  1.00  0.00     0.309 C 
ENDBRANCH  25  26
ENDBRANCH  24  25
ENDBRANCH  23  24
ENDBRANCH  21  23
ENDBRANCH   4  21
BRANCH  16  29
HETATM   29  O4  UNL     1     -16.330  -1.896  17.038  1.00  0.00    -0.315 OA
BRANCH  29  30
HETATM   30  C21 UNL     1     -16.604  -2.640  18.151  1.00  0.00     0.262 C 
HETATM   31  O5  UNL     1     -16.174  -2.403  19.269  1.00  0.00    -0.265 OA
BRANCH  30  32
HETATM   32  C22 UNL     1     -17.578  -3.741  17.788  1.00  0.00     0.148 C 
BRANCH  32  33
HETATM   33  C23 UNL     1     -16.944  -5.125  17.574  1.00  0.00     0.059 C 
HETATM   34  C24 UNL     1     -17.798  -6.184  18.283  1.00  0.00     0.045 C 
HETATM   35  C25 UNL     1     -16.817  -5.492  16.093  1.00  0.00     0.045 C 
BRANCH  33  36
HETATM   36  O6  UNL     1     -15.644  -5.193  18.158  1.00  0.00    -0.390 OA
HETATM   37  H40 UNL     1     -15.699  -4.919  19.090  1.00  0.00     0.210 HD
ENDBRANCH  33  36
ENDBRANCH  32  33
ENDBRANCH  30  32
ENDBRANCH  29  30
ENDBRANCH  16  29
TORSDOF 10
ENDMDL
MODEL 5
REMARK minimizedAffinity -7.20813465
REMARK CNNscore 0.361013204
REMARK CNNaffinity 6.12774229
REMARK  10 active torsions:
REMARK  status: ('A' for Active; 'I' for Inactive)
REMARK    1  A    between atoms: C4_4  and  C5_5 
REMARK    2  A    between atoms: C5_5  and  O2_7 
REMARK    3  A    between atoms: O2_7  and  C6_8 
REMARK    4  A    between atoms: C6_8  and  C7_9 
REMARK    5  A    between atoms: C7_9  and  N1_10 
REMARK    6  A    between atoms: C20_24  and  O4_25 
REMARK    7  A    between atoms: O4_25  and  C21_26 
REMARK    8  A    between atoms: C21_26  and  C22_28 
REMARK    9  A    between atoms: C22_28  and  C23_29 
REMARK   10  A    between atoms: C23_29  and  O6_32 
ROOT
HETATM    1  C1  UNL     1      -7.411   5.019  15.511  1.00  0.00     0.015 C 
HETATM    2  C2  UNL     1      -7.475   5.952  14.290  1.00  0.00     0.022 C 
HETATM    3  C3  UNL     1      -8.389   7.139  14.586  1.00  0.00    -0.070 C 
HETATM    4  C4  UNL     1      -9.727   6.960  14.567  1.00  0.00     0.085 C 
HETATM    5  C10 UNL     1      -7.697   8.464  14.826  1.00  0.00     0.035 C 
HETATM    6  C11 UNL     1      -6.337   8.343  15.528  1.00  0.00     0.010 C 
HETATM    7  C12 UNL     1      -5.385   7.264  14.949  1.00  0.00     0.006 C 
HETATM    8  C13 UNL     1      -6.091   6.465  13.825  1.00  0.00     0.068 C 
HETATM    9  C14 UNL     1      -5.204   5.359  13.269  1.00  0.00     0.132 C 
HETATM   10  O3  UNL     1      -5.637   4.243  12.985  1.00  0.00    -0.298 OA
HETATM   11  C15 UNL     1      -3.771   5.735  12.943  1.00  0.00     0.085 C 
HETATM   12  C16 UNL     1      -3.137   6.462  14.139  1.00  0.00     0.011 C 
HETATM   13  C17 UNL     1      -1.570   6.618  14.086  1.00  0.00    -0.016 C 
HETATM   14  C18 UNL     1      -1.088   7.378  12.833  1.00  0.00     0.018 C 
HETATM   15  C19 UNL     1      -0.929   5.203  13.993  1.00  0.00     0.018 C 
HETATM   16  C20 UNL     1      -1.045   7.257  15.426  1.00  0.00     0.140 C 
HETATM   17  C26 UNL     1      -2.164   7.684  16.386  1.00  0.00     0.034 C 
HETATM   18  C27 UNL     1      -3.236   8.511  15.687  1.00  0.00     0.012 C 
HETATM   19  C28 UNL     1      -3.948   7.767  14.517  1.00  0.00    -0.035 C 
HETATM   20  C29 UNL     1      -4.099   8.777  13.350  1.00  0.00     0.016 C 
ENDROOT
BRANCH   4  21
HETATM   21  C5  UNL     1     -10.768   8.001  14.751  1.00  0.00     0.283 C 
HETATM   22  O1  UNL     1     -10.579   9.191  14.923  1.00  0.00    -0.260 OA
BRANCH  21  23
HETATM   23  O2  UNL     1     -11.972   7.380  14.673  1.00  0.00    -0.316 OA
BRANCH  23  24
HETATM   24  C6  UNL     1     -13.114   8.168  15.061  1.00  0.00     0.209 C 
BRANCH  24  25
HETATM   25  C7  UNL     1     -14.022   8.424  13.847  1.00  0.00     0.298 C 
BRANCH  25  26
HETATM   26  N1  UNL     1     -15.346   7.781  13.936  1.00  0.00     0.082 N 
HETATM   27  C8  UNL     1     -15.941   8.039  15.252  1.00  0.00     0.309 C 
HETATM   28  C9  UNL     1     -15.270   6.335  13.707  1.00  0.00     0.309 C 
ENDBRANCH  25  26
ENDBRANCH  24  25
ENDBRANCH  23  24
ENDBRANCH  21  23
ENDBRANCH   4  21
BRANCH  16  29
HETATM   29  O4  UNL     1      -0.235   8.432  15.184  1.00  0.00    -0.315 OA
BRANCH  29  30
HETATM   30  C21 UNL     1       0.910   8.549  15.920  1.00  0.00     0.262 C 
HETATM   31  O5  UNL     1       1.543   7.609  16.375  1.00  0.00    -0.265 OA
BRANCH  30  32
HETATM   32  C22 UNL     1       1.300  10.009  16.007  1.00  0.00     0.148 C 
BRANCH  32  33
HETATM   33  C23 UNL     1       1.471  10.553  17.435  1.00  0.00     0.059 C 
HETATM   34  C24 UNL     1       2.222  11.890  17.378  1.00  0.00     0.045 C 
HETATM   35  C25 UNL     1       0.134  10.758  18.152  1.00  0.00     0.045 C 
BRANCH  33  36
HETATM   36  O6  UNL     1       2.267   9.673  18.229  1.00  0.00    -0.390 OA
HETATM   37  H40 UNL     1       3.105   9.496  17.767  1.00  0.00     0.210 HD
ENDBRANCH  33  36
ENDBRANCH  32  33
ENDBRANCH  30  32
ENDBRANCH  29  30
ENDBRANCH  16  29
TORSDOF 10
ENDMDL
MODEL 6
REMARK minimizedAffinity -8.03269291
REMARK CNNscore 0.329008311
REMARK CNNaffinity 6.25717592
REMARK  10 active torsions:
REMARK  status: ('A' for Active; 'I' for Inactive)
REMARK    1  A    between atoms: C4_4  and  C5_5 
REMARK    2  A    between atoms: C5_5  and  O2_7 
REMARK    3  A    between atoms: O2_7  and  C6_8 
REMARK    4  A    between atoms: C6_8  and  C7_9 
REMARK    5  A    between atoms: C7_9  and  N1_10 
REMARK    6  A    between atoms: C20_24  and  O4_25 
REMARK    7  A    between atoms: O4_25  and  C21_26 
REMARK    8  A    between atoms: C21_26  and  C22_28 
REMARK    9  A    between atoms: C22_28  and  C23_29 
REMARK   10  A    between atoms: C23_29  and  O6_32 
ROOT
HETATM    1  C1  UNL     1      -3.239   2.945  12.872  1.00  0.00     0.015 C 
HETATM    2  C2  UNL     1      -3.798   4.158  12.109  1.00  0.00     0.022 C 
HETATM    3  C3  UNL     1      -5.204   4.486  12.606  1.00  0.00    -0.070 C 
HETATM    4  C4  UNL     1      -6.239   3.712  12.211  1.00  0.00     0.085 C 
HETATM    5  C10 UNL     1      -5.329   5.718  13.477  1.00  0.00     0.035 C 
HETATM    6  C11 UNL     1      -4.113   5.973  14.378  1.00  0.00     0.010 C 
HETATM    7  C12 UNL     1      -2.733   5.870  13.675  1.00  0.00     0.006 C 
HETATM    8  C13 UNL     1      -2.906   5.418  12.204  1.00  0.00     0.068 C 
HETATM    9  C14 UNL     1      -1.567   5.254  11.498  1.00  0.00     0.132 C 
HETATM   10  O3  UNL     1      -1.336   4.325  10.725  1.00  0.00    -0.298 OA
HETATM   11  C15 UNL     1      -0.561   6.374  11.678  1.00  0.00     0.085 C 
HETATM   12  C16 UNL     1      -0.409   6.705  13.171  1.00  0.00     0.011 C 
HETATM   13  C17 UNL     1       0.831   7.603  13.545  1.00  0.00    -0.016 C 
HETATM   14  C18 UNL     1       0.824   8.962  12.816  1.00  0.00     0.018 C 
HETATM   15  C19 UNL     1       2.129   6.881  13.082  1.00  0.00     0.018 C 
HETATM   16  C20 UNL     1       0.937   7.750  15.110  1.00  0.00     0.140 C 
HETATM   17  C26 UNL     1      -0.233   7.112  15.871  1.00  0.00     0.034 C 
HETATM   18  C27 UNL     1      -1.583   7.529  15.303  1.00  0.00     0.012 C 
HETATM   19  C28 UNL     1      -1.792   7.135  13.810  1.00  0.00    -0.035 C 
HETATM   20  C29 UNL     1      -2.464   8.340  13.104  1.00  0.00     0.016 C 
ENDROOT
BRANCH   4  21
HETATM   21  C5  UNL     1      -7.675   3.917  12.523  1.00  0.00     0.283 C 
HETATM   22  O1  UNL     1      -8.413   3.129  13.082  1.00  0.00    -0.260 OA
BRANCH  21  23
HETATM   23  O2  UNL     1      -8.006   5.158  12.082  1.00  0.00    -0.316 OA
BRANCH  23  24
HETATM   24  C6  UNL     1      -9.119   5.786  12.746  1.00  0.00     0.209 C 
BRANCH  24  25
HETATM   25  C7  UNL     1      -8.677   6.356  14.103  1.00  0.00     0.298 C 
BRANCH  25  26
HETATM   26  N1  UNL     1      -9.750   7.040  14.849  1.00  0.00     0.082 N 
HETATM   27  C8  UNL     1     -11.013   6.947  14.109  1.00  0.00     0.309 C 
HETATM   28  C9  UNL     1      -9.432   8.449  15.101  1.00  0.00     0.309 C 
ENDBRANCH  25  26
ENDBRANCH  24  25
ENDBRANCH  23  24
ENDBRANCH  21  23
ENDBRANCH   4  21
BRANCH  16  29
HETATM   29  O4  UNL     1       0.991   9.138  15.519  1.00  0.00    -0.315 OA
BRANCH  29  30
HETATM   30  C21 UNL     1       1.678   9.411  16.668  1.00  0.00     0.262 C 
HETATM   31  O5  UNL     1       2.607   8.746  17.097  1.00  0.00    -0.265 OA
BRANCH  30  32
HETATM   32  C22 UNL     1       1.157  10.701  17.266  1.00  0.00     0.148 C 
BRANCH  32  33
HETATM   33  C23 UNL     1       1.506  10.919  18.747  1.00  0.00     0.059 C 
HETATM   34  C24 UNL     1       2.254  12.250  18.897  1.00  0.00     0.045 C 
HETATM   35  C25 UNL     1       0.268  10.934  19.648  1.00  0.00     0.045 C 
BRANCH  33  36
HETATM   36  O6  UNL     1       2.386   9.901  19.225  1.00  0.00    -0.390 OA
HETATM   37  H40 UNL     1       3.159   9.847  18.637  1.00  0.00     0.210 HD
ENDBRANCH  33  36
ENDBRANCH  32  33
ENDBRANCH  30  32
ENDBRANCH  29  30
ENDBRANCH  16  29
TORSDOF 10
ENDMDL
MODEL 7
REMARK minimizedAffinity -8.37775993
REMARK CNNscore 0.273715109
REMARK CNNaffinity 6.93755531
REMARK  10 active torsions:
REMARK  status: ('A' for Active; 'I' for Inactive)
REMARK    1  A    between atoms: C4_4  and  C5_5 
REMARK    2  A    between atoms: C5_5  and  O2_7 
REMARK    3  A    between atoms: O2_7  and  C6_8 
REMARK    4  A    between atoms: C6_8  and  C7_9 
REMARK    5  A    between atoms: C7_9  and  N1_10 
REMARK    6  A    between atoms: C20_24  and  O4_25 
REMARK    7  A    between atoms: O4_25  and  C21_26 
REMARK    8  A    between atoms: C21_26  and  C22_28 
REMARK    9  A    between atoms: C22_28  and  C23_29 
REMARK   10  A    between atoms: C23_29  and  O6_32 
ROOT
HETATM    1  C1  UNL     1      -4.778   9.057  14.270  1.00  0.00     0.015 C 
HETATM    2  C2  UNL     1      -4.365   7.853  15.132  1.00  0.00     0.022 C 
HETATM    3  C3  UNL     1      -5.200   6.630  14.756  1.00  0.00    -0.070 C 
HETATM    4  C4  UNL     1      -6.478   6.548  15.186  1.00  0.00     0.085 C 
HETATM    5  C10 UNL     1      -4.486   5.558  13.960  1.00  0.00     0.035 C 
HETATM    6  C11 UNL     1      -3.430   6.101  12.987  1.00  0.00     0.010 C 
HETATM    7  C12 UNL     1      -2.460   7.157  13.580  1.00  0.00     0.006 C 
HETATM    8  C13 UNL     1      -2.862   7.504  15.036  1.00  0.00     0.068 C 
HETATM    9  C14 UNL     1      -1.963   8.578  15.633  1.00  0.00     0.132 C 
HETATM   10  O3  UNL     1      -2.398   9.487  16.339  1.00  0.00    -0.298 OA
HETATM   11  C15 UNL     1      -0.469   8.403  15.437  1.00  0.00     0.085 C 
HETATM   12  C16 UNL     1      -0.165   8.130  13.956  1.00  0.00     0.011 C 
HETATM   13  C17 UNL     1       1.348   8.257  13.538  1.00  0.00    -0.016 C 
HETATM   14  C18 UNL     1       2.269   7.309  14.333  1.00  0.00     0.018 C 
HETATM   15  C19 UNL     1       1.839   9.696  13.868  1.00  0.00     0.018 C 
HETATM   16  C20 UNL     1       1.495   8.084  11.979  1.00  0.00     0.140 C 
HETATM   17  C26 UNL     1       0.183   7.712  11.274  1.00  0.00     0.034 C 
HETATM   18  C27 UNL     1      -0.529   6.553  11.959  1.00  0.00     0.012 C 
HETATM   19  C28 UNL     1      -0.917   6.835  13.442  1.00  0.00    -0.035 C 
HETATM   20  C29 UNL     1      -0.595   5.555  14.255  1.00  0.00     0.016 C 
ENDROOT
BRANCH   4  21
HETATM   21  C5  UNL     1      -7.413   5.413  14.990  1.00  0.00     0.283 C 
HETATM   22  O1  UNL     1      -7.845   4.674  15.855  1.00  0.00    -0.260 OA
BRANCH  21  23
HETATM   23  O2  UNL     1      -7.711   5.364  13.667  1.00  0.00    -0.316 OA
BRANCH  23  24
HETATM   24  C6  UNL     1      -7.980   4.055  13.130  1.00  0.00     0.209 C 
BRANCH  24  25
HETATM   25  C7  UNL     1      -6.674   3.258  12.988  1.00  0.00     0.298 C 
BRANCH  25  26
HETATM   26  N1  UNL     1      -6.384   2.813  11.612  1.00  0.00     0.082 N 
HETATM   27  C8  UNL     1      -6.392   1.347  11.546  1.00  0.00     0.309 C 
HETATM   28  C9  UNL     1      -5.095   3.318  11.131  1.00  0.00     0.309 C 
ENDBRANCH  25  26
ENDBRANCH  24  25
ENDBRANCH  23  24
ENDBRANCH  21  23
ENDBRANCH   4  21
BRANCH  16  29
HETATM   29  O4  UNL     1       2.455   7.056  11.637  1.00  0.00    -0.315 OA
BRANCH  29  30
HETATM   30  C21 UNL     1       2.449   6.619  10.343  1.00  0.00     0.262 C 
HETATM   31  O5  UNL     1       1.939   5.578   9.962  1.00  0.00    -0.265 OA
BRANCH  30  32
HETATM   32  C22 UNL     1       3.101   7.664   9.462  1.00  0.00     0.148 C 
BRANCH  32  33
HETATM   33  C23 UNL     1       2.387   7.926   8.125  1.00  0.00     0.059 C 
HETATM   34  C24 UNL     1       2.487   6.672   7.247  1.00  0.00     0.045 C 
HETATM   35  C25 UNL     1       0.912   8.295   8.308  1.00  0.00     0.045 C 
BRANCH  33  36
HETATM   36  O6  UNL     1       3.019   8.982   7.402  1.00  0.00    -0.390 OA
HETATM   37  H40 UNL     1       3.967   8.785   7.315  1.00  0.00     0.210 HD
ENDBRANCH  33  36
ENDBRANCH  32  33
ENDBRANCH  30  32
ENDBRANCH  29  30
ENDBRANCH  16  29
TORSDOF 10
ENDMDL
MODEL 8
REMARK minimizedAffinity -7.64086771
REMARK CNNscore 0.2733289
REMARK CNNaffinity 6.52838326
REMARK  10 active torsions:
REMARK  status: ('A' for Active; 'I' for Inactive)
REMARK    1  A    between atoms: C4_4  and  C5_5 
REMARK    2  A    between atoms: C5_5  and  O2_7 
REMARK    3  A    between atoms: O2_7  and  C6_8 
REMARK    4  A    between atoms: C6_8  and  C7_9 
REMARK    5  A    between atoms: C7_9  and  N1_10 
REMARK    6  A    between atoms: C20_24  and  O4_25 
REMARK    7  A    between atoms: O4_25  and  C21_26 
REMARK    8  A    between atoms: C21_26  and  C22_28 
REMARK    9  A    between atoms: C22_28  and  C23_29 
REMARK   10  A    between atoms: C23_29  and  O6_32 
ROOT
HETATM    1  C1  UNL     1      -7.401   5.084  15.575  1.00  0.00     0.015 C 
HETATM    2  C2  UNL     1      -7.487   6.011  14.351  1.00  0.00     0.022 C 
HETATM    3  C3  UNL     1      -8.365   7.219  14.671  1.00  0.00    -0.070 C 
HETATM    4  C4  UNL     1      -9.707   7.069  14.698  1.00  0.00     0.085 C 
HETATM    5  C10 UNL     1      -7.638   8.531  14.879  1.00  0.00     0.035 C 
HETATM    6  C11 UNL     1      -6.257   8.384  15.534  1.00  0.00     0.010 C 
HETATM    7  C12 UNL     1      -5.349   7.281  14.930  1.00  0.00     0.006 C 
HETATM    8  C13 UNL     1      -6.110   6.491  13.836  1.00  0.00     0.068 C 
HETATM    9  C14 UNL     1      -5.265   5.364  13.257  1.00  0.00     0.132 C 
HETATM   10  O3  UNL     1      -5.732   4.256  12.994  1.00  0.00    -0.298 OA
HETATM   11  C15 UNL     1      -3.838   5.707  12.880  1.00  0.00     0.085 C 
HETATM   12  C16 UNL     1      -3.147   6.427  14.048  1.00  0.00     0.011 C 
HETATM   13  C17 UNL     1      -1.580   6.549  13.941  1.00  0.00    -0.016 C 
HETATM   14  C18 UNL     1      -1.125   7.292  12.668  1.00  0.00     0.018 C 
HETATM   15  C19 UNL     1      -0.973   5.120  13.835  1.00  0.00     0.018 C 
HETATM   16  C20 UNL     1      -0.996   7.184  15.259  1.00  0.00     0.140 C 
HETATM   17  C26 UNL     1      -2.072   7.640  16.253  1.00  0.00     0.034 C 
HETATM   18  C27 UNL     1      -3.149   8.486  15.586  1.00  0.00     0.012 C 
HETATM   19  C28 UNL     1      -3.917   7.751  14.446  1.00  0.00    -0.035 C 
HETATM   20  C29 UNL     1      -4.086   8.757  13.279  1.00  0.00     0.016 C 
ENDROOT
BRANCH   4  21
HETATM   21  C5  UNL     1     -10.719   8.133  14.911  1.00  0.00     0.283 C 
HETATM   22  O1  UNL     1     -11.133   8.533  15.983  1.00  0.00    -0.260 OA
BRANCH  21  23
HETATM   23  O2  UNL     1     -11.083   8.589  13.685  1.00  0.00    -0.316 OA
BRANCH  23  24
HETATM   24  C6  UNL     1     -11.810   7.660  12.858  1.00  0.00     0.209 C 
BRANCH  24  25
HETATM   25  C7  UNL     1     -13.316   7.959  12.918  1.00  0.00     0.298 C 
BRANCH  25  26
HETATM   26  N1  UNL     1     -14.158   6.771  13.154  1.00  0.00     0.082 N 
HETATM   27  C8  UNL     1     -15.527   7.185  13.482  1.00  0.00     0.309 C 
HETATM   28  C9  UNL     1     -13.630   5.928  14.230  1.00  0.00     0.309 C 
ENDBRANCH  25  26
ENDBRANCH  24  25
ENDBRANCH  23  24
ENDBRANCH  21  23
ENDBRANCH   4  21
BRANCH  16  29
HETATM   29  O4  UNL     1      -0.170   8.340  14.982  1.00  0.00    -0.315 OA
BRANCH  29  30
HETATM   30  C21 UNL     1       1.122   8.290  15.424  1.00  0.00     0.262 C 
HETATM   31  O5  UNL     1       1.487   7.724  16.442  1.00  0.00    -0.265 OA
BRANCH  30  32
HETATM   32  C22 UNL     1       2.021   8.972  14.414  1.00  0.00     0.148 C 
BRANCH  32  33
HETATM   33  C23 UNL     1       2.708   8.029  13.413  1.00  0.00     0.059 C 
HETATM   34  C24 UNL     1       2.354   8.466  11.985  1.00  0.00     0.045 C 
HETATM   35  C25 UNL     1       4.230   8.011  13.569  1.00  0.00     0.045 C 
BRANCH  33  36
HETATM   36  O6  UNL     1       2.234   6.690  13.558  1.00  0.00    -0.390 OA
HETATM   37  H40 UNL     1       1.263   6.688  13.505  1.00  0.00     0.210 HD
ENDBRANCH  33  36
ENDBRANCH  32  33
ENDBRANCH  30  32
ENDBRANCH  29  30
ENDBRANCH  16  29
TORSDOF 10
ENDMDL
MODEL 9
REMARK minimizedAffinity -6.29710579
REMARK CNNscore 0.265962392
REMARK CNNaffinity 6.05881929
REMARK  10 active torsions:
REMARK  status: ('A' for Active; 'I' for Inactive)
REMARK    1  A    between atoms: C4_4  and  C5_5 
REMARK    2  A    between atoms: C5_5  and  O2_7 
REMARK    3  A    between atoms: O2_7  and  C6_8 
REMARK    4  A    between atoms: C6_8  and  C7_9 
REMARK    5  A    between atoms: C7_9  and  N1_10 
REMARK    6  A    between atoms: C20_24  and  O4_25 
REMARK    7  A    between atoms: O4_25  and  C21_26 
REMARK    8  A    between atoms: C21_26  and  C22_28 
REMARK    9  A    between atoms: C22_28  and  C23_29 
REMARK   10  A    between atoms: C23_29  and  O6_32 
ROOT
HETATM    1  C1  UNL     1      -1.026  10.725  18.496  1.00  0.00     0.015 C 
HETATM    2  C2  UNL     1      -1.078  11.511  17.176  1.00  0.00     0.022 C 
HETATM    3  C3  UNL     1       0.337  11.740  16.647  1.00  0.00    -0.070 C 
HETATM    4  C4  UNL     1       1.110  12.685  17.224  1.00  0.00     0.085 C 
HETATM    5  C10 UNL     1       0.742  10.903  15.452  1.00  0.00     0.035 C 
HETATM    6  C11 UNL     1       0.130   9.495  15.438  1.00  0.00     0.010 C 
HETATM    7  C12 UNL     1      -1.392   9.429  15.732  1.00  0.00     0.006 C 
HETATM    8  C13 UNL     1      -1.938  10.835  16.083  1.00  0.00     0.068 C 
HETATM    9  C14 UNL     1      -3.420  10.800  16.429  1.00  0.00     0.132 C 
HETATM   10  O3  UNL     1      -3.901  11.464  17.348  1.00  0.00    -0.298 OA
HETATM   11  C15 UNL     1      -4.319  10.011  15.497  1.00  0.00     0.085 C 
HETATM   12  C16 UNL     1      -3.730   8.612  15.263  1.00  0.00     0.011 C 
HETATM   13  C17 UNL     1      -4.703   7.568  14.596  1.00  0.00    -0.016 C 
HETATM   14  C18 UNL     1      -5.227   8.034  13.222  1.00  0.00     0.018 C 
HETATM   15  C19 UNL     1      -5.962   7.411  15.496  1.00  0.00     0.018 C 
HETATM   16  C20 UNL     1      -4.018   6.151  14.539  1.00  0.00     0.140 C 
HETATM   17  C26 UNL     1      -2.558   6.152  15.013  1.00  0.00     0.034 C 
HETATM   18  C27 UNL     1      -1.742   7.259  14.357  1.00  0.00     0.012 C 
HETATM   19  C28 UNL     1      -2.276   8.695  14.644  1.00  0.00    -0.035 C 
HETATM   20  C29 UNL     1      -2.200   9.489  13.315  1.00  0.00     0.016 C 
ENDROOT
BRANCH   4  21
HETATM   21  C5  UNL     1       2.471  13.103  16.803  1.00  0.00     0.283 C 
HETATM   22  O1  UNL     1       2.746  14.019  16.052  1.00  0.00    -0.260 OA
BRANCH  21  23
HETATM   23  O2  UNL     1       3.352  12.280  17.428  1.00  0.00    -0.316 OA
BRANCH  23  24
HETATM   24  C6  UNL     1       4.636  12.852  17.739  1.00  0.00     0.209 C 
BRANCH  24  25
HETATM   25  C7  UNL     1       5.473  11.866  18.569  1.00  0.00     0.298 C 
BRANCH  25  26
HETATM   26  N1  UNL     1       6.840  11.654  18.057  1.00  0.00     0.082 N 
HETATM   27  C8  UNL     1       6.809  10.748  16.904  1.00  0.00     0.309 C 
HETATM   28  C9  UNL     1       7.732  11.109  19.085  1.00  0.00     0.309 C 
ENDBRANCH  25  26
ENDBRANCH  24  25
ENDBRANCH  23  24
ENDBRANCH  21  23
ENDBRANCH   4  21
BRANCH  16  29
HETATM   29  O4  UNL     1      -4.018   5.604  13.198  1.00  0.00    -0.315 OA
BRANCH  29  30
HETATM   30  C21 UNL     1      -4.810   4.512  12.982  1.00  0.00     0.262 C 
HETATM   31  O5  UNL     1      -6.025   4.545  12.874  1.00  0.00    -0.265 OA
BRANCH  30  32
HETATM   32  C22 UNL     1      -3.936   3.286  12.822  1.00  0.00     0.148 C 
BRANCH  32  33
HETATM   33  C23 UNL     1      -4.023   2.599  11.449  1.00  0.00     0.059 C 
HETATM   34  C24 UNL     1      -5.316   1.775  11.381  1.00  0.00     0.045 C 
HETATM   35  C25 UNL     1      -4.001   3.597  10.289  1.00  0.00     0.045 C 
BRANCH  33  36
HETATM   36  O6  UNL     1      -2.945   1.682  11.263  1.00  0.00    -0.390 OA
HETATM   37  H40 UNL     1      -2.917   1.066  12.016  1.00  0.00     0.210 HD
ENDBRANCH  33  36
ENDBRANCH  32  33
ENDBRANCH  30  32
ENDBRANCH  29  30
ENDBRANCH  16  29
TORSDOF 10
ENDMDL
