MODEL 1
REMARK minimizedAffinity -7.08643007
REMARK CNNscore 0.70701617
REMARK CNNaffinity 6.91647911
REMARK  11 active torsions:
REMARK  status: ('A' for Active; 'I' for Inactive)
REMARK    1  A    between atoms: C2_2  and  O1_3 
REMARK    2  A    between atoms: O1_3  and  C3_4 
REMARK    3  A    between atoms: C3_4  and  C4_6 
REMARK    4  A    between atoms: C5_7  and  C6_8 
REMARK    5  A    between atoms: C10_13  and  C11_14 
REMARK    6  A    between atoms: C11_14  and  O4_15 
REMARK    7  A    between atoms: C13_18  and  C14_19 
REMARK    8  A    between atoms: C25_32  and  C26_33 
REMARK    9  A    between atoms: C26_33  and  O7_34 
REMARK   10  A    between atoms: C33_42  and  O9_44 
REMARK   11  A    between atoms: C36_46  and  O10_47 
ROOT
HETATM    1  C4  UNL     1       0.923  55.882  -7.442  1.00  0.00     0.165 C 
HETATM    2  C5  UNL     1       2.191  56.269  -7.694  1.00  0.00     0.053 C 
HETATM    3  C7  UNL     1       3.081  55.294  -8.344  1.00  0.00    -0.002 C 
HETATM    4  C8  UNL     1       4.384  55.099  -7.985  1.00  0.00    -0.066 C 
HETATM    5  C9  UNL     1       5.202  53.868  -8.373  1.00  0.00     0.049 C 
HETATM    6  C10 UNL     1       5.884  53.234  -7.150  1.00  0.00     0.084 C 
HETATM    7  C12 UNL     1       6.782  54.241  -6.444  1.00  0.00     0.142 C 
HETATM    8  O5  UNL     1       7.552  53.873  -5.554  1.00  0.00    -0.297 OA
HETATM    9  C13 UNL     1       6.654  55.691  -6.896  1.00  0.00     0.092 C 
HETATM   10  C22 UNL     1       5.154  56.027  -7.044  1.00  0.00     0.052 C 
HETATM   11  C23 UNL     1       2.357  54.371  -9.274  1.00  0.00     0.044 C 
HETATM   12  C24 UNL     1       1.053  53.993  -8.863  1.00  0.00     0.101 C 
HETATM   13  O6  UNL     1       0.463  54.601  -7.765  1.00  0.00    -0.302 OA
HETATM   14  C25 UNL     1       0.290  53.046  -9.565  1.00  0.00     0.034 C 
HETATM   15  C27 UNL     1       0.850  52.544 -10.729  1.00  0.00     0.090 C 
HETATM   16  O8  UNL     1       0.260  51.599 -11.532  1.00  0.00    -0.341 OA
HETATM   17  C28 UNL     1       1.032  51.657 -12.773  1.00  0.00     0.171 C 
HETATM   18  C29 UNL     1       2.430  52.218 -12.447  1.00  0.00     0.057 C 
HETATM   19  C30 UNL     1       3.500  51.142 -12.217  1.00  0.00     0.012 C 
HETATM   20  C31 UNL     1       2.931  49.839 -11.665  1.00  0.00     0.004 C 
HETATM   21  C32 UNL     1       1.818  49.240 -12.528  1.00  0.00     0.040 C 
HETATM   22  C33 UNL     1       1.052  50.252 -13.400  1.00  0.00     0.081 C 
HETATM   23  C34 UNL     1       1.602  50.295 -14.830  1.00  0.00     0.049 C 
HETATM   24  C35 UNL     1       2.088  52.956 -11.199  1.00  0.00     0.017 C 
HETATM   25  C36 UNL     1       2.826  53.909 -10.513  1.00  0.00     0.091 C 
ENDROOT
BRANCH   2  26
HETATM   26  C6  UNL     1       2.627  57.622  -7.290  1.00  0.00     0.273 C 
HETATM   27  O3  UNL     1       2.934  57.883  -6.135  1.00  0.00    -0.301 OA
ENDBRANCH   2  26
BRANCH   1  28
HETATM   28  C3  UNL     1      -0.064  56.805  -6.822  1.00  0.00     0.318 C 
HETATM   29  O2  UNL     1      -0.629  57.709  -7.418  1.00  0.00    -0.257 OA
BRANCH  28  30
HETATM   30  O1  UNL     1      -0.250  56.452  -5.522  1.00  0.00    -0.316 OA
BRANCH  30  31
HETATM   31  C2  UNL     1       0.054  57.469  -4.559  1.00  0.00     0.175 C 
HETATM   32  C1  UNL     1      -1.191  57.829  -3.770  1.00  0.00     0.034 C 
ENDBRANCH  30  31
ENDBRANCH  28  30
ENDBRANCH   1  28
BRANCH  25  33
HETATM   33  O10 UNL     1       4.011  54.321 -11.057  1.00  0.00    -0.354 OA
HETATM   34  C37 UNL     1       3.933  55.697 -11.438  1.00  0.00     0.210 C 
ENDBRANCH  25  33
BRANCH   6  35
HETATM   35  C11 UNL     1       6.690  51.993  -7.527  1.00  0.00     0.176 C 
BRANCH  35  36
HETATM   36  O4  UNL     1       7.078  52.040  -8.895  1.00  0.00    -0.400 OA
HETATM   37  H12 UNL     1       7.750  51.346  -9.022  1.00  0.00     0.209 HD
ENDBRANCH  35  36
ENDBRANCH   6  35
BRANCH   9  38
HETATM   38  C14 UNL     1       7.365  56.695  -5.998  1.00  0.00    -0.046 A 
HETATM   39  C15 UNL     1       8.706  56.485  -5.646  1.00  0.00     0.010 A 
HETATM   40  C16 UNL     1       9.408  57.382  -4.832  1.00  0.00     0.031 A 
HETATM   41  C17 UNL     1       8.723  58.511  -4.374  1.00  0.00     0.042 A 
HETATM   42  N1  UNL     1       9.146  59.546  -3.572  1.00  0.00    -0.365 N 
HETATM   43  C20 UNL     1       7.390  58.763  -4.697  1.00  0.00    -0.008 A 
HETATM   44  C18 UNL     1       8.128  60.441  -3.373  1.00  0.00     0.089 A 
HETATM   45  H16 UNL     1      10.075  59.626  -3.183  1.00  0.00     0.165 HD
HETATM   46  C19 UNL     1       7.027  59.981  -4.059  1.00  0.00     0.030 A 
HETATM   47  C21 UNL     1       6.704  57.844  -5.517  1.00  0.00     0.021 A 
ENDBRANCH   9  38
BRANCH  14  48
HETATM   48  C26 UNL     1      -1.081  52.646  -9.116  1.00  0.00     0.208 C 
BRANCH  48  49
HETATM   49  O7  UNL     1      -1.969  53.732  -9.335  1.00  0.00    -0.396 OA
HETATM   50  H24 UNL     1      -2.846  53.441  -9.034  1.00  0.00     0.209 HD
ENDBRANCH  48  49
ENDBRANCH  14  48
BRANCH  22  51
HETATM   51  O9  UNL     1      -0.301  49.780 -13.525  1.00  0.00    -0.388 OA
HETATM   52  H36 UNL     1      -0.749  49.995 -12.685  1.00  0.00     0.210 HD
ENDBRANCH  22  51
TORSDOF 11
ENDMDL
MODEL 2
REMARK minimizedAffinity -9.04872227
REMARK CNNscore 0.557596207
REMARK CNNaffinity 7.18709326
REMARK  11 active torsions:
REMARK  status: ('A' for Active; 'I' for Inactive)
REMARK    1  A    between atoms: C2_2  and  O1_3 
REMARK    2  A    between atoms: O1_3  and  C3_4 
REMARK    3  A    between atoms: C3_4  and  C4_6 
REMARK    4  A    between atoms: C5_7  and  C6_8 
REMARK    5  A    between atoms: C10_13  and  C11_14 
REMARK    6  A    between atoms: C11_14  and  O4_15 
REMARK    7  A    between atoms: C13_18  and  C14_19 
REMARK    8  A    between atoms: C25_32  and  C26_33 
REMARK    9  A    between atoms: C26_33  and  O7_34 
REMARK   10  A    between atoms: C33_42  and  O9_44 
REMARK   11  A    between atoms: C36_46  and  O10_47 
ROOT
HETATM    1  C4  UNL     1       0.101  52.237 -20.101  1.00  0.00     0.165 C 
HETATM    2  C5  UNL     1      -1.154  51.841 -20.398  1.00  0.00     0.053 C 
HETATM    3  C7  UNL     1      -1.802  50.893 -19.478  1.00  0.00    -0.002 C 
HETATM    4  C8  UNL     1      -2.553  49.829 -19.889  1.00  0.00    -0.066 C 
HETATM    5  C9  UNL     1      -2.914  48.642 -18.997  1.00  0.00     0.049 C 
HETATM    6  C10 UNL     1      -2.580  47.304 -19.674  1.00  0.00     0.084 C 
HETATM    7  C12 UNL     1      -3.298  47.174 -21.011  1.00  0.00     0.142 C 
HETATM    8  O5  UNL     1      -3.303  46.100 -21.615  1.00  0.00    -0.297 OA
HETATM    9  C13 UNL     1      -3.980  48.433 -21.534  1.00  0.00     0.092 C 
HETATM   10  C22 UNL     1      -3.024  49.628 -21.331  1.00  0.00     0.052 C 
HETATM   11  C23 UNL     1      -1.363  51.065 -18.057  1.00  0.00     0.044 C 
HETATM   12  C24 UNL     1      -0.002  51.425 -17.880  1.00  0.00     0.101 C 
HETATM   13  O6  UNL     1       0.780  51.760 -18.975  1.00  0.00    -0.302 OA
HETATM   14  C25 UNL     1       0.592  51.512 -16.610  1.00  0.00     0.034 C 
HETATM   15  C27 UNL     1      -0.241  51.295 -15.524  1.00  0.00     0.090 C 
HETATM   16  O8  UNL     1       0.166  51.320 -14.214  1.00  0.00    -0.341 OA
HETATM   17  C28 UNL     1      -1.082  51.393 -13.456  1.00  0.00     0.171 C 
HETATM   18  C29 UNL     1      -2.212  50.807 -14.326  1.00  0.00     0.057 C 
HETATM   19  C30 UNL     1      -2.513  49.327 -14.050  1.00  0.00     0.012 C 
HETATM   20  C31 UNL     1      -1.297  48.550 -13.556  1.00  0.00     0.004 C 
HETATM   21  C32 UNL     1      -0.647  49.152 -12.309  1.00  0.00     0.040 C 
HETATM   22  C33 UNL     1      -0.881  50.662 -12.116  1.00  0.00     0.081 C 
HETATM   23  C34 UNL     1      -2.049  50.934 -11.160  1.00  0.00     0.049 C 
HETATM   24  C35 UNL     1      -1.594  51.022 -15.664  1.00  0.00     0.017 C 
HETATM   25  C36 UNL     1      -2.178  50.960 -16.920  1.00  0.00     0.091 C 
ENDROOT
BRANCH   2  26
HETATM   26  C6  UNL     1      -1.801  52.350 -21.626  1.00  0.00     0.273 C 
HETATM   27  O3  UNL     1      -1.805  51.707 -22.667  1.00  0.00    -0.301 OA
ENDBRANCH   2  26
BRANCH   1  28
HETATM   28  C3  UNL     1       0.828  53.219 -20.947  1.00  0.00     0.318 C 
HETATM   29  O2  UNL     1       1.083  54.365 -20.606  1.00  0.00    -0.257 OA
BRANCH  28  30
HETATM   30  O1  UNL     1       1.182  52.626 -22.118  1.00  0.00    -0.316 OA
BRANCH  30  31
HETATM   31  C2  UNL     1       1.118  53.465 -23.278  1.00  0.00     0.175 C 
HETATM   32  C1  UNL     1       0.808  52.633 -24.508  1.00  0.00     0.034 C 
ENDBRANCH  30  31
ENDBRANCH  28  30
ENDBRANCH   1  28
BRANCH  25  33
HETATM   33  O10 UNL     1      -3.528  50.749 -16.993  1.00  0.00    -0.354 OA
HETATM   34  C37 UNL     1      -3.834  49.380 -16.719  1.00  0.00     0.210 C 
ENDBRANCH  25  33
BRANCH   6  35
HETATM   35  C11 UNL     1      -2.922  46.112 -18.782  1.00  0.00     0.176 C 
BRANCH  35  36
HETATM   36  O4  UNL     1      -2.396  46.295 -17.473  1.00  0.00    -0.400 OA
HETATM   37  H12 UNL     1      -2.813  45.623 -16.905  1.00  0.00     0.209 HD
ENDBRANCH  35  36
ENDBRANCH   6  35
BRANCH   9  38
HETATM   38  C14 UNL     1      -4.456  48.338 -22.977  1.00  0.00    -0.046 A 
HETATM   39  C15 UNL     1      -5.804  48.061 -23.248  1.00  0.00     0.010 A 
HETATM   40  C16 UNL     1      -6.294  47.973 -24.556  1.00  0.00     0.031 A 
HETATM   41  C17 UNL     1      -5.387  48.172 -25.601  1.00  0.00     0.042 A 
HETATM   42  N1  UNL     1      -5.578  48.144 -26.964  1.00  0.00    -0.365 N 
HETATM   43  C20 UNL     1      -4.038  48.449 -25.382  1.00  0.00    -0.008 A 
HETATM   44  C18 UNL     1      -4.397  48.391 -27.614  1.00  0.00     0.089 A 
HETATM   45  H16 UNL     1      -6.463  47.963 -27.415  1.00  0.00     0.165 HD
HETATM   46  C19 UNL     1      -3.425  48.583 -26.658  1.00  0.00     0.030 A 
HETATM   47  C21 UNL     1      -3.569  48.532 -24.055  1.00  0.00     0.021 A 
ENDBRANCH   9  38
BRANCH  14  48
HETATM   48  C26 UNL     1       2.031  51.882 -16.435  1.00  0.00     0.208 C 
BRANCH  48  49
HETATM   49  O7  UNL     1       2.166  53.286 -16.599  1.00  0.00    -0.396 OA
HETATM   50  H24 UNL     1       3.109  53.492 -16.479  1.00  0.00     0.209 HD
ENDBRANCH  48  49
ENDBRANCH  14  48
BRANCH  22  51
HETATM   51  O9  UNL     1       0.281  51.201 -11.462  1.00  0.00    -0.388 OA
HETATM   52  H36 UNL     1       0.971  51.283 -12.146  1.00  0.00     0.210 HD
ENDBRANCH  22  51
TORSDOF 11
ENDMDL
MODEL 3
REMARK minimizedAffinity -6.89860582
REMARK CNNscore 0.461069673
REMARK CNNaffinity 6.71635485
REMARK  11 active torsions:
REMARK  status: ('A' for Active; 'I' for Inactive)
REMARK    1  A    between atoms: C2_2  and  O1_3 
REMARK    2  A    between atoms: O1_3  and  C3_4 
REMARK    3  A    between atoms: C3_4  and  C4_6 
REMARK    4  A    between atoms: C5_7  and  C6_8 
REMARK    5  A    between atoms: C10_13  and  C11_14 
REMARK    6  A    between atoms: C11_14  and  O4_15 
REMARK    7  A    between atoms: C13_18  and  C14_19 
REMARK    8  A    between atoms: C25_32  and  C26_33 
REMARK    9  A    between atoms: C26_33  and  O7_34 
REMARK   10  A    between atoms: C33_42  and  O9_44 
REMARK   11  A    between atoms: C36_46  and  O10_47 
ROOT
HETATM    1  C4  UNL     1       4.336  49.970  -9.562  1.00  0.00     0.165 C 
HETATM    2  C5  UNL     1       3.862  50.634 -10.636  1.00  0.00     0.053 C 
HETATM    3  C7  UNL     1       3.358  51.999 -10.422  1.00  0.00    -0.002 C 
HETATM    4  C8  UNL     1       2.222  52.489 -11.002  1.00  0.00    -0.066 C 
HETATM    5  C9  UNL     1       1.486  53.738 -10.519  1.00  0.00     0.049 C 
HETATM    6  C10 UNL     1      -0.013  53.466 -10.315  1.00  0.00     0.084 C 
HETATM    7  C12 UNL     1      -0.656  52.961 -11.599  1.00  0.00     0.142 C 
HETATM    8  O5  UNL     1      -1.882  52.863 -11.687  1.00  0.00    -0.297 OA
HETATM    9  C13 UNL     1       0.298  52.587 -12.728  1.00  0.00     0.092 C 
HETATM   10  C22 UNL     1       1.470  51.779 -12.131  1.00  0.00     0.052 C 
HETATM   11  C23 UNL     1       4.074  52.722  -9.325  1.00  0.00     0.044 C 
HETATM   12  C24 UNL     1       4.467  51.918  -8.223  1.00  0.00     0.101 C 
HETATM   13  O6  UNL     1       4.339  50.539  -8.283  1.00  0.00    -0.302 OA
HETATM   14  C25 UNL     1       5.046  52.464  -7.065  1.00  0.00     0.034 C 
HETATM   15  C27 UNL     1       5.280  53.829  -7.078  1.00  0.00     0.090 C 
HETATM   16  O8  UNL     1       5.818  54.536  -6.032  1.00  0.00    -0.341 OA
HETATM   17  C28 UNL     1       6.191  55.820  -6.626  1.00  0.00     0.171 C 
HETATM   18  C29 UNL     1       5.315  56.048  -7.874  1.00  0.00     0.057 C 
HETATM   19  C30 UNL     1       4.066  56.902  -7.616  1.00  0.00     0.012 C 
HETATM   20  C31 UNL     1       3.540  56.780  -6.190  1.00  0.00     0.004 C 
HETATM   21  C32 UNL     1       4.583  57.111  -5.119  1.00  0.00     0.040 C 
HETATM   22  C33 UNL     1       6.048  56.913  -5.552  1.00  0.00     0.081 C 
HETATM   23  C34 UNL     1       6.682  58.229  -6.019  1.00  0.00     0.049 C 
HETATM   24  C35 UNL     1       4.981  54.627  -8.173  1.00  0.00     0.017 C 
HETATM   25  C36 UNL     1       4.431  54.078  -9.321  1.00  0.00     0.091 C 
ENDROOT
BRANCH   2  26
HETATM   26  C6  UNL     1       3.848  49.961 -11.952  1.00  0.00     0.273 C 
HETATM   27  O3  UNL     1       4.824  49.967 -12.691  1.00  0.00    -0.301 OA
ENDBRANCH   2  26
BRANCH   1  28
HETATM   28  C3  UNL     1       4.901  48.600  -9.679  1.00  0.00     0.318 C 
HETATM   29  O2  UNL     1       6.068  48.358  -9.946  1.00  0.00    -0.257 OA
BRANCH  28  30
HETATM   30  O1  UNL     1       3.927  47.691  -9.408  1.00  0.00    -0.316 OA
BRANCH  30  31
HETATM   31  C2  UNL     1       4.242  46.333  -9.744  1.00  0.00     0.175 C 
HETATM   32  C1  UNL     1       3.302  45.831 -10.824  1.00  0.00     0.034 C 
ENDBRANCH  30  31
ENDBRANCH  28  30
ENDBRANCH   1  28
BRANCH  25  33
HETATM   33  O10 UNL     1       4.215  54.904 -10.390  1.00  0.00    -0.354 OA
HETATM   34  C37 UNL     1       3.158  55.823 -10.106  1.00  0.00     0.210 C 
ENDBRANCH  25  33
BRANCH   6  35
HETATM   35  C11 UNL     1      -0.753  54.706  -9.815  1.00  0.00     0.176 C 
BRANCH  35  36
HETATM   36  O4  UNL     1      -1.375  55.391 -10.896  1.00  0.00    -0.400 OA
HETATM   37  H12 UNL     1      -1.991  56.036 -10.503  1.00  0.00     0.209 HD
ENDBRANCH  35  36
ENDBRANCH   6  35
BRANCH   9  38
HETATM   38  C14 UNL     1      -0.357  51.845 -13.886  1.00  0.00    -0.046 A 
HETATM   39  C15 UNL     1      -1.707  51.474 -13.798  1.00  0.00     0.010 A 
HETATM   40  C16 UNL     1      -2.359  50.801 -14.839  1.00  0.00     0.031 A 
HETATM   41  C17 UNL     1      -1.614  50.505 -15.984  1.00  0.00     0.042 A 
HETATM   42  N1  UNL     1      -1.981  49.861 -17.144  1.00  0.00    -0.365 N 
HETATM   43  C20 UNL     1      -0.271  50.853 -16.117  1.00  0.00    -0.008 A 
HETATM   44  C18 UNL     1      -0.916  49.788 -18.003  1.00  0.00     0.089 A 
HETATM   45  H16 UNL     1      -2.903  49.493 -17.328  1.00  0.00     0.165 HD
HETATM   46  C19 UNL     1       0.157  50.394 -17.393  1.00  0.00     0.030 A 
HETATM   47  C21 UNL     1       0.364  51.531 -15.055  1.00  0.00     0.021 A 
ENDBRANCH   9  38
BRANCH  14  48
HETATM   48  C26 UNL     1       5.447  51.608  -5.905  1.00  0.00     0.208 C 
BRANCH  48  49
HETATM   49  O7  UNL     1       6.594  50.854  -6.267  1.00  0.00    -0.396 OA
HETATM   50  H24 UNL     1       6.827  50.312  -5.495  1.00  0.00     0.209 HD
ENDBRANCH  48  49
ENDBRANCH  14  48
BRANCH  22  51
HETATM   51  O9  UNL     1       6.795  56.522  -4.388  1.00  0.00    -0.388 OA
HETATM   52  H36 UNL     1       6.596  55.579  -4.234  1.00  0.00     0.210 HD
ENDBRANCH  22  51
TORSDOF 11
ENDMDL
MODEL 4
REMARK minimizedAffinity -9.29729652
REMARK CNNscore 0.419420928
REMARK CNNaffinity 7.23902369
REMARK  11 active torsions:
REMARK  status: ('A' for Active; 'I' for Inactive)
REMARK    1  A    between atoms: C2_2  and  O1_3 
REMARK    2  A    between atoms: O1_3  and  C3_4 
REMARK    3  A    between atoms: C3_4  and  C4_6 
REMARK    4  A    between atoms: C5_7  and  C6_8 
REMARK    5  A    between atoms: C10_13  and  C11_14 
REMARK    6  A    between atoms: C11_14  and  O4_15 
REMARK    7  A    between atoms: C13_18  and  C14_19 
REMARK    8  A    between atoms: C25_32  and  C26_33 
REMARK    9  A    between atoms: C26_33  and  O7_34 
REMARK   10  A    between atoms: C33_42  and  O9_44 
REMARK   11  A    between atoms: C36_46  and  O10_47 
ROOT
HETATM    1  C4  UNL     1      -7.201  47.841 -27.580  1.00  0.00     0.165 C 
HETATM    2  C5  UNL     1      -5.947  47.896 -27.086  1.00  0.00     0.053 C 
HETATM    3  C7  UNL     1      -5.794  48.208 -25.656  1.00  0.00    -0.002 C 
HETATM    4  C8  UNL     1      -4.841  49.052 -25.160  1.00  0.00    -0.066 C 
HETATM    5  C9  UNL     1      -4.893  49.675 -23.766  1.00  0.00     0.049 C 
HETATM    6  C10 UNL     1      -4.689  51.198 -23.820  1.00  0.00     0.084 C 
HETATM    7  C12 UNL     1      -3.366  51.548 -24.486  1.00  0.00     0.142 C 
HETATM    8  O5  UNL     1      -2.941  52.705 -24.458  1.00  0.00    -0.297 OA
HETATM    9  C13 UNL     1      -2.635  50.403 -25.177  1.00  0.00     0.092 C 
HETATM   10  C22 UNL     1      -3.664  49.581 -25.983  1.00  0.00     0.052 C 
HETATM   11  C23 UNL     1      -6.930  47.702 -24.823  1.00  0.00     0.044 C 
HETATM   12  C24 UNL     1      -8.207  47.754 -25.439  1.00  0.00     0.101 C 
HETATM   13  O6  UNL     1      -8.322  48.087 -26.780  1.00  0.00    -0.302 OA
HETATM   14  C25 UNL     1      -9.386  47.424 -24.751  1.00  0.00     0.034 C 
HETATM   15  C27 UNL     1      -9.234  46.975 -23.449  1.00  0.00     0.090 C 
HETATM   16  O8  UNL     1     -10.272  46.626 -22.620  1.00  0.00    -0.341 OA
HETATM   17  C28 UNL     1      -9.624  45.903 -21.526  1.00  0.00     0.171 C 
HETATM   18  C29 UNL     1      -8.156  46.365 -21.443  1.00  0.00     0.057 C 
HETATM   19  C30 UNL     1      -7.905  47.480 -20.418  1.00  0.00     0.012 C 
HETATM   20  C31 UNL     1      -9.117  48.380 -20.203  1.00  0.00     0.004 C 
HETATM   21  C32 UNL     1     -10.382  47.620 -19.794  1.00  0.00     0.040 C 
HETATM   22  C33 UNL     1     -10.430  46.146 -20.238  1.00  0.00     0.081 C 
HETATM   23  C34 UNL     1      -9.974  45.204 -19.117  1.00  0.00     0.049 C 
HETATM   24  C35 UNL     1      -7.992  46.836 -22.847  1.00  0.00     0.017 C 
HETATM   25  C36 UNL     1      -6.831  47.141 -23.540  1.00  0.00     0.091 C 
ENDROOT
BRANCH   2  26
HETATM   26  C6  UNL     1      -4.802  47.668 -27.993  1.00  0.00     0.273 C 
HETATM   27  O3  UNL     1      -4.307  48.575 -28.648  1.00  0.00    -0.301 OA
ENDBRANCH   2  26
BRANCH   1  28
HETATM   28  C3  UNL     1      -7.463  47.498 -29.002  1.00  0.00     0.318 C 
HETATM   29  O2  UNL     1      -6.727  46.806 -29.690  1.00  0.00    -0.257 OA
BRANCH  28  30
HETATM   30  O1  UNL     1      -8.649  48.044 -29.382  1.00  0.00    -0.316 OA
BRANCH  30  31
HETATM   31  C2  UNL     1      -8.556  49.151 -30.287  1.00  0.00     0.175 C 
HETATM   32  C1  UNL     1      -8.566  48.655 -31.721  1.00  0.00     0.034 C 
ENDBRANCH  30  31
ENDBRANCH  28  30
ENDBRANCH   1  28
BRANCH  25  33
HETATM   33  O10 UNL     1      -5.633  46.926 -22.917  1.00  0.00    -0.354 OA
HETATM   34  C37 UNL     1      -5.472  47.827 -21.820  1.00  0.00     0.210 C 
ENDBRANCH  25  33
BRANCH   6  35
HETATM   35  C11 UNL     1      -4.757  51.830 -22.431  1.00  0.00     0.176 C 
BRANCH  35  36
HETATM   36  O4  UNL     1      -5.733  51.178 -21.627  1.00  0.00    -0.400 OA
HETATM   37  H12 UNL     1      -5.588  51.477 -20.711  1.00  0.00     0.209 HD
ENDBRANCH  35  36
ENDBRANCH   6  35
BRANCH   9  38
HETATM   38  C14 UNL     1      -1.463  50.837 -26.047  1.00  0.00    -0.046 A 
HETATM   39  C15 UNL     1      -1.702  51.324 -27.341  1.00  0.00     0.010 A 
HETATM   40  C16 UNL     1      -0.661  51.745 -28.177  1.00  0.00     0.031 A 
HETATM   41  C17 UNL     1       0.643  51.667 -27.677  1.00  0.00     0.042 A 
HETATM   42  N1  UNL     1       1.842  52.002 -28.261  1.00  0.00    -0.365 N 
HETATM   43  C20 UNL     1       0.928  51.191 -26.398  1.00  0.00    -0.008 A 
HETATM   44  C18 UNL     1       2.877  51.752 -27.398  1.00  0.00     0.089 A 
HETATM   45  H16 UNL     1       1.941  52.374 -29.195  1.00  0.00     0.165 HD
HETATM   46  C19 UNL     1       2.340  51.248 -26.236  1.00  0.00     0.030 A 
HETATM   47  C21 UNL     1      -0.137  50.772 -25.575  1.00  0.00     0.021 A 
ENDBRANCH   9  38
BRANCH  14  48
HETATM   48  C26 UNL     1     -10.729  47.493 -25.407  1.00  0.00     0.208 C 
BRANCH  48  49
HETATM   49  O7  UNL     1     -10.901  48.789 -25.962  1.00  0.00    -0.396 OA
HETATM   50  H24 UNL     1     -11.779  48.800 -26.379  1.00  0.00     0.209 HD
ENDBRANCH  48  49
ENDBRANCH  14  48
BRANCH  22  51
HETATM   51  O9  UNL     1     -11.807  45.812 -20.481  1.00  0.00    -0.388 OA
HETATM   52  H36 UNL     1     -12.038  46.196 -21.348  1.00  0.00     0.210 HD
ENDBRANCH  22  51
TORSDOF 11
ENDMDL
MODEL 5
REMARK minimizedAffinity -7.18903255
REMARK CNNscore 0.397906035
REMARK CNNaffinity 6.64959002
REMARK  11 active torsions:
REMARK  status: ('A' for Active; 'I' for Inactive)
REMARK    1  A    between atoms: C2_2  and  O1_3 
REMARK    2  A    between atoms: O1_3  and  C3_4 
REMARK    3  A    between atoms: C3_4  and  C4_6 
REMARK    4  A    between atoms: C5_7  and  C6_8 
REMARK    5  A    between atoms: C10_13  and  C11_14 
REMARK    6  A    between atoms: C11_14  and  O4_15 
REMARK    7  A    between atoms: C13_18  and  C14_19 
REMARK    8  A    between atoms: C25_32  and  C26_33 
REMARK    9  A    between atoms: C26_33  and  O7_34 
REMARK   10  A    between atoms: C33_42  and  O9_44 
REMARK   11  A    between atoms: C36_46  and  O10_47 
ROOT
HETATM    1  C4  UNL     1      -8.123  43.879 -26.393  1.00  0.00     0.165 C 
HETATM    2  C5  UNL     1      -8.135  45.120 -25.864  1.00  0.00     0.053 C 
HETATM    3  C7  UNL     1      -7.587  46.212 -26.684  1.00  0.00    -0.002 C 
HETATM    4  C8  UNL     1      -6.792  47.207 -26.190  1.00  0.00    -0.066 C 
HETATM    5  C9  UNL     1      -5.922  48.116 -27.058  1.00  0.00     0.049 C 
HETATM    6  C10 UNL     1      -4.473  48.164 -26.549  1.00  0.00     0.084 C 
HETATM    7  C12 UNL     1      -4.417  48.635 -25.102  1.00  0.00     0.142 C 
HETATM    8  O5  UNL     1      -3.337  48.914 -24.577  1.00  0.00    -0.297 OA
HETATM    9  C13 UNL     1      -5.752  48.724 -24.371  1.00  0.00     0.092 C 
HETATM   10  C22 UNL     1      -6.574  47.458 -24.696  1.00  0.00     0.052 C 
HETATM   11  C23 UNL     1      -7.787  45.998 -28.152  1.00  0.00     0.044 C 
HETATM   12  C24 UNL     1      -7.690  44.651 -28.588  1.00  0.00     0.101 C 
HETATM   13  O6  UNL     1      -7.598  43.622 -27.663  1.00  0.00    -0.302 OA
HETATM   14  C25 UNL     1      -7.739  44.297 -29.946  1.00  0.00     0.034 C 
HETATM   15  C27 UNL     1      -7.957  45.330 -30.844  1.00  0.00     0.090 C 
HETATM   16  O8  UNL     1      -8.016  45.176 -32.207  1.00  0.00    -0.341 OA
HETATM   17  C28 UNL     1      -8.600  46.430 -32.680  1.00  0.00     0.171 C 
HETATM   18  C29 UNL     1      -8.318  47.523 -31.630  1.00  0.00     0.057 C 
HETATM   19  C30 UNL     1      -7.074  48.372 -31.927  1.00  0.00     0.012 C 
HETATM   20  C31 UNL     1      -6.006  47.617 -32.711  1.00  0.00     0.004 C 
HETATM   21  C32 UNL     1      -6.514  47.024 -34.029  1.00  0.00     0.040 C 
HETATM   22  C33 UNL     1      -8.027  46.739 -34.075  1.00  0.00     0.081 C 
HETATM   23  C34 UNL     1      -8.796  47.883 -34.745  1.00  0.00     0.049 C 
HETATM   24  C35 UNL     1      -8.137  46.644 -30.440  1.00  0.00     0.017 C 
HETATM   25  C36 UNL     1      -8.110  46.983 -29.096  1.00  0.00     0.091 C 
ENDROOT
BRANCH   2  26
HETATM   26  C6  UNL     1      -8.666  45.319 -24.499  1.00  0.00     0.273 C 
HETATM   27  O3  UNL     1      -9.752  45.847 -24.298  1.00  0.00    -0.301 OA
ENDBRANCH   2  26
BRANCH   1  28
HETATM   28  C3  UNL     1      -8.686  42.715 -25.659  1.00  0.00     0.318 C 
HETATM   29  O2  UNL     1      -9.868  42.404 -25.667  1.00  0.00    -0.257 OA
BRANCH  28  30
HETATM   30  O1  UNL     1      -7.679  42.055 -25.028  1.00  0.00    -0.316 OA
BRANCH  30  31
HETATM   31  C2  UNL     1      -7.907  41.765 -23.643  1.00  0.00     0.175 C 
HETATM   32  C1  UNL     1      -6.996  42.612 -22.775  1.00  0.00     0.034 C 
ENDBRANCH  30  31
ENDBRANCH  28  30
ENDBRANCH   1  28
BRANCH  25  33
HETATM   33  O10 UNL     1      -8.355  48.285 -28.754  1.00  0.00    -0.354 OA
HETATM   34  C37 UNL     1      -9.708  48.440 -28.322  1.00  0.00     0.210 C 
ENDBRANCH  25  33
BRANCH   6  35
HETATM   35  C11 UNL     1      -3.592  49.056 -27.421  1.00  0.00     0.176 C 
BRANCH  35  36
HETATM   36  O4  UNL     1      -3.769  50.427 -27.080  1.00  0.00    -0.400 OA
HETATM   37  H12 UNL     1      -3.047  50.919 -27.511  1.00  0.00     0.209 HD
ENDBRANCH  35  36
ENDBRANCH   6  35
BRANCH   9  38
HETATM   38  C14 UNL     1      -5.634  48.942 -22.869  1.00  0.00    -0.046 A 
HETATM   39  C15 UNL     1      -6.227  50.069 -22.281  1.00  0.00     0.010 A 
HETATM   40  C16 UNL     1      -6.156  50.309 -20.904  1.00  0.00     0.031 A 
HETATM   41  C17 UNL     1      -5.466  49.380 -20.119  1.00  0.00     0.042 A 
HETATM   42  N1  UNL     1      -5.235  49.356 -18.763  1.00  0.00    -0.365 N 
HETATM   43  C20 UNL     1      -4.860  48.246 -20.658  1.00  0.00    -0.008 A 
HETATM   44  C18 UNL     1      -4.501  48.249 -18.426  1.00  0.00     0.089 A 
HETATM   45  H16 UNL     1      -5.557  50.060 -18.114  1.00  0.00     0.165 HD
HETATM   46  C19 UNL     1      -4.255  47.543 -19.581  1.00  0.00     0.030 A 
HETATM   47  C21 UNL     1      -4.945  48.026 -22.048  1.00  0.00     0.021 A 
ENDBRANCH   9  38
BRANCH  14  48
HETATM   48  C26 UNL     1      -7.625  42.875 -30.397  1.00  0.00     0.208 C 
BRANCH  48  49
HETATM   49  O7  UNL     1      -6.401  42.714 -31.098  1.00  0.00    -0.396 OA
HETATM   50  H24 UNL     1      -6.358  41.783 -31.375  1.00  0.00     0.209 HD
ENDBRANCH  48  49
ENDBRANCH  14  48
BRANCH  22  51
HETATM   51  O9  UNL     1      -8.227  45.596 -34.924  1.00  0.00    -0.388 OA
HETATM   52  H36 UNL     1      -7.982  44.812 -34.396  1.00  0.00     0.210 HD
ENDBRANCH  22  51
TORSDOF 11
ENDMDL
MODEL 6
REMARK minimizedAffinity -6.57793427
REMARK CNNscore 0.396550715
REMARK CNNaffinity 6.56594706
REMARK  11 active torsions:
REMARK  status: ('A' for Active; 'I' for Inactive)
REMARK    1  A    between atoms: C2_2  and  O1_3 
REMARK    2  A    between atoms: O1_3  and  C3_4 
REMARK    3  A    between atoms: C3_4  and  C4_6 
REMARK    4  A    between atoms: C5_7  and  C6_8 
REMARK    5  A    between atoms: C10_13  and  C11_14 
REMARK    6  A    between atoms: C11_14  and  O4_15 
REMARK    7  A    between atoms: C13_18  and  C14_19 
REMARK    8  A    between atoms: C25_32  and  C26_33 
REMARK    9  A    between atoms: C26_33  and  O7_34 
REMARK   10  A    between atoms: C33_42  and  O9_44 
REMARK   11  A    between atoms: C36_46  and  O10_47 
ROOT
HETATM    1  C4  UNL     1       4.299  50.087 -10.063  1.00  0.00     0.165 C 
HETATM    2  C5  UNL     1       3.792  50.659 -11.175  1.00  0.00     0.053 C 
HETATM    3  C7  UNL     1       2.846  51.771 -10.993  1.00  0.00    -0.002 C 
HETATM    4  C8  UNL     1       1.707  51.926 -11.730  1.00  0.00    -0.066 C 
HETATM    5  C9  UNL     1       0.544  52.832 -11.326  1.00  0.00     0.049 C 
HETATM    6  C10 UNL     1      -0.798  52.085 -11.379  1.00  0.00     0.084 C 
HETATM    7  C12 UNL     1      -1.053  51.517 -12.768  1.00  0.00     0.142 C 
HETATM    8  O5  UNL     1      -2.155  51.046 -13.058  1.00  0.00    -0.297 OA
HETATM    9  C13 UNL     1       0.120  51.565 -13.741  1.00  0.00     0.092 C 
HETATM   10  C22 UNL     1       1.394  51.119 -12.992  1.00  0.00     0.052 C 
HETATM   11  C23 UNL     1       3.126  52.583  -9.767  1.00  0.00     0.044 C 
HETATM   12  C24 UNL     1       3.599  51.850  -8.648  1.00  0.00     0.101 C 
HETATM   13  O6  UNL     1       3.936  50.512  -8.781  1.00  0.00    -0.302 OA
HETATM   14  C25 UNL     1       3.799  52.446  -7.392  1.00  0.00     0.034 C 
HETATM   15  C27 UNL     1       3.575  53.811  -7.314  1.00  0.00     0.090 C 
HETATM   16  O8  UNL     1       3.701  54.556  -6.169  1.00  0.00    -0.341 OA
HETATM   17  C28 UNL     1       3.716  55.939  -6.645  1.00  0.00     0.171 C 
HETATM   18  C29 UNL     1       2.999  55.989  -8.009  1.00  0.00     0.057 C 
HETATM   19  C30 UNL     1       1.517  56.379  -7.925  1.00  0.00     0.012 C 
HETATM   20  C31 UNL     1       0.864  55.972  -6.609  1.00  0.00     0.004 C 
HETATM   21  C32 UNL     1       1.580  56.519  -5.371  1.00  0.00     0.040 C 
HETATM   22  C33 UNL     1       3.075  56.832  -5.568  1.00  0.00     0.081 C 
HETATM   23  C34 UNL     1       3.305  58.317  -5.876  1.00  0.00     0.049 C 
HETATM   24  C35 UNL     1       3.191  54.567  -8.412  1.00  0.00     0.017 C 
HETATM   25  C36 UNL     1       3.018  53.977  -9.655  1.00  0.00     0.091 C 
ENDROOT
BRANCH   2  26
HETATM   26  C6  UNL     1       4.184  50.135 -12.500  1.00  0.00     0.273 C 
HETATM   27  O3  UNL     1       3.900  48.999 -12.855  1.00  0.00    -0.301 OA
ENDBRANCH   2  26
BRANCH   1  28
HETATM   28  C3  UNL     1       5.290  48.981 -10.139  1.00  0.00     0.318 C 
HETATM   29  O2  UNL     1       5.039  47.814  -9.876  1.00  0.00    -0.257 OA
BRANCH  28  30
HETATM   30  O1  UNL     1       6.478  49.474 -10.577  1.00  0.00    -0.316 OA
BRANCH  30  31
HETATM   31  C2  UNL     1       7.059  50.497  -9.758  1.00  0.00     0.175 C 
HETATM   32  C1  UNL     1       7.626  49.890  -8.488  1.00  0.00     0.034 C 
ENDBRANCH  30  31
ENDBRANCH  28  30
ENDBRANCH   1  28
BRANCH  25  33
HETATM   33  O10 UNL     1       2.699  54.783 -10.712  1.00  0.00    -0.354 OA
HETATM   34  C37 UNL     1       1.342  55.223 -10.613  1.00  0.00     0.210 C 
ENDBRANCH  25  33
BRANCH   6  35
HETATM   35  C11 UNL     1      -1.964  52.978 -10.959  1.00  0.00     0.176 C 
BRANCH  35  36
HETATM   36  O4  UNL     1      -1.703  53.590  -9.701  1.00  0.00    -0.400 OA
HETATM   37  H12 UNL     1      -2.368  54.292  -9.586  1.00  0.00     0.209 HD
ENDBRANCH  35  36
ENDBRANCH   6  35
BRANCH   9  38
HETATM   38  C14 UNL     1      -0.088  50.760 -15.017  1.00  0.00    -0.046 A 
HETATM   39  C15 UNL     1      -0.142  49.360 -14.954  1.00  0.00     0.010 A 
HETATM   40  C16 UNL     1      -0.341  48.575 -16.096  1.00  0.00     0.031 A 
HETATM   41  C17 UNL     1      -0.487  49.237 -17.319  1.00  0.00     0.042 A 
HETATM   42  N1  UNL     1      -0.689  48.736 -18.585  1.00  0.00    -0.365 N 
HETATM   43  C20 UNL     1      -0.440  50.625 -17.431  1.00  0.00    -0.008 A 
HETATM   44  C18 UNL     1      -0.768  49.759 -19.493  1.00  0.00     0.089 A 
HETATM   45  H16 UNL     1      -0.762  47.753 -18.808  1.00  0.00     0.165 HD
HETATM   46  C19 UNL     1      -0.617  50.941 -18.806  1.00  0.00     0.030 A 
HETATM   47  C21 UNL     1      -0.238  51.394 -16.267  1.00  0.00     0.021 A 
ENDBRANCH   9  38
BRANCH  14  48
HETATM   48  C26 UNL     1       4.289  51.662  -6.215  1.00  0.00     0.208 C 
BRANCH  48  49
HETATM   49  O7  UNL     1       5.531  52.202  -5.789  1.00  0.00    -0.396 OA
HETATM   50  H24 UNL     1       5.820  51.673  -5.027  1.00  0.00     0.209 HD
ENDBRANCH  48  49
ENDBRANCH  14  48
BRANCH  22  51
HETATM   51  O9  UNL     1       3.736  56.595  -4.314  1.00  0.00    -0.388 OA
HETATM   52  H36 UNL     1       3.836  55.628  -4.230  1.00  0.00     0.210 HD
ENDBRANCH  22  51
TORSDOF 11
ENDMDL
MODEL 7
REMARK minimizedAffinity -8.56673431
REMARK CNNscore 0.396184772
REMARK CNNaffinity 7.07203102
REMARK  11 active torsions:
REMARK  status: ('A' for Active; 'I' for Inactive)
REMARK    1  A    between atoms: C2_2  and  O1_3 
REMARK    2  A    between atoms: O1_3  and  C3_4 
REMARK    3  A    between atoms: C3_4  and  C4_6 
REMARK    4  A    between atoms: C5_7  and  C6_8 
REMARK    5  A    between atoms: C10_13  and  C11_14 
REMARK    6  A    between atoms: C11_14  and  O4_15 
REMARK    7  A    between atoms: C13_18  and  C14_19 
REMARK    8  A    between atoms: C25_32  and  C26_33 
REMARK    9  A    between atoms: C26_33  and  O7_34 
REMARK   10  A    between atoms: C33_42  and  O9_44 
REMARK   11  A    between atoms: C36_46  and  O10_47 
ROOT
HETATM    1  C4  UNL     1      -6.410  46.035 -21.827  1.00  0.00     0.165 C 
HETATM    2  C5  UNL     1      -6.116  47.207 -22.427  1.00  0.00     0.053 C 
HETATM    3  C7  UNL     1      -6.763  47.489 -23.718  1.00  0.00    -0.002 C 
HETATM    4  C8  UNL     1      -6.119  48.048 -24.784  1.00  0.00    -0.066 C 
HETATM    5  C9  UNL     1      -6.645  48.008 -26.218  1.00  0.00     0.049 C 
HETATM    6  C10 UNL     1      -5.574  47.502 -27.198  1.00  0.00     0.084 C 
HETATM    7  C12 UNL     1      -4.325  48.371 -27.138  1.00  0.00     0.142 C 
HETATM    8  O5  UNL     1      -3.431  48.238 -27.976  1.00  0.00    -0.297 OA
HETATM    9  C13 UNL     1      -4.260  49.378 -25.995  1.00  0.00     0.092 C 
HETATM   10  C22 UNL     1      -4.727  48.680 -24.700  1.00  0.00     0.052 C 
HETATM   11  C23 UNL     1      -8.129  46.886 -23.831  1.00  0.00     0.044 C 
HETATM   12  C24 UNL     1      -8.289  45.623 -23.206  1.00  0.00     0.101 C 
HETATM   13  O6  UNL     1      -7.282  45.106 -22.405  1.00  0.00    -0.302 OA
HETATM   14  C25 UNL     1      -9.473  44.875 -23.318  1.00  0.00     0.034 C 
HETATM   15  C27 UNL     1     -10.511  45.467 -24.020  1.00  0.00     0.090 C 
HETATM   16  O8  UNL     1     -11.731  44.880 -24.247  1.00  0.00    -0.341 OA
HETATM   17  C28 UNL     1     -12.578  45.985 -24.694  1.00  0.00     0.171 C 
HETATM   18  C29 UNL     1     -11.672  47.082 -25.286  1.00  0.00     0.057 C 
HETATM   19  C30 UNL     1     -11.519  47.014 -26.812  1.00  0.00     0.012 C 
HETATM   20  C31 UNL     1     -11.655  45.599 -27.366  1.00  0.00     0.004 C 
HETATM   21  C32 UNL     1     -12.966  44.911 -26.979  1.00  0.00     0.040 C 
HETATM   22  C33 UNL     1     -13.619  45.430 -25.684  1.00  0.00     0.081 C 
HETATM   23  C34 UNL     1     -14.707  46.470 -25.978  1.00  0.00     0.049 C 
HETATM   24  C35 UNL     1     -10.411  46.735 -24.572  1.00  0.00     0.017 C 
HETATM   25  C36 UNL     1      -9.247  47.477 -24.437  1.00  0.00     0.091 C 
ENDROOT
BRANCH   2  26
HETATM   26  C6  UNL     1      -5.154  48.126 -21.784  1.00  0.00     0.273 C 
HETATM   27  O3  UNL     1      -5.516  49.156 -21.230  1.00  0.00    -0.301 OA
ENDBRANCH   2  26
BRANCH   1  28
HETATM   28  C3  UNL     1      -5.837  45.672 -20.504  1.00  0.00     0.318 C 
HETATM   29  O2  UNL     1      -6.309  46.018 -19.431  1.00  0.00    -0.257 OA
BRANCH  28  30
HETATM   30  O1  UNL     1      -4.748  44.880 -20.691  1.00  0.00    -0.316 OA
BRANCH  30  31
HETATM   31  C2  UNL     1      -3.875  44.756 -19.561  1.00  0.00     0.175 C 
HETATM   32  C1  UNL     1      -4.038  43.388 -18.924  1.00  0.00     0.034 C 
ENDBRANCH  30  31
ENDBRANCH  28  30
ENDBRANCH   1  28
BRANCH  25  33
HETATM   33  O10 UNL     1      -9.228  48.745 -24.950  1.00  0.00    -0.354 OA
HETATM   34  C37 UNL     1      -9.281  48.707 -26.378  1.00  0.00     0.210 C 
ENDBRANCH  25  33
BRANCH   6  35
HETATM   35  C11 UNL     1      -6.097  47.442 -28.632  1.00  0.00     0.176 C 
BRANCH  35  36
HETATM   36  O4  UNL     1      -6.043  48.726 -29.243  1.00  0.00    -0.400 OA
HETATM   37  H12 UNL     1      -6.187  48.590 -30.197  1.00  0.00     0.209 HD
ENDBRANCH  35  36
ENDBRANCH   6  35
BRANCH   9  38
HETATM   38  C14 UNL     1      -2.898  50.037 -25.814  1.00  0.00    -0.046 A 
HETATM   39  C15 UNL     1      -2.393  50.243 -24.522  1.00  0.00     0.010 A 
HETATM   40  C16 UNL     1      -1.143  50.834 -24.301  1.00  0.00     0.031 A 
HETATM   41  C17 UNL     1      -0.402  51.219 -25.423  1.00  0.00     0.042 A 
HETATM   42  N1  UNL     1       0.834  51.815 -25.512  1.00  0.00    -0.365 N 
HETATM   43  C20 UNL     1      -0.863  51.034 -26.726  1.00  0.00    -0.008 A 
HETATM   44  C18 UNL     1       1.171  52.017 -26.825  1.00  0.00     0.089 A 
HETATM   45  H16 UNL     1       1.406  52.070 -24.719  1.00  0.00     0.165 HD
HETATM   46  C19 UNL     1       0.137  51.543 -27.599  1.00  0.00     0.030 A 
HETATM   47  C21 UNL     1      -2.125  50.437 -26.922  1.00  0.00     0.021 A 
ENDBRANCH   9  38
BRANCH  14  48
HETATM   48  C26 UNL     1      -9.629  43.538 -22.663  1.00  0.00     0.208 C 
BRANCH  48  49
HETATM   49  O7  UNL     1      -8.667  42.647 -23.209  1.00  0.00    -0.396 OA
HETATM   50  H24 UNL     1      -8.794  41.792 -22.764  1.00  0.00     0.209 HD
ENDBRANCH  48  49
ENDBRANCH  14  48
BRANCH  22  51
HETATM   51  O9  UNL     1     -14.303  44.325 -25.069  1.00  0.00    -0.388 OA
HETATM   52  H36 UNL     1     -13.618  43.780 -24.638  1.00  0.00     0.210 HD
ENDBRANCH  22  51
TORSDOF 11
ENDMDL
MODEL 8
REMARK minimizedAffinity -9.33894157
REMARK CNNscore 0.39244014
REMARK CNNaffinity 7.36212158
REMARK  11 active torsions:
REMARK  status: ('A' for Active; 'I' for Inactive)
REMARK    1  A    between atoms: C2_2  and  O1_3 
REMARK    2  A    between atoms: O1_3  and  C3_4 
REMARK    3  A    between atoms: C3_4  and  C4_6 
REMARK    4  A    between atoms: C5_7  and  C6_8 
REMARK    5  A    between atoms: C10_13  and  C11_14 
REMARK    6  A    between atoms: C11_14  and  O4_15 
REMARK    7  A    between atoms: C13_18  and  C14_19 
REMARK    8  A    between atoms: C25_32  and  C26_33 
REMARK    9  A    between atoms: C26_33  and  O7_34 
REMARK   10  A    between atoms: C33_42  and  O9_44 
REMARK   11  A    between atoms: C36_46  and  O10_47 
ROOT
HETATM    1  C4  UNL     1       0.043  51.379 -17.366  1.00  0.00     0.165 C 
HETATM    2  C5  UNL     1      -0.485  50.147 -17.526  1.00  0.00     0.053 C 
HETATM    3  C7  UNL     1      -1.267  49.898 -18.747  1.00  0.00    -0.002 C 
HETATM    4  C8  UNL     1      -2.438  49.197 -18.769  1.00  0.00    -0.066 C 
HETATM    5  C9  UNL     1      -3.441  49.241 -19.921  1.00  0.00     0.049 C 
HETATM    6  C10 UNL     1      -4.864  49.533 -19.420  1.00  0.00     0.084 C 
HETATM    7  C12 UNL     1      -5.307  48.494 -18.399  1.00  0.00     0.142 C 
HETATM    8  O5  UNL     1      -6.480  48.452 -18.021  1.00  0.00    -0.297 OA
HETATM    9  C13 UNL     1      -4.227  47.548 -17.889  1.00  0.00     0.092 C 
HETATM   10  C22 UNL     1      -2.957  48.372 -17.588  1.00  0.00     0.052 C 
HETATM   11  C23 UNL     1      -0.783  50.689 -19.922  1.00  0.00     0.044 C 
HETATM   12  C24 UNL     1      -0.308  51.992 -19.624  1.00  0.00     0.101 C 
HETATM   13  O6  UNL     1      -0.152  52.395 -18.307  1.00  0.00    -0.302 OA
HETATM   14  C25 UNL     1       0.073  52.900 -20.627  1.00  0.00     0.034 C 
HETATM   15  C27 UNL     1       0.026  52.432 -21.931  1.00  0.00     0.090 C 
HETATM   16  O8  UNL     1       0.343  53.180 -23.037  1.00  0.00    -0.341 OA
HETATM   17  C28 UNL     1       0.487  52.191 -24.105  1.00  0.00     0.171 C 
HETATM   18  C29 UNL     1      -0.335  50.944 -23.723  1.00  0.00     0.057 C 
HETATM   19  C30 UNL     1      -1.745  50.911 -24.330  1.00  0.00     0.012 C 
HETATM   20  C31 UNL     1      -2.326  52.300 -24.571  1.00  0.00     0.004 C 
HETATM   21  C32 UNL     1      -1.442  53.193 -25.446  1.00  0.00     0.040 C 
HETATM   22  C33 UNL     1       0.057  52.841 -25.432  1.00  0.00     0.081 C 
HETATM   23  C34 UNL     1       0.441  51.959 -26.626  1.00  0.00     0.049 C 
HETATM   24  C35 UNL     1      -0.356  51.136 -22.246  1.00  0.00     0.017 C 
HETATM   25  C36 UNL     1      -0.708  50.239 -21.249  1.00  0.00     0.091 C 
ENDROOT
BRANCH   2  26
HETATM   26  C6  UNL     1      -0.278  49.130 -16.474  1.00  0.00     0.273 C 
HETATM   27  O3  UNL     1      -0.973  49.090 -15.468  1.00  0.00    -0.301 OA
ENDBRANCH   2  26
BRANCH   1  28
HETATM   28  C3  UNL     1       0.879  51.720 -16.185  1.00  0.00     0.318 C 
HETATM   29  O2  UNL     1       0.433  51.954 -15.071  1.00  0.00    -0.257 OA
BRANCH  28  30
HETATM   30  O1  UNL     1       2.190  51.690 -16.542  1.00  0.00    -0.316 OA
BRANCH  30  31
HETATM   31  C2  UNL     1       3.122  51.942 -15.482  1.00  0.00     0.175 C 
HETATM   32  C1  UNL     1       4.447  52.413 -16.053  1.00  0.00     0.034 C 
ENDBRANCH  30  31
ENDBRANCH  28  30
ENDBRANCH   1  28
BRANCH  25  33
HETATM   33  O10 UNL     1      -1.016  48.958 -21.615  1.00  0.00    -0.354 OA
HETATM   34  C37 UNL     1      -2.251  48.928 -22.335  1.00  0.00     0.210 C 
ENDBRANCH  25  33
BRANCH   6  35
HETATM   35  C11 UNL     1      -5.870  49.597 -20.568  1.00  0.00     0.176 C 
BRANCH  35  36
HETATM   36  O4  UNL     1      -6.868  50.578 -20.311  1.00  0.00    -0.400 OA
HETATM   37  H12 UNL     1      -7.346  50.719 -21.147  1.00  0.00     0.209 HD
ENDBRANCH  35  36
ENDBRANCH   6  35
BRANCH   9  38
HETATM   38  C14 UNL     1      -4.643  46.706 -16.689  1.00  0.00    -0.046 A 
HETATM   39  C15 UNL     1      -5.899  46.083 -16.681  1.00  0.00     0.010 A 
HETATM   40  C16 UNL     1      -6.325  45.290 -15.608  1.00  0.00     0.031 A 
HETATM   41  C17 UNL     1      -5.449  45.137 -14.529  1.00  0.00     0.042 A 
HETATM   42  N1  UNL     1      -5.594  44.432 -13.357  1.00  0.00    -0.365 N 
HETATM   43  C20 UNL     1      -4.191  45.737 -14.493  1.00  0.00    -0.008 A 
HETATM   44  C18 UNL     1      -4.474  44.568 -12.579  1.00  0.00     0.089 A 
HETATM   45  H16 UNL     1      -6.414  43.896 -13.108  1.00  0.00     0.165 HD
HETATM   46  C19 UNL     1      -3.588  45.372 -13.258  1.00  0.00     0.030 A 
HETATM   47  C21 UNL     1      -3.785  46.531 -15.585  1.00  0.00     0.021 A 
ENDBRANCH   9  38
BRANCH  14  48
HETATM   48  C26 UNL     1       0.562  54.276 -20.303  1.00  0.00     0.208 C 
BRANCH  48  49
HETATM   49  O7  UNL     1       1.779  54.505 -20.999  1.00  0.00    -0.396 OA
HETATM   50  H24 UNL     1       2.069  55.403 -20.767  1.00  0.00     0.209 HD
ENDBRANCH  48  49
ENDBRANCH  14  48
BRANCH  22  51
HETATM   51  O9  UNL     1       0.791  54.065 -25.609  1.00  0.00    -0.388 OA
HETATM   52  H36 UNL     1       0.777  54.524 -24.749  1.00  0.00     0.210 HD
ENDBRANCH  22  51
TORSDOF 11
ENDMDL
MODEL 9
REMARK minimizedAffinity -7.56046152
REMARK CNNscore 0.373464018
REMARK CNNaffinity 6.80328035
REMARK  11 active torsions:
REMARK  status: ('A' for Active; 'I' for Inactive)
REMARK    1  A    between atoms: C2_2  and  O1_3 
REMARK    2  A    between atoms: O1_3  and  C3_4 
REMARK    3  A    between atoms: C3_4  and  C4_6 
REMARK    4  A    between atoms: C5_7  and  C6_8 
REMARK    5  A    between atoms: C10_13  and  C11_14 
REMARK    6  A    between atoms: C11_14  and  O4_15 
REMARK    7  A    between atoms: C13_18  and  C14_19 
REMARK    8  A    between atoms: C25_32  and  C26_33 
REMARK    9  A    between atoms: C26_33  and  O7_34 
REMARK   10  A    between atoms: C33_42  and  O9_44 
REMARK   11  A    between atoms: C36_46  and  O10_47 
ROOT
HETATM    1  C4  UNL     1      -6.346  47.682 -31.526  1.00  0.00     0.165 C 
HETATM    2  C5  UNL     1      -6.948  46.967 -30.553  1.00  0.00     0.053 C 
HETATM    3  C7  UNL     1      -8.327  46.516 -30.798  1.00  0.00    -0.002 C 
HETATM    4  C8  UNL     1      -9.315  46.551 -29.856  1.00  0.00    -0.066 C 
HETATM    5  C9  UNL     1     -10.806  46.448 -30.177  1.00  0.00     0.049 C 
HETATM    6  C10 UNL     1     -11.606  47.583 -29.518  1.00  0.00     0.084 C 
HETATM    7  C12 UNL     1     -11.408  47.584 -28.008  1.00  0.00     0.142 C 
HETATM    8  O5  UNL     1     -12.108  48.299 -27.288  1.00  0.00    -0.297 OA
HETATM    9  C13 UNL     1     -10.311  46.672 -27.472  1.00  0.00     0.092 C 
HETATM   10  C22 UNL     1      -9.065  46.824 -28.371  1.00  0.00     0.052 C 
HETATM   11  C23 UNL     1      -8.603  46.238 -32.242  1.00  0.00     0.044 C 
HETATM   12  C24 UNL     1      -7.954  47.101 -33.162  1.00  0.00     0.101 C 
HETATM   13  O6  UNL     1      -7.000  48.005 -32.720  1.00  0.00    -0.302 OA
HETATM   14  C25 UNL     1      -8.199  47.045 -34.545  1.00  0.00     0.034 C 
HETATM   15  C27 UNL     1      -9.062  46.051 -34.977  1.00  0.00     0.090 C 
HETATM   16  O8  UNL     1      -9.432  45.857 -36.285  1.00  0.00    -0.341 OA
HETATM   17  C28 UNL     1     -10.038  44.526 -36.288  1.00  0.00     0.171 C 
HETATM   18  C29 UNL     1     -10.543  44.220 -34.864  1.00  0.00     0.057 C 
HETATM   19  C30 UNL     1     -12.029  44.537 -34.644  1.00  0.00     0.012 C 
HETATM   20  C31 UNL     1     -12.537  45.672 -35.527  1.00  0.00     0.004 C 
HETATM   21  C32 UNL     1     -12.308  45.438 -37.023  1.00  0.00     0.040 C 
HETATM   22  C33 UNL     1     -11.139  44.495 -37.363  1.00  0.00     0.081 C 
HETATM   23  C34 UNL     1     -11.624  43.062 -37.612  1.00  0.00     0.049 C 
HETATM   24  C35 UNL     1      -9.647  45.141 -34.109  1.00  0.00     0.017 C 
HETATM   25  C36 UNL     1      -9.383  45.188 -32.749  1.00  0.00     0.091 C 
ENDROOT
BRANCH   2  26
HETATM   26  C6  UNL     1      -6.216  46.696 -29.298  1.00  0.00     0.273 C 
HETATM   27  O3  UNL     1      -5.967  47.582 -28.491  1.00  0.00    -0.301 OA
ENDBRANCH   2  26
BRANCH   1  28
HETATM   28  C3  UNL     1      -4.942  48.154 -31.391  1.00  0.00     0.318 C 
HETATM   29  O2  UNL     1      -4.626  49.286 -31.057  1.00  0.00    -0.257 OA
BRANCH  28  30
HETATM   30  O1  UNL     1      -4.097  47.124 -31.661  1.00  0.00    -0.316 OA
BRANCH  30  31
HETATM   31  C2  UNL     1      -4.014  46.740 -33.039  1.00  0.00     0.175 C 
HETATM   32  C1  UNL     1      -3.109  47.697 -33.793  1.00  0.00     0.034 C 
ENDBRANCH  30  31
ENDBRANCH  28  30
ENDBRANCH   1  28
BRANCH  25  33
HETATM   33  O10 UNL     1      -9.940  44.227 -31.951  1.00  0.00    -0.354 OA
HETATM   34  C37 UNL     1      -9.028  43.142 -31.766  1.00  0.00     0.210 C 
ENDBRANCH  25  33
BRANCH   6  35
HETATM   35  C11 UNL     1     -13.094  47.496 -29.849  1.00  0.00     0.176 C 
BRANCH  35  36
HETATM   36  O4  UNL     1     -13.672  46.331 -29.271  1.00  0.00    -0.400 OA
HETATM   37  H12 UNL     1     -14.639  46.435 -29.335  1.00  0.00     0.209 HD
ENDBRANCH  35  36
ENDBRANCH   6  35
BRANCH   9  38
HETATM   38  C14 UNL     1      -9.970  46.895 -26.004  1.00  0.00    -0.046 A 
HETATM   39  C15 UNL     1     -10.595  46.115 -25.020  1.00  0.00     0.010 A 
HETATM   40  C16 UNL     1     -10.309  46.273 -23.658  1.00  0.00     0.031 A 
HETATM   41  C17 UNL     1      -9.368  47.244 -23.303  1.00  0.00     0.042 A 
HETATM   42  N1  UNL     1      -8.897  47.618 -22.065  1.00  0.00    -0.365 N 
HETATM   43  C20 UNL     1      -8.721  48.042 -24.246  1.00  0.00    -0.008 A 
HETATM   44  C18 UNL     1      -7.977  48.625 -22.192  1.00  0.00     0.089 A 
HETATM   45  H16 UNL     1      -9.194  47.207 -21.191  1.00  0.00     0.165 HD
HETATM   46  C19 UNL     1      -7.848  48.909 -23.532  1.00  0.00     0.030 A 
HETATM   47  C21 UNL     1      -9.026  47.865 -25.610  1.00  0.00     0.021 A 
ENDBRANCH   9  38
BRANCH  14  48
HETATM   48  C26 UNL     1      -7.517  47.967 -35.506  1.00  0.00     0.208 C 
BRANCH  48  49
HETATM   49  O7  UNL     1      -6.115  47.900 -35.288  1.00  0.00    -0.396 OA
HETATM   50  H24 UNL     1      -5.704  48.508 -35.925  1.00  0.00     0.209 HD
ENDBRANCH  48  49
ENDBRANCH  14  48
BRANCH  22  51
HETATM   51  O9  UNL     1     -10.580  44.931 -38.614  1.00  0.00    -0.388 OA
HETATM   52  H36 UNL     1     -10.035  45.716 -38.416  1.00  0.00     0.210 HD
ENDBRANCH  22  51
TORSDOF 11
ENDMDL
