MODEL 1
REMARK minimizedAffinity -8.69122028
REMARK CNNscore 0.439500958
REMARK CNNaffinity 7.25463724
REMARK  13 active torsions:
REMARK  status: ('A' for Active; 'I' for Inactive)
REMARK    1  A    between atoms: O1_2  and  C2_3 
REMARK    2  A    between atoms: C2_3  and  C3_5 
REMARK    3  A    between atoms: C3_5  and  C4_6 
REMARK    4  A    between atoms: C3_5  and  N3_13 
REMARK    5  A    between atoms: C4_6  and  C5_7 
REMARK       I    between atoms: N3_13  and  C8_14 
REMARK    6  A    between atoms: C8_14  and  C9_16 
REMARK    7  A    between atoms: C9_16  and  O4_17 
REMARK    8  A    between atoms: O4_17  and  N4_18 
REMARK    9  A    between atoms: C17_27  and  O5_28 
REMARK   10  A    between atoms: C24_35  and  O6_36 
REMARK   11  A    between atoms: C24_35  and  C25_37 
REMARK   12  A    between atoms: C25_37  and  C26_39 
REMARK   13  A    between atoms: C26_39  and  O8_40 
ROOT
HETATM    1  N4  UNL     1     -10.740   6.912  13.186  1.00  0.00    -0.271 N 
ATOM      2  H4  UNL     1     -10.923   6.412  12.315  1.00  0.00     0.194 HD
HETATM    3  C10 UNL     1      -9.594   6.909  13.805  1.00  0.00     0.032 C 
HETATM    4  C11 UNL     1      -8.507   6.074  13.229  1.00  0.00     0.030 C 
HETATM    5  C12 UNL     1      -7.308   5.950  13.825  1.00  0.00    -0.069 C 
HETATM    6  C13 UNL     1      -6.329   4.923  13.307  1.00  0.00     0.035 C 
HETATM    7  C14 UNL     1      -4.882   5.415  13.255  1.00  0.00     0.010 C 
HETATM    8  C15 UNL     1      -4.450   6.017  14.609  1.00  0.00    -0.002 C 
HETATM    9  C16 UNL     1      -5.382   7.201  14.979  1.00  0.00     0.031 C 
HETATM   10  C17 UNL     1      -5.130   8.389  14.010  1.00  0.00     0.124 C 
HETATM   11  C18 UNL     1      -3.709   8.483  13.429  1.00  0.00     0.045 C 
HETATM   12  C19 UNL     1      -2.573   7.862  14.288  1.00  0.00     0.001 C 
HETATM   13  C20 UNL     1      -2.331   8.787  15.501  1.00  0.00     0.019 C 
HETATM   14  C21 UNL     1      -2.956   6.423  14.765  1.00  0.00     0.002 C 
HETATM   15  C22 UNL     1      -1.963   5.453  14.106  1.00  0.00     0.009 C 
HETATM   16  C23 UNL     1      -1.347   6.221  12.952  1.00  0.00     0.047 C 
HETATM   17  C24 UNL     1      -1.262   7.667  13.442  1.00  0.00     0.128 C 
HETATM   18  C27 UNL     1      -6.902   6.745  15.067  1.00  0.00    -0.014 C 
HETATM   19  C28 UNL     1      -7.086   5.825  16.305  1.00  0.00     0.020 C 
HETATM   20  C29 UNL     1      -7.847   7.969  15.238  1.00  0.00     0.020 C 
HETATM   21  C30 UNL     1      -9.327   7.630  15.111  1.00  0.00     0.060 C 
ENDROOT
BRANCH   1  22
HETATM   22  O4  UNL     1     -11.690   7.686  13.865  1.00  0.00    -0.271 OA
BRANCH  22  23
HETATM   23  C9  UNL     1     -12.420   6.851  14.755  1.00  0.00     0.303 C 
BRANCH  23  24
HETATM   24  C8  UNL     1     -13.678   6.392  14.035  1.00  0.00     0.244 C 
HETATM   25  N3  UNL     1     -14.554   5.701  14.838  1.00  0.00    -0.345 N 
HETATM   26  H10 UNL     1     -14.253   5.464  15.780  1.00  0.00     0.163 HD
HETATM   27  O3  UNL     1     -13.898   6.639  12.850  1.00  0.00    -0.271 OA
BRANCH  25  28
HETATM   28  C3  UNL     1     -15.858   5.190  14.396  1.00  0.00     0.190 C 
BRANCH  28  29
HETATM   29  C2  UNL     1     -16.939   6.277  14.522  1.00  0.00     0.281 C 
HETATM   30  O2  UNL     1     -16.748   7.387  15.008  1.00  0.00    -0.263 OA
BRANCH  29  31
HETATM   31  O1  UNL     1     -18.129   5.864  13.990  1.00  0.00    -0.325 OA
HETATM   32  C1  UNL     1     -18.320   6.237  12.623  1.00  0.00     0.213 C 
ENDBRANCH  29  31
ENDBRANCH  28  29
BRANCH  28  33
HETATM   33  C4  UNL     1     -16.299   3.958  15.213  1.00  0.00     0.093 C 
BRANCH  33  34
HETATM   34  C5  UNL     1     -16.006   2.663  14.532  1.00  0.00     0.028 A 
HETATM   35  C6  UNL     1     -15.036   1.708  14.756  1.00  0.00     0.114 A 
HETATM   36  N1  UNL     1     -15.148   0.677  13.863  1.00  0.00    -0.360 N 
HETATM   37  C7  UNL     1     -16.177   0.983  13.106  1.00  0.00     0.180 A 
ATOM     38  H1  UNL     1     -14.559  -0.153  13.799  1.00  0.00     0.166 HD
HETATM   39  N2  UNL     1     -16.730   2.177  13.472  1.00  0.00    -0.354 N 
HETATM   40  H9  UNL     1     -17.559   2.601  13.061  1.00  0.00     0.166 HD
ENDBRANCH  33  34
ENDBRANCH  28  33
ENDBRANCH  25  28
ENDBRANCH  23  24
ENDBRANCH  22  23
ENDBRANCH   1  22
BRANCH  10  41
HETATM   41  O5  UNL     1      -5.456   9.626  14.648  1.00  0.00    -0.395 OA
HETATM   42  H21 UNL     1      -4.811   9.808  15.348  1.00  0.00     0.210 HD
ENDBRANCH  10  41
BRANCH  17  43
HETATM   43  O6  UNL     1      -1.293   8.508  12.275  1.00  0.00    -0.381 OA
HETATM   44  H32 UNL     1      -0.579   9.176  12.378  1.00  0.00     0.211 HD
ENDBRANCH  17  43
BRANCH  17  45
HETATM   45  C25 UNL     1       0.083   7.993  14.141  1.00  0.00     0.184 C 
HETATM   46  O7  UNL     1       0.572   9.129  14.036  1.00  0.00    -0.292 OA
BRANCH  45  47
HETATM   47  C26 UNL     1       0.819   6.924  14.936  1.00  0.00     0.245 C 
BRANCH  47  48
HETATM   48  O8  UNL     1       0.361   6.870  16.280  1.00  0.00    -0.393 OA
HETATM   49  H35 UNL     1      -0.113   7.711  16.453  1.00  0.00     0.209 HD
ENDBRANCH  47  48
ENDBRANCH  45  47
ENDBRANCH  17  45
TORSDOF 13
ENDMDL
MODEL 2
REMARK minimizedAffinity -6.96295929
REMARK CNNscore 0.416634947
REMARK CNNaffinity 6.1832118
REMARK  13 active torsions:
REMARK  status: ('A' for Active; 'I' for Inactive)
REMARK    1  A    between atoms: O1_2  and  C2_3 
REMARK    2  A    between atoms: C2_3  and  C3_5 
REMARK    3  A    between atoms: C3_5  and  C4_6 
REMARK    4  A    between atoms: C3_5  and  N3_13 
REMARK    5  A    between atoms: C4_6  and  C5_7 
REMARK       I    between atoms: N3_13  and  C8_14 
REMARK    6  A    between atoms: C8_14  and  C9_16 
REMARK    7  A    between atoms: C9_16  and  O4_17 
REMARK    8  A    between atoms: O4_17  and  N4_18 
REMARK    9  A    between atoms: C17_27  and  O5_28 
REMARK   10  A    between atoms: C24_35  and  O6_36 
REMARK   11  A    between atoms: C24_35  and  C25_37 
REMARK   12  A    between atoms: C25_37  and  C26_39 
REMARK   13  A    between atoms: C26_39  and  O8_40 
ROOT
HETATM    1  N4  UNL     1      -8.765  -6.054  -3.801  1.00  0.00    -0.271 N 
ATOM      2  H4  UNL     1      -7.962  -5.630  -4.267  1.00  0.00     0.194 HD
HETATM    3  C10 UNL     1      -8.707  -7.143  -3.088  1.00  0.00     0.032 C 
HETATM    4  C11 UNL     1      -7.394  -7.836  -3.003  1.00  0.00     0.030 C 
HETATM    5  C12 UNL     1      -7.242  -9.001  -2.348  1.00  0.00    -0.069 C 
HETATM    6  C13 UNL     1      -5.942  -9.757  -2.481  1.00  0.00     0.035 C 
HETATM    7  C14 UNL     1      -5.440 -10.365  -1.171  1.00  0.00     0.010 C 
HETATM    8  C15 UNL     1      -6.544 -11.198  -0.485  1.00  0.00    -0.002 C 
HETATM    9  C16 UNL     1      -7.776 -10.300  -0.196  1.00  0.00     0.031 C 
HETATM   10  C17 UNL     1      -7.425  -9.268   0.911  1.00  0.00     0.124 C 
HETATM   11  C18 UNL     1      -6.356  -9.716   1.921  1.00  0.00     0.045 C 
HETATM   12  C19 UNL     1      -6.219 -11.247   2.146  1.00  0.00     0.001 C 
HETATM   13  C20 UNL     1      -7.443 -11.721   2.961  1.00  0.00     0.019 C 
HETATM   14  C21 UNL     1      -6.144 -12.008   0.782  1.00  0.00     0.002 C 
HETATM   15  C22 UNL     1      -4.752 -12.656   0.708  1.00  0.00     0.009 C 
HETATM   16  C23 UNL     1      -3.907 -11.928   1.736  1.00  0.00     0.047 C 
HETATM   17  C24 UNL     1      -4.872 -11.598   2.875  1.00  0.00     0.128 C 
HETATM   18  C27 UNL     1      -8.355  -9.654  -1.528  1.00  0.00    -0.014 C 
HETATM   19  C28 UNL     1      -8.998 -10.770  -2.396  1.00  0.00     0.020 C 
HETATM   20  C29 UNL     1      -9.457  -8.604  -1.209  1.00  0.00     0.020 C 
HETATM   21  C30 UNL     1      -9.903  -7.788  -2.417  1.00  0.00     0.060 C 
ENDROOT
BRANCH   1  22
HETATM   22  O4  UNL     1     -10.067  -5.538  -3.848  1.00  0.00    -0.271 OA
BRANCH  22  23
HETATM   23  C9  UNL     1     -10.429  -5.315  -5.206  1.00  0.00     0.303 C 
BRANCH  23  24
HETATM   24  C8  UNL     1     -11.185  -3.998  -5.275  1.00  0.00     0.244 C 
HETATM   25  N3  UNL     1     -10.481  -2.988  -5.887  1.00  0.00    -0.345 N 
HETATM   26  H10 UNL     1      -9.510  -3.163  -6.133  1.00  0.00     0.163 HD
HETATM   27  O3  UNL     1     -12.330  -3.860  -4.844  1.00  0.00    -0.271 OA
BRANCH  25  28
HETATM   28  C3  UNL     1     -11.003  -1.635  -6.119  1.00  0.00     0.190 C 
BRANCH  28  29
HETATM   29  C2  UNL     1     -11.122  -1.349  -7.626  1.00  0.00     0.281 C 
HETATM   30  O2  UNL     1     -10.343  -0.643  -8.257  1.00  0.00    -0.263 OA
BRANCH  29  31
HETATM   31  O1  UNL     1     -12.183  -2.010  -8.179  1.00  0.00    -0.325 OA
HETATM   32  C1  UNL     1     -11.831  -2.894  -9.246  1.00  0.00     0.213 C 
ENDBRANCH  29  31
ENDBRANCH  28  29
BRANCH  28  33
HETATM   33  C4  UNL     1     -10.106  -0.555  -5.480  1.00  0.00     0.093 C 
BRANCH  33  34
HETATM   34  C5  UNL     1      -8.648  -0.837  -5.627  1.00  0.00     0.028 A 
HETATM   35  C6  UNL     1      -7.811  -1.712  -4.964  1.00  0.00     0.114 A 
HETATM   36  N1  UNL     1      -6.530  -1.616  -5.437  1.00  0.00    -0.360 N 
HETATM   37  C7  UNL     1      -6.575  -0.706  -6.383  1.00  0.00     0.180 A 
ATOM     38  H1  UNL     1      -5.714  -2.140  -5.121  1.00  0.00     0.166 HD
HETATM   39  N2  UNL     1      -7.836  -0.205  -6.535  1.00  0.00    -0.354 N 
HETATM   40  H9  UNL     1      -8.126   0.479  -7.232  1.00  0.00     0.166 HD
ENDBRANCH  33  34
ENDBRANCH  28  33
ENDBRANCH  25  28
ENDBRANCH  23  24
ENDBRANCH  22  23
ENDBRANCH   1  22
BRANCH  10  41
HETATM   41  O5  UNL     1      -8.605  -8.884   1.621  1.00  0.00    -0.395 OA
HETATM   42  H21 UNL     1      -8.923  -9.631   2.148  1.00  0.00     0.210 HD
ENDBRANCH  10  41
BRANCH  17  43
HETATM   43  O6  UNL     1      -4.349 -10.435   3.543  1.00  0.00    -0.381 OA
HETATM   44  H32 UNL     1      -4.385 -10.613   4.509  1.00  0.00     0.211 HD
ENDBRANCH  17  43
BRANCH  17  45
HETATM   45  C25 UNL     1      -4.925 -12.701   3.964  1.00  0.00     0.184 C 
HETATM   46  O7  UNL     1      -5.149 -12.390   5.145  1.00  0.00    -0.292 OA
BRANCH  45  47
HETATM   47  C26 UNL     1      -4.683 -14.158   3.600  1.00  0.00     0.245 C 
BRANCH  47  48
HETATM   48  O8  UNL     1      -5.902 -14.837   3.337  1.00  0.00    -0.393 OA
HETATM   49  H35 UNL     1      -6.620 -14.291   3.722  1.00  0.00     0.209 HD
ENDBRANCH  47  48
ENDBRANCH  45  47
ENDBRANCH  17  45
TORSDOF 13
ENDMDL
MODEL 3
REMARK minimizedAffinity -8.28005219
REMARK CNNscore 0.343921512
REMARK CNNaffinity 7.01811361
REMARK  13 active torsions:
REMARK  status: ('A' for Active; 'I' for Inactive)
REMARK    1  A    between atoms: O1_2  and  C2_3 
REMARK    2  A    between atoms: C2_3  and  C3_5 
REMARK    3  A    between atoms: C3_5  and  C4_6 
REMARK    4  A    between atoms: C3_5  and  N3_13 
REMARK    5  A    between atoms: C4_6  and  C5_7 
REMARK       I    between atoms: N3_13  and  C8_14 
REMARK    6  A    between atoms: C8_14  and  C9_16 
REMARK    7  A    between atoms: C9_16  and  O4_17 
REMARK    8  A    between atoms: O4_17  and  N4_18 
REMARK    9  A    between atoms: C17_27  and  O5_28 
REMARK   10  A    between atoms: C24_35  and  O6_36 
REMARK   11  A    between atoms: C24_35  and  C25_37 
REMARK   12  A    between atoms: C25_37  and  C26_39 
REMARK   13  A    between atoms: C26_39  and  O8_40 
ROOT
HETATM    1  N4  UNL     1     -10.767   6.646  13.573  1.00  0.00    -0.271 N 
ATOM      2  H4  UNL     1     -11.010   6.149  12.716  1.00  0.00     0.194 HD
HETATM    3  C10 UNL     1      -9.573   6.667  14.094  1.00  0.00     0.032 C 
HETATM    4  C11 UNL     1      -8.519   5.863  13.420  1.00  0.00     0.030 C 
HETATM    5  C12 UNL     1      -7.271   5.764  13.912  1.00  0.00    -0.069 C 
HETATM    6  C13 UNL     1      -6.315   4.766  13.303  1.00  0.00     0.035 C 
HETATM    7  C14 UNL     1      -4.890   5.294  13.135  1.00  0.00     0.010 C 
HETATM    8  C15 UNL     1      -4.360   5.895  14.453  1.00  0.00    -0.002 C 
HETATM    9  C16 UNL     1      -5.286   7.053  14.913  1.00  0.00     0.031 C 
HETATM   10  C17 UNL     1      -5.145   8.254  13.938  1.00  0.00     0.124 C 
HETATM   11  C18 UNL     1      -3.780   8.388  13.241  1.00  0.00     0.045 C 
HETATM   12  C19 UNL     1      -2.561   7.788  13.994  1.00  0.00     0.001 C 
HETATM   13  C20 UNL     1      -2.240   8.709  15.193  1.00  0.00     0.019 C 
HETATM   14  C21 UNL     1      -2.868   6.337  14.488  1.00  0.00     0.002 C 
HETATM   15  C22 UNL     1      -1.911   5.397  13.738  1.00  0.00     0.009 C 
HETATM   16  C23 UNL     1      -1.413   6.189  12.543  1.00  0.00     0.047 C 
HETATM   17  C24 UNL     1      -1.322   7.632  13.040  1.00  0.00     0.128 C 
HETATM   18  C27 UNL     1      -6.782   6.558  15.123  1.00  0.00    -0.014 C 
HETATM   19  C28 UNL     1      -6.838   5.625  16.363  1.00  0.00     0.020 C 
HETATM   20  C29 UNL     1      -7.737   7.758  15.385  1.00  0.00     0.020 C 
HETATM   21  C30 UNL     1      -9.215   7.384  15.380  1.00  0.00     0.060 C 
ENDROOT
BRANCH   1  22
HETATM   22  O4  UNL     1     -11.675   7.392  14.337  1.00  0.00    -0.271 OA
BRANCH  22  23
HETATM   23  C9  UNL     1     -12.969   7.284  13.756  1.00  0.00     0.303 C 
BRANCH  23  24
HETATM   24  C8  UNL     1     -13.893   6.666  14.793  1.00  0.00     0.244 C 
HETATM   25  N3  UNL     1     -14.583   5.569  14.335  1.00  0.00    -0.345 N 
HETATM   26  H10 UNL     1     -14.509   5.336  13.348  1.00  0.00     0.163 HD
HETATM   27  O3  UNL     1     -13.992   7.096  15.942  1.00  0.00    -0.271 OA
BRANCH  25  28
HETATM   28  C3  UNL     1     -15.503   4.766  15.152  1.00  0.00     0.190 C 
BRANCH  28  29
HETATM   29  C2  UNL     1     -15.548   3.312  14.650  1.00  0.00     0.281 C 
HETATM   30  O2  UNL     1     -14.706   2.463  14.923  1.00  0.00    -0.263 OA
BRANCH  29  31
HETATM   31  O1  UNL     1     -16.662   3.078  13.894  1.00  0.00    -0.325 OA
HETATM   32  C1  UNL     1     -17.090   1.714  13.890  1.00  0.00     0.213 C 
ENDBRANCH  29  31
ENDBRANCH  28  29
BRANCH  28  33
HETATM   33  C4  UNL     1     -16.934   5.339  15.136  1.00  0.00     0.093 C 
BRANCH  33  34
HETATM   34  C5  UNL     1     -17.138   6.389  14.095  1.00  0.00     0.028 A 
HETATM   35  C6  UNL     1     -17.249   7.761  14.186  1.00  0.00     0.114 A 
HETATM   36  N1  UNL     1     -17.442   8.319  12.951  1.00  0.00    -0.360 N 
HETATM   37  C7  UNL     1     -17.439   7.311  12.109  1.00  0.00     0.180 A 
ATOM     38  H1  UNL     1     -17.561   9.308  12.731  1.00  0.00     0.166 HD
HETATM   39  N2  UNL     1     -17.259   6.121  12.754  1.00  0.00    -0.354 N 
HETATM   40  H9  UNL     1     -17.179   5.208  12.310  1.00  0.00     0.166 HD
ENDBRANCH  33  34
ENDBRANCH  28  33
ENDBRANCH  25  28
ENDBRANCH  23  24
ENDBRANCH  22  23
ENDBRANCH   1  22
BRANCH  10  41
HETATM   41  O5  UNL     1      -5.445   9.478  14.614  1.00  0.00    -0.395 OA
HETATM   42  H21 UNL     1      -4.747   9.670  15.259  1.00  0.00     0.210 HD
ENDBRANCH  10  41
BRANCH  17  43
HETATM   43  O6  UNL     1      -1.471   8.481  11.888  1.00  0.00    -0.381 OA
HETATM   44  H32 UNL     1      -0.767   9.166  11.937  1.00  0.00     0.211 HD
ENDBRANCH  17  43
BRANCH  17  45
HETATM   45  C25 UNL     1       0.069   7.986  13.627  1.00  0.00     0.184 C 
HETATM   46  O7  UNL     1       0.667   8.997  13.228  1.00  0.00    -0.292 OA
BRANCH  45  47
HETATM   47  C26 UNL     1       0.717   7.089  14.672  1.00  0.00     0.245 C 
BRANCH  47  48
HETATM   48  O8  UNL     1       1.684   6.228  14.089  1.00  0.00    -0.393 OA
HETATM   49  H35 UNL     1       1.508   6.215  13.124  1.00  0.00     0.209 HD
ENDBRANCH  47  48
ENDBRANCH  45  47
ENDBRANCH  17  45
TORSDOF 13
ENDMDL
MODEL 4
REMARK minimizedAffinity -7.37086439
REMARK CNNscore 0.33747384
REMARK CNNaffinity 6.50454092
REMARK  13 active torsions:
REMARK  status: ('A' for Active; 'I' for Inactive)
REMARK    1  A    between atoms: O1_2  and  C2_3 
REMARK    2  A    between atoms: C2_3  and  C3_5 
REMARK    3  A    between atoms: C3_5  and  C4_6 
REMARK    4  A    between atoms: C3_5  and  N3_13 
REMARK    5  A    between atoms: C4_6  and  C5_7 
REMARK       I    between atoms: N3_13  and  C8_14 
REMARK    6  A    between atoms: C8_14  and  C9_16 
REMARK    7  A    between atoms: C9_16  and  O4_17 
REMARK    8  A    between atoms: O4_17  and  N4_18 
REMARK    9  A    between atoms: C17_27  and  O5_28 
REMARK   10  A    between atoms: C24_35  and  O6_36 
REMARK   11  A    between atoms: C24_35  and  C25_37 
REMARK   12  A    between atoms: C25_37  and  C26_39 
REMARK   13  A    between atoms: C26_39  and  O8_40 
ROOT
HETATM    1  N4  UNL     1       4.564   7.344  12.384  1.00  0.00    -0.271 N 
ATOM      2  H4  UNL     1       5.017   6.502  12.738  1.00  0.00     0.194 HD
HETATM    3  C10 UNL     1       3.289   7.440  12.135  1.00  0.00     0.032 C 
HETATM    4  C11 UNL     1       2.461   6.220  12.327  1.00  0.00     0.030 C 
HETATM    5  C12 UNL     1       1.148   6.194  12.037  1.00  0.00    -0.069 C 
HETATM    6  C13 UNL     1       0.416   4.874  12.049  1.00  0.00     0.035 C 
HETATM    7  C14 UNL     1      -0.976   4.941  12.678  1.00  0.00     0.010 C 
HETATM    8  C15 UNL     1      -1.813   6.078  12.057  1.00  0.00    -0.002 C 
HETATM    9  C16 UNL     1      -1.091   7.436  12.262  1.00  0.00     0.031 C 
HETATM   10  C17 UNL     1      -1.110   7.816  13.768  1.00  0.00     0.124 C 
HETATM   11  C18 UNL     1      -2.303   7.277  14.576  1.00  0.00     0.045 C 
HETATM   12  C19 UNL     1      -3.607   7.004  13.776  1.00  0.00     0.001 C 
HETATM   13  C20 UNL     1      -4.239   8.367  13.414  1.00  0.00     0.019 C 
HETATM   14  C21 UNL     1      -3.307   6.179  12.483  1.00  0.00     0.002 C 
HETATM   15  C22 UNL     1      -4.015   4.824  12.641  1.00  0.00     0.009 C 
HETATM   16  C23 UNL     1      -4.306   4.687  14.124  1.00  0.00     0.047 C 
HETATM   17  C24 UNL     1      -4.603   6.109  14.599  1.00  0.00     0.128 C 
HETATM   18  C27 UNL     1       0.359   7.432  11.610  1.00  0.00    -0.014 C 
HETATM   19  C28 UNL     1       0.219   7.402  10.064  1.00  0.00     0.020 C 
HETATM   20  C29 UNL     1       1.149   8.716  11.993  1.00  0.00     0.020 C 
HETATM   21  C30 UNL     1       2.617   8.683  11.586  1.00  0.00     0.060 C 
ENDROOT
BRANCH   1  22
HETATM   22  O4  UNL     1       5.234   8.543  12.105  1.00  0.00    -0.271 OA
BRANCH  22  23
HETATM   23  C9  UNL     1       6.638   8.309  12.139  1.00  0.00     0.303 C 
BRANCH  23  24
HETATM   24  C8  UNL     1       7.238   9.235  13.185  1.00  0.00     0.244 C 
HETATM   25  N3  UNL     1       8.607   9.154  13.274  1.00  0.00    -0.345 N 
HETATM   26  H10 UNL     1       9.079   8.431  12.737  1.00  0.00     0.163 HD
HETATM   27  O3  UNL     1       6.559  10.002  13.867  1.00  0.00    -0.271 OA
BRANCH  25  28
HETATM   28  C3  UNL     1       9.430   9.974  14.173  1.00  0.00     0.190 C 
BRANCH  28  29
HETATM   29  C2  UNL     1      10.758  10.357  13.496  1.00  0.00     0.281 C 
HETATM   30  O2  UNL     1      10.925  10.403  12.282  1.00  0.00    -0.263 OA
BRANCH  29  31
HETATM   31  O1  UNL     1      11.716  10.673  14.418  1.00  0.00    -0.325 OA
HETATM   32  C1  UNL     1      13.052  10.390  13.994  1.00  0.00     0.213 C 
ENDBRANCH  29  31
ENDBRANCH  28  29
BRANCH  28  33
HETATM   33  C4  UNL     1       9.741   9.243  15.495  1.00  0.00     0.093 C 
BRANCH  33  34
HETATM   34  C5  UNL     1       9.035   9.828  16.672  1.00  0.00     0.028 A 
HETATM   35  C6  UNL     1       9.476  10.153  17.938  1.00  0.00     0.114 A 
HETATM   36  N1  UNL     1       8.456  10.661  18.697  1.00  0.00    -0.360 N 
HETATM   37  C7  UNL     1       7.404  10.660  17.910  1.00  0.00     0.180 A 
ATOM     38  H1  UNL     1       8.503  10.973  19.666  1.00  0.00     0.166 HD
HETATM   39  N2  UNL     1       7.704  10.165  16.674  1.00  0.00    -0.354 N 
HETATM   40  H9  UNL     1       7.064  10.105  15.884  1.00  0.00     0.166 HD
ENDBRANCH  33  34
ENDBRANCH  28  33
ENDBRANCH  25  28
ENDBRANCH  23  24
ENDBRANCH  22  23
ENDBRANCH   1  22
BRANCH  10  41
HETATM   41  O5  UNL     1      -1.047   9.236  13.921  1.00  0.00    -0.395 OA
HETATM   42  H21 UNL     1      -1.877   9.631  13.612  1.00  0.00     0.210 HD
ENDBRANCH  10  41
BRANCH  17  43
HETATM   43  O6  UNL     1      -4.276   6.159  16.000  1.00  0.00    -0.381 OA
HETATM   44  H32 UNL     1      -5.022   6.608  16.458  1.00  0.00     0.211 HD
ENDBRANCH  17  43
BRANCH  17  45
HETATM   45  C25 UNL     1      -6.108   6.474  14.522  1.00  0.00     0.184 C 
HETATM   46  O7  UNL     1      -6.719   6.341  13.450  1.00  0.00    -0.292 OA
BRANCH  45  47
HETATM   47  C26 UNL     1      -6.835   7.015  15.744  1.00  0.00     0.245 C 
BRANCH  47  48
HETATM   48  O8  UNL     1      -6.164   8.141  16.290  1.00  0.00    -0.393 OA
HETATM   49  H35 UNL     1      -5.252   8.132  15.929  1.00  0.00     0.209 HD
ENDBRANCH  47  48
ENDBRANCH  45  47
ENDBRANCH  17  45
TORSDOF 13
ENDMDL
MODEL 5
REMARK minimizedAffinity -8.53103256
REMARK CNNscore 0.288441002
REMARK CNNaffinity 6.96181297
REMARK  13 active torsions:
REMARK  status: ('A' for Active; 'I' for Inactive)
REMARK    1  A    between atoms: O1_2  and  C2_3 
REMARK    2  A    between atoms: C2_3  and  C3_5 
REMARK    3  A    between atoms: C3_5  and  C4_6 
REMARK    4  A    between atoms: C3_5  and  N3_13 
REMARK    5  A    between atoms: C4_6  and  C5_7 
REMARK       I    between atoms: N3_13  and  C8_14 
REMARK    6  A    between atoms: C8_14  and  C9_16 
REMARK    7  A    between atoms: C9_16  and  O4_17 
REMARK    8  A    between atoms: O4_17  and  N4_18 
REMARK    9  A    between atoms: C17_27  and  O5_28 
REMARK   10  A    between atoms: C24_35  and  O6_36 
REMARK   11  A    between atoms: C24_35  and  C25_37 
REMARK   12  A    between atoms: C25_37  and  C26_39 
REMARK   13  A    between atoms: C26_39  and  O8_40 
ROOT
HETATM    1  N4  UNL     1      -3.313   5.679  12.831  1.00  0.00    -0.271 N 
ATOM      2  H4  UNL     1      -2.787   6.520  12.593  1.00  0.00     0.194 HD
HETATM    3  C10 UNL     1      -4.490   5.685  13.390  1.00  0.00     0.032 C 
HETATM    4  C11 UNL     1      -5.067   7.006  13.754  1.00  0.00     0.030 C 
HETATM    5  C12 UNL     1      -6.245   7.120  14.393  1.00  0.00    -0.069 C 
HETATM    6  C13 UNL     1      -6.669   8.469  14.922  1.00  0.00     0.035 C 
HETATM    7  C14 UNL     1      -8.150   8.782  14.708  1.00  0.00     0.010 C 
HETATM    8  C15 UNL     1      -9.042   7.635  15.225  1.00  0.00    -0.002 C 
HETATM    9  C16 UNL     1      -8.684   6.317  14.487  1.00  0.00     0.031 C 
HETATM   10  C17 UNL     1      -9.123   6.414  13.000  1.00  0.00     0.124 C 
HETATM   11  C18 UNL     1     -10.330   7.326  12.721  1.00  0.00     0.045 C 
HETATM   12  C19 UNL     1     -11.332   7.518  13.892  1.00  0.00     0.001 C 
HETATM   13  C20 UNL     1     -12.134   6.208  14.055  1.00  0.00     0.019 C 
HETATM   14  C21 UNL     1     -10.581   7.868  15.219  1.00  0.00     0.002 C 
HETATM   15  C22 UNL     1     -11.009   9.290  15.614  1.00  0.00     0.009 C 
HETATM   16  C23 UNL     1     -11.594   9.905  14.356  1.00  0.00     0.047 C 
HETATM   17  C24 UNL     1     -12.280   8.745  13.635  1.00  0.00     0.128 C 
HETATM   18  C27 UNL     1      -7.156   5.929  14.690  1.00  0.00    -0.014 C 
HETATM   19  C28 UNL     1      -6.931   5.511  16.169  1.00  0.00     0.020 C 
HETATM   20  C29 UNL     1      -6.759   4.726  13.789  1.00  0.00     0.020 C 
HETATM   21  C30 UNL     1      -5.262   4.437  13.767  1.00  0.00     0.060 C 
ENDROOT
BRANCH   1  22
HETATM   22  O4  UNL     1      -2.861   4.373  12.597  1.00  0.00    -0.271 OA
BRANCH  22  23
HETATM   23  C9  UNL     1      -2.060   4.362  11.421  1.00  0.00     0.303 C 
BRANCH  23  24
HETATM   24  C8  UNL     1      -0.745   5.051  11.749  1.00  0.00     0.244 C 
HETATM   25  N3  UNL     1      -0.159   5.668  10.668  1.00  0.00    -0.345 N 
HETATM   26  H10 UNL     1      -0.577   5.524   9.752  1.00  0.00     0.163 HD
HETATM   27  O3  UNL     1      -0.266   5.074  12.882  1.00  0.00    -0.271 OA
BRANCH  25  28
HETATM   28  C3  UNL     1       1.089   6.439  10.728  1.00  0.00     0.190 C 
BRANCH  28  29
HETATM   29  C2  UNL     1       1.074   7.579   9.696  1.00  0.00     0.281 C 
HETATM   30  O2  UNL     1       0.732   8.730   9.945  1.00  0.00    -0.263 OA
BRANCH  29  31
HETATM   31  O1  UNL     1       1.524   7.157   8.476  1.00  0.00    -0.325 OA
HETATM   32  C1  UNL     1       2.459   8.045   7.858  1.00  0.00     0.213 C 
ENDBRANCH  29  31
ENDBRANCH  28  29
BRANCH  28  33
HETATM   33  C4  UNL     1       2.325   5.553  10.468  1.00  0.00     0.093 C 
BRANCH  33  34
HETATM   34  C5  UNL     1       3.600   6.165  10.944  1.00  0.00     0.028 A 
HETATM   35  C6  UNL     1       3.852   7.158  11.869  1.00  0.00     0.114 A 
HETATM   36  N1  UNL     1       5.195   7.400  11.972  1.00  0.00    -0.360 N 
HETATM   37  C7  UNL     1       5.765   6.565  11.133  1.00  0.00     0.180 A 
ATOM     38  H1  UNL     1       5.656   8.084  12.572  1.00  0.00     0.166 HD
HETATM   39  N2  UNL     1       4.841   5.796  10.487  1.00  0.00    -0.354 N 
HETATM   40  H9  UNL     1       5.043   5.051   9.823  1.00  0.00     0.166 HD
ENDBRANCH  33  34
ENDBRANCH  28  33
ENDBRANCH  25  28
ENDBRANCH  23  24
ENDBRANCH  22  23
ENDBRANCH   1  22
BRANCH  10  41
HETATM   41  O5  UNL     1      -9.394   5.110  12.479  1.00  0.00    -0.395 OA
HETATM   42  H21 UNL     1     -10.195   4.756  12.893  1.00  0.00     0.210 HD
ENDBRANCH  10  41
BRANCH  17  43
HETATM   43  O6  UNL     1     -12.298   9.076  12.234  1.00  0.00    -0.381 OA
HETATM   44  H32 UNL     1     -13.205   8.890  11.902  1.00  0.00     0.211 HD
ENDBRANCH  17  43
BRANCH  17  45
HETATM   45  C25 UNL     1     -13.770   8.580  14.031  1.00  0.00     0.184 C 
HETATM   46  O7  UNL     1     -14.119   8.766  15.207  1.00  0.00    -0.292 OA
BRANCH  45  47
HETATM   47  C26 UNL     1     -14.804   8.169  12.992  1.00  0.00     0.245 C 
BRANCH  47  48
HETATM   48  O8  UNL     1     -14.994   9.185  12.019  1.00  0.00    -0.393 OA
HETATM   49  H35 UNL     1     -14.631  10.014  12.398  1.00  0.00     0.209 HD
ENDBRANCH  47  48
ENDBRANCH  45  47
ENDBRANCH  17  45
TORSDOF 13
ENDMDL
MODEL 6
REMARK minimizedAffinity -7.46712923
REMARK CNNscore 0.28181076
REMARK CNNaffinity 6.07407188
REMARK  13 active torsions:
REMARK  status: ('A' for Active; 'I' for Inactive)
REMARK    1  A    between atoms: O1_2  and  C2_3 
REMARK    2  A    between atoms: C2_3  and  C3_5 
REMARK    3  A    between atoms: C3_5  and  C4_6 
REMARK    4  A    between atoms: C3_5  and  N3_13 
REMARK    5  A    between atoms: C4_6  and  C5_7 
REMARK       I    between atoms: N3_13  and  C8_14 
REMARK    6  A    between atoms: C8_14  and  C9_16 
REMARK    7  A    between atoms: C9_16  and  O4_17 
REMARK    8  A    between atoms: O4_17  and  N4_18 
REMARK    9  A    between atoms: C17_27  and  O5_28 
REMARK   10  A    between atoms: C24_35  and  O6_36 
REMARK   11  A    between atoms: C24_35  and  C25_37 
REMARK   12  A    between atoms: C25_37  and  C26_39 
REMARK   13  A    between atoms: C26_39  and  O8_40 
ROOT
HETATM    1  N4  UNL     1       0.303  14.267  19.472  1.00  0.00    -0.271 N 
ATOM      2  H4  UNL     1       0.276  15.163  18.985  1.00  0.00     0.194 HD
HETATM    3  C10 UNL     1      -0.133  13.147  18.969  1.00  0.00     0.032 C 
HETATM    4  C11 UNL     1      -0.760  13.200  17.623  1.00  0.00     0.030 C 
HETATM    5  C12 UNL     1      -1.300  12.114  17.042  1.00  0.00    -0.069 C 
HETATM    6  C13 UNL     1      -2.108  12.278  15.777  1.00  0.00     0.035 C 
HETATM    7  C14 UNL     1      -1.847  11.197  14.728  1.00  0.00     0.010 C 
HETATM    8  C15 UNL     1      -1.980   9.786  15.338  1.00  0.00    -0.002 C 
HETATM    9  C16 UNL     1      -0.973   9.621  16.507  1.00  0.00     0.031 C 
HETATM   10  C17 UNL     1       0.476   9.589  15.949  1.00  0.00     0.124 C 
HETATM   11  C18 UNL     1       0.627   9.038  14.521  1.00  0.00     0.045 C 
HETATM   12  C19 UNL     1      -0.461   8.033  14.053  1.00  0.00     0.001 C 
HETATM   13  C20 UNL     1      -0.221   6.694  14.786  1.00  0.00     0.019 C 
HETATM   14  C21 UNL     1      -1.895   8.575  14.364  1.00  0.00     0.002 C 
HETATM   15  C22 UNL     1      -2.591   8.798  13.012  1.00  0.00     0.009 C 
HETATM   16  C23 UNL     1      -1.479   8.838  11.981  1.00  0.00     0.047 C 
HETATM   17  C24 UNL     1      -0.433   7.848  12.493  1.00  0.00     0.128 C 
HETATM   18  C27 UNL     1      -1.209  10.710  17.641  1.00  0.00    -0.014 C 
HETATM   19  C28 UNL     1      -2.551  10.409  18.362  1.00  0.00     0.020 C 
HETATM   20  C29 UNL     1      -0.076  10.666  18.706  1.00  0.00     0.020 C 
HETATM   21  C30 UNL     1      -0.117  11.819  19.701  1.00  0.00     0.060 C 
ENDROOT
BRANCH   1  22
HETATM   22  O4  UNL     1       0.813  14.087  20.765  1.00  0.00    -0.271 OA
BRANCH  22  23
HETATM   23  C9  UNL     1       2.230  14.215  20.728  1.00  0.00     0.303 C 
BRANCH  23  24
HETATM   24  C8  UNL     1       2.822  13.024  21.464  1.00  0.00     0.244 C 
HETATM   25  N3  UNL     1       3.786  12.355  20.747  1.00  0.00    -0.345 N 
HETATM   26  H10 UNL     1       3.939  12.630  19.780  1.00  0.00     0.163 HD
HETATM   27  O3  UNL     1       2.486  12.706  22.604  1.00  0.00    -0.271 OA
BRANCH  25  28
HETATM   28  C3  UNL     1       4.543  11.201  21.249  1.00  0.00     0.190 C 
BRANCH  28  29
HETATM   29  C2  UNL     1       3.637   9.962  21.358  1.00  0.00     0.281 C 
HETATM   30  O2  UNL     1       2.859   9.598  20.483  1.00  0.00    -0.263 OA
BRANCH  29  31
HETATM   31  O1  UNL     1       3.834   9.299  22.537  1.00  0.00    -0.325 OA
HETATM   32  C1  UNL     1       2.684   8.595  23.012  1.00  0.00     0.213 C 
ENDBRANCH  29  31
ENDBRANCH  28  29
BRANCH  28  33
HETATM   33  C4  UNL     1       5.167  11.480  22.632  1.00  0.00     0.093 C 
BRANCH  33  34
HETATM   34  C5  UNL     1       6.496  12.154  22.554  1.00  0.00     0.028 A 
HETATM   35  C6  UNL     1       6.970  13.157  21.734  1.00  0.00     0.114 A 
HETATM   36  N1  UNL     1       8.275  13.451  22.024  1.00  0.00    -0.360 N 
HETATM   37  C7  UNL     1       8.600  12.650  23.013  1.00  0.00     0.180 A 
ATOM     38  H1  UNL     1       8.868  14.143  21.568  1.00  0.00     0.166 HD
HETATM   39  N2  UNL     1       7.557  11.846  23.370  1.00  0.00    -0.354 N 
HETATM   40  H9  UNL     1       7.555  11.174  24.136  1.00  0.00     0.166 HD
ENDBRANCH  33  34
ENDBRANCH  28  33
ENDBRANCH  25  28
ENDBRANCH  23  24
ENDBRANCH  22  23
ENDBRANCH   1  22
BRANCH  10  41
HETATM   41  O5  UNL     1       1.328   8.847  16.826  1.00  0.00    -0.395 OA
HETATM   42  H21 UNL     1       1.087   7.909  16.793  1.00  0.00     0.210 HD
ENDBRANCH  10  41
BRANCH  17  43
HETATM   43  O6  UNL     1       0.837   8.270  11.964  1.00  0.00    -0.381 OA
HETATM   44  H32 UNL     1       1.284   7.471  11.606  1.00  0.00     0.211 HD
ENDBRANCH  17  43
BRANCH  17  45
HETATM   45  C25 UNL     1      -0.641   6.410  11.949  1.00  0.00     0.184 C 
HETATM   46  O7  UNL     1      -1.722   5.831  12.137  1.00  0.00    -0.292 OA
BRANCH  45  47
HETATM   47  C26 UNL     1       0.479   5.697  11.207  1.00  0.00     0.245 C 
BRANCH  47  48
HETATM   48  O8  UNL     1       1.667   5.646  11.984  1.00  0.00    -0.393 OA
HETATM   49  H35 UNL     1       1.573   6.321  12.690  1.00  0.00     0.209 HD
ENDBRANCH  47  48
ENDBRANCH  45  47
ENDBRANCH  17  45
TORSDOF 13
ENDMDL
MODEL 7
REMARK minimizedAffinity -8.60156631
REMARK CNNscore 0.265359253
REMARK CNNaffinity 6.52894592
REMARK  13 active torsions:
REMARK  status: ('A' for Active; 'I' for Inactive)
REMARK    1  A    between atoms: O1_2  and  C2_3 
REMARK    2  A    between atoms: C2_3  and  C3_5 
REMARK    3  A    between atoms: C3_5  and  C4_6 
REMARK    4  A    between atoms: C3_5  and  N3_13 
REMARK    5  A    between atoms: C4_6  and  C5_7 
REMARK       I    between atoms: N3_13  and  C8_14 
REMARK    6  A    between atoms: C8_14  and  C9_16 
REMARK    7  A    between atoms: C9_16  and  O4_17 
REMARK    8  A    between atoms: O4_17  and  N4_18 
REMARK    9  A    between atoms: C17_27  and  O5_28 
REMARK   10  A    between atoms: C24_35  and  O6_36 
REMARK   11  A    between atoms: C24_35  and  C25_37 
REMARK   12  A    between atoms: C25_37  and  C26_39 
REMARK   13  A    between atoms: C26_39  and  O8_40 
ROOT
HETATM    1  N4  UNL     1       2.231   6.881  13.927  1.00  0.00    -0.271 N 
ATOM      2  H4  UNL     1       2.556   5.915  13.865  1.00  0.00     0.194 HD
HETATM    3  C10 UNL     1       0.996   7.250  13.741  1.00  0.00     0.032 C 
HETATM    4  C11 UNL     1       0.017   6.199  13.358  1.00  0.00     0.030 C 
HETATM    5  C12 UNL     1      -1.267   6.484  13.080  1.00  0.00    -0.069 C 
HETATM    6  C13 UNL     1      -2.151   5.411  12.491  1.00  0.00     0.035 C 
HETATM    7  C14 UNL     1      -3.564   5.379  13.076  1.00  0.00     0.010 C 
HETATM    8  C15 UNL     1      -4.216   6.777  13.029  1.00  0.00    -0.002 C 
HETATM    9  C16 UNL     1      -3.352   7.788  13.828  1.00  0.00     0.031 C 
HETATM   10  C17 UNL     1      -3.425   7.455  15.344  1.00  0.00     0.124 C 
HETATM   11  C18 UNL     1      -4.725   6.782  15.815  1.00  0.00     0.045 C 
HETATM   12  C19 UNL     1      -5.996   7.075  14.972  1.00  0.00     0.001 C 
HETATM   13  C20 UNL     1      -6.435   8.528  15.258  1.00  0.00     0.019 C 
HETATM   14  C21 UNL     1      -5.712   6.881  13.446  1.00  0.00     0.002 C 
HETATM   15  C22 UNL     1      -6.586   5.708  12.974  1.00  0.00     0.009 C 
HETATM   16  C23 UNL     1      -6.989   4.965  14.234  1.00  0.00     0.047 C 
HETATM   17  C24 UNL     1      -7.144   6.052  15.298  1.00  0.00     0.128 C 
HETATM   18  C27 UNL     1      -1.873   7.878  13.252  1.00  0.00    -0.014 C 
HETATM   19  C28 UNL     1      -1.912   8.560  11.857  1.00  0.00     0.020 C 
HETATM   20  C29 UNL     1      -0.962   8.735  14.177  1.00  0.00     0.020 C 
HETATM   21  C30 UNL     1       0.515   8.686  13.807  1.00  0.00     0.060 C 
ENDROOT
BRANCH   1  22
HETATM   22  O4  UNL     1       3.057   7.974  14.221  1.00  0.00    -0.271 OA
BRANCH  22  23
HETATM   23  C9  UNL     1       3.906   7.634  15.311  1.00  0.00     0.303 C 
BRANCH  23  24
HETATM   24  C8  UNL     1       5.146   8.510  15.224  1.00  0.00     0.244 C 
HETATM   25  N3  UNL     1       6.291   7.818  14.908  1.00  0.00    -0.345 N 
HETATM   26  H10 UNL     1       6.241   6.803  14.870  1.00  0.00     0.163 HD
HETATM   27  O3  UNL     1       5.117   9.728  15.397  1.00  0.00    -0.271 OA
BRANCH  25  28
HETATM   28  C3  UNL     1       7.609   8.437  14.720  1.00  0.00     0.190 C 
BRANCH  28  29
HETATM   29  C2  UNL     1       8.246   7.970  13.400  1.00  0.00     0.281 C 
HETATM   30  O2  UNL     1       9.374   7.498  13.307  1.00  0.00    -0.263 OA
BRANCH  29  31
HETATM   31  O1  UNL     1       7.383   8.114  12.349  1.00  0.00    -0.325 OA
HETATM   32  C1  UNL     1       7.136   6.907  11.625  1.00  0.00     0.213 C 
ENDBRANCH  29  31
ENDBRANCH  28  29
BRANCH  28  33
HETATM   33  C4  UNL     1       8.571   8.102  15.878  1.00  0.00     0.093 C 
BRANCH  33  34
HETATM   34  C5  UNL     1       9.238   9.305  16.457  1.00  0.00     0.028 A 
HETATM   35  C6  UNL     1      10.026  10.283  15.885  1.00  0.00     0.114 A 
HETATM   36  N1  UNL     1      10.429  11.197  16.821  1.00  0.00    -0.360 N 
HETATM   37  C7  UNL     1       9.891  10.798  17.951  1.00  0.00     0.180 A 
ATOM     38  H1  UNL     1      11.020  12.014  16.672  1.00  0.00     0.166 HD
HETATM   39  N2  UNL     1       9.161   9.657  17.782  1.00  0.00    -0.354 N 
HETATM   40  H9  UNL     1       8.619   9.183  18.503  1.00  0.00     0.166 HD
ENDBRANCH  33  34
ENDBRANCH  28  33
ENDBRANCH  25  28
ENDBRANCH  23  24
ENDBRANCH  22  23
ENDBRANCH   1  22
BRANCH  10  41
HETATM   41  O5  UNL     1      -3.204   8.635  16.120  1.00  0.00    -0.395 OA
HETATM   42  H21 UNL     1      -3.958   9.236  16.018  1.00  0.00     0.210 HD
ENDBRANCH  10  41
BRANCH  17  43
HETATM   43  O6  UNL     1      -6.908   5.427  16.572  1.00  0.00    -0.381 OA
HETATM   44  H32 UNL     1      -7.623   5.721  17.179  1.00  0.00     0.211 HD
ENDBRANCH  17  43
BRANCH  17  45
HETATM   45  C25 UNL     1      -8.587   6.615  15.384  1.00  0.00     0.184 C 
HETATM   46  O7  UNL     1      -9.029   7.011  16.474  1.00  0.00    -0.292 OA
BRANCH  45  47
HETATM   47  C26 UNL     1      -9.472   6.663  14.147  1.00  0.00     0.245 C 
BRANCH  47  48
HETATM   48  O8  UNL     1     -10.825   6.375  14.467  1.00  0.00    -0.393 OA
HETATM   49  H35 UNL     1     -10.824   5.941  15.346  1.00  0.00     0.209 HD
ENDBRANCH  47  48
ENDBRANCH  45  47
ENDBRANCH  17  45
TORSDOF 13
ENDMDL
MODEL 8
REMARK minimizedAffinity -7.81035566
REMARK CNNscore 0.242827669
REMARK CNNaffinity 6.47719193
REMARK  13 active torsions:
REMARK  status: ('A' for Active; 'I' for Inactive)
REMARK    1  A    between atoms: O1_2  and  C2_3 
REMARK    2  A    between atoms: C2_3  and  C3_5 
REMARK    3  A    between atoms: C3_5  and  C4_6 
REMARK    4  A    between atoms: C3_5  and  N3_13 
REMARK    5  A    between atoms: C4_6  and  C5_7 
REMARK       I    between atoms: N3_13  and  C8_14 
REMARK    6  A    between atoms: C8_14  and  C9_16 
REMARK    7  A    between atoms: C9_16  and  O4_17 
REMARK    8  A    between atoms: O4_17  and  N4_18 
REMARK    9  A    between atoms: C17_27  and  O5_28 
REMARK   10  A    between atoms: C24_35  and  O6_36 
REMARK   11  A    between atoms: C24_35  and  C25_37 
REMARK   12  A    between atoms: C25_37  and  C26_39 
REMARK   13  A    between atoms: C26_39  and  O8_40 
ROOT
HETATM    1  N4  UNL     1       2.286   6.889  14.136  1.00  0.00    -0.271 N 
ATOM      2  H4  UNL     1       2.607   5.923  14.078  1.00  0.00     0.194 HD
HETATM    3  C10 UNL     1       1.058   7.267  13.921  1.00  0.00     0.032 C 
HETATM    4  C11 UNL     1       0.084   6.223  13.507  1.00  0.00     0.030 C 
HETATM    5  C12 UNL     1      -1.192   6.517  13.199  1.00  0.00    -0.069 C 
HETATM    6  C13 UNL     1      -2.066   5.452  12.582  1.00  0.00     0.035 C 
HETATM    7  C14 UNL     1      -3.493   5.425  13.130  1.00  0.00     0.010 C 
HETATM    8  C15 UNL     1      -4.136   6.826  13.074  1.00  0.00    -0.002 C 
HETATM    9  C16 UNL     1      -3.287   7.829  13.900  1.00  0.00     0.031 C 
HETATM   10  C17 UNL     1      -3.401   7.488  15.412  1.00  0.00     0.124 C 
HETATM   11  C18 UNL     1      -4.716   6.820  15.847  1.00  0.00     0.045 C 
HETATM   12  C19 UNL     1      -5.964   7.124  14.973  1.00  0.00     0.001 C 
HETATM   13  C20 UNL     1      -6.402   8.579  15.256  1.00  0.00     0.019 C 
HETATM   14  C21 UNL     1      -5.642   6.937  13.454  1.00  0.00     0.002 C 
HETATM   15  C22 UNL     1      -6.509   5.771  12.953  1.00  0.00     0.009 C 
HETATM   16  C23 UNL     1      -6.949   5.024  14.199  1.00  0.00     0.047 C 
HETATM   17  C24 UNL     1      -7.125   6.106  15.264  1.00  0.00     0.128 C 
HETATM   18  C27 UNL     1      -1.794   7.913  13.363  1.00  0.00    -0.014 C 
HETATM   19  C28 UNL     1      -1.793   8.602  11.971  1.00  0.00     0.020 C 
HETATM   20  C29 UNL     1      -0.902   8.760  14.315  1.00  0.00     0.020 C 
HETATM   21  C30 UNL     1       0.584   8.705  13.982  1.00  0.00     0.060 C 
ENDROOT
BRANCH   1  22
HETATM   22  O4  UNL     1       3.110   7.976  14.457  1.00  0.00    -0.271 OA
BRANCH  22  23
HETATM   23  C9  UNL     1       4.118   7.543  15.365  1.00  0.00     0.303 C 
BRANCH  23  24
HETATM   24  C8  UNL     1       5.431   8.178  14.937  1.00  0.00     0.244 C 
HETATM   25  N3  UNL     1       5.411   8.683  13.659  1.00  0.00    -0.345 N 
HETATM   26  H10 UNL     1       4.591   8.500  13.085  1.00  0.00     0.163 HD
HETATM   27  O3  UNL     1       6.411   8.252  15.678  1.00  0.00    -0.271 OA
BRANCH  25  28
HETATM   28  C3  UNL     1       6.535   9.384  13.025  1.00  0.00     0.190 C 
BRANCH  28  29
HETATM   29  C2  UNL     1       7.711   8.422  12.787  1.00  0.00     0.281 C 
HETATM   30  O2  UNL     1       7.608   7.326  12.246  1.00  0.00    -0.263 OA
BRANCH  29  31
HETATM   31  O1  UNL     1       8.892   8.957  13.221  1.00  0.00    -0.325 OA
HETATM   32  C1  UNL     1       9.682   8.066  14.013  1.00  0.00     0.213 C 
ENDBRANCH  29  31
ENDBRANCH  28  29
BRANCH  28  33
HETATM   33  C4  UNL     1       7.030  10.568  13.881  1.00  0.00     0.093 C 
BRANCH  33  34
HETATM   34  C5  UNL     1       6.718  11.899  13.282  1.00  0.00     0.028 A 
HETATM   35  C6  UNL     1       7.164  12.515  12.131  1.00  0.00     0.114 A 
HETATM   36  N1  UNL     1       6.605  13.757  11.993  1.00  0.00    -0.360 N 
HETATM   37  C7  UNL     1       5.818  13.903  13.034  1.00  0.00     0.180 A 
ATOM     38  H1  UNL     1       6.765  14.426  11.240  1.00  0.00     0.166 HD
HETATM   39  N2  UNL     1       5.853  12.805  13.845  1.00  0.00    -0.354 N 
HETATM   40  H9  UNL     1       5.298  12.667  14.687  1.00  0.00     0.166 HD
ENDBRANCH  33  34
ENDBRANCH  28  33
ENDBRANCH  25  28
ENDBRANCH  23  24
ENDBRANCH  22  23
ENDBRANCH   1  22
BRANCH  10  41
HETATM   41  O5  UNL     1      -3.193   8.663  16.200  1.00  0.00    -0.395 OA
HETATM   42  H21 UNL     1      -3.941   9.268  16.082  1.00  0.00     0.210 HD
ENDBRANCH  10  41
BRANCH  17  43
HETATM   43  O6  UNL     1      -6.925   5.473  16.541  1.00  0.00    -0.381 OA
HETATM   44  H32 UNL     1      -7.654   5.769  17.130  1.00  0.00     0.211 HD
ENDBRANCH  17  43
BRANCH  17  45
HETATM   45  C25 UNL     1      -8.566   6.677  15.317  1.00  0.00     0.184 C 
HETATM   46  O7  UNL     1      -9.294   6.606  14.314  1.00  0.00    -0.292 OA
BRANCH  45  47
HETATM   47  C26 UNL     1      -9.086   7.344  16.581  1.00  0.00     0.245 C 
BRANCH  47  48
HETATM   48  O8  UNL     1     -10.284   8.065  16.333  1.00  0.00    -0.393 OA
HETATM   49  H35 UNL     1     -10.341   8.197  15.363  1.00  0.00     0.209 HD
ENDBRANCH  47  48
ENDBRANCH  45  47
ENDBRANCH  17  45
TORSDOF 13
ENDMDL
MODEL 9
REMARK minimizedAffinity -8.8958807
REMARK CNNscore 0.232998401
REMARK CNNaffinity 6.77079201
REMARK  13 active torsions:
REMARK  status: ('A' for Active; 'I' for Inactive)
REMARK    1  A    between atoms: O1_2  and  C2_3 
REMARK    2  A    between atoms: C2_3  and  C3_5 
REMARK    3  A    between atoms: C3_5  and  C4_6 
REMARK    4  A    between atoms: C3_5  and  N3_13 
REMARK    5  A    between atoms: C4_6  and  C5_7 
REMARK       I    between atoms: N3_13  and  C8_14 
REMARK    6  A    between atoms: C8_14  and  C9_16 
REMARK    7  A    between atoms: C9_16  and  O4_17 
REMARK    8  A    between atoms: O4_17  and  N4_18 
REMARK    9  A    between atoms: C17_27  and  O5_28 
REMARK   10  A    between atoms: C24_35  and  O6_36 
REMARK   11  A    between atoms: C24_35  and  C25_37 
REMARK   12  A    between atoms: C25_37  and  C26_39 
REMARK   13  A    between atoms: C26_39  and  O8_40 
ROOT
HETATM    1  N4  UNL     1     -10.640   6.785  13.190  1.00  0.00    -0.271 N 
ATOM      2  H4  UNL     1     -10.779   6.353  12.277  1.00  0.00     0.194 HD
HETATM    3  C10 UNL     1      -9.509   6.782  13.837  1.00  0.00     0.032 C 
HETATM    4  C11 UNL     1      -8.371   6.049  13.223  1.00  0.00     0.030 C 
HETATM    5  C12 UNL     1      -7.182   5.930  13.839  1.00  0.00    -0.069 C 
HETATM    6  C13 UNL     1      -6.144   4.995  13.264  1.00  0.00     0.035 C 
HETATM    7  C14 UNL     1      -4.721   5.555  13.292  1.00  0.00     0.010 C 
HETATM    8  C15 UNL     1      -4.349   6.060  14.702  1.00  0.00    -0.002 C 
HETATM    9  C16 UNL     1      -5.344   7.165  15.144  1.00  0.00     0.031 C 
HETATM   10  C17 UNL     1      -5.127   8.440  14.283  1.00  0.00     0.124 C 
HETATM   11  C18 UNL     1      -3.699   8.647  13.750  1.00  0.00     0.045 C 
HETATM   12  C19 UNL     1      -2.554   8.008  14.585  1.00  0.00     0.001 C 
HETATM   13  C20 UNL     1      -2.384   8.838  15.876  1.00  0.00     0.019 C 
HETATM   14  C21 UNL     1      -2.880   6.519  14.931  1.00  0.00     0.002 C 
HETATM   15  C22 UNL     1      -1.827   5.654  14.221  1.00  0.00     0.009 C 
HETATM   16  C23 UNL     1      -1.221   6.543  13.150  1.00  0.00     0.047 C 
HETATM   17  C24 UNL     1      -1.217   7.944  13.761  1.00  0.00     0.128 C 
HETATM   18  C27 UNL     1      -6.843   6.635  15.153  1.00  0.00    -0.014 C 
HETATM   19  C28 UNL     1      -7.010   5.608  16.305  1.00  0.00     0.020 C 
HETATM   20  C29 UNL     1      -7.847   7.796  15.399  1.00  0.00     0.020 C 
HETATM   21  C30 UNL     1      -9.307   7.403  15.206  1.00  0.00     0.060 C 
ENDROOT
BRANCH   1  22
HETATM   22  O4  UNL     1     -11.641   7.457  13.905  1.00  0.00    -0.271 OA
BRANCH  22  23
HETATM   23  C9  UNL     1     -12.552   6.502  14.436  1.00  0.00     0.303 C 
BRANCH  23  24
HETATM   24  C8  UNL     1     -13.960   6.962  14.092  1.00  0.00     0.244 C 
HETATM   25  N3  UNL     1     -14.291   6.787  12.770  1.00  0.00    -0.345 N 
HETATM   26  H10 UNL     1     -13.562   6.481  12.131  1.00  0.00     0.163 HD
HETATM   27  O3  UNL     1     -14.735   7.425  14.929  1.00  0.00    -0.271 OA
BRANCH  25  28
HETATM   28  C3  UNL     1     -15.603   7.109  12.193  1.00  0.00     0.190 C 
BRANCH  28  29
HETATM   29  C2  UNL     1     -15.684   8.599  11.822  1.00  0.00     0.281 C 
HETATM   30  O2  UNL     1     -15.157   9.500  12.467  1.00  0.00    -0.263 OA
BRANCH  29  31
HETATM   31  O1  UNL     1     -16.385   8.790  10.665  1.00  0.00    -0.325 OA
HETATM   32  C1  UNL     1     -17.578   9.562  10.824  1.00  0.00     0.213 C 
ENDBRANCH  29  31
ENDBRANCH  28  29
BRANCH  28  33
HETATM   33  C4  UNL     1     -16.755   6.778  13.164  1.00  0.00     0.093 C 
BRANCH  33  34
HETATM   34  C5  UNL     1     -17.056   5.319  13.247  1.00  0.00     0.028 A 
HETATM   35  C6  UNL     1     -17.900   4.513  12.511  1.00  0.00     0.114 A 
HETATM   36  N1  UNL     1     -17.857   3.221  12.960  1.00  0.00    -0.360 N 
HETATM   37  C7  UNL     1     -16.993   3.224  13.949  1.00  0.00     0.180 A 
ATOM     38  H1  UNL     1     -18.384   2.424  12.601  1.00  0.00     0.166 HD
HETATM   39  N2  UNL     1     -16.481   4.472  14.162  1.00  0.00    -0.354 N 
HETATM   40  H9  UNL     1     -15.765   4.714  14.844  1.00  0.00     0.166 HD
ENDBRANCH  33  34
ENDBRANCH  28  33
ENDBRANCH  25  28
ENDBRANCH  23  24
ENDBRANCH  22  23
ENDBRANCH   1  22
BRANCH  10  41
HETATM   41  O5  UNL     1      -5.525   9.604  15.013  1.00  0.00    -0.395 OA
HETATM   42  H21 UNL     1      -4.905   9.756  15.742  1.00  0.00     0.210 HD
ENDBRANCH  10  41
BRANCH  17  43
HETATM   43  O6  UNL     1      -1.260   8.878  12.667  1.00  0.00    -0.381 OA
HETATM   44  H32 UNL     1      -0.582   9.567  12.844  1.00  0.00     0.211 HD
ENDBRANCH  17  43
BRANCH  17  45
HETATM   45  C25 UNL     1       0.095   8.272  14.521  1.00  0.00     0.184 C 
HETATM   46  O7  UNL     1       1.086   8.675  13.892  1.00  0.00    -0.292 OA
BRANCH  45  47
HETATM   47  C26 UNL     1       0.183   8.079  16.027  1.00  0.00     0.245 C 
BRANCH  47  48
HETATM   48  O8  UNL     1       0.570   6.753  16.359  1.00  0.00    -0.393 OA
HETATM   49  H35 UNL     1       0.416   6.204  15.561  1.00  0.00     0.209 HD
ENDBRANCH  47  48
ENDBRANCH  45  47
ENDBRANCH  17  45
TORSDOF 13
ENDMDL
