MODEL 1
REMARK minimizedAffinity -7.36374426
REMARK CNNscore 0.238808393
REMARK CNNaffinity 5.80796289
REMARK  10 active torsions:
REMARK  status: ('A' for Active; 'I' for Inactive)
REMARK    1  A    between atoms: O1_2  and  C2_3 
REMARK    2  A    between atoms: C11_15  and  O3_16 
REMARK    3  A    between atoms: O3_16  and  C12_17 
REMARK    4  A    between atoms: C12_17  and  C13_19 
REMARK    5  A    between atoms: C13_19  and  C14_20 
REMARK    6  A    between atoms: C24_31  and  O6_32 
REMARK    7  A    between atoms: C25_35  and  O7_36 
REMARK    8  A    between atoms: C26_38  and  O9_39 
REMARK    9  A    between atoms: C31_44  and  C32_45 
REMARK   10  A    between atoms: C32_45  and  O10_46 
ROOT
HETATM    1  C2  UNL     1     -16.983  46.572 -20.310  1.00  0.00     0.092 A 
HETATM    2  C3  UNL     1     -15.675  46.968 -20.009  1.00  0.00     0.046 A 
HETATM    3  C4  UNL     1     -14.660  46.897 -20.975  1.00  0.00    -0.049 A 
HETATM    4  C5  UNL     1     -14.965  46.411 -22.256  1.00  0.00     0.039 A 
HETATM    5  C6  UNL     1     -16.260  45.981 -22.577  1.00  0.00     0.061 A 
HETATM    6  C7  UNL     1     -17.274  46.080 -21.599  1.00  0.00     0.094 A 
HETATM    7 CL1  UNL     1     -18.931  45.708 -21.998  1.00  0.00    -0.079 Cl
HETATM    8  N1  UNL     1     -16.502  45.439 -23.885  1.00  0.00    -0.321 N 
HETATM    9  C8  UNL     1     -16.972  44.060 -23.929  1.00  0.00     0.159 C 
HETATM   10  C9  UNL     1     -16.168  46.194 -25.009  1.00  0.00     0.226 C 
HETATM   11  O2  UNL     1     -15.689  47.332 -24.920  1.00  0.00    -0.273 OA
HETATM   12  C10 UNL     1     -16.537  45.671 -26.396  1.00  0.00     0.139 C 
HETATM   13  C11 UNL     1     -15.559  44.773 -27.156  1.00  0.00     0.177 C 
HETATM   14  C17 UNL     1     -14.130  45.248 -27.406  1.00  0.00     0.111 A 
HETATM   15  C18 UNL     1     -13.320  44.338 -28.290  1.00  0.00     0.051 C 
HETATM   16  O5  UNL     1     -13.418  45.695 -26.249  1.00  0.00    -0.366 OA
HETATM   17  C19 UNL     1     -13.732  46.717 -27.203  1.00  0.00     0.165 A 
HETATM   18  C20 UNL     1     -12.589  47.448 -27.860  1.00  0.00     0.043 C 
HETATM   19  C21 UNL     1     -12.749  47.414 -29.388  1.00  0.00     0.015 C 
HETATM   20  C22 UNL     1     -11.147  47.102 -27.411  1.00  0.00     0.143 C 
HETATM   21  C23 UNL     1     -10.890  47.371 -25.929  1.00  0.00     0.097 C 
HETATM   22  C24 UNL     1      -9.385  47.268 -25.667  1.00  0.00     0.166 C 
HETATM   23  N2  UNL     1      -8.675  48.240 -26.500  1.00  0.00    -0.316 N 
ATOM     24  H2  UNL     1      -7.852  48.743 -26.167  1.00  0.00     0.166 HD
HETATM   25  C25 UNL     1      -9.153  48.417 -27.668  1.00  0.00     0.260 C 
HETATM   26  O8  UNL     1     -10.261  47.912 -28.222  1.00  0.00    -0.311 OA
HETATM   27  C26 UNL     1      -9.050  47.608 -24.163  1.00  0.00     0.199 C 
HETATM   28  C28 UNL     1      -9.674  46.664 -23.168  1.00  0.00     0.010 C 
HETATM   29  C29 UNL     1     -10.670  46.978 -22.324  1.00  0.00    -0.001 C 
HETATM   30  C30 UNL     1     -11.180  46.026 -21.360  1.00  0.00     0.005 C 
HETATM   31  C31 UNL     1     -12.273  46.152 -20.580  1.00  0.00    -0.052 C 
HETATM   32  C33 UNL     1     -13.246  47.318 -20.634  1.00  0.00     0.075 C 
ENDROOT
BRANCH  13  33
HETATM   33  O3  UNL     1     -15.506  43.451 -26.578  1.00  0.00    -0.312 OA
BRANCH  33  34
HETATM   34  C12 UNL     1     -16.269  42.494 -27.177  1.00  0.00     0.259 C 
HETATM   35  O4  UNL     1     -16.585  41.433 -26.662  1.00  0.00    -0.265 OA
BRANCH  34  36
HETATM   36  C13 UNL     1     -16.648  42.949 -28.570  1.00  0.00     0.115 C 
BRANCH  36  37
HETATM   37  C14 UNL     1     -18.126  42.698 -28.910  1.00  0.00    -0.013 C 
HETATM   38  C15 UNL     1     -18.446  43.085 -30.358  1.00  0.00     0.010 C 
HETATM   39  C16 UNL     1     -19.024  43.493 -27.959  1.00  0.00     0.010 C 
ENDBRANCH  36  37
ENDBRANCH  34  36
ENDBRANCH  33  34
ENDBRANCH  13  33
BRANCH   1  40
HETATM   40  O1  UNL     1     -18.026  46.625 -19.420  1.00  0.00    -0.354 OA
HETATM   41  C1  UNL     1     -18.915  47.731 -19.497  1.00  0.00     0.210 C 
ENDBRANCH   1  40
BRANCH  22  42
HETATM   42  O6  UNL     1      -8.945  45.932 -25.927  1.00  0.00    -0.368 OA
HETATM   43  H32 UNL     1      -8.012  45.947 -25.638  1.00  0.00     0.212 HD
ENDBRANCH  22  42
BRANCH  25  44
HETATM   44  O7  UNL     1      -8.521  49.237 -28.517  1.00  0.00    -0.327 OA
HETATM   45  H33 UNL     1      -7.722  49.546 -28.063  1.00  0.00     0.221 HD
ENDBRANCH  25  44
BRANCH  27  46
HETATM   46  O9  UNL     1      -7.622  47.454 -23.979  1.00  0.00    -0.382 OA
HETATM   47  C27 UNL     1      -7.082  48.451 -23.122  1.00  0.00     0.202 C 
ENDBRANCH  27  46
BRANCH  31  48
HETATM   48  C32 UNL     1     -12.646  45.093 -19.558  1.00  0.00     0.198 C 
BRANCH  48  49
HETATM   49  O10 UNL     1     -12.510  45.562 -18.223  1.00  0.00    -0.397 OA
HETATM   50  H43 UNL     1     -13.064  46.359 -18.150  1.00  0.00     0.209 HD
ENDBRANCH  48  49
ENDBRANCH  31  48
TORSDOF 10
ENDMDL
MODEL 2
REMARK minimizedAffinity -7.00772762
REMARK CNNscore 0.222985461
REMARK CNNaffinity 5.72437525
REMARK  10 active torsions:
REMARK  status: ('A' for Active; 'I' for Inactive)
REMARK    1  A    between atoms: O1_2  and  C2_3 
REMARK    2  A    between atoms: C11_15  and  O3_16 
REMARK    3  A    between atoms: O3_16  and  C12_17 
REMARK    4  A    between atoms: C12_17  and  C13_19 
REMARK    5  A    between atoms: C13_19  and  C14_20 
REMARK    6  A    between atoms: C24_31  and  O6_32 
REMARK    7  A    between atoms: C25_35  and  O7_36 
REMARK    8  A    between atoms: C26_38  and  O9_39 
REMARK    9  A    between atoms: C31_44  and  C32_45 
REMARK   10  A    between atoms: C32_45  and  O10_46 
ROOT
HETATM    1  C2  UNL     1     -16.650  46.642 -20.158  1.00  0.00     0.092 A 
HETATM    2  C3  UNL     1     -15.323  47.006 -19.903  1.00  0.00     0.046 A 
HETATM    3  C4  UNL     1     -14.349  46.932 -20.910  1.00  0.00    -0.049 A 
HETATM    4  C5  UNL     1     -14.714  46.475 -22.186  1.00  0.00     0.039 A 
HETATM    5  C6  UNL     1     -16.030  46.078 -22.462  1.00  0.00     0.061 A 
HETATM    6  C7  UNL     1     -17.002  46.180 -21.443  1.00  0.00     0.094 A 
HETATM    7 CL1  UNL     1     -18.681  45.849 -21.782  1.00  0.00    -0.079 Cl
HETATM    8  N1  UNL     1     -16.335  45.565 -23.768  1.00  0.00    -0.321 N 
HETATM    9  C8  UNL     1     -16.835  44.196 -23.817  1.00  0.00     0.159 C 
HETATM   10  C9  UNL     1     -16.029  46.333 -24.892  1.00  0.00     0.226 C 
HETATM   11  O2  UNL     1     -15.524  47.459 -24.802  1.00  0.00    -0.273 OA
HETATM   12  C10 UNL     1     -16.464  45.843 -26.272  1.00  0.00     0.139 C 
HETATM   13  C11 UNL     1     -15.536  44.939 -27.086  1.00  0.00     0.177 C 
HETATM   14  C17 UNL     1     -14.108  45.389 -27.384  1.00  0.00     0.111 A 
HETATM   15  C18 UNL     1     -13.353  44.479 -28.315  1.00  0.00     0.051 C 
HETATM   16  O5  UNL     1     -13.341  45.800 -26.249  1.00  0.00    -0.366 OA
HETATM   17  C19 UNL     1     -13.672  46.846 -27.171  1.00  0.00     0.165 A 
HETATM   18  C20 UNL     1     -12.540  47.565 -27.861  1.00  0.00     0.043 C 
HETATM   19  C21 UNL     1     -12.761  47.562 -29.382  1.00  0.00     0.015 C 
HETATM   20  C22 UNL     1     -11.089  47.181 -27.476  1.00  0.00     0.143 C 
HETATM   21  C23 UNL     1     -10.768  47.418 -26.001  1.00  0.00     0.097 C 
HETATM   22  C24 UNL     1      -9.256  47.279 -25.800  1.00  0.00     0.166 C 
HETATM   23  N2  UNL     1      -8.559  48.252 -26.644  1.00  0.00    -0.316 N 
ATOM     24  H2  UNL     1      -7.714  48.732 -26.336  1.00  0.00     0.166 HD
HETATM   25  C25 UNL     1      -9.079  48.460 -27.789  1.00  0.00     0.260 C 
HETATM   26  O8  UNL     1     -10.219  47.988 -28.307  1.00  0.00    -0.311 OA
HETATM   27  C26 UNL     1      -8.855  47.586 -24.306  1.00  0.00     0.199 C 
HETATM   28  C28 UNL     1      -9.460  46.636 -23.303  1.00  0.00     0.010 C 
HETATM   29  C29 UNL     1     -10.414  46.955 -22.414  1.00  0.00    -0.001 C 
HETATM   30  C30 UNL     1     -10.905  45.997 -21.448  1.00  0.00     0.005 C 
HETATM   31  C31 UNL     1     -11.965  46.130 -20.622  1.00  0.00    -0.052 C 
HETATM   32  C33 UNL     1     -12.913  47.317 -20.617  1.00  0.00     0.075 C 
ENDROOT
BRANCH  13  33
HETATM   33  O3  UNL     1     -15.488  43.606 -26.533  1.00  0.00    -0.312 OA
BRANCH  33  34
HETATM   34  C12 UNL     1     -16.365  42.700 -27.052  1.00  0.00     0.259 C 
HETATM   35  O4  UNL     1     -17.513  42.545 -26.667  1.00  0.00    -0.265 OA
BRANCH  34  36
HETATM   36  C13 UNL     1     -15.689  41.923 -28.161  1.00  0.00     0.115 C 
BRANCH  36  37
HETATM   37  C14 UNL     1     -14.751  40.821 -27.646  1.00  0.00    -0.013 C 
HETATM   38  C15 UNL     1     -13.481  40.716 -28.497  1.00  0.00     0.010 C 
HETATM   39  C16 UNL     1     -15.477  39.473 -27.645  1.00  0.00     0.010 C 
ENDBRANCH  36  37
ENDBRANCH  34  36
ENDBRANCH  33  34
ENDBRANCH  13  33
BRANCH   1  40
HETATM   40  O1  UNL     1     -17.656  46.700 -19.227  1.00  0.00    -0.354 OA
HETATM   41  C1  UNL     1     -18.539  47.813 -19.264  1.00  0.00     0.210 C 
ENDBRANCH   1  40
BRANCH  22  42
HETATM   42  O6  UNL     1      -8.855  45.940 -26.102  1.00  0.00    -0.368 OA
HETATM   43  H32 UNL     1      -7.912  45.930 -25.849  1.00  0.00     0.212 HD
ENDBRANCH  22  42
BRANCH  25  44
HETATM   44  O7  UNL     1      -8.464  49.282 -28.648  1.00  0.00    -0.327 OA
HETATM   45  H33 UNL     1      -7.642  49.566 -28.221  1.00  0.00     0.221 HD
ENDBRANCH  25  44
BRANCH  27  46
HETATM   46  O9  UNL     1      -7.425  47.399 -24.181  1.00  0.00    -0.382 OA
HETATM   47  C27 UNL     1      -6.824  48.395 -23.365  1.00  0.00     0.202 C 
ENDBRANCH  27  46
BRANCH  31  48
HETATM   48  C32 UNL     1     -12.319  45.061 -19.606  1.00  0.00     0.198 C 
BRANCH  48  49
HETATM   49  O10 UNL     1     -12.052  45.477 -18.272  1.00  0.00    -0.397 OA
HETATM   50  H43 UNL     1     -12.550  46.301 -18.132  1.00  0.00     0.209 HD
ENDBRANCH  48  49
ENDBRANCH  31  48
TORSDOF 10
ENDMDL
MODEL 3
REMARK minimizedAffinity -7.07764721
REMARK CNNscore 0.182274386
REMARK CNNaffinity 5.5936203
REMARK  10 active torsions:
REMARK  status: ('A' for Active; 'I' for Inactive)
REMARK    1  A    between atoms: O1_2  and  C2_3 
REMARK    2  A    between atoms: C11_15  and  O3_16 
REMARK    3  A    between atoms: O3_16  and  C12_17 
REMARK    4  A    between atoms: C12_17  and  C13_19 
REMARK    5  A    between atoms: C13_19  and  C14_20 
REMARK    6  A    between atoms: C24_31  and  O6_32 
REMARK    7  A    between atoms: C25_35  and  O7_36 
REMARK    8  A    between atoms: C26_38  and  O9_39 
REMARK    9  A    between atoms: C31_44  and  C32_45 
REMARK   10  A    between atoms: C32_45  and  O10_46 
ROOT
HETATM    1  C2  UNL     1       7.216  56.593  -6.058  1.00  0.00     0.092 A 
HETATM    2  C3  UNL     1       7.512  55.599  -6.997  1.00  0.00     0.046 A 
HETATM    3  C4  UNL     1       6.487  54.890  -7.643  1.00  0.00    -0.049 A 
HETATM    4  C5  UNL     1       5.150  55.179  -7.330  1.00  0.00     0.039 A 
HETATM    5  C6  UNL     1       4.826  56.150  -6.373  1.00  0.00     0.061 A 
HETATM    6  C7  UNL     1       5.868  56.869  -5.749  1.00  0.00     0.094 A 
HETATM    7 CL1  UNL     1       5.513  58.194  -4.671  1.00  0.00    -0.079 Cl
HETATM    8  N1  UNL     1       3.443  56.365  -6.050  1.00  0.00    -0.321 N 
HETATM    9  C8  UNL     1       3.064  56.123  -4.663  1.00  0.00     0.159 C 
HETATM   10  C9  UNL     1       2.541  56.663  -7.073  1.00  0.00     0.226 C 
HETATM   11  O2  UNL     1       2.897  56.774  -8.253  1.00  0.00    -0.273 OA
HETATM   12  C10 UNL     1       1.098  57.011  -6.717  1.00  0.00     0.139 C 
HETATM   13  C11 UNL     1       0.050  55.901  -6.610  1.00  0.00     0.177 C 
HETATM   14  C17 UNL     1      -0.171  54.951  -7.786  1.00  0.00     0.111 A 
HETATM   15  C18 UNL     1      -1.327  54.004  -7.607  1.00  0.00     0.051 C 
HETATM   16  O5  UNL     1       1.006  54.319  -8.296  1.00  0.00    -0.366 OA
HETATM   17  C19 UNL     1       0.391  55.265  -9.179  1.00  0.00     0.165 A 
HETATM   18  C20 UNL     1      -0.131  54.763 -10.502  1.00  0.00     0.043 C 
HETATM   19  C21 UNL     1      -1.594  55.193 -10.691  1.00  0.00     0.015 C 
HETATM   20  C22 UNL     1       0.096  53.273 -10.859  1.00  0.00     0.143 C 
HETATM   21  C23 UNL     1       1.572  52.881 -10.926  1.00  0.00     0.097 C 
HETATM   22  C24 UNL     1       1.680  51.489 -11.554  1.00  0.00     0.166 C 
HETATM   23  N2  UNL     1       1.089  51.509 -12.894  1.00  0.00    -0.316 N 
ATOM     24  H2  UNL     1       1.481  50.975 -13.670  1.00  0.00     0.166 HD
HETATM   25  C25 UNL     1       0.051  52.239 -13.027  1.00  0.00     0.260 C 
HETATM   26  O8  UNL     1      -0.531  53.061 -12.147  1.00  0.00    -0.311 OA
HETATM   27  C26 UNL     1       3.189  51.060 -11.718  1.00  0.00     0.199 C 
HETATM   28  C28 UNL     1       3.938  50.947 -10.413  1.00  0.00     0.010 C 
HETATM   29  C29 UNL     1       4.909  51.779 -10.005  1.00  0.00    -0.001 C 
HETATM   30  C30 UNL     1       5.616  51.571  -8.760  1.00  0.00     0.005 C 
HETATM   31  C31 UNL     1       6.483  52.411  -8.156  1.00  0.00    -0.052 C 
HETATM   32  C33 UNL     1       6.821  53.807  -8.649  1.00  0.00     0.075 C 
ENDROOT
BRANCH  13  33
HETATM   33  O3  UNL     1       0.245  55.112  -5.416  1.00  0.00    -0.312 OA
BRANCH  33  34
HETATM   34  C12 UNL     1      -0.693  55.251  -4.436  1.00  0.00     0.259 C 
HETATM   35  O4  UNL     1      -1.790  54.716  -4.443  1.00  0.00    -0.265 OA
BRANCH  34  36
HETATM   36  C13 UNL     1      -0.164  56.173  -3.359  1.00  0.00     0.115 C 
BRANCH  36  37
HETATM   37  C14 UNL     1      -0.565  57.642  -3.565  1.00  0.00    -0.013 C 
HETATM   38  C15 UNL     1       0.482  58.600  -2.986  1.00  0.00     0.010 C 
HETATM   39  C16 UNL     1      -1.921  57.911  -2.908  1.00  0.00     0.010 C 
ENDBRANCH  36  37
ENDBRANCH  34  36
ENDBRANCH  33  34
ENDBRANCH  13  33
BRANCH   1  40
HETATM   40  O1  UNL     1       8.165  57.333  -5.398  1.00  0.00    -0.354 OA
HETATM   41  C1  UNL     1       9.471  56.787  -5.274  1.00  0.00     0.210 C 
ENDBRANCH   1  40
BRANCH  22  42
HETATM   42  O6  UNL     1       1.036  50.532 -10.710  1.00  0.00    -0.368 OA
HETATM   43  H32 UNL     1       1.246  49.681 -11.140  1.00  0.00     0.212 HD
ENDBRANCH  22  42
BRANCH  25  44
HETATM   44  O7  UNL     1      -0.590  52.256 -14.201  1.00  0.00    -0.327 OA
HETATM   45  H33 UNL     1      -0.132  51.626 -14.778  1.00  0.00     0.221 HD
ENDBRANCH  25  44
BRANCH  27  46
HETATM   46  O9  UNL     1       3.215  49.726 -12.279  1.00  0.00    -0.382 OA
HETATM   47  C27 UNL     1       4.014  49.654 -13.452  1.00  0.00     0.202 C 
ENDBRANCH  27  46
BRANCH  31  48
HETATM   48  C32 UNL     1       7.206  52.022  -6.880  1.00  0.00     0.198 C 
BRANCH  48  49
HETATM   49  O10 UNL     1       7.852  50.760  -6.989  1.00  0.00    -0.397 OA
HETATM   50  H43 UNL     1       8.452  50.820  -7.752  1.00  0.00     0.209 HD
ENDBRANCH  48  49
ENDBRANCH  31  48
TORSDOF 10
ENDMDL
MODEL 4
REMARK minimizedAffinity -7.46635389
REMARK CNNscore 0.163713962
REMARK CNNaffinity 5.25409555
REMARK  10 active torsions:
REMARK  status: ('A' for Active; 'I' for Inactive)
REMARK    1  A    between atoms: O1_2  and  C2_3 
REMARK    2  A    between atoms: C11_15  and  O3_16 
REMARK    3  A    between atoms: O3_16  and  C12_17 
REMARK    4  A    between atoms: C12_17  and  C13_19 
REMARK    5  A    between atoms: C13_19  and  C14_20 
REMARK    6  A    between atoms: C24_31  and  O6_32 
REMARK    7  A    between atoms: C25_35  and  O7_36 
REMARK    8  A    between atoms: C26_38  and  O9_39 
REMARK    9  A    between atoms: C31_44  and  C32_45 
REMARK   10  A    between atoms: C32_45  and  O10_46 
ROOT
HETATM    1  C2  UNL     1     -11.626  44.551 -25.384  1.00  0.00     0.092 A 
HETATM    2  C3  UNL     1     -10.484  45.236 -25.814  1.00  0.00     0.046 A 
HETATM    3  C4  UNL     1      -9.719  45.997 -24.916  1.00  0.00    -0.049 A 
HETATM    4  C5  UNL     1     -10.117  46.076 -23.573  1.00  0.00     0.039 A 
HETATM    5  C6  UNL     1     -11.272  45.423 -23.121  1.00  0.00     0.061 A 
HETATM    6  C7  UNL     1     -12.017  44.644 -24.033  1.00  0.00     0.094 A 
HETATM    7 CL1  UNL     1     -13.369  43.687 -23.486  1.00  0.00    -0.079 Cl
HETATM    8  N1  UNL     1     -11.663  45.585 -21.748  1.00  0.00    -0.321 N 
HETATM    9  C8  UNL     1     -12.970  46.192 -21.523  1.00  0.00     0.159 C 
HETATM   10  C9  UNL     1     -10.750  45.280 -20.737  1.00  0.00     0.226 C 
HETATM   11  O2  UNL     1      -9.618  44.848 -20.982  1.00  0.00    -0.273 OA
HETATM   12  C10 UNL     1     -11.205  45.336 -19.281  1.00  0.00     0.139 C 
HETATM   13  C11 UNL     1     -11.086  46.643 -18.495  1.00  0.00     0.177 C 
HETATM   14  C17 UNL     1      -9.735  47.347 -18.395  1.00  0.00     0.111 A 
HETATM   15  C18 UNL     1      -9.724  48.537 -17.473  1.00  0.00     0.051 C 
HETATM   16  O5  UNL     1      -9.072  47.587 -19.639  1.00  0.00    -0.366 OA
HETATM   17  C19 UNL     1      -8.433  46.631 -18.783  1.00  0.00     0.165 A 
HETATM   18  C20 UNL     1      -7.043  46.942 -18.288  1.00  0.00     0.043 C 
HETATM   19  C21 UNL     1      -6.986  46.809 -16.758  1.00  0.00     0.015 C 
HETATM   20  C22 UNL     1      -6.361  48.238 -18.792  1.00  0.00     0.143 C 
HETATM   21  C23 UNL     1      -6.178  48.279 -20.309  1.00  0.00     0.097 C 
HETATM   22  C24 UNL     1      -5.255  49.449 -20.659  1.00  0.00     0.166 C 
HETATM   23  N2  UNL     1      -3.966  49.274 -19.986  1.00  0.00    -0.316 N 
ATOM     24  H2  UNL     1      -3.083  49.534 -20.426  1.00  0.00     0.166 HD
HETATM   25  C25 UNL     1      -4.019  48.775 -18.814  1.00  0.00     0.260 C 
HETATM   26  O8  UNL     1      -5.071  48.303 -18.136  1.00  0.00    -0.311 OA
HETATM   27  C26 UNL     1      -4.969  49.497 -22.210  1.00  0.00     0.199 C 
HETATM   28  C28 UNL     1      -6.199  49.719 -23.052  1.00  0.00     0.010 C 
HETATM   29  C29 UNL     1      -6.761  48.802 -23.857  1.00  0.00    -0.001 C 
HETATM   30  C30 UNL     1      -7.914  49.112 -24.674  1.00  0.00     0.005 C 
HETATM   31  C31 UNL     1      -8.670  48.252 -25.388  1.00  0.00    -0.052 C 
HETATM   32  C33 UNL     1      -8.492  46.743 -25.396  1.00  0.00     0.075 C 
ENDROOT
BRANCH  13  33
HETATM   33  O3  UNL     1     -12.071  47.605 -18.928  1.00  0.00    -0.312 OA
BRANCH  33  34
HETATM   34  C12 UNL     1     -13.134  47.804 -18.097  1.00  0.00     0.259 C 
HETATM   35  O4  UNL     1     -13.148  47.528 -16.908  1.00  0.00    -0.265 OA
BRANCH  34  36
HETATM   36  C13 UNL     1     -14.281  48.404 -18.880  1.00  0.00     0.115 C 
BRANCH  36  37
HETATM   37  C14 UNL     1     -15.604  48.429 -18.098  1.00  0.00    -0.013 C 
HETATM   38  C15 UNL     1     -16.739  47.767 -18.885  1.00  0.00     0.010 C 
HETATM   39  C16 UNL     1     -15.988  49.874 -17.765  1.00  0.00     0.010 C 
ENDBRANCH  36  37
ENDBRANCH  34  36
ENDBRANCH  33  34
ENDBRANCH  13  33
BRANCH   1  40
HETATM   40  O1  UNL     1     -12.413  43.781 -26.203  1.00  0.00    -0.354 OA
HETATM   41  C1  UNL     1     -11.913  42.517 -26.615  1.00  0.00     0.210 C 
ENDBRANCH   1  40
BRANCH  22  42
HETATM   42  O6  UNL     1      -5.880  50.679 -20.285  1.00  0.00    -0.368 OA
HETATM   43  H32 UNL     1      -5.267  51.354 -20.636  1.00  0.00     0.212 HD
ENDBRANCH  22  42
BRANCH  25  44
HETATM   44  O7  UNL     1      -2.892  48.648 -18.105  1.00  0.00    -0.327 OA
HETATM   45  H33 UNL     1      -2.180  49.027 -18.642  1.00  0.00     0.221 HD
ENDBRANCH  25  44
BRANCH  27  46
HETATM   46  O9  UNL     1      -4.125  50.644 -22.472  1.00  0.00    -0.382 OA
HETATM   47  C27 UNL     1      -4.696  51.520 -23.434  1.00  0.00     0.202 C 
ENDBRANCH  27  46
BRANCH  31  48
HETATM   48  C32 UNL     1      -9.813  48.736 -26.261  1.00  0.00     0.198 C 
BRANCH  48  49
HETATM   49  O10 UNL     1     -10.082  50.120 -26.077  1.00  0.00    -0.397 OA
HETATM   50  H43 UNL     1      -9.251  50.592 -26.260  1.00  0.00     0.209 HD
ENDBRANCH  48  49
ENDBRANCH  31  48
TORSDOF 10
ENDMDL
MODEL 5
REMARK minimizedAffinity -6.31274366
REMARK CNNscore 0.153433636
REMARK CNNaffinity 5.62855864
REMARK  10 active torsions:
REMARK  status: ('A' for Active; 'I' for Inactive)
REMARK    1  A    between atoms: O1_2  and  C2_3 
REMARK    2  A    between atoms: C11_15  and  O3_16 
REMARK    3  A    between atoms: O3_16  and  C12_17 
REMARK    4  A    between atoms: C12_17  and  C13_19 
REMARK    5  A    between atoms: C13_19  and  C14_20 
REMARK    6  A    between atoms: C24_31  and  O6_32 
REMARK    7  A    between atoms: C25_35  and  O7_36 
REMARK    8  A    between atoms: C26_38  and  O9_39 
REMARK    9  A    between atoms: C31_44  and  C32_45 
REMARK   10  A    between atoms: C32_45  and  O10_46 
ROOT
HETATM    1  C2  UNL     1       7.098  56.553  -6.074  1.00  0.00     0.092 A 
HETATM    2  C3  UNL     1       7.406  55.630  -7.079  1.00  0.00     0.046 A 
HETATM    3  C4  UNL     1       6.395  54.904  -7.726  1.00  0.00    -0.049 A 
HETATM    4  C5  UNL     1       5.058  55.105  -7.348  1.00  0.00     0.039 A 
HETATM    5  C6  UNL     1       4.723  56.002  -6.324  1.00  0.00     0.061 A 
HETATM    6  C7  UNL     1       5.751  56.740  -5.700  1.00  0.00     0.094 A 
HETATM    7 CL1  UNL     1       5.372  57.982  -4.535  1.00  0.00    -0.079 Cl
HETATM    8  N1  UNL     1       3.344  56.125  -5.940  1.00  0.00    -0.321 N 
HETATM    9  C8  UNL     1       3.034  55.787  -4.556  1.00  0.00     0.159 C 
HETATM   10  C9  UNL     1       2.389  56.430  -6.910  1.00  0.00     0.226 C 
HETATM   11  O2  UNL     1       2.691  56.625  -8.093  1.00  0.00    -0.273 OA
HETATM   12  C10 UNL     1       0.945  56.681  -6.481  1.00  0.00     0.139 C 
HETATM   13  C11 UNL     1      -0.039  55.512  -6.399  1.00  0.00     0.177 C 
HETATM   14  C17 UNL     1      -0.259  54.619  -7.618  1.00  0.00     0.111 A 
HETATM   15  C18 UNL     1      -1.357  53.603  -7.452  1.00  0.00     0.051 C 
HETATM   16  O5  UNL     1       0.927  54.079  -8.208  1.00  0.00    -0.366 OA
HETATM   17  C19 UNL     1       0.230  55.039  -9.011  1.00  0.00     0.165 A 
HETATM   18  C20 UNL     1      -0.317  54.584 -10.341  1.00  0.00     0.043 C 
HETATM   19  C21 UNL     1      -1.807  54.946 -10.450  1.00  0.00     0.015 C 
HETATM   20  C22 UNL     1      -0.029  53.131 -10.791  1.00  0.00     0.143 C 
HETATM   21  C23 UNL     1       1.461  52.822 -10.934  1.00  0.00     0.097 C 
HETATM   22  C24 UNL     1       1.615  51.475 -11.646  1.00  0.00     0.166 C 
HETATM   23  N2  UNL     1       0.970  51.538 -12.959  1.00  0.00    -0.316 N 
ATOM     24  H2  UNL     1       1.357  51.069 -13.778  1.00  0.00     0.166 HD
HETATM   25  C25 UNL     1      -0.108  52.217 -13.011  1.00  0.00     0.260 C 
HETATM   26  O8  UNL     1      -0.696  52.957 -12.065  1.00  0.00    -0.311 OA
HETATM   27  C26 UNL     1       3.136  51.136 -11.889  1.00  0.00     0.199 C 
HETATM   28  C28 UNL     1       3.941  50.991 -10.622  1.00  0.00     0.010 C 
HETATM   29  C29 UNL     1       4.884  51.850 -10.203  1.00  0.00    -0.001 C 
HETATM   30  C30 UNL     1       5.650  51.611  -8.999  1.00  0.00     0.005 C 
HETATM   31  C31 UNL     1       6.496  52.461  -8.380  1.00  0.00    -0.052 C 
HETATM   32  C33 UNL     1       6.742  53.899  -8.804  1.00  0.00     0.075 C 
ENDROOT
BRANCH  13  33
HETATM   33  O3  UNL     1       0.243  54.670  -5.261  1.00  0.00    -0.312 OA
BRANCH  33  34
HETATM   34  C12 UNL     1       0.315  53.330  -5.498  1.00  0.00     0.259 C 
HETATM   35  O4  UNL     1      -0.644  52.574  -5.514  1.00  0.00    -0.265 OA
BRANCH  34  36
HETATM   36  C13 UNL     1       1.757  52.935  -5.727  1.00  0.00     0.115 C 
BRANCH  36  37
HETATM   37  C14 UNL     1       1.945  51.427  -5.959  1.00  0.00    -0.013 C 
HETATM   38  C15 UNL     1       3.203  50.900  -5.261  1.00  0.00     0.010 C 
HETATM   39  C16 UNL     1       2.033  51.135  -7.459  1.00  0.00     0.010 C 
ENDBRANCH  36  37
ENDBRANCH  34  36
ENDBRANCH  33  34
ENDBRANCH  13  33
BRANCH   1  40
HETATM   40  O1  UNL     1       8.033  57.305  -5.407  1.00  0.00    -0.354 OA
HETATM   41  C1  UNL     1       9.337  56.762  -5.248  1.00  0.00     0.210 C 
ENDBRANCH   1  40
BRANCH  22  42
HETATM   42  O6  UNL     1       1.054  50.439 -10.834  1.00  0.00    -0.368 OA
HETATM   43  H32 UNL     1       1.290  49.625 -11.321  1.00  0.00     0.212 HD
ENDBRANCH  22  42
BRANCH  25  44
HETATM   44  O7  UNL     1      -0.795  52.266 -14.158  1.00  0.00    -0.327 OA
HETATM   45  H33 UNL     1      -0.330  51.694 -14.787  1.00  0.00     0.221 HD
ENDBRANCH  25  44
BRANCH  27  46
HETATM   46  O9  UNL     1       3.208  49.839 -12.527  1.00  0.00    -0.382 OA
HETATM   47  C27 UNL     1       4.120  49.827 -13.616  1.00  0.00     0.202 C 
ENDBRANCH  27  46
BRANCH  31  48
HETATM   48  C32 UNL     1       7.288  52.041  -7.156  1.00  0.00     0.198 C 
BRANCH  48  49
HETATM   49  O10 UNL     1       7.953  50.798  -7.344  1.00  0.00    -0.397 OA
HETATM   50  H43 UNL     1       8.514  50.899  -8.133  1.00  0.00     0.209 HD
ENDBRANCH  48  49
ENDBRANCH  31  48
TORSDOF 10
ENDMDL
MODEL 6
REMARK minimizedAffinity -7.31205559
REMARK CNNscore 0.150737956
REMARK CNNaffinity 5.30818415
REMARK  10 active torsions:
REMARK  status: ('A' for Active; 'I' for Inactive)
REMARK    1  A    between atoms: O1_2  and  C2_3 
REMARK    2  A    between atoms: C11_15  and  O3_16 
REMARK    3  A    between atoms: O3_16  and  C12_17 
REMARK    4  A    between atoms: C12_17  and  C13_19 
REMARK    5  A    between atoms: C13_19  and  C14_20 
REMARK    6  A    between atoms: C24_31  and  O6_32 
REMARK    7  A    between atoms: C25_35  and  O7_36 
REMARK    8  A    between atoms: C26_38  and  O9_39 
REMARK    9  A    between atoms: C31_44  and  C32_45 
REMARK   10  A    between atoms: C32_45  and  O10_46 
ROOT
HETATM    1  C2  UNL     1     -13.356  46.637 -28.630  1.00  0.00     0.092 A 
HETATM    2  C3  UNL     1     -14.272  45.642 -28.986  1.00  0.00     0.046 A 
HETATM    3  C4  UNL     1     -15.081  45.027 -28.018  1.00  0.00    -0.049 A 
HETATM    4  C5  UNL     1     -14.955  45.413 -26.674  1.00  0.00     0.039 A 
HETATM    5  C6  UNL     1     -14.025  46.387 -26.286  1.00  0.00     0.061 A 
HETATM    6  C7  UNL     1     -13.236  47.011 -27.276  1.00  0.00     0.094 A 
HETATM    7 CL1  UNL     1     -12.180  48.338 -26.864  1.00  0.00    -0.079 Cl
HETATM    8  N1  UNL     1     -13.899  46.701 -24.890  1.00  0.00    -0.321 N 
HETATM    9  C8  UNL     1     -12.590  46.462 -24.296  1.00  0.00     0.159 C 
HETATM   10  C9  UNL     1     -15.032  47.087 -24.172  1.00  0.00     0.226 C 
HETATM   11  O2  UNL     1     -16.144  47.194 -24.703  1.00  0.00    -0.273 OA
HETATM   12  C10 UNL     1     -14.877  47.538 -22.721  1.00  0.00     0.139 C 
HETATM   13  C11 UNL     1     -14.956  46.510 -21.591  1.00  0.00     0.177 C 
HETATM   14  C17 UNL     1     -16.180  45.604 -21.475  1.00  0.00     0.111 A 
HETATM   15  C18 UNL     1     -16.199  44.745 -20.238  1.00  0.00     0.051 C 
HETATM   16  O5  UNL     1     -16.535  44.893 -22.663  1.00  0.00    -0.366 OA
HETATM   17  C19 UNL     1     -17.468  45.901 -22.255  1.00  0.00     0.165 A 
HETATM   18  C20 UNL     1     -18.867  45.467 -21.897  1.00  0.00     0.043 C 
HETATM   19  C21 UNL     1     -19.251  46.012 -20.513  1.00  0.00     0.015 C 
HETATM   20  C22 UNL     1     -19.233  43.971 -22.064  1.00  0.00     0.143 C 
HETATM   21  C23 UNL     1     -19.098  43.468 -23.501  1.00  0.00     0.097 C 
HETATM   22  C24 UNL     1     -19.747  42.084 -23.597  1.00  0.00     0.166 C 
HETATM   23  N2  UNL     1     -21.156  42.176 -23.211  1.00  0.00    -0.316 N 
ATOM     24  H2  UNL     1     -21.883  41.629 -23.672  1.00  0.00     0.166 HD
HETATM   25  C25 UNL     1     -21.415  42.986 -22.261  1.00  0.00     0.260 C 
HETATM   26  O8  UNL     1     -20.604  43.833 -21.618  1.00  0.00    -0.311 OA
HETATM   27  C26 UNL     1     -19.703  41.543 -25.079  1.00  0.00     0.199 C 
HETATM   28  C28 UNL     1     -18.309  41.348 -25.618  1.00  0.00     0.010 C 
HETATM   29  C29 UNL     1     -17.740  42.094 -26.578  1.00  0.00    -0.001 C 
HETATM   30  C30 UNL     1     -16.413  41.808 -27.078  1.00  0.00     0.005 C 
HETATM   31  C31 UNL     1     -15.664  42.566 -27.907  1.00  0.00    -0.052 C 
HETATM   32  C33 UNL     1     -16.061  43.942 -28.414  1.00  0.00     0.075 C 
ENDROOT
BRANCH  13  33
HETATM   33  O3  UNL     1     -13.772  45.686 -21.550  1.00  0.00    -0.312 OA
BRANCH  33  34
HETATM   34  C12 UNL     1     -13.028  45.746 -20.410  1.00  0.00     0.259 C 
HETATM   35  O4  UNL     1     -12.315  44.846 -19.996  1.00  0.00    -0.265 OA
BRANCH  34  36
HETATM   36  C13 UNL     1     -13.234  47.089 -19.743  1.00  0.00     0.115 C 
BRANCH  36  37
HETATM   37  C14 UNL     1     -13.749  46.978 -18.299  1.00  0.00    -0.013 C 
HETATM   38  C15 UNL     1     -14.962  47.883 -18.060  1.00  0.00     0.010 C 
HETATM   39  C16 UNL     1     -12.634  47.348 -17.316  1.00  0.00     0.010 C 
ENDBRANCH  36  37
ENDBRANCH  34  36
ENDBRANCH  33  34
ENDBRANCH  13  33
BRANCH   1  40
HETATM   40  O1  UNL     1     -12.543  47.289 -29.524  1.00  0.00    -0.354 OA
HETATM   41  C1  UNL     1     -11.423  46.586 -30.044  1.00  0.00     0.210 C 
ENDBRANCH   1  40
BRANCH  22  42
HETATM   42  O6  UNL     1     -19.034  41.163 -22.768  1.00  0.00    -0.368 OA
HETATM   43  H32 UNL     1     -19.455  40.307 -22.976  1.00  0.00     0.212 HD
ENDBRANCH  22  42
BRANCH  25  44
HETATM   44  O7  UNL     1     -22.669  43.076 -21.801  1.00  0.00    -0.327 OA
HETATM   45  H33 UNL     1     -23.193  42.424 -22.290  1.00  0.00     0.221 HD
ENDBRANCH  25  44
BRANCH  27  46
HETATM   46  O9  UNL     1     -20.296  40.223 -25.089  1.00  0.00    -0.382 OA
HETATM   47  C27 UNL     1     -20.723  39.837 -26.387  1.00  0.00     0.202 C 
ENDBRANCH  27  46
BRANCH  31  48
HETATM   48  C32 UNL     1     -14.310  42.098 -28.405  1.00  0.00     0.198 C 
BRANCH  48  49
HETATM   49  O10 UNL     1     -13.352  42.009 -27.357  1.00  0.00    -0.397 OA
HETATM   50  H43 UNL     1     -13.728  41.412 -26.687  1.00  0.00     0.209 HD
ENDBRANCH  48  49
ENDBRANCH  31  48
TORSDOF 10
ENDMDL
MODEL 7
REMARK minimizedAffinity -6.12149143
REMARK CNNscore 0.123516239
REMARK CNNaffinity 4.65042734
REMARK  10 active torsions:
REMARK  status: ('A' for Active; 'I' for Inactive)
REMARK    1  A    between atoms: O1_2  and  C2_3 
REMARK    2  A    between atoms: C11_15  and  O3_16 
REMARK    3  A    between atoms: O3_16  and  C12_17 
REMARK    4  A    between atoms: C12_17  and  C13_19 
REMARK    5  A    between atoms: C13_19  and  C14_20 
REMARK    6  A    between atoms: C24_31  and  O6_32 
REMARK    7  A    between atoms: C25_35  and  O7_36 
REMARK    8  A    between atoms: C26_38  and  O9_39 
REMARK    9  A    between atoms: C31_44  and  C32_45 
REMARK   10  A    between atoms: C32_45  and  O10_46 
ROOT
HETATM    1  C2  UNL     1     -17.506  46.224 -23.252  1.00  0.00     0.092 A 
HETATM    2  C3  UNL     1     -16.460  46.401 -22.340  1.00  0.00     0.046 A 
HETATM    3  C4  UNL     1     -15.123  46.267 -22.744  1.00  0.00    -0.049 A 
HETATM    4  C5  UNL     1     -14.838  45.940 -24.079  1.00  0.00     0.039 A 
HETATM    5  C6  UNL     1     -15.868  45.729 -25.007  1.00  0.00     0.061 A 
HETATM    6  C7  UNL     1     -17.207  45.890 -24.589  1.00  0.00     0.094 A 
HETATM    7 CL1  UNL     1     -18.514  45.795 -25.740  1.00  0.00    -0.079 Cl
HETATM    8  N1  UNL     1     -15.520  45.341 -26.345  1.00  0.00    -0.321 N 
HETATM    9  C8  UNL     1     -16.036  44.052 -26.791  1.00  0.00     0.159 C 
HETATM   10  C9  UNL     1     -14.636  46.133 -27.078  1.00  0.00     0.226 C 
HETATM   11  O2  UNL     1     -14.156  47.178 -26.623  1.00  0.00    -0.273 OA
HETATM   12  C10 UNL     1     -14.362  45.788 -28.540  1.00  0.00     0.139 C 
HETATM   13  C11 UNL     1     -13.227  44.826 -28.897  1.00  0.00     0.177 C 
HETATM   14  C17 UNL     1     -11.809  45.111 -28.405  1.00  0.00     0.111 A 
HETATM   15  C18 UNL     1     -10.766  44.172 -28.947  1.00  0.00     0.051 C 
HETATM   16  O5  UNL     1     -11.681  45.350 -27.001  1.00  0.00    -0.366 OA
HETATM   17  C19 UNL     1     -11.424  46.485 -27.838  1.00  0.00     0.165 A 
HETATM   18  C20 UNL     1     -10.047  47.097 -27.798  1.00  0.00     0.043 C 
HETATM   19  C21 UNL     1      -9.480  47.216 -29.221  1.00  0.00     0.015 C 
HETATM   20  C22 UNL     1      -9.016  46.510 -26.801  1.00  0.00     0.143 C 
HETATM   21  C23 UNL     1      -9.456  46.612 -25.341  1.00  0.00     0.097 C 
HETATM   22  C24 UNL     1      -8.261  46.272 -24.445  1.00  0.00     0.166 C 
HETATM   23  N2  UNL     1      -7.162  47.200 -24.721  1.00  0.00    -0.316 N 
ATOM     24  H2  UNL     1      -6.548  47.550 -23.986  1.00  0.00     0.166 HD
HETATM   25  C25 UNL     1      -7.024  47.542 -25.941  1.00  0.00     0.260 C 
HETATM   26  O8  UNL     1      -7.787  47.250 -27.000  1.00  0.00    -0.311 OA
HETATM   27  C26 UNL     1      -8.635  46.432 -22.921  1.00  0.00     0.199 C 
HETATM   28  C28 UNL     1      -9.732  45.506 -22.459  1.00  0.00     0.010 C 
HETATM   29  C29 UNL     1     -10.974  45.887 -22.120  1.00  0.00    -0.001 C 
HETATM   30  C30 UNL     1     -11.955  44.941 -21.636  1.00  0.00     0.005 C 
HETATM   31  C31 UNL     1     -13.270  45.155 -21.424  1.00  0.00    -0.052 C 
HETATM   32  C33 UNL     1     -13.998  46.449 -21.745  1.00  0.00     0.075 C 
ENDROOT
BRANCH  13  33
HETATM   33  O3  UNL     1     -13.566  43.466 -28.550  1.00  0.00    -0.312 OA
BRANCH  33  34
HETATM   34  C12 UNL     1     -13.003  42.970 -27.412  1.00  0.00     0.259 C 
HETATM   35  O4  UNL     1     -12.804  43.618 -26.396  1.00  0.00    -0.265 OA
BRANCH  34  36
HETATM   36  C13 UNL     1     -12.662  41.510 -27.612  1.00  0.00     0.115 C 
BRANCH  36  37
HETATM   37  C14 UNL     1     -11.152  41.227 -27.565  1.00  0.00    -0.013 C 
HETATM   38  C15 UNL     1     -10.739  40.186 -28.611  1.00  0.00     0.010 C 
HETATM   39  C16 UNL     1     -10.755  40.735 -26.171  1.00  0.00     0.010 C 
ENDBRANCH  36  37
ENDBRANCH  34  36
ENDBRANCH  33  34
ENDBRANCH  13  33
BRANCH   1  40
HETATM   40  O1  UNL     1     -18.835  46.350 -22.931  1.00  0.00    -0.354 OA
HETATM   41  C1  UNL     1     -19.489  45.236 -22.339  1.00  0.00     0.210 C 
ENDBRANCH   1  40
BRANCH  22  42
HETATM   42  O6  UNL     1      -7.870  44.914 -24.665  1.00  0.00    -0.368 OA
HETATM   43  H32 UNL     1      -7.182  44.770 -23.987  1.00  0.00     0.212 HD
ENDBRANCH  22  42
BRANCH  25  44
HETATM   44  O7  UNL     1      -6.000  48.332 -26.287  1.00  0.00    -0.327 OA
HETATM   45  H33 UNL     1      -5.481  48.483 -25.484  1.00  0.00     0.221 HD
ENDBRANCH  25  44
BRANCH  27  46
HETATM   46  O9  UNL     1      -7.477  46.060 -22.136  1.00  0.00    -0.382 OA
HETATM   47  C27 UNL     1      -7.275  46.931 -21.032  1.00  0.00     0.202 C 
ENDBRANCH  27  46
BRANCH  31  48
HETATM   48  C32 UNL     1     -14.167  44.078 -20.842  1.00  0.00     0.198 C 
BRANCH  48  49
HETATM   49  O10 UNL     1     -14.822  44.506 -19.655  1.00  0.00    -0.397 OA
HETATM   50  H43 UNL     1     -15.313  45.314 -19.884  1.00  0.00     0.209 HD
ENDBRANCH  48  49
ENDBRANCH  31  48
TORSDOF 10
ENDMDL
MODEL 8
REMARK minimizedAffinity -6.00334406
REMARK CNNscore 0.121605076
REMARK CNNaffinity 4.5546627
REMARK  10 active torsions:
REMARK  status: ('A' for Active; 'I' for Inactive)
REMARK    1  A    between atoms: O1_2  and  C2_3 
REMARK    2  A    between atoms: C11_15  and  O3_16 
REMARK    3  A    between atoms: O3_16  and  C12_17 
REMARK    4  A    between atoms: C12_17  and  C13_19 
REMARK    5  A    between atoms: C13_19  and  C14_20 
REMARK    6  A    between atoms: C24_31  and  O6_32 
REMARK    7  A    between atoms: C25_35  and  O7_36 
REMARK    8  A    between atoms: C26_38  and  O9_39 
REMARK    9  A    between atoms: C31_44  and  C32_45 
REMARK   10  A    between atoms: C32_45  and  O10_46 
ROOT
HETATM    1  C2  UNL     1     -17.601  46.511 -20.857  1.00  0.00     0.092 A 
HETATM    2  C3  UNL     1     -16.470  46.739 -20.066  1.00  0.00     0.046 A 
HETATM    3  C4  UNL     1     -15.179  46.645 -20.610  1.00  0.00    -0.049 A 
HETATM    4  C5  UNL     1     -15.028  46.307 -21.964  1.00  0.00     0.039 A 
HETATM    5  C6  UNL     1     -16.143  46.045 -22.772  1.00  0.00     0.061 A 
HETATM    6  C7  UNL     1     -17.434  46.166 -22.214  1.00  0.00     0.094 A 
HETATM    7 CL1  UNL     1     -18.854  46.007 -23.217  1.00  0.00    -0.079 Cl
HETATM    8  N1  UNL     1     -15.928  45.647 -24.135  1.00  0.00    -0.321 N 
HETATM    9  C8  UNL     1     -16.441  44.334 -24.507  1.00  0.00     0.159 C 
HETATM   10  C9  UNL     1     -15.156  46.457 -24.970  1.00  0.00     0.226 C 
HETATM   11  O2  UNL     1     -14.668  47.525 -24.582  1.00  0.00    -0.273 OA
HETATM   12  C10 UNL     1     -15.029  46.097 -26.448  1.00  0.00     0.139 C 
HETATM   13  C11 UNL     1     -13.904  45.170 -26.913  1.00  0.00     0.177 C 
HETATM   14  C17 UNL     1     -12.453  45.511 -26.580  1.00  0.00     0.111 A 
HETATM   15  C18 UNL     1     -11.441  44.600 -27.220  1.00  0.00     0.051 C 
HETATM   16  O5  UNL     1     -12.184  45.778 -25.202  1.00  0.00    -0.366 OA
HETATM   17  C19 UNL     1     -12.060  46.907 -26.076  1.00  0.00     0.165 A 
HETATM   18  C20 UNL     1     -10.709  47.566 -26.192  1.00  0.00     0.043 C 
HETATM   19  C21 UNL     1     -10.303  47.682 -27.670  1.00  0.00     0.015 C 
HETATM   20  C22 UNL     1      -9.556  47.032 -25.305  1.00  0.00     0.143 C 
HETATM   21  C23 UNL     1      -9.840  47.143 -23.807  1.00  0.00     0.097 C 
HETATM   22  C24 UNL     1      -8.545  46.859 -23.042  1.00  0.00     0.166 C 
HETATM   23  N2  UNL     1      -7.516  47.820 -23.447  1.00  0.00    -0.316 N 
ATOM     24  H2  UNL     1      -6.840  48.202 -22.786  1.00  0.00     0.166 HD
HETATM   25  C25 UNL     1      -7.522  48.147 -24.679  1.00  0.00     0.260 C 
HETATM   26  O8  UNL     1      -8.384  47.811 -25.645  1.00  0.00    -0.311 OA
HETATM   27  C26 UNL     1      -8.758  47.031 -21.488  1.00  0.00     0.199 C 
HETATM   28  C28 UNL     1      -9.765  46.076 -20.899  1.00  0.00     0.010 C 
HETATM   29  C29 UNL     1     -10.976  46.419 -20.433  1.00  0.00    -0.001 C 
HETATM   30  C30 UNL     1     -11.865  45.447 -19.834  1.00  0.00     0.005 C 
HETATM   31  C31 UNL     1     -13.157  45.620 -19.484  1.00  0.00    -0.052 C 
HETATM   32  C33 UNL     1     -13.962  46.882 -19.741  1.00  0.00     0.075 C 
ENDROOT
BRANCH  13  33
HETATM   33  O3  UNL     1     -14.155  43.805 -26.515  1.00  0.00    -0.312 OA
BRANCH  33  34
HETATM   34  C12 UNL     1     -13.346  43.297 -25.542  1.00  0.00     0.259 C 
HETATM   35  O4  UNL     1     -13.246  43.750 -24.413  1.00  0.00    -0.265 OA
BRANCH  34  36
HETATM   36  C13 UNL     1     -12.594  42.101 -26.085  1.00  0.00     0.115 C 
BRANCH  36  37
HETATM   37  C14 UNL     1     -11.659  41.451 -25.053  1.00  0.00    -0.013 C 
HETATM   38  C15 UNL     1     -10.221  41.358 -25.573  1.00  0.00     0.010 C 
HETATM   39  C16 UNL     1     -12.165  40.050 -24.698  1.00  0.00     0.010 C 
ENDBRANCH  36  37
ENDBRANCH  34  36
ENDBRANCH  33  34
ENDBRANCH  13  33
BRANCH   1  40
HETATM   40  O1  UNL     1     -18.890  46.597 -20.396  1.00  0.00    -0.354 OA
HETATM   41  C1  UNL     1     -19.205  47.636 -19.479  1.00  0.00     0.210 C 
ENDBRANCH   1  40
BRANCH  22  42
HETATM   42  O6  UNL     1      -8.131  45.512 -23.286  1.00  0.00    -0.368 OA
HETATM   43  H32 UNL     1      -7.369  45.403 -22.684  1.00  0.00     0.212 HD
ENDBRANCH  22  42
BRANCH  25  44
HETATM   44  O7  UNL     1      -6.571  48.965 -25.143  1.00  0.00    -0.327 OA
HETATM   45  H33 UNL     1      -5.973  49.147 -24.402  1.00  0.00     0.221 HD
ENDBRANCH  25  44
BRANCH  27  46
HETATM   46  O9  UNL     1      -7.510  46.712 -20.829  1.00  0.00    -0.382 OA
HETATM   47  C27 UNL     1      -7.712  46.220 -19.511  1.00  0.00     0.202 C 
ENDBRANCH  27  46
BRANCH  31  48
HETATM   48  C32 UNL     1     -13.946  44.522 -18.795  1.00  0.00     0.198 C 
BRANCH  48  49
HETATM   49  O10 UNL     1     -13.709  44.487 -17.393  1.00  0.00    -0.397 OA
HETATM   50  H43 UNL     1     -13.928  45.371 -17.052  1.00  0.00     0.209 HD
ENDBRANCH  48  49
ENDBRANCH  31  48
TORSDOF 10
ENDMDL
MODEL 9
REMARK minimizedAffinity -6.52150822
REMARK CNNscore 0.121533602
REMARK CNNaffinity 4.74968529
REMARK  10 active torsions:
REMARK  status: ('A' for Active; 'I' for Inactive)
REMARK    1  A    between atoms: O1_2  and  C2_3 
REMARK    2  A    between atoms: C11_15  and  O3_16 
REMARK    3  A    between atoms: O3_16  and  C12_17 
REMARK    4  A    between atoms: C12_17  and  C13_19 
REMARK    5  A    between atoms: C13_19  and  C14_20 
REMARK    6  A    between atoms: C24_31  and  O6_32 
REMARK    7  A    between atoms: C25_35  and  O7_36 
REMARK    8  A    between atoms: C26_38  and  O9_39 
REMARK    9  A    between atoms: C31_44  and  C32_45 
REMARK   10  A    between atoms: C32_45  and  O10_46 
ROOT
HETATM    1  C2  UNL     1     -17.706  46.473 -20.824  1.00  0.00     0.092 A 
HETATM    2  C3  UNL     1     -16.552  46.661 -20.055  1.00  0.00     0.046 A 
HETATM    3  C4  UNL     1     -15.277  46.548 -20.631  1.00  0.00    -0.049 A 
HETATM    4  C5  UNL     1     -15.165  46.230 -21.993  1.00  0.00     0.039 A 
HETATM    5  C6  UNL     1     -16.304  46.009 -22.780  1.00  0.00     0.061 A 
HETATM    6  C7  UNL     1     -17.579  46.148 -22.190  1.00  0.00     0.094 A 
HETATM    7 CL1  UNL     1     -19.024  46.039 -23.162  1.00  0.00    -0.079 Cl
HETATM    8  N1  UNL     1     -16.129  45.630 -24.154  1.00  0.00    -0.321 N 
HETATM    9  C8  UNL     1     -16.680  44.336 -24.537  1.00  0.00     0.159 C 
HETATM   10  C9  UNL     1     -15.358  46.438 -24.992  1.00  0.00     0.226 C 
HETATM   11  O2  UNL     1     -14.837  47.488 -24.597  1.00  0.00    -0.273 OA
HETATM   12  C10 UNL     1     -15.273  46.102 -26.479  1.00  0.00     0.139 C 
HETATM   13  C11 UNL     1     -14.181  45.158 -26.986  1.00  0.00     0.177 C 
HETATM   14  C17 UNL     1     -12.715  45.461 -26.681  1.00  0.00     0.111 A 
HETATM   15  C18 UNL     1     -11.739  44.539 -27.361  1.00  0.00     0.051 C 
HETATM   16  O5  UNL     1     -12.408  45.697 -25.305  1.00  0.00    -0.366 OA
HETATM   17  C19 UNL     1     -12.278  46.838 -26.162  1.00  0.00     0.165 A 
HETATM   18  C20 UNL     1     -10.916  47.469 -26.298  1.00  0.00     0.043 C 
HETATM   19  C21 UNL     1     -10.541  47.602 -27.783  1.00  0.00     0.015 C 
HETATM   20  C22 UNL     1      -9.756  46.894 -25.448  1.00  0.00     0.143 C 
HETATM   21  C23 UNL     1     -10.003  46.984 -23.942  1.00  0.00     0.097 C 
HETATM   22  C24 UNL     1      -8.697  46.657 -23.212  1.00  0.00     0.166 C 
HETATM   23  N2  UNL     1      -7.656  47.602 -23.623  1.00  0.00    -0.316 N 
ATOM     24  H2  UNL     1      -6.956  47.957 -22.972  1.00  0.00     0.166 HD
HETATM   25  C25 UNL     1      -7.683  47.951 -24.849  1.00  0.00     0.260 C 
HETATM   26  O8  UNL     1      -8.574  47.652 -25.801  1.00  0.00    -0.311 OA
HETATM   27  C26 UNL     1      -8.871  46.806 -21.651  1.00  0.00     0.199 C 
HETATM   28  C28 UNL     1      -9.886  45.862 -21.056  1.00  0.00     0.010 C 
HETATM   29  C29 UNL     1     -11.078  46.225 -20.555  1.00  0.00    -0.001 C 
HETATM   30  C30 UNL     1     -11.974  45.262 -19.953  1.00  0.00     0.005 C 
HETATM   31  C31 UNL     1     -13.254  45.457 -19.570  1.00  0.00    -0.052 C 
HETATM   32  C33 UNL     1     -14.035  46.742 -19.786  1.00  0.00     0.075 C 
ENDROOT
BRANCH  13  33
HETATM   33  O3  UNL     1     -14.453  43.792 -26.606  1.00  0.00    -0.312 OA
BRANCH  33  34
HETATM   34  C12 UNL     1     -14.764  42.931 -27.616  1.00  0.00     0.259 C 
HETATM   35  O4  UNL     1     -14.168  41.892 -27.851  1.00  0.00    -0.265 OA
BRANCH  34  36
HETATM   36  C13 UNL     1     -15.946  43.469 -28.393  1.00  0.00     0.115 C 
BRANCH  36  37
HETATM   37  C14 UNL     1     -17.292  42.888 -27.931  1.00  0.00    -0.013 C 
HETATM   38  C15 UNL     1     -17.765  41.758 -28.852  1.00  0.00     0.010 C 
HETATM   39  C16 UNL     1     -18.352  43.991 -27.890  1.00  0.00     0.010 C 
ENDBRANCH  36  37
ENDBRANCH  34  36
ENDBRANCH  33  34
ENDBRANCH  13  33
BRANCH   1  40
HETATM   40  O1  UNL     1     -18.983  46.579 -20.331  1.00  0.00    -0.354 OA
HETATM   41  C1  UNL     1     -19.254  47.612 -19.394  1.00  0.00     0.210 C 
ENDBRANCH   1  40
BRANCH  22  42
HETATM   42  O6  UNL     1      -8.320  45.306 -23.489  1.00  0.00    -0.368 OA
HETATM   43  H32 UNL     1      -7.547  45.169 -22.907  1.00  0.00     0.212 HD
ENDBRANCH  22  42
BRANCH  25  44
HETATM   44  O7  UNL     1      -6.724  48.756 -25.321  1.00  0.00    -0.327 OA
HETATM   45  H33 UNL     1      -6.106  48.911 -24.591  1.00  0.00     0.221 HD
ENDBRANCH  25  44
BRANCH  27  46
HETATM   46  O9  UNL     1      -7.616  46.447 -21.026  1.00  0.00    -0.382 OA
HETATM   47  C27 UNL     1      -7.546  46.882 -19.675  1.00  0.00     0.202 C 
ENDBRANCH  27  46
BRANCH  31  48
HETATM   48  C32 UNL     1     -14.052  44.365 -18.882  1.00  0.00     0.198 C 
BRANCH  48  49
HETATM   49  O10 UNL     1     -13.864  44.367 -17.473  1.00  0.00    -0.397 OA
HETATM   50  H43 UNL     1     -14.106  45.256 -17.161  1.00  0.00     0.209 HD
ENDBRANCH  48  49
ENDBRANCH  31  48
TORSDOF 10
ENDMDL
