MODEL 1
REMARK minimizedAffinity -9.87252617
REMARK  10 active torsions:
REMARK  status: ('A' for Active; 'I' for Inactive)
REMARK    1  A    between atoms: C2_2  and  C3_3 
REMARK    2  A    between atoms: C2_2  and  C9_11 
REMARK    3  A    between atoms: C3_3  and  C4_4 
REMARK    4  A    between atoms: C4_4  and  C5_5 
REMARK    5  A    between atoms: C5_5  and  O1_6 
REMARK    6  A    between atoms: C5_5  and  C6_7 
REMARK    7  A    between atoms: C6_7  and  O2_10 
REMARK    8  A    between atoms: C12_14  and  C13_15 
REMARK    9  A    between atoms: C13_15  and  O4_17 
REMARK   10  A    between atoms: C21_25  and  O5_26 
ROOT
HETATM    1  C9  UNL     1      -1.044  51.961 -24.634  1.00  0.00    -0.001 C 
HETATM    2  C10 UNL     1      -0.100  51.260 -25.648  1.00  0.00     0.007 C 
HETATM    3  C11 UNL     1      -0.888  50.061 -26.236  1.00  0.00     0.022 C 
HETATM    4  C12 UNL     1      -2.349  50.301 -25.796  1.00  0.00     0.057 C 
HETATM    5  C14 UNL     1      -3.304  49.076 -25.736  1.00  0.00     0.010 C 
HETATM    6  C15 UNL     1      -3.448  48.302 -27.057  1.00  0.00     0.010 C 
HETATM    7  C16 UNL     1      -4.683  48.628 -27.900  1.00  0.00     0.036 C 
HETATM    8  C17 UNL     1      -5.978  47.948 -27.471  1.00  0.00    -0.067 C 
HETATM    9  C18 UNL     1      -6.325  47.748 -26.174  1.00  0.00    -0.076 C 
HETATM   10  C19 UNL     1      -7.554  46.948 -25.768  1.00  0.00     0.037 C 
HETATM   11  C20 UNL     1      -8.255  46.207 -26.898  1.00  0.00     0.037 C 
HETATM   12  C21 UNL     1      -8.307  47.059 -28.156  1.00  0.00     0.130 C 
HETATM   13  C22 UNL     1      -6.877  47.459 -28.644  1.00  0.00     0.002 C 
HETATM   14  C23 UNL     1      -7.038  48.555 -29.727  1.00  0.00     0.022 C 
HETATM   15  C24 UNL     1      -6.216  46.220 -29.294  1.00  0.00     0.022 C 
HETATM   16  C25 UNL     1      -5.606  48.289 -24.943  1.00  0.00     0.039 C 
HETATM   17  C26 UNL     1      -4.663  49.497 -25.110  1.00  0.00    -0.005 C 
HETATM   18  C27 UNL     1      -4.491  50.211 -23.742  1.00  0.00     0.006 C 
HETATM   19  C28 UNL     1      -3.433  51.328 -23.718  1.00  0.00     0.011 C 
HETATM   20  C29 UNL     1      -2.105  50.861 -24.337  1.00  0.00    -0.022 C 
HETATM   21  C30 UNL     1      -1.502  49.813 -23.347  1.00  0.00     0.017 C 
ENDROOT
BRANCH   1  22
HETATM   22  C2  UNL     1      -0.384  52.701 -23.431  1.00  0.00    -0.014 C 
HETATM   23  C1  UNL     1       0.630  53.725 -23.968  1.00  0.00     0.010 C 
BRANCH  22  24
HETATM   24  C3  UNL     1       0.297  51.792 -22.380  1.00  0.00     0.007 C 
BRANCH  24  25
HETATM   25  C4  UNL     1       0.895  52.557 -21.179  1.00  0.00     0.035 C 
BRANCH  25  26
HETATM   26  C5  UNL     1      -0.167  53.004 -20.154  1.00  0.00     0.151 C 
BRANCH  26  27
HETATM   27  O1  UNL     1       0.310  54.196 -19.503  1.00  0.00    -0.393 OA
HETATM   28  H10 UNL     1       1.210  53.995 -19.191  1.00  0.00     0.210 HD
ENDBRANCH  26  27
BRANCH  26  29
HETATM   29  C6  UNL     1      -0.494  51.947 -19.060  1.00  0.00     0.076 C 
HETATM   30  C7  UNL     1       0.423  52.054 -17.840  1.00  0.00     0.048 C 
HETATM   31  C8  UNL     1      -0.404  50.527 -19.638  1.00  0.00     0.048 C 
BRANCH  29  32
HETATM   32  O2  UNL     1      -1.841  52.153 -18.602  1.00  0.00    -0.388 OA
HETATM   33  H17 UNL     1      -2.432  51.773 -19.276  1.00  0.00     0.210 HD
ENDBRANCH  29  32
ENDBRANCH  26  29
ENDBRANCH  25  26
ENDBRANCH  24  25
ENDBRANCH  22  24
ENDBRANCH   1  22
BRANCH   4  34
HETATM   34  C13 UNL     1      -2.958  51.339 -26.783  1.00  0.00     0.149 C 
HETATM   35  O3  UNL     1      -3.050  51.256 -27.996  1.00  0.00    -0.649 OA
BRANCH  34  36
HETATM   36  O4  UNL     1      -3.383  52.474 -26.190  1.00  0.00    -0.776 OA
HETATM   37  H23 UNL     1      -3.714  53.013 -26.938  1.00  0.00     0.167 HD
ENDBRANCH  34  36
ENDBRANCH   4  34
BRANCH  12  38
HETATM   38  O5  UNL     1      -9.125  48.209 -27.905  1.00  0.00    -0.394 OA
HETATM   39  H34 UNL     1      -8.620  48.802 -27.320  1.00  0.00     0.210 HD
ENDBRANCH  12  38
TORSDOF 10
ENDMDL
MODEL 2
REMARK minimizedAffinity -9.64889717
REMARK  10 active torsions:
REMARK  status: ('A' for Active; 'I' for Inactive)
REMARK    1  A    between atoms: C2_2  and  C3_3 
REMARK    2  A    between atoms: C2_2  and  C9_11 
REMARK    3  A    between atoms: C3_3  and  C4_4 
REMARK    4  A    between atoms: C4_4  and  C5_5 
REMARK    5  A    between atoms: C5_5  and  O1_6 
REMARK    6  A    between atoms: C5_5  and  C6_7 
REMARK    7  A    between atoms: C6_7  and  O2_10 
REMARK    8  A    between atoms: C12_14  and  C13_15 
REMARK    9  A    between atoms: C13_15  and  O4_17 
REMARK   10  A    between atoms: C21_25  and  O5_26 
ROOT
HETATM    1  C9  UNL     1      -2.147  51.449 -21.451  1.00  0.00    -0.001 C 
HETATM    2  C10 UNL     1      -2.441  49.930 -21.319  1.00  0.00     0.007 C 
HETATM    3  C11 UNL     1      -1.640  49.426 -20.090  1.00  0.00     0.022 C 
HETATM    4  C12 UNL     1      -1.182  50.713 -19.369  1.00  0.00     0.057 C 
HETATM    5  C14 UNL     1       0.057  50.624 -18.434  1.00  0.00     0.010 C 
HETATM    6  C15 UNL     1      -0.065  49.597 -17.295  1.00  0.00     0.010 C 
HETATM    7  C16 UNL     1      -0.470  50.150 -15.927  1.00  0.00     0.036 C 
HETATM    8  C17 UNL     1       0.649  50.782 -15.108  1.00  0.00    -0.067 C 
HETATM    9  C18 UNL     1       1.641  51.533 -15.651  1.00  0.00    -0.076 C 
HETATM   10  C19 UNL     1       2.823  52.042 -14.837  1.00  0.00     0.037 C 
HETATM   11  C20 UNL     1       2.935  51.482 -13.426  1.00  0.00     0.037 C 
HETATM   12  C21 UNL     1       1.567  51.389 -12.769  1.00  0.00     0.130 C 
HETATM   13  C22 UNL     1       0.595  50.476 -13.583  1.00  0.00     0.002 C 
HETATM   14  C23 UNL     1      -0.831  50.683 -13.015  1.00  0.00     0.022 C 
HETATM   15  C24 UNL     1       1.003  49.001 -13.358  1.00  0.00     0.022 C 
HETATM   16  C25 UNL     1       1.738  52.014 -17.095  1.00  0.00     0.039 C 
HETATM   17  C26 UNL     1       0.455  52.046 -17.948  1.00  0.00    -0.005 C 
HETATM   18  C27 UNL     1       0.642  53.043 -19.124  1.00  0.00     0.006 C 
HETATM   19  C28 UNL     1      -0.492  53.045 -20.164  1.00  0.00     0.011 C 
HETATM   20  C29 UNL     1      -0.842  51.619 -20.620  1.00  0.00    -0.022 C 
HETATM   21  C30 UNL     1       0.376  51.115 -21.459  1.00  0.00     0.017 C 
ENDROOT
BRANCH   1  22
HETATM   22  C2  UNL     1      -2.206  52.071 -22.879  1.00  0.00    -0.014 C 
HETATM   23  C1  UNL     1      -2.935  51.096 -23.820  1.00  0.00     0.010 C 
BRANCH  22  24
HETATM   24  C3  UNL     1      -0.841  52.467 -23.491  1.00  0.00     0.007 C 
BRANCH  24  25
HETATM   25  C4  UNL     1      -0.910  52.859 -24.983  1.00  0.00     0.035 C 
BRANCH  25  26
HETATM   26  C5  UNL     1       0.477  53.009 -25.638  1.00  0.00     0.151 C 
BRANCH  26  27
HETATM   27  O1  UNL     1       0.514  54.268 -26.334  1.00  0.00    -0.393 OA
HETATM   28  H10 UNL     1      -0.278  54.291 -26.900  1.00  0.00     0.210 HD
ENDBRANCH  26  27
BRANCH  26  29
HETATM   29  C6  UNL     1       0.841  51.882 -26.648  1.00  0.00     0.076 C 
HETATM   30  C7  UNL     1      -0.058  50.652 -26.510  1.00  0.00     0.048 C 
HETATM   31  C8  UNL     1       2.307  51.458 -26.477  1.00  0.00     0.048 C 
BRANCH  29  32
HETATM   32  O2  UNL     1       0.678  52.384 -27.984  1.00  0.00    -0.388 OA
HETATM   33  H17 UNL     1       1.457  52.935 -28.178  1.00  0.00     0.210 HD
ENDBRANCH  29  32
ENDBRANCH  26  29
ENDBRANCH  25  26
ENDBRANCH  24  25
ENDBRANCH  22  24
ENDBRANCH   1  22
BRANCH   4  34
HETATM   34  C13 UNL     1      -2.388  51.218 -18.525  1.00  0.00     0.149 C 
HETATM   35  O3  UNL     1      -2.400  51.527 -17.346  1.00  0.00    -0.649 OA
BRANCH  34  36
HETATM   36  O4  UNL     1      -3.552  51.260 -19.206  1.00  0.00    -0.776 OA
HETATM   37  H23 UNL     1      -4.197  51.576 -18.538  1.00  0.00     0.167 HD
ENDBRANCH  34  36
ENDBRANCH   4  34
BRANCH  12  38
HETATM   38  O5  UNL     1       1.042  52.711 -12.601  1.00  0.00    -0.394 OA
HETATM   39  H34 UNL     1       0.783  53.035 -13.484  1.00  0.00     0.210 HD
ENDBRANCH  12  38
TORSDOF 10
ENDMDL
MODEL 3
REMARK minimizedAffinity -9.48991871
REMARK  10 active torsions:
REMARK  status: ('A' for Active; 'I' for Inactive)
REMARK    1  A    between atoms: C2_2  and  C3_3 
REMARK    2  A    between atoms: C2_2  and  C9_11 
REMARK    3  A    between atoms: C3_3  and  C4_4 
REMARK    4  A    between atoms: C4_4  and  C5_5 
REMARK    5  A    between atoms: C5_5  and  O1_6 
REMARK    6  A    between atoms: C5_5  and  C6_7 
REMARK    7  A    between atoms: C6_7  and  O2_10 
REMARK    8  A    between atoms: C12_14  and  C13_15 
REMARK    9  A    between atoms: C13_15  and  O4_17 
REMARK   10  A    between atoms: C21_25  and  O5_26 
ROOT
HETATM    1  C9  UNL     1      -0.405  50.952 -21.257  1.00  0.00    -0.001 C 
HETATM    2  C10 UNL     1      -0.765  51.289 -19.784  1.00  0.00     0.007 C 
HETATM    3  C11 UNL     1      -2.088  50.546 -19.467  1.00  0.00     0.022 C 
HETATM    4  C12 UNL     1      -2.271  49.557 -20.640  1.00  0.00     0.057 C 
HETATM    5  C14 UNL     1      -3.706  49.042 -20.944  1.00  0.00     0.010 C 
HETATM    6  C15 UNL     1      -4.403  48.337 -19.767  1.00  0.00     0.010 C 
HETATM    7  C16 UNL     1      -4.360  46.808 -19.773  1.00  0.00     0.036 C 
HETATM    8  C17 UNL     1      -5.384  46.118 -20.668  1.00  0.00    -0.067 C 
HETATM    9  C18 UNL     1      -5.751  46.590 -21.886  1.00  0.00    -0.076 C 
HETATM   10  C19 UNL     1      -6.871  45.963 -22.704  1.00  0.00     0.037 C 
HETATM   11  C20 UNL     1      -7.696  44.906 -21.983  1.00  0.00     0.037 C 
HETATM   12  C21 UNL     1      -6.808  44.012 -21.133  1.00  0.00     0.130 C 
HETATM   13  C22 UNL     1      -6.015  44.830 -20.064  1.00  0.00     0.002 C 
HETATM   14  C23 UNL     1      -4.933  43.898 -19.465  1.00  0.00     0.022 C 
HETATM   15  C24 UNL     1      -6.991  45.238 -18.935  1.00  0.00     0.022 C 
HETATM   16  C25 UNL     1      -5.121  47.754 -22.644  1.00  0.00     0.039 C 
HETATM   17  C26 UNL     1      -3.700  48.204 -22.254  1.00  0.00    -0.005 C 
HETATM   18  C27 UNL     1      -3.055  48.968 -23.442  1.00  0.00     0.006 C 
HETATM   19  C28 UNL     1      -1.703  49.634 -23.134  1.00  0.00     0.011 C 
HETATM   20  C29 UNL     1      -1.763  50.458 -21.837  1.00  0.00    -0.022 C 
HETATM   21  C30 UNL     1      -2.676  51.689 -22.139  1.00  0.00     0.017 C 
ENDROOT
BRANCH   1  22
HETATM   22  C2  UNL     1       0.403  52.016 -22.060  1.00  0.00    -0.014 C 
HETATM   23  C1  UNL     1       0.736  53.197 -21.133  1.00  0.00     0.010 C 
BRANCH  22  24
HETATM   24  C3  UNL     1      -0.277  52.537 -23.349  1.00  0.00     0.007 C 
BRANCH  24  25
HETATM   25  C4  UNL     1       0.693  53.212 -24.343  1.00  0.00     0.035 C 
BRANCH  25  26
HETATM   26  C5  UNL     1       0.149  53.260 -25.785  1.00  0.00     0.151 C 
BRANCH  26  27
HETATM   27  O1  UNL     1      -1.273  53.043 -25.738  1.00  0.00    -0.393 OA
HETATM   28  H10 UNL     1      -1.408  52.235 -25.211  1.00  0.00     0.210 HD
ENDBRANCH  26  27
BRANCH  26  29
HETATM   29  C6  UNL     1       0.773  52.207 -26.747  1.00  0.00     0.076 C 
HETATM   30  C7  UNL     1       0.449  52.481 -28.216  1.00  0.00     0.048 C 
HETATM   31  C8  UNL     1       0.297  50.793 -26.379  1.00  0.00     0.048 C 
BRANCH  29  32
HETATM   32  O2  UNL     1       2.203  52.241 -26.610  1.00  0.00    -0.388 OA
HETATM   33  H17 UNL     1       2.423  51.760 -25.792  1.00  0.00     0.210 HD
ENDBRANCH  29  32
ENDBRANCH  26  29
ENDBRANCH  25  26
ENDBRANCH  24  25
ENDBRANCH  22  24
ENDBRANCH   1  22
BRANCH   4  34
HETATM   34  C13 UNL     1      -1.369  48.324 -20.343  1.00  0.00     0.149 C 
HETATM   35  O3  UNL     1      -0.880  47.543 -21.141  1.00  0.00    -0.649 OA
BRANCH  34  36
HETATM   36  O4  UNL     1      -1.166  48.099 -19.028  1.00  0.00    -0.776 OA
HETATM   37  H23 UNL     1      -0.606  47.295 -19.017  1.00  0.00     0.167 HD
ENDBRANCH  34  36
ENDBRANCH   4  34
BRANCH  12  38
HETATM   38  O5  UNL     1      -5.934  43.273 -21.995  1.00  0.00    -0.394 OA
HETATM   39  H34 UNL     1      -5.267  43.897 -22.337  1.00  0.00     0.210 HD
ENDBRANCH  12  38
TORSDOF 10
ENDMDL
MODEL 4
REMARK minimizedAffinity -9.39985371
REMARK  10 active torsions:
REMARK  status: ('A' for Active; 'I' for Inactive)
REMARK    1  A    between atoms: C2_2  and  C3_3 
REMARK    2  A    between atoms: C2_2  and  C9_11 
REMARK    3  A    between atoms: C3_3  and  C4_4 
REMARK    4  A    between atoms: C4_4  and  C5_5 
REMARK    5  A    between atoms: C5_5  and  O1_6 
REMARK    6  A    between atoms: C5_5  and  C6_7 
REMARK    7  A    between atoms: C6_7  and  O2_10 
REMARK    8  A    between atoms: C12_14  and  C13_15 
REMARK    9  A    between atoms: C13_15  and  O4_17 
REMARK   10  A    between atoms: C21_25  and  O5_26 
ROOT
HETATM    1  C9  UNL     1      -3.627  49.944 -23.575  1.00  0.00    -0.001 C 
HETATM    2  C10 UNL     1      -3.414  48.409 -23.472  1.00  0.00     0.007 C 
HETATM    3  C11 UNL     1      -2.431  48.173 -22.296  1.00  0.00     0.022 C 
HETATM    4  C12 UNL     1      -2.370  49.530 -21.561  1.00  0.00     0.057 C 
HETATM    5  C14 UNL     1      -1.120  49.831 -20.686  1.00  0.00     0.010 C 
HETATM    6  C15 UNL     1      -0.848  48.805 -19.572  1.00  0.00     0.010 C 
HETATM    7  C16 UNL     1      -1.336  49.183 -18.172  1.00  0.00     0.036 C 
HETATM    8  C17 UNL     1      -0.435  50.130 -17.388  1.00  0.00    -0.067 C 
HETATM    9  C18 UNL     1       0.237  51.164 -17.954  1.00  0.00    -0.076 C 
HETATM   10  C19 UNL     1       1.235  52.015 -17.182  1.00  0.00     0.037 C 
HETATM   11  C20 UNL     1       1.593  51.503 -15.793  1.00  0.00     0.037 C 
HETATM   12  C21 UNL     1       0.363  50.970 -15.077  1.00  0.00     0.130 C 
HETATM   13  C22 UNL     1      -0.309  49.804 -15.871  1.00  0.00     0.002 C 
HETATM   14  C23 UNL     1      -1.696  49.538 -15.233  1.00  0.00     0.022 C 
HETATM   15  C24 UNL     1       0.559  48.534 -15.706  1.00  0.00     0.022 C 
HETATM   16  C25 UNL     1       0.099  51.668 -19.387  1.00  0.00     0.039 C 
HETATM   17  C26 UNL     1      -1.170  51.299 -20.179  1.00  0.00    -0.005 C 
HETATM   18  C27 UNL     1      -1.373  52.318 -21.334  1.00  0.00     0.006 C 
HETATM   19  C28 UNL     1      -2.501  51.970 -22.321  1.00  0.00     0.011 C 
HETATM   20  C29 UNL     1      -2.402  50.512 -22.800  1.00  0.00    -0.022 C 
HETATM   21  C30 UNL     1      -1.133  50.433 -23.708  1.00  0.00     0.017 C 
ENDROOT
BRANCH   1  22
HETATM   22  C2  UNL     1      -3.955  50.531 -24.981  1.00  0.00    -0.014 C 
HETATM   23  C1  UNL     1      -3.666  49.463 -26.049  1.00  0.00     0.010 C 
BRANCH  22  24
HETATM   24  C3  UNL     1      -3.221  51.845 -25.343  1.00  0.00     0.007 C 
BRANCH  24  25
HETATM   25  C4  UNL     1      -2.555  51.830 -26.736  1.00  0.00     0.035 C 
BRANCH  25  26
HETATM   26  C5  UNL     1      -1.523  52.959 -26.929  1.00  0.00     0.151 C 
BRANCH  26  27
HETATM   27  O1  UNL     1      -1.929  53.750 -28.061  1.00  0.00    -0.393 OA
HETATM   28  H10 UNL     1      -2.082  53.124 -28.791  1.00  0.00     0.210 HD
ENDBRANCH  26  27
BRANCH  26  29
HETATM   29  C6  UNL     1      -0.066  52.470 -27.171  1.00  0.00     0.076 C 
HETATM   30  C7  UNL     1       0.440  52.790 -28.578  1.00  0.00     0.048 C 
HETATM   31  C8  UNL     1       0.041  50.957 -26.928  1.00  0.00     0.048 C 
BRANCH  29  32
HETATM   32  O2  UNL     1       0.807  53.131 -26.241  1.00  0.00    -0.388 OA
HETATM   33  H17 UNL     1       0.702  52.682 -25.383  1.00  0.00     0.210 HD
ENDBRANCH  29  32
ENDBRANCH  26  29
ENDBRANCH  25  26
ENDBRANCH  24  25
ENDBRANCH  22  24
ENDBRANCH   1  22
BRANCH   4  34
HETATM   34  C13 UNL     1      -3.627  49.613 -20.649  1.00  0.00     0.149 C 
HETATM   35  O3  UNL     1      -4.183  50.614 -20.227  1.00  0.00    -0.649 OA
BRANCH  34  36
HETATM   36  O4  UNL     1      -4.102  48.411 -20.261  1.00  0.00    -0.776 OA
HETATM   37  H23 UNL     1      -4.867  48.640 -19.691  1.00  0.00     0.167 HD
ENDBRANCH  34  36
ENDBRANCH   4  34
BRANCH  12  38
HETATM   38  O5  UNL     1      -0.547  52.053 -14.849  1.00  0.00    -0.394 OA
HETATM   39  H34 UNL     1      -0.941  52.288 -15.709  1.00  0.00     0.210 HD
ENDBRANCH  12  38
TORSDOF 10
ENDMDL
MODEL 5
REMARK minimizedAffinity -9.28598404
REMARK  10 active torsions:
REMARK  status: ('A' for Active; 'I' for Inactive)
REMARK    1  A    between atoms: C2_2  and  C3_3 
REMARK    2  A    between atoms: C2_2  and  C9_11 
REMARK    3  A    between atoms: C3_3  and  C4_4 
REMARK    4  A    between atoms: C4_4  and  C5_5 
REMARK    5  A    between atoms: C5_5  and  O1_6 
REMARK    6  A    between atoms: C5_5  and  C6_7 
REMARK    7  A    between atoms: C6_7  and  O2_10 
REMARK    8  A    between atoms: C12_14  and  C13_15 
REMARK    9  A    between atoms: C13_15  and  O4_17 
REMARK   10  A    between atoms: C21_25  and  O5_26 
ROOT
HETATM    1  C9  UNL     1      -2.112  50.867 -22.933  1.00  0.00    -0.001 C 
HETATM    2  C10 UNL     1      -3.089  51.698 -22.057  1.00  0.00     0.007 C 
HETATM    3  C11 UNL     1      -4.522  51.237 -22.427  1.00  0.00     0.022 C 
HETATM    4  C12 UNL     1      -4.316  49.946 -23.249  1.00  0.00     0.057 C 
HETATM    5  C14 UNL     1      -5.450  49.510 -24.219  1.00  0.00     0.010 C 
HETATM    6  C15 UNL     1      -6.823  49.300 -23.557  1.00  0.00     0.010 C 
HETATM    7  C16 UNL     1      -7.198  47.855 -23.220  1.00  0.00     0.036 C 
HETATM    8  C17 UNL     1      -7.736  47.022 -24.378  1.00  0.00    -0.067 C 
HETATM    9  C18 UNL     1      -7.261  47.108 -25.646  1.00  0.00    -0.076 C 
HETATM   10  C19 UNL     1      -7.900  46.368 -26.813  1.00  0.00     0.037 C 
HETATM   11  C20 UNL     1      -9.230  45.693 -26.510  1.00  0.00     0.037 C 
HETATM   12  C21 UNL     1      -9.205  45.036 -25.139  1.00  0.00     0.130 C 
HETATM   13  C22 UNL     1      -8.910  46.071 -24.006  1.00  0.00     0.002 C 
HETATM   14  C23 UNL     1      -8.606  45.277 -22.711  1.00  0.00     0.022 C 
HETATM   15  C24 UNL     1     -10.183  46.920 -23.774  1.00  0.00     0.022 C 
HETATM   16  C25 UNL     1      -6.040  47.893 -26.114  1.00  0.00     0.039 C 
HETATM   17  C26 UNL     1      -4.980  48.297 -25.070  1.00  0.00    -0.005 C 
HETATM   18  C27 UNL     1      -3.627  48.564 -25.785  1.00  0.00     0.006 C 
HETATM   19  C28 UNL     1      -2.522  49.152 -24.891  1.00  0.00     0.011 C 
HETATM   20  C29 UNL     1      -3.032  50.353 -24.078  1.00  0.00    -0.022 C 
HETATM   21  C30 UNL     1      -3.276  51.507 -25.104  1.00  0.00     0.017 C 
ENDROOT
BRANCH   1  22
HETATM   22  C2  UNL     1      -0.750  51.524 -23.311  1.00  0.00    -0.014 C 
HETATM   23  C1  UNL     1       0.005  51.889 -22.022  1.00  0.00     0.010 C 
BRANCH  22  24
HETATM   24  C3  UNL     1      -0.841  52.763 -24.234  1.00  0.00     0.007 C 
BRANCH  24  25
HETATM   25  C4  UNL     1       0.466  53.078 -24.995  1.00  0.00     0.035 C 
BRANCH  25  26
HETATM   26  C5  UNL     1       0.260  53.239 -26.515  1.00  0.00     0.151 C 
BRANCH  26  27
HETATM   27  O1  UNL     1      -1.119  53.576 -26.750  1.00  0.00    -0.393 OA
HETATM   28  H10 UNL     1      -1.647  52.912 -26.271  1.00  0.00     0.210 HD
ENDBRANCH  26  27
BRANCH  26  29
HETATM   29  C6  UNL     1       0.604  51.973 -27.351  1.00  0.00     0.076 C 
HETATM   30  C7  UNL     1       0.096  50.682 -26.707  1.00  0.00     0.048 C 
HETATM   31  C8  UNL     1       2.120  51.866 -27.569  1.00  0.00     0.048 C 
BRANCH  29  32
HETATM   32  O2  UNL     1      -0.022  52.083 -28.640  1.00  0.00    -0.388 OA
HETATM   33  H17 UNL     1       0.523  52.692 -29.170  1.00  0.00     0.210 HD
ENDBRANCH  29  32
ENDBRANCH  26  29
ENDBRANCH  25  26
ENDBRANCH  24  25
ENDBRANCH  22  24
ENDBRANCH   1  22
BRANCH   4  34
HETATM   34  C13 UNL     1      -4.080  48.791 -22.234  1.00  0.00     0.149 C 
HETATM   35  O3  UNL     1      -4.593  48.638 -21.139  1.00  0.00    -0.649 OA
BRANCH  34  36
HETATM   36  O4  UNL     1      -3.152  47.895 -22.631  1.00  0.00    -0.776 OA
HETATM   37  H23 UNL     1      -3.113  47.259 -21.886  1.00  0.00     0.167 HD
ENDBRANCH  34  36
ENDBRANCH   4  34
BRANCH  12  38
HETATM   38  O5  UNL     1      -8.245  43.972 -25.152  1.00  0.00    -0.394 OA
HETATM   39  H34 UNL     1      -7.359  44.380 -25.160  1.00  0.00     0.210 HD
ENDBRANCH  12  38
TORSDOF 10
ENDMDL
MODEL 6
REMARK minimizedAffinity -9.27542496
REMARK  10 active torsions:
REMARK  status: ('A' for Active; 'I' for Inactive)
REMARK    1  A    between atoms: C2_2  and  C3_3 
REMARK    2  A    between atoms: C2_2  and  C9_11 
REMARK    3  A    between atoms: C3_3  and  C4_4 
REMARK    4  A    between atoms: C4_4  and  C5_5 
REMARK    5  A    between atoms: C5_5  and  O1_6 
REMARK    6  A    between atoms: C5_5  and  C6_7 
REMARK    7  A    between atoms: C6_7  and  O2_10 
REMARK    8  A    between atoms: C12_14  and  C13_15 
REMARK    9  A    between atoms: C13_15  and  O4_17 
REMARK   10  A    between atoms: C21_25  and  O5_26 
ROOT
HETATM    1  C9  UNL     1      -1.534  50.554 -16.294  1.00  0.00    -0.001 C 
HETATM    2  C10 UNL     1      -0.050  50.937 -16.546  1.00  0.00     0.007 C 
HETATM    3  C11 UNL     1       0.225  50.689 -18.051  1.00  0.00     0.022 C 
HETATM    4  C12 UNL     1      -1.173  50.489 -18.676  1.00  0.00     0.057 C 
HETATM    5  C14 UNL     1      -1.270  49.707 -20.017  1.00  0.00     0.010 C 
HETATM    6  C15 UNL     1      -0.440  50.297 -21.171  1.00  0.00     0.010 C 
HETATM    7  C16 UNL     1      -1.200  51.173 -22.170  1.00  0.00     0.036 C 
HETATM    8  C17 UNL     1      -1.986  50.426 -23.243  1.00  0.00    -0.067 C 
HETATM    9  C18 UNL     1      -2.661  49.273 -23.010  1.00  0.00    -0.076 C 
HETATM   10  C19 UNL     1      -3.325  48.473 -24.121  1.00  0.00     0.037 C 
HETATM   11  C20 UNL     1      -3.008  48.932 -25.537  1.00  0.00     0.037 C 
HETATM   12  C21 UNL     1      -2.990  50.449 -25.625  1.00  0.00     0.130 C 
HETATM   13  C22 UNL     1      -1.932  51.073 -24.658  1.00  0.00     0.002 C 
HETATM   14  C23 UNL     1      -2.195  52.598 -24.592  1.00  0.00     0.022 C 
HETATM   15  C24 UNL     1      -0.525  50.842 -25.257  1.00  0.00     0.022 C 
HETATM   16  C25 UNL     1      -2.901  48.611 -21.656  1.00  0.00     0.039 C 
HETATM   17  C26 UNL     1      -2.761  49.468 -20.382  1.00  0.00    -0.005 C 
HETATM   18  C27 UNL     1      -3.556  48.805 -19.225  1.00  0.00     0.006 C 
HETATM   19  C28 UNL     1      -3.360  49.453 -17.843  1.00  0.00     0.011 C 
HETATM   20  C29 UNL     1      -1.870  49.660 -17.524  1.00  0.00    -0.022 C 
HETATM   21  C30 UNL     1      -1.264  48.236 -17.309  1.00  0.00     0.017 C 
ENDROOT
BRANCH   1  22
HETATM   22  C2  UNL     1      -1.911  50.036 -14.873  1.00  0.00    -0.014 C 
HETATM   23  C1  UNL     1      -2.307  48.553 -14.970  1.00  0.00     0.010 C 
BRANCH  22  24
HETATM   24  C3  UNL     1      -3.024  50.829 -14.147  1.00  0.00     0.007 C 
BRANCH  24  25
HETATM   25  C4  UNL     1      -2.511  52.050 -13.354  1.00  0.00     0.035 C 
BRANCH  25  26
HETATM   26  C5  UNL     1      -3.560  52.630 -12.384  1.00  0.00     0.151 C 
BRANCH  26  27
HETATM   27  O1  UNL     1      -4.219  53.729 -13.039  1.00  0.00    -0.393 OA
HETATM   28  H10 UNL     1      -3.514  54.312 -13.372  1.00  0.00     0.210 HD
ENDBRANCH  26  27
BRANCH  26  29
HETATM   29  C6  UNL     1      -2.980  53.142 -11.034  1.00  0.00     0.076 C 
HETATM   30  C7  UNL     1      -2.682  52.010 -10.050  1.00  0.00     0.048 C 
HETATM   31  C8  UNL     1      -3.945  54.141 -10.378  1.00  0.00     0.048 C 
BRANCH  29  32
HETATM   32  O2  UNL     1      -1.742  53.825 -11.289  1.00  0.00    -0.388 OA
HETATM   33  H17 UNL     1      -1.969  54.708 -11.631  1.00  0.00     0.210 HD
ENDBRANCH  29  32
ENDBRANCH  26  29
ENDBRANCH  25  26
ENDBRANCH  24  25
ENDBRANCH  22  24
ENDBRANCH   1  22
BRANCH   4  34
HETATM   34  C13 UNL     1      -1.780  51.904 -18.899  1.00  0.00     0.149 C 
HETATM   35  O3  UNL     1      -2.958  52.217 -18.942  1.00  0.00    -0.649 OA
BRANCH  34  36
HETATM   36  O4  UNL     1      -0.859  52.867 -19.115  1.00  0.00    -0.776 OA
HETATM   37  H23 UNL     1      -1.399  53.674 -19.251  1.00  0.00     0.167 HD
ENDBRANCH  34  36
ENDBRANCH   4  34
BRANCH  12  38
HETATM   38  O5  UNL     1      -4.309  50.945 -25.362  1.00  0.00    -0.394 OA
HETATM   39  H34 UNL     1      -4.477  50.833 -24.408  1.00  0.00     0.210 HD
ENDBRANCH  12  38
TORSDOF 10
ENDMDL
MODEL 7
REMARK minimizedAffinity -9.12743282
REMARK  10 active torsions:
REMARK  status: ('A' for Active; 'I' for Inactive)
REMARK    1  A    between atoms: C2_2  and  C3_3 
REMARK    2  A    between atoms: C2_2  and  C9_11 
REMARK    3  A    between atoms: C3_3  and  C4_4 
REMARK    4  A    between atoms: C4_4  and  C5_5 
REMARK    5  A    between atoms: C5_5  and  O1_6 
REMARK    6  A    between atoms: C5_5  and  C6_7 
REMARK    7  A    between atoms: C6_7  and  O2_10 
REMARK    8  A    between atoms: C12_14  and  C13_15 
REMARK    9  A    between atoms: C13_15  and  O4_17 
REMARK   10  A    between atoms: C21_25  and  O5_26 
ROOT
HETATM    1  C9  UNL     1      -1.687  49.930 -18.336  1.00  0.00    -0.001 C 
HETATM    2  C10 UNL     1      -3.225  50.025 -18.527  1.00  0.00     0.007 C 
HETATM    3  C11 UNL     1      -3.463  50.693 -19.905  1.00  0.00     0.022 C 
HETATM    4  C12 UNL     1      -2.083  50.662 -20.598  1.00  0.00     0.057 C 
HETATM    5  C14 UNL     1      -1.810  51.691 -21.731  1.00  0.00     0.010 C 
HETATM    6  C15 UNL     1      -2.804  51.638 -22.905  1.00  0.00     0.010 C 
HETATM    7  C16 UNL     1      -2.347  50.862 -24.143  1.00  0.00     0.036 C 
HETATM    8  C17 UNL     1      -1.415  51.611 -25.089  1.00  0.00    -0.067 C 
HETATM    9  C18 UNL     1      -0.438  52.454 -24.667  1.00  0.00    -0.076 C 
HETATM   10  C19 UNL     1       0.391  53.295 -25.627  1.00  0.00     0.037 C 
HETATM   11  C20 UNL     1      -0.082  53.292 -27.074  1.00  0.00     0.037 C 
HETATM   12  C21 UNL     1      -0.525  51.901 -27.498  1.00  0.00     0.130 C 
HETATM   13  C22 UNL     1      -1.686  51.364 -26.602  1.00  0.00     0.002 C 
HETATM   14  C23 UNL     1      -1.857  49.855 -26.906  1.00  0.00     0.022 C 
HETATM   15  C24 UNL     1      -2.990  52.096 -26.998  1.00  0.00     0.022 C 
HETATM   16  C25 UNL     1       0.014  52.681 -23.228  1.00  0.00     0.039 C 
HETATM   17  C26 UNL     1      -0.322  51.609 -22.172  1.00  0.00    -0.005 C 
HETATM   18  C27 UNL     1       0.659  51.738 -20.975  1.00  0.00     0.006 C 
HETATM   19  C28 UNL     1       0.328  50.851 -19.762  1.00  0.00     0.011 C 
HETATM   20  C29 UNL     1      -1.150  50.973 -19.359  1.00  0.00    -0.022 C 
HETATM   21  C30 UNL     1      -1.328  52.411 -18.774  1.00  0.00     0.017 C 
ENDROOT
BRANCH   1  22
HETATM   22  C2  UNL     1      -1.140  49.970 -16.877  1.00  0.00    -0.014 C 
HETATM   23  C1  UNL     1      -2.159  50.695 -15.981  1.00  0.00     0.010 C 
BRANCH  22  24
HETATM   24  C3  UNL     1       0.257  50.611 -16.705  1.00  0.00     0.007 C 
BRANCH  24  25
HETATM   25  C4  UNL     1       0.892  50.374 -15.317  1.00  0.00     0.035 C 
BRANCH  25  26
HETATM   26  C5  UNL     1       1.366  51.673 -14.635  1.00  0.00     0.151 C 
BRANCH  26  27
HETATM   27  O1  UNL     1       1.070  52.775 -15.512  1.00  0.00    -0.393 OA
HETATM   28  H10 UNL     1       1.439  52.540 -16.381  1.00  0.00     0.210 HD
ENDBRANCH  26  27
BRANCH  26  29
HETATM   29  C6  UNL     1       2.884  51.710 -14.299  1.00  0.00     0.076 C 
HETATM   30  C7  UNL     1       3.737  52.213 -15.464  1.00  0.00     0.048 C 
HETATM   31  C8  UNL     1       3.377  50.317 -13.876  1.00  0.00     0.048 C 
BRANCH  29  32
HETATM   32  O2  UNL     1       3.095  52.606 -13.195  1.00  0.00    -0.388 OA
HETATM   33  H17 UNL     1       2.834  52.130 -12.387  1.00  0.00     0.210 HD
ENDBRANCH  29  32
ENDBRANCH  26  29
ENDBRANCH  25  26
ENDBRANCH  24  25
ENDBRANCH  22  24
ENDBRANCH   1  22
BRANCH   4  34
HETATM   34  C13 UNL     1      -1.901  49.234 -21.189  1.00  0.00     0.149 C 
HETATM   35  O3  UNL     1      -2.749  48.517 -21.692  1.00  0.00    -0.649 OA
BRANCH  34  36
HETATM   36  O4  UNL     1      -0.648  48.748 -21.069  1.00  0.00    -0.776 OA
HETATM   37  H23 UNL     1      -0.710  47.854 -21.467  1.00  0.00     0.167 HD
ENDBRANCH  34  36
ENDBRANCH   4  34
BRANCH  12  38
HETATM   38  O5  UNL     1       0.611  51.027 -27.479  1.00  0.00    -0.394 OA
HETATM   39  H34 UNL     1       0.831  50.857 -26.545  1.00  0.00     0.210 HD
ENDBRANCH  12  38
TORSDOF 10
ENDMDL
MODEL 8
REMARK minimizedAffinity -9.06131172
REMARK  10 active torsions:
REMARK  status: ('A' for Active; 'I' for Inactive)
REMARK    1  A    between atoms: C2_2  and  C3_3 
REMARK    2  A    between atoms: C2_2  and  C9_11 
REMARK    3  A    between atoms: C3_3  and  C4_4 
REMARK    4  A    between atoms: C4_4  and  C5_5 
REMARK    5  A    between atoms: C5_5  and  O1_6 
REMARK    6  A    between atoms: C5_5  and  C6_7 
REMARK    7  A    between atoms: C6_7  and  O2_10 
REMARK    8  A    between atoms: C12_14  and  C13_15 
REMARK    9  A    between atoms: C13_15  and  O4_17 
REMARK   10  A    between atoms: C21_25  and  O5_26 
ROOT
HETATM    1  C9  UNL     1      -1.370  51.832 -21.418  1.00  0.00    -0.001 C 
HETATM    2  C10 UNL     1      -0.971  51.933 -22.915  1.00  0.00     0.007 C 
HETATM    3  C11 UNL     1      -1.795  50.859 -23.670  1.00  0.00     0.022 C 
HETATM    4  C12 UNL     1      -2.868  50.406 -22.655  1.00  0.00     0.057 C 
HETATM    5  C14 UNL     1      -3.514  49.005 -22.852  1.00  0.00     0.010 C 
HETATM    6  C15 UNL     1      -4.195  48.793 -24.215  1.00  0.00     0.010 C 
HETATM    7  C16 UNL     1      -5.714  48.978 -24.248  1.00  0.00     0.036 C 
HETATM    8  C17 UNL     1      -6.538  47.792 -23.758  1.00  0.00    -0.067 C 
HETATM    9  C18 UNL     1      -6.174  47.009 -22.711  1.00  0.00    -0.076 C 
HETATM   10  C19 UNL     1      -6.938  45.751 -22.323  1.00  0.00     0.037 C 
HETATM   11  C20 UNL     1      -8.010  45.307 -23.310  1.00  0.00     0.037 C 
HETATM   12  C21 UNL     1      -8.775  46.502 -23.854  1.00  0.00     0.130 C 
HETATM   13  C22 UNL     1      -7.831  47.514 -24.579  1.00  0.00     0.002 C 
HETATM   14  C23 UNL     1      -8.635  48.815 -24.825  1.00  0.00     0.022 C 
HETATM   15  C24 UNL     1      -7.431  46.917 -25.949  1.00  0.00     0.022 C 
HETATM   16  C25 UNL     1      -5.014  47.249 -21.750  1.00  0.00     0.039 C 
HETATM   17  C26 UNL     1      -4.429  48.671 -21.641  1.00  0.00    -0.005 C 
HETATM   18  C27 UNL     1      -3.693  48.823 -20.282  1.00  0.00     0.006 C 
HETATM   19  C28 UNL     1      -2.903  50.133 -20.112  1.00  0.00     0.011 C 
HETATM   20  C29 UNL     1      -2.007  50.414 -21.328  1.00  0.00    -0.022 C 
HETATM   21  C30 UNL     1      -0.874  49.339 -21.298  1.00  0.00     0.017 C 
ENDROOT
BRANCH   1  22
HETATM   22  C2  UNL     1      -0.299  52.234 -20.359  1.00  0.00    -0.014 C 
HETATM   23  C1  UNL     1       1.010  52.595 -21.084  1.00  0.00     0.010 C 
BRANCH  22  24
HETATM   24  C3  UNL     1      -0.017  51.180 -19.262  1.00  0.00     0.007 C 
BRANCH  24  25
HETATM   25  C4  UNL     1      -0.123  51.727 -17.822  1.00  0.00     0.035 C 
BRANCH  25  26
HETATM   26  C5  UNL     1       0.913  51.113 -16.860  1.00  0.00     0.151 C 
BRANCH  26  27
HETATM   27  O1  UNL     1       0.288  50.019 -16.164  1.00  0.00    -0.393 OA
HETATM   28  H10 UNL     1      -0.545  50.367 -15.799  1.00  0.00     0.210 HD
ENDBRANCH  26  27
BRANCH  26  29
HETATM   29  C6  UNL     1       1.480  52.104 -15.803  1.00  0.00     0.076 C 
HETATM   30  C7  UNL     1       2.940  51.817 -15.446  1.00  0.00     0.048 C 
HETATM   31  C8  UNL     1       0.632  52.071 -14.523  1.00  0.00     0.048 C 
BRANCH  29  32
HETATM   32  O2  UNL     1       1.424  53.437 -16.336  1.00  0.00    -0.388 OA
HETATM   33  H17 UNL     1       0.501  53.737 -16.256  1.00  0.00     0.210 HD
ENDBRANCH  29  32
ENDBRANCH  26  29
ENDBRANCH  25  26
ENDBRANCH  24  25
ENDBRANCH  22  24
ENDBRANCH   1  22
BRANCH   4  34
HETATM   34  C13 UNL     1      -4.003  51.468 -22.685  1.00  0.00     0.149 C 
HETATM   35  O3  UNL     1      -4.360  52.158 -23.625  1.00  0.00    -0.649 OA
BRANCH  34  36
HETATM   36  O4  UNL     1      -4.611  51.653 -21.494  1.00  0.00    -0.776 OA
HETATM   37  H23 UNL     1      -5.273  52.352 -21.681  1.00  0.00     0.167 HD
ENDBRANCH  34  36
ENDBRANCH   4  34
BRANCH  12  38
HETATM   38  O5  UNL     1      -9.495  47.120 -22.780  1.00  0.00    -0.394 OA
HETATM   39  H34 UNL     1      -8.843  47.579 -22.220  1.00  0.00     0.210 HD
ENDBRANCH  12  38
TORSDOF 10
ENDMDL
MODEL 9
REMARK minimizedAffinity -9.05352879
REMARK  10 active torsions:
REMARK  status: ('A' for Active; 'I' for Inactive)
REMARK    1  A    between atoms: C2_2  and  C3_3 
REMARK    2  A    between atoms: C2_2  and  C9_11 
REMARK    3  A    between atoms: C3_3  and  C4_4 
REMARK    4  A    between atoms: C4_4  and  C5_5 
REMARK    5  A    between atoms: C5_5  and  O1_6 
REMARK    6  A    between atoms: C5_5  and  C6_7 
REMARK    7  A    between atoms: C6_7  and  O2_10 
REMARK    8  A    between atoms: C12_14  and  C13_15 
REMARK    9  A    between atoms: C13_15  and  O4_17 
REMARK   10  A    between atoms: C21_25  and  O5_26 
ROOT
HETATM    1  C9  UNL     1      -9.184  46.850 -30.469  1.00  0.00    -0.001 C 
HETATM    2  C10 UNL     1     -10.028  45.863 -29.616  1.00  0.00     0.007 C 
HETATM    3  C11 UNL     1      -9.344  45.777 -28.227  1.00  0.00     0.022 C 
HETATM    4  C12 UNL     1      -8.337  46.948 -28.215  1.00  0.00     0.057 C 
HETATM    5  C14 UNL     1      -7.127  46.860 -27.242  1.00  0.00     0.010 C 
HETATM    6  C15 UNL     1      -7.500  46.690 -25.759  1.00  0.00     0.010 C 
HETATM    7  C16 UNL     1      -7.489  47.963 -24.909  1.00  0.00     0.036 C 
HETATM    8  C17 UNL     1      -6.121  48.418 -24.414  1.00  0.00    -0.067 C 
HETATM    9  C18 UNL     1      -4.989  48.331 -25.158  1.00  0.00    -0.076 C 
HETATM   10  C19 UNL     1      -3.613  48.664 -24.598  1.00  0.00     0.037 C 
HETATM   11  C20 UNL     1      -3.558  48.899 -23.095  1.00  0.00     0.037 C 
HETATM   12  C21 UNL     1      -4.763  49.697 -22.625  1.00  0.00     0.130 C 
HETATM   13  C22 UNL     1      -6.105  48.970 -22.959  1.00  0.00     0.002 C 
HETATM   14  C23 UNL     1      -7.258  49.978 -22.724  1.00  0.00     0.022 C 
HETATM   15  C24 UNL     1      -6.280  47.787 -21.977  1.00  0.00     0.022 C 
HETATM   16  C25 UNL     1      -4.889  47.937 -26.627  1.00  0.00     0.039 C 
HETATM   17  C26 UNL     1      -6.151  48.041 -27.506  1.00  0.00    -0.005 C 
HETATM   18  C27 UNL     1      -5.735  48.143 -28.998  1.00  0.00     0.006 C 
HETATM   19  C28 UNL     1      -6.895  48.070 -30.006  1.00  0.00     0.011 C 
HETATM   20  C29 UNL     1      -7.826  46.882 -29.710  1.00  0.00    -0.022 C 
HETATM   21  C30 UNL     1      -7.012  45.591 -30.048  1.00  0.00     0.017 C 
ENDROOT
BRANCH   1  22
HETATM   22  C2  UNL     1      -9.169  46.633 -32.012  1.00  0.00    -0.014 C 
HETATM   23  C1  UNL     1      -8.720  45.192 -32.311  1.00  0.00     0.010 C 
BRANCH  22  24
HETATM   24  C3  UNL     1      -8.301  47.630 -32.817  1.00  0.00     0.007 C 
BRANCH  24  25
HETATM   25  C4  UNL     1      -7.081  46.984 -33.510  1.00  0.00     0.035 C 
BRANCH  25  26
HETATM   26  C5  UNL     1      -5.958  47.992 -33.826  1.00  0.00     0.151 C 
BRANCH  26  27
HETATM   27  O1  UNL     1      -5.759  48.012 -35.252  1.00  0.00    -0.393 OA
HETATM   28  H10 UNL     1      -5.649  47.085 -35.525  1.00  0.00     0.210 HD
ENDBRANCH  26  27
BRANCH  26  29
HETATM   29  C6  UNL     1      -4.595  47.674 -33.147  1.00  0.00     0.076 C 
HETATM   30  C7  UNL     1      -3.416  47.750 -34.119  1.00  0.00     0.048 C 
HETATM   31  C8  UNL     1      -4.627  46.282 -32.499  1.00  0.00     0.048 C 
BRANCH  29  32
HETATM   32  O2  UNL     1      -4.356  48.639 -32.109  1.00  0.00    -0.388 OA
HETATM   33  H17 UNL     1      -4.901  48.378 -31.346  1.00  0.00     0.210 HD
ENDBRANCH  29  32
ENDBRANCH  26  29
ENDBRANCH  25  26
ENDBRANCH  24  25
ENDBRANCH  22  24
ENDBRANCH   1  22
BRANCH   4  34
HETATM   34  C13 UNL     1      -9.139  48.236 -27.872  1.00  0.00     0.149 C 
HETATM   35  O3  UNL     1     -10.099  48.346 -27.128  1.00  0.00    -0.649 OA
BRANCH  34  36
HETATM   36  O4  UNL     1      -8.718  49.335 -28.534  1.00  0.00    -0.776 OA
HETATM   37  H23 UNL     1      -9.327  50.037 -28.222  1.00  0.00     0.167 HD
ENDBRANCH  34  36
ENDBRANCH   4  34
BRANCH  12  38
HETATM   38  O5  UNL     1      -4.707  51.006 -23.205  1.00  0.00    -0.394 OA
HETATM   39  H34 UNL     1      -4.924  50.914 -24.151  1.00  0.00     0.210 HD
ENDBRANCH  12  38
TORSDOF 10
ENDMDL
