MODEL 1
REMARK minimizedAffinity -7.58012056
REMARK CNNscore 0.72019887
REMARK CNNaffinity 6.92635489
REMARK  6 active torsions:
REMARK  status: ('A' for Active; 'I' for Inactive)
REMARK    1  A    between atoms: C2_2  and  C30_32 
REMARK    2  A    between atoms: C3_3  and  C4_4 
REMARK    3  A    between atoms: C4_4  and  C5_6 
REMARK    4  A    between atoms: C5_6  and  C6_7 
REMARK    5  A    between atoms: C6_7  and  C8_9 
REMARK    6  A    between atoms: C30_32  and  O4_34 
ROOT
HETATM    1  C8  UNL     1       5.707  55.969  -8.269  1.00  0.00    -0.001 C 
HETATM    2  C9  UNL     1       6.388  54.903  -9.179  1.00  0.00     0.007 C 
HETATM    3  C10 UNL     1       5.276  54.021  -9.772  1.00  0.00     0.015 C 
HETATM    4  C11 UNL     1       3.970  54.788  -9.482  1.00  0.00    -0.013 C 
HETATM    5  C12 UNL     1       3.828  55.847 -10.619  1.00  0.00     0.021 C 
HETATM    6  C13 UNL     1       2.665  54.008  -9.470  1.00  0.00    -0.070 C 
HETATM    7  C14 UNL     1       2.493  52.834 -10.103  1.00  0.00    -0.022 C 
HETATM    8  C15 UNL     1       1.156  52.158 -10.153  1.00  0.00     0.034 C 
HETATM    9  C16 UNL     1       0.074  53.233 -10.335  1.00  0.00     0.013 C 
HETATM   10  C17 UNL     1      -1.326  52.690 -10.759  1.00  0.00     0.018 C 
HETATM   11  C18 UNL     1      -1.342  52.408 -12.277  1.00  0.00     0.023 C 
HETATM   12  C19 UNL     1      -1.726  51.387 -10.041  1.00  0.00     0.023 C 
HETATM   13  C20 UNL     1      -2.390  53.769 -10.512  1.00  0.00     0.135 C 
HETATM   14  O2  UNL     1      -3.587  53.493 -10.399  1.00  0.00    -0.297 OA
HETATM   15  C21 UNL     1      -1.943  55.216 -10.521  1.00  0.00     0.080 C 
HETATM   16  C22 UNL     1      -0.692  55.506  -9.683  1.00  0.00     0.017 C 
HETATM   17  C23 UNL     1       0.052  54.256  -9.141  1.00  0.00    -0.031 C 
HETATM   18  C24 UNL     1      -0.724  53.736  -7.900  1.00  0.00     0.016 C 
HETATM   19  C25 UNL     1       1.528  54.576  -8.617  1.00  0.00     0.024 C 
HETATM   20  C26 UNL     1       1.757  56.039  -8.162  1.00  0.00     0.010 C 
HETATM   21  C27 UNL     1       3.179  56.384  -7.663  1.00  0.00     0.011 C 
HETATM   22  C28 UNL     1       4.276  55.371  -8.054  1.00  0.00    -0.029 C 
HETATM   23  C29 UNL     1       4.360  54.274  -6.944  1.00  0.00     0.016 C 
ENDROOT
BRANCH   1  24
HETATM   24  C6  UNL     1       6.590  56.335  -7.039  1.00  0.00    -0.007 C 
HETATM   25  C7  UNL     1       7.003  55.101  -6.227  1.00  0.00     0.011 C 
BRANCH  24  26
HETATM   26  C5  UNL     1       5.840  57.319  -6.110  1.00  0.00     0.087 C 
BRANCH  26  27
HETATM   27  C4  UNL     1       6.665  57.731  -4.904  1.00  0.00     0.150 C 
HETATM   28  O1  UNL     1       6.273  57.524  -3.759  1.00  0.00    -0.293 OA
BRANCH  27  29
HETATM   29  C3  UNL     1       7.954  58.426  -5.180  1.00  0.00     0.063 C 
HETATM   30  C2  UNL     1       8.219  59.709  -4.872  1.00  0.00     0.015 C 
HETATM   31  C1  UNL     1       7.320  60.663  -4.146  1.00  0.00     0.055 C 
BRANCH  30  32
HETATM   32  C30 UNL     1       9.562  60.180  -5.280  1.00  0.00     0.171 C 
HETATM   33  O3  UNL     1       9.862  61.320  -5.589  1.00  0.00    -0.646 OA
BRANCH  32  34
HETATM   34  O4  UNL     1      10.478  59.201  -5.271  1.00  0.00    -0.773 OA
HETATM   35  H44 UNL     1      11.306  59.647  -5.545  1.00  0.00     0.167 HD
ENDBRANCH  32  34
ENDBRANCH  30  32
ENDBRANCH  27  29
ENDBRANCH  26  27
ENDBRANCH  24  26
ENDBRANCH   1  24
TORSDOF 6
ENDMDL
MODEL 2
REMARK minimizedAffinity -7.55892992
REMARK CNNscore 0.706687868
REMARK CNNaffinity 6.86512566
REMARK  6 active torsions:
REMARK  status: ('A' for Active; 'I' for Inactive)
REMARK    1  A    between atoms: C2_2  and  C30_32 
REMARK    2  A    between atoms: C3_3  and  C4_4 
REMARK    3  A    between atoms: C4_4  and  C5_6 
REMARK    4  A    between atoms: C5_6  and  C6_7 
REMARK    5  A    between atoms: C6_7  and  C8_9 
REMARK    6  A    between atoms: C30_32  and  O4_34 
ROOT
HETATM    1  C8  UNL     1       5.547  56.085  -7.766  1.00  0.00    -0.001 C 
HETATM    2  C9  UNL     1       6.360  55.213  -8.770  1.00  0.00     0.007 C 
HETATM    3  C10 UNL     1       5.358  54.330  -9.534  1.00  0.00     0.015 C 
HETATM    4  C11 UNL     1       3.978  54.940  -9.219  1.00  0.00    -0.013 C 
HETATM    5  C12 UNL     1       3.792  56.127 -10.213  1.00  0.00     0.021 C 
HETATM    6  C13 UNL     1       2.749  54.061  -9.382  1.00  0.00    -0.070 C 
HETATM    7  C14 UNL     1       2.710  52.972 -10.172  1.00  0.00    -0.022 C 
HETATM    8  C15 UNL     1       1.443  52.201 -10.385  1.00  0.00     0.034 C 
HETATM    9  C16 UNL     1       0.278  53.198 -10.484  1.00  0.00     0.013 C 
HETATM   10  C17 UNL     1      -1.048  52.603 -11.053  1.00  0.00     0.018 C 
HETATM   11  C18 UNL     1      -0.971  52.529 -12.593  1.00  0.00     0.023 C 
HETATM   12  C19 UNL     1      -1.361  51.187 -10.535  1.00  0.00     0.023 C 
HETATM   13  C20 UNL     1      -2.214  53.547 -10.726  1.00  0.00     0.135 C 
HETATM   14  O2  UNL     1      -3.385  53.160 -10.718  1.00  0.00    -0.297 OA
HETATM   15  C21 UNL     1      -1.898  55.014 -10.520  1.00  0.00     0.080 C 
HETATM   16  C22 UNL     1      -0.716  55.290  -9.583  1.00  0.00     0.017 C 
HETATM   17  C23 UNL     1       0.112  54.045  -9.169  1.00  0.00    -0.031 C 
HETATM   18  C24 UNL     1      -0.669  53.299  -8.053  1.00  0.00     0.016 C 
HETATM   19  C25 UNL     1       1.529  54.412  -8.526  1.00  0.00     0.024 C 
HETATM   20  C26 UNL     1       1.606  55.814  -7.872  1.00  0.00     0.010 C 
HETATM   21  C27 UNL     1       2.968  56.205  -7.254  1.00  0.00     0.011 C 
HETATM   22  C28 UNL     1       4.167  55.348  -7.712  1.00  0.00    -0.029 C 
HETATM   23  C29 UNL     1       4.300  54.122  -6.753  1.00  0.00     0.016 C 
ENDROOT
BRANCH   1  24
HETATM   24  C6  UNL     1       6.338  56.354  -6.452  1.00  0.00    -0.007 C 
HETATM   25  C7  UNL     1       6.343  57.839  -6.067  1.00  0.00     0.011 C 
BRANCH  24  26
HETATM   26  C5  UNL     1       7.799  55.868  -6.593  1.00  0.00     0.087 C 
BRANCH  26  27
HETATM   27  C4  UNL     1       8.520  55.780  -5.259  1.00  0.00     0.150 C 
HETATM   28  O1  UNL     1       7.923  55.483  -4.227  1.00  0.00    -0.293 OA
BRANCH  27  29
HETATM   29  C3  UNL     1       9.975  56.102  -5.260  1.00  0.00     0.063 C 
HETATM   30  C2  UNL     1      10.943  55.295  -4.789  1.00  0.00     0.015 C 
HETATM   31  C1  UNL     1      10.771  53.911  -4.241  1.00  0.00     0.055 C 
BRANCH  30  32
HETATM   32  C30 UNL     1      12.311  55.856  -4.868  1.00  0.00     0.171 C 
HETATM   33  O3  UNL     1      13.348  55.219  -4.917  1.00  0.00    -0.646 OA
BRANCH  32  34
HETATM   34  O4  UNL     1      12.319  57.196  -4.897  1.00  0.00    -0.773 OA
HETATM   35  H44 UNL     1      13.269  57.428  -4.960  1.00  0.00     0.167 HD
ENDBRANCH  32  34
ENDBRANCH  30  32
ENDBRANCH  27  29
ENDBRANCH  26  27
ENDBRANCH  24  26
ENDBRANCH   1  24
TORSDOF 6
ENDMDL
MODEL 3
REMARK minimizedAffinity -8.01680851
REMARK CNNscore 0.644930899
REMARK CNNaffinity 6.1495285
REMARK  6 active torsions:
REMARK  status: ('A' for Active; 'I' for Inactive)
REMARK    1  A    between atoms: C2_2  and  C30_32 
REMARK    2  A    between atoms: C3_3  and  C4_4 
REMARK    3  A    between atoms: C4_4  and  C5_6 
REMARK    4  A    between atoms: C5_6  and  C6_7 
REMARK    5  A    between atoms: C6_7  and  C8_9 
REMARK    6  A    between atoms: C30_32  and  O4_34 
ROOT
HETATM    1  C8  UNL     1     -12.907  45.828 -27.254  1.00  0.00    -0.001 C 
HETATM    2  C9  UNL     1     -13.152  44.517 -28.060  1.00  0.00     0.007 C 
HETATM    3  C10 UNL     1     -12.064  44.431 -29.145  1.00  0.00     0.015 C 
HETATM    4  C11 UNL     1     -11.020  45.489 -28.739  1.00  0.00    -0.013 C 
HETATM    5  C12 UNL     1     -10.105  44.809 -27.674  1.00  0.00     0.021 C 
HETATM    6  C13 UNL     1     -10.086  46.027 -29.811  1.00  0.00    -0.070 C 
HETATM    7  C14 UNL     1      -9.798  45.368 -30.948  1.00  0.00    -0.022 C 
HETATM    8  C15 UNL     1      -8.787  45.889 -31.924  1.00  0.00     0.034 C 
HETATM    9  C16 UNL     1      -7.617  46.496 -31.134  1.00  0.00     0.013 C 
HETATM   10  C17 UNL     1      -6.328  46.762 -31.972  1.00  0.00     0.018 C 
HETATM   11  C18 UNL     1      -5.537  45.449 -32.149  1.00  0.00     0.023 C 
HETATM   12  C19 UNL     1      -6.610  47.326 -33.377  1.00  0.00     0.023 C 
HETATM   13  C20 UNL     1      -5.406  47.719 -31.202  1.00  0.00     0.135 C 
HETATM   14  O2  UNL     1      -4.531  48.378 -31.768  1.00  0.00    -0.297 OA
HETATM   15  C21 UNL     1      -5.524  47.750 -29.693  1.00  0.00     0.080 C 
HETATM   16  C22 UNL     1      -6.959  47.859 -29.164  1.00  0.00     0.017 C 
HETATM   17  C23 UNL     1      -8.076  47.696 -30.228  1.00  0.00    -0.031 C 
HETATM   18  C24 UNL     1      -8.202  49.037 -31.001  1.00  0.00     0.016 C 
HETATM   19  C25 UNL     1      -9.520  47.433 -29.594  1.00  0.00     0.024 C 
HETATM   20  C26 UNL     1      -9.708  47.968 -28.152  1.00  0.00     0.010 C 
HETATM   21  C27 UNL     1     -11.090  47.715 -27.506  1.00  0.00     0.011 C 
HETATM   22  C28 UNL     1     -11.949  46.634 -28.194  1.00  0.00    -0.029 C 
HETATM   23  C29 UNL     1     -12.808  47.315 -29.308  1.00  0.00     0.016 C 
ENDROOT
BRANCH   1  24
HETATM   24  C6  UNL     1     -14.240  46.469 -26.765  1.00  0.00    -0.007 C 
HETATM   25  C7  UNL     1     -14.248  46.718 -25.252  1.00  0.00     0.011 C 
BRANCH  24  26
HETATM   26  C5  UNL     1     -15.440  45.565 -27.132  1.00  0.00     0.087 C 
BRANCH  26  27
HETATM   27  C4  UNL     1     -16.011  44.834 -25.930  1.00  0.00     0.150 C 
HETATM   28  O1  UNL     1     -15.539  43.767 -25.545  1.00  0.00    -0.293 OA
BRANCH  27  29
HETATM   29  C3  UNL     1     -17.190  45.457 -25.263  1.00  0.00     0.063 C 
HETATM   30  C2  UNL     1     -18.449  45.424 -25.736  1.00  0.00     0.015 C 
HETATM   31  C1  UNL     1     -18.929  44.714 -26.965  1.00  0.00     0.055 C 
BRANCH  30  32
HETATM   32  C30 UNL     1     -19.441  46.148 -24.910  1.00  0.00     0.171 C 
HETATM   33  O3  UNL     1     -20.373  45.652 -24.303  1.00  0.00    -0.646 OA
BRANCH  32  34
HETATM   34  O4  UNL     1     -19.213  47.469 -24.869  1.00  0.00    -0.773 OA
HETATM   35  H44 UNL     1     -19.922  47.817 -24.290  1.00  0.00     0.167 HD
ENDBRANCH  32  34
ENDBRANCH  30  32
ENDBRANCH  27  29
ENDBRANCH  26  27
ENDBRANCH  24  26
ENDBRANCH   1  24
TORSDOF 6
ENDMDL
MODEL 4
REMARK minimizedAffinity -7.86787653
REMARK CNNscore 0.49638623
REMARK CNNaffinity 6.11427689
REMARK  6 active torsions:
REMARK  status: ('A' for Active; 'I' for Inactive)
REMARK    1  A    between atoms: C2_2  and  C30_32 
REMARK    2  A    between atoms: C3_3  and  C4_4 
REMARK    3  A    between atoms: C4_4  and  C5_6 
REMARK    4  A    between atoms: C5_6  and  C6_7 
REMARK    5  A    between atoms: C6_7  and  C8_9 
REMARK    6  A    between atoms: C30_32  and  O4_34 
ROOT
HETATM    1  C8  UNL     1     -12.668  45.847 -27.640  1.00  0.00    -0.001 C 
HETATM    2  C9  UNL     1     -13.384  46.890 -28.550  1.00  0.00     0.007 C 
HETATM    3  C10 UNL     1     -12.323  47.490 -29.489  1.00  0.00     0.015 C 
HETATM    4  C11 UNL     1     -11.105  46.556 -29.353  1.00  0.00    -0.013 C 
HETATM    5  C12 UNL     1     -11.370  45.355 -30.312  1.00  0.00     0.021 C 
HETATM    6  C13 UNL     1      -9.736  47.100 -29.730  1.00  0.00    -0.070 C 
HETATM    7  C14 UNL     1      -9.551  48.140 -30.563  1.00  0.00    -0.022 C 
HETATM    8  C15 UNL     1      -8.180  48.569 -30.991  1.00  0.00     0.034 C 
HETATM    9  C16 UNL     1      -7.325  47.312 -31.215  1.00  0.00     0.013 C 
HETATM   10  C17 UNL     1      -5.996  47.554 -31.997  1.00  0.00     0.018 C 
HETATM   11  C18 UNL     1      -6.284  47.637 -33.511  1.00  0.00     0.023 C 
HETATM   12  C19 UNL     1      -5.268  48.850 -31.591  1.00  0.00     0.023 C 
HETATM   13  C20 UNL     1      -5.062  46.350 -31.802  1.00  0.00     0.135 C 
HETATM   14  O2  UNL     1      -3.845  46.432 -31.981  1.00  0.00    -0.297 OA
HETATM   15  C21 UNL     1      -5.695  45.010 -31.491  1.00  0.00     0.080 C 
HETATM   16  C22 UNL     1      -6.753  45.043 -30.381  1.00  0.00     0.017 C 
HETATM   17  C23 UNL     1      -7.176  46.457 -29.904  1.00  0.00    -0.031 C 
HETATM   18  C24 UNL     1      -6.076  46.990 -28.946  1.00  0.00     0.016 C 
HETATM   19  C25 UNL     1      -8.525  46.459 -29.047  1.00  0.00     0.024 C 
HETATM   20  C26 UNL     1      -8.845  45.125 -28.329  1.00  0.00     0.010 C 
HETATM   21  C27 UNL     1     -10.151  45.089 -27.503  1.00  0.00     0.011 C 
HETATM   22  C28 UNL     1     -11.158  46.217 -27.819  1.00  0.00    -0.029 C 
HETATM   23  C29 UNL     1     -10.838  47.441 -26.903  1.00  0.00     0.016 C 
ENDROOT
BRANCH   1  24
HETATM   24  C6  UNL     1     -13.293  45.791 -26.214  1.00  0.00    -0.007 C 
HETATM   25  C7  UNL     1     -13.700  44.368 -25.810  1.00  0.00     0.011 C 
BRANCH  24  26
HETATM   26  C5  UNL     1     -14.534  46.710 -26.133  1.00  0.00     0.087 C 
BRANCH  26  27
HETATM   27  C4  UNL     1     -14.985  46.961 -24.704  1.00  0.00     0.150 C 
HETATM   28  O1  UNL     1     -14.180  47.012 -23.778  1.00  0.00    -0.293 OA
BRANCH  27  29
HETATM   29  C3  UNL     1     -16.451  47.110 -24.480  1.00  0.00     0.063 C 
HETATM   30  C2  UNL     1     -17.308  46.091 -24.286  1.00  0.00     0.015 C 
HETATM   31  C1  UNL     1     -16.967  44.635 -24.191  1.00  0.00     0.055 C 
BRANCH  30  32
HETATM   32  C30 UNL     1     -18.723  46.493 -24.122  1.00  0.00     0.171 C 
HETATM   33  O3  UNL     1     -19.563  45.917 -23.454  1.00  0.00    -0.646 OA
BRANCH  32  34
HETATM   34  O4  UNL     1     -19.023  47.614 -24.794  1.00  0.00    -0.773 OA
HETATM   35  H44 UNL     1     -19.969  47.769 -24.592  1.00  0.00     0.167 HD
ENDBRANCH  32  34
ENDBRANCH  30  32
ENDBRANCH  27  29
ENDBRANCH  26  27
ENDBRANCH  24  26
ENDBRANCH   1  24
TORSDOF 6
ENDMDL
MODEL 5
REMARK minimizedAffinity -9.35552979
REMARK CNNscore 0.405349463
REMARK CNNaffinity 7.01906443
REMARK  6 active torsions:
REMARK  status: ('A' for Active; 'I' for Inactive)
REMARK    1  A    between atoms: C2_2  and  C30_32 
REMARK    2  A    between atoms: C3_3  and  C4_4 
REMARK    3  A    between atoms: C4_4  and  C5_6 
REMARK    4  A    between atoms: C5_6  and  C6_7 
REMARK    5  A    between atoms: C6_7  and  C8_9 
REMARK    6  A    between atoms: C30_32  and  O4_34 
ROOT
HETATM    1  C8  UNL     1      -0.152  50.889 -18.408  1.00  0.00    -0.001 C 
HETATM    2  C9  UNL     1      -1.483  50.091 -18.260  1.00  0.00     0.007 C 
HETATM    3  C10 UNL     1      -2.140  50.023 -19.649  1.00  0.00     0.015 C 
HETATM    4  C11 UNL     1      -1.036  50.469 -20.628  1.00  0.00    -0.013 C 
HETATM    5  C12 UNL     1      -0.166  49.204 -20.905  1.00  0.00     0.021 C 
HETATM    6  C13 UNL     1      -1.453  50.997 -21.991  1.00  0.00    -0.070 C 
HETATM    7  C14 UNL     1      -2.631  50.709 -22.574  1.00  0.00    -0.022 C 
HETATM    8  C15 UNL     1      -2.950  51.164 -23.965  1.00  0.00     0.034 C 
HETATM    9  C16 UNL     1      -1.680  51.040 -24.821  1.00  0.00     0.013 C 
HETATM   10  C17 UNL     1      -1.916  51.131 -26.361  1.00  0.00     0.018 C 
HETATM   11  C18 UNL     1      -2.418  49.773 -26.897  1.00  0.00     0.023 C 
HETATM   12  C19 UNL     1      -2.949  52.200 -26.766  1.00  0.00     0.023 C 
HETATM   13  C20 UNL     1      -0.580  51.404 -27.068  1.00  0.00     0.135 C 
HETATM   14  O2  UNL     1      -0.527  51.886 -28.201  1.00  0.00    -0.297 OA
HETATM   15  C21 UNL     1       0.689  50.956 -26.373  1.00  0.00     0.080 C 
HETATM   16  C22 UNL     1       0.784  51.349 -24.894  1.00  0.00     0.017 C 
HETATM   17  C23 UNL     1      -0.511  51.939 -24.277  1.00  0.00    -0.031 C 
HETATM   18  C24 UNL     1      -0.621  53.424 -24.719  1.00  0.00     0.016 C 
HETATM   19  C25 UNL     1      -0.493  51.972 -22.679  1.00  0.00     0.024 C 
HETATM   20  C26 UNL     1       0.919  52.013 -22.042  1.00  0.00     0.010 C 
HETATM   21  C27 UNL     1       0.971  52.030 -20.497  1.00  0.00     0.011 C 
HETATM   22  C28 UNL     1      -0.333  51.599 -19.791  1.00  0.00    -0.029 C 
HETATM   23  C29 UNL     1      -1.228  52.863 -19.584  1.00  0.00     0.016 C 
ENDROOT
BRANCH   1  24
HETATM   24  C6  UNL     1       0.169  51.729 -17.137  1.00  0.00    -0.007 C 
HETATM   25  C7  UNL     1       1.528  52.434 -17.231  1.00  0.00     0.011 C 
BRANCH  24  26
HETATM   26  C5  UNL     1       0.157  50.830 -15.879  1.00  0.00     0.087 C 
BRANCH  26  27
HETATM   27  C4  UNL     1       0.759  51.513 -14.664  1.00  0.00     0.150 C 
HETATM   28  O1  UNL     1       0.386  52.627 -14.305  1.00  0.00    -0.293 OA
BRANCH  27  29
HETATM   29  C3  UNL     1       1.843  50.780 -13.951  1.00  0.00     0.063 C 
HETATM   30  C2  UNL     1       3.161  50.977 -14.141  1.00  0.00     0.015 C 
HETATM   31  C1  UNL     1       3.797  51.995 -15.038  1.00  0.00     0.055 C 
BRANCH  30  32
HETATM   32  C30 UNL     1       4.042  50.099 -13.339  1.00  0.00     0.171 C 
HETATM   33  O3  UNL     1       4.978  49.442 -13.757  1.00  0.00    -0.646 OA
BRANCH  32  34
HETATM   34  O4  UNL     1       3.718  50.093 -12.037  1.00  0.00    -0.773 OA
HETATM   35  H44 UNL     1       4.376  49.492 -11.630  1.00  0.00     0.167 HD
ENDBRANCH  32  34
ENDBRANCH  30  32
ENDBRANCH  27  29
ENDBRANCH  26  27
ENDBRANCH  24  26
ENDBRANCH   1  24
TORSDOF 6
ENDMDL
MODEL 6
REMARK minimizedAffinity -8.71229649
REMARK CNNscore 0.312943727
REMARK CNNaffinity 6.89701319
REMARK  6 active torsions:
REMARK  status: ('A' for Active; 'I' for Inactive)
REMARK    1  A    between atoms: C2_2  and  C30_32 
REMARK    2  A    between atoms: C3_3  and  C4_4 
REMARK    3  A    between atoms: C4_4  and  C5_6 
REMARK    4  A    between atoms: C5_6  and  C6_7 
REMARK    5  A    between atoms: C6_7  and  C8_9 
REMARK    6  A    between atoms: C30_32  and  O4_34 
ROOT
HETATM    1  C8  UNL     1      -1.732  51.503 -21.342  1.00  0.00    -0.001 C 
HETATM    2  C9  UNL     1      -2.490  50.142 -21.279  1.00  0.00     0.007 C 
HETATM    3  C10 UNL     1      -2.141  49.480 -19.935  1.00  0.00     0.015 C 
HETATM    4  C11 UNL     1      -1.481  50.599 -19.106  1.00  0.00    -0.013 C 
HETATM    5  C12 UNL     1      -2.649  51.418 -18.475  1.00  0.00     0.021 C 
HETATM    6  C13 UNL     1      -0.577  50.200 -17.950  1.00  0.00    -0.070 C 
HETATM    7  C14 UNL     1      -0.647  49.010 -17.326  1.00  0.00    -0.022 C 
HETATM    8  C15 UNL     1       0.191  48.705 -16.121  1.00  0.00     0.034 C 
HETATM    9  C16 UNL     1       0.265  49.967 -15.248  1.00  0.00     0.013 C 
HETATM   10  C17 UNL     1       0.792  49.732 -13.798  1.00  0.00     0.018 C 
HETATM   11  C18 UNL     1      -0.342  49.176 -12.911  1.00  0.00     0.023 C 
HETATM   12  C19 UNL     1       1.968  48.742 -13.722  1.00  0.00     0.023 C 
HETATM   13  C20 UNL     1       1.202  51.077 -13.178  1.00  0.00     0.135 C 
HETATM   14  O2  UNL     1       1.979  51.145 -12.224  1.00  0.00    -0.297 OA
HETATM   15  C21 UNL     1       0.530  52.329 -13.703  1.00  0.00     0.080 C 
HETATM   16  C22 UNL     1       0.490  52.442 -15.232  1.00  0.00     0.017 C 
HETATM   17  C23 UNL     1       0.931  51.173 -16.007  1.00  0.00    -0.031 C 
HETATM   18  C24 UNL     1       2.484  51.120 -15.998  1.00  0.00     0.016 C 
HETATM   19  C25 UNL     1       0.514  51.196 -17.550  1.00  0.00     0.024 C 
HETATM   20  C26 UNL     1       0.324  52.610 -18.154  1.00  0.00     0.010 C 
HETATM   21  C27 UNL     1      -0.094  52.666 -19.641  1.00  0.00     0.011 C 
HETATM   22  C28 UNL     1      -0.657  51.348 -20.215  1.00  0.00    -0.029 C 
HETATM   23  C29 UNL     1       0.531  50.503 -20.779  1.00  0.00     0.016 C 
ENDROOT
BRANCH   1  24
HETATM   24  C6  UNL     1      -1.294  51.860 -22.793  1.00  0.00    -0.007 C 
HETATM   25  C7  UNL     1      -1.636  50.752 -23.796  1.00  0.00     0.011 C 
BRANCH  24  26
HETATM   26  C5  UNL     1       0.227  52.132 -22.846  1.00  0.00     0.087 C 
BRANCH  26  27
HETATM   27  C4  UNL     1       0.568  53.425 -23.567  1.00  0.00     0.150 C 
HETATM   28  O1  UNL     1       1.291  54.274 -23.053  1.00  0.00    -0.293 OA
BRANCH  27  29
HETATM   29  C3  UNL     1      -0.044  53.624 -24.911  1.00  0.00     0.063 C 
HETATM   30  C2  UNL     1       0.353  53.005 -26.038  1.00  0.00     0.015 C 
HETATM   31  C1  UNL     1       1.423  51.963 -26.162  1.00  0.00     0.055 C 
BRANCH  30  32
HETATM   32  C30 UNL     1      -0.390  53.398 -27.256  1.00  0.00     0.171 C 
HETATM   33  O3  UNL     1      -0.498  54.527 -27.701  1.00  0.00    -0.646 OA
BRANCH  32  34
HETATM   34  O4  UNL     1      -0.957  52.352 -27.876  1.00  0.00    -0.773 OA
HETATM   35  H44 UNL     1      -1.397  52.747 -28.657  1.00  0.00     0.167 HD
ENDBRANCH  32  34
ENDBRANCH  30  32
ENDBRANCH  27  29
ENDBRANCH  26  27
ENDBRANCH  24  26
ENDBRANCH   1  24
TORSDOF 6
ENDMDL
MODEL 7
REMARK minimizedAffinity -8.51978016
REMARK CNNscore 0.278412193
REMARK CNNaffinity 6.32062149
REMARK  6 active torsions:
REMARK  status: ('A' for Active; 'I' for Inactive)
REMARK    1  A    between atoms: C2_2  and  C30_32 
REMARK    2  A    between atoms: C3_3  and  C4_4 
REMARK    3  A    between atoms: C4_4  and  C5_6 
REMARK    4  A    between atoms: C5_6  and  C6_7 
REMARK    5  A    between atoms: C6_7  and  C8_9 
REMARK    6  A    between atoms: C30_32  and  O4_34 
ROOT
HETATM    1  C8  UNL     1      -4.340  47.938 -19.791  1.00  0.00    -0.001 C 
HETATM    2  C9  UNL     1      -4.454  46.712 -20.746  1.00  0.00     0.007 C 
HETATM    3  C10 UNL     1      -3.861  47.126 -22.104  1.00  0.00     0.015 C 
HETATM    4  C11 UNL     1      -3.109  48.441 -21.819  1.00  0.00    -0.013 C 
HETATM    5  C12 UNL     1      -1.713  48.029 -21.260  1.00  0.00     0.021 C 
HETATM    6  C13 UNL     1      -2.834  49.379 -22.984  1.00  0.00    -0.070 C 
HETATM    7  C14 UNL     1      -2.794  48.981 -24.268  1.00  0.00    -0.022 C 
HETATM    8  C15 UNL     1      -2.411  49.922 -25.370  1.00  0.00     0.034 C 
HETATM    9  C16 UNL     1      -1.274  50.824 -24.866  1.00  0.00     0.013 C 
HETATM   10  C17 UNL     1      -0.519  51.613 -25.981  1.00  0.00     0.018 C 
HETATM   11  C18 UNL     1       0.509  50.691 -26.671  1.00  0.00     0.023 C 
HETATM   12  C19 UNL     1      -1.446  52.175 -27.075  1.00  0.00     0.023 C 
HETATM   13  C20 UNL     1       0.288  52.754 -25.343  1.00  0.00     0.135 C 
HETATM   14  O2  UNL     1       0.658  53.734 -25.994  1.00  0.00    -0.297 OA
HETATM   15  C21 UNL     1       0.720  52.591 -23.901  1.00  0.00     0.080 C 
HETATM   16  C22 UNL     1      -0.388  52.131 -22.947  1.00  0.00     0.017 C 
HETATM   17  C23 UNL     1      -1.710  51.687 -23.626  1.00  0.00    -0.031 C 
HETATM   18  C24 UNL     1      -2.503  52.964 -24.014  1.00  0.00     0.016 C 
HETATM   19  C25 UNL     1      -2.677  50.866 -22.652  1.00  0.00     0.024 C 
HETATM   20  C26 UNL     1      -2.481  51.153 -21.143  1.00  0.00     0.010 C 
HETATM   21  C27 UNL     1      -3.391  50.363 -20.174  1.00  0.00     0.011 C 
HETATM   22  C28 UNL     1      -4.076  49.120 -20.782  1.00  0.00    -0.029 C 
HETATM   23  C29 UNL     1      -5.441  49.558 -21.404  1.00  0.00     0.016 C 
ENDROOT
BRANCH   1  24
HETATM   24  C6  UNL     1      -5.531  48.012 -18.791  1.00  0.00    -0.007 C 
HETATM   25  C7  UNL     1      -5.151  47.511 -17.391  1.00  0.00     0.011 C 
BRANCH  24  26
HETATM   26  C5  UNL     1      -6.726  47.181 -19.313  1.00  0.00     0.087 C 
BRANCH  26  27
HETATM   27  C4  UNL     1      -8.037  47.946 -19.266  1.00  0.00     0.150 C 
HETATM   28  O1  UNL     1      -8.367  48.708 -20.171  1.00  0.00    -0.293 OA
BRANCH  27  29
HETATM   29  C3  UNL     1      -8.885  47.749 -18.056  1.00  0.00     0.063 C 
HETATM   30  C2  UNL     1     -10.219  47.565 -18.072  1.00  0.00     0.015 C 
HETATM   31  C1  UNL     1     -11.097  47.454 -19.281  1.00  0.00     0.055 C 
BRANCH  30  32
HETATM   32  C30 UNL     1     -10.841  47.429 -16.736  1.00  0.00     0.171 C 
HETATM   33  O3  UNL     1     -10.252  47.304 -15.676  1.00  0.00    -0.646 OA
BRANCH  32  34
HETATM   34  O4  UNL     1     -12.181  47.470 -16.783  1.00  0.00    -0.773 OA
HETATM   35  H44 UNL     1     -12.455  47.382 -15.847  1.00  0.00     0.167 HD
ENDBRANCH  32  34
ENDBRANCH  30  32
ENDBRANCH  27  29
ENDBRANCH  26  27
ENDBRANCH  24  26
ENDBRANCH   1  24
TORSDOF 6
ENDMDL
MODEL 8
REMARK minimizedAffinity -8.20638943
REMARK CNNscore 0.27793929
REMARK CNNaffinity 6.31319189
REMARK  6 active torsions:
REMARK  status: ('A' for Active; 'I' for Inactive)
REMARK    1  A    between atoms: C2_2  and  C30_32 
REMARK    2  A    between atoms: C3_3  and  C4_4 
REMARK    3  A    between atoms: C4_4  and  C5_6 
REMARK    4  A    between atoms: C5_6  and  C6_7 
REMARK    5  A    between atoms: C6_7  and  C8_9 
REMARK    6  A    between atoms: C30_32  and  O4_34 
ROOT
HETATM    1  C8  UNL     1      -1.085  50.504 -21.715  1.00  0.00    -0.001 C 
HETATM    2  C9  UNL     1      -0.871  49.509 -20.534  1.00  0.00     0.007 C 
HETATM    3  C10 UNL     1      -2.114  48.605 -20.461  1.00  0.00     0.015 C 
HETATM    4  C11 UNL     1      -2.858  48.851 -21.788  1.00  0.00    -0.013 C 
HETATM    5  C12 UNL     1      -2.171  47.933 -22.846  1.00  0.00     0.021 C 
HETATM    6  C13 UNL     1      -4.342  48.525 -21.852  1.00  0.00    -0.070 C 
HETATM    7  C14 UNL     1      -4.951  47.658 -21.024  1.00  0.00    -0.022 C 
HETATM    8  C15 UNL     1      -6.393  47.289 -21.197  1.00  0.00     0.034 C 
HETATM    9  C16 UNL     1      -6.687  47.169 -22.701  1.00  0.00     0.013 C 
HETATM   10  C17 UNL     1      -8.029  46.453 -23.052  1.00  0.00     0.018 C 
HETATM   11  C18 UNL     1      -7.848  44.923 -22.958  1.00  0.00     0.023 C 
HETATM   12  C19 UNL     1      -9.196  46.839 -22.124  1.00  0.00     0.023 C 
HETATM   13  C20 UNL     1      -8.402  46.753 -24.511  1.00  0.00     0.135 C 
HETATM   14  O2  UNL     1      -9.558  46.638 -24.926  1.00  0.00    -0.297 OA
HETATM   15  C21 UNL     1      -7.280  47.089 -25.471  1.00  0.00     0.080 C 
HETATM   16  C22 UNL     1      -6.286  48.136 -24.954  1.00  0.00     0.017 C 
HETATM   17  C23 UNL     1      -6.442  48.523 -23.460  1.00  0.00    -0.031 C 
HETATM   18  C24 UNL     1      -7.631  49.517 -23.344  1.00  0.00     0.016 C 
HETATM   19  C25 UNL     1      -5.177  49.303 -22.873  1.00  0.00     0.024 C 
HETATM   20  C26 UNL     1      -4.330  50.062 -23.926  1.00  0.00     0.010 C 
HETATM   21  C27 UNL     1      -3.090  50.815 -23.391  1.00  0.00     0.011 C 
HETATM   22  C28 UNL     1      -2.623  50.393 -21.982  1.00  0.00    -0.029 C 
HETATM   23  C29 UNL     1      -3.372  51.269 -20.926  1.00  0.00     0.016 C 
ENDROOT
BRANCH   1  24
HETATM   24  C6  UNL     1      -0.442  51.894 -21.430  1.00  0.00    -0.007 C 
HETATM   25  C7  UNL     1       0.225  52.495 -22.674  1.00  0.00     0.011 C 
BRANCH  24  26
HETATM   26  C5  UNL     1       0.609  51.781 -20.302  1.00  0.00     0.087 C 
BRANCH  26  27
HETATM   27  C4  UNL     1       0.410  52.815 -19.208  1.00  0.00     0.150 C 
HETATM   28  O1  UNL     1       0.368  54.016 -19.462  1.00  0.00    -0.293 OA
BRANCH  27  29
HETATM   29  C3  UNL     1       0.300  52.303 -17.813  1.00  0.00     0.063 C 
HETATM   30  C2  UNL     1       1.291  52.328 -16.903  1.00  0.00     0.015 C 
HETATM   31  C1  UNL     1       2.657  52.920 -17.077  1.00  0.00     0.055 C 
BRANCH  30  32
HETATM   32  C30 UNL     1       0.947  51.726 -15.595  1.00  0.00     0.171 C 
HETATM   33  O3  UNL     1       0.814  50.537 -15.362  1.00  0.00    -0.646 OA
BRANCH  32  34
HETATM   34  O4  UNL     1       0.797  52.642 -14.627  1.00  0.00    -0.773 OA
HETATM   35  H44 UNL     1       0.587  52.115 -13.829  1.00  0.00     0.167 HD
ENDBRANCH  32  34
ENDBRANCH  30  32
ENDBRANCH  27  29
ENDBRANCH  26  27
ENDBRANCH  24  26
ENDBRANCH   1  24
TORSDOF 6
ENDMDL
MODEL 9
REMARK minimizedAffinity -8.27079391
REMARK CNNscore 0.230818257
REMARK CNNaffinity 6.20524359
REMARK  6 active torsions:
REMARK  status: ('A' for Active; 'I' for Inactive)
REMARK    1  A    between atoms: C2_2  and  C30_32 
REMARK    2  A    between atoms: C3_3  and  C4_4 
REMARK    3  A    between atoms: C4_4  and  C5_6 
REMARK    4  A    between atoms: C5_6  and  C6_7 
REMARK    5  A    between atoms: C6_7  and  C8_9 
REMARK    6  A    between atoms: C30_32  and  O4_34 
ROOT
HETATM    1  C8  UNL     1      -3.832  48.714 -24.309  1.00  0.00    -0.001 C 
HETATM    2  C9  UNL     1      -2.941  49.537 -23.328  1.00  0.00     0.007 C 
HETATM    3  C10 UNL     1      -3.622  49.507 -21.949  1.00  0.00     0.015 C 
HETATM    4  C11 UNL     1      -4.690  48.400 -22.062  1.00  0.00    -0.013 C 
HETATM    5  C12 UNL     1      -3.948  47.054 -21.799  1.00  0.00     0.021 C 
HETATM    6  C13 UNL     1      -5.861  48.429 -21.093  1.00  0.00    -0.070 C 
HETATM    7  C14 UNL     1      -5.827  49.051 -19.900  1.00  0.00    -0.022 C 
HETATM    8  C15 UNL     1      -6.968  48.959 -18.934  1.00  0.00     0.034 C 
HETATM    9  C16 UNL     1      -7.529  47.529 -18.978  1.00  0.00     0.013 C 
HETATM   10  C17 UNL     1      -8.476  47.159 -17.795  1.00  0.00     0.018 C 
HETATM   11  C18 UNL     1      -7.642  46.801 -16.546  1.00  0.00     0.023 C 
HETATM   12  C19 UNL     1      -9.441  48.292 -17.399  1.00  0.00     0.023 C 
HETATM   13  C20 UNL     1      -9.275  45.897 -18.155  1.00  0.00     0.135 C 
HETATM   14  O2  UNL     1     -10.332  45.611 -17.589  1.00  0.00    -0.297 OA
HETATM   15  C21 UNL     1      -8.666  44.939 -19.157  1.00  0.00     0.080 C 
HETATM   16  C22 UNL     1      -8.123  45.602 -20.430  1.00  0.00     0.017 C 
HETATM   17  C23 UNL     1      -8.073  47.152 -20.404  1.00  0.00    -0.031 C 
HETATM   18  C24 UNL     1      -9.507  47.684 -20.675  1.00  0.00     0.016 C 
HETATM   19  C25 UNL     1      -7.163  47.774 -21.562  1.00  0.00     0.024 C 
HETATM   20  C26 UNL     1      -6.997  46.879 -22.815  1.00  0.00     0.010 C 
HETATM   21  C27 UNL     1      -6.110  47.447 -23.947  1.00  0.00     0.011 C 
HETATM   22  C28 UNL     1      -5.190  48.616 -23.537  1.00  0.00    -0.029 C 
HETATM   23  C29 UNL     1      -5.968  49.957 -23.735  1.00  0.00     0.016 C 
ENDROOT
BRANCH   1  24
HETATM   24  C6  UNL     1      -3.797  49.294 -25.754  1.00  0.00    -0.007 C 
HETATM   25  C7  UNL     1      -4.256  48.274 -26.803  1.00  0.00     0.011 C 
BRANCH  24  26
HETATM   26  C5  UNL     1      -2.371  49.773 -26.109  1.00  0.00     0.087 C 
BRANCH  26  27
HETATM   27  C4  UNL     1      -2.360  50.813 -27.216  1.00  0.00     0.150 C 
HETATM   28  O1  UNL     1      -2.849  50.579 -28.319  1.00  0.00    -0.293 OA
BRANCH  27  29
HETATM   29  C3  UNL     1      -1.700  52.113 -26.909  1.00  0.00     0.063 C 
HETATM   30  C2  UNL     1      -0.456  52.455 -27.292  1.00  0.00     0.015 C 
HETATM   31  C1  UNL     1       0.477  51.647 -28.142  1.00  0.00     0.055 C 
BRANCH  30  32
HETATM   32  C30 UNL     1      -0.010  53.790 -26.832  1.00  0.00     0.171 C 
HETATM   33  O3  UNL     1      -0.275  54.857 -27.356  1.00  0.00    -0.646 OA
BRANCH  32  34
HETATM   34  O4  UNL     1       0.739  53.730 -25.722  1.00  0.00    -0.773 OA
HETATM   35  H44 UNL     1       0.951  54.667 -25.526  1.00  0.00     0.167 HD
ENDBRANCH  32  34
ENDBRANCH  30  32
ENDBRANCH  27  29
ENDBRANCH  26  27
ENDBRANCH  24  26
ENDBRANCH   1  24
TORSDOF 6
ENDMDL
