MODEL 1
REMARK minimizedAffinity -10.3482819
REMARK  9 active torsions:
REMARK  status: ('A' for Active; 'I' for Inactive)
REMARK    1  A    between atoms: C2_2  and  C3_3 
REMARK    2  A    between atoms: C2_2  and  C11_13 
REMARK    3  A    between atoms: C3_3  and  C4_4 
REMARK    4  A    between atoms: C4_4  and  C5_5 
REMARK    5  A    between atoms: C5_5  and  C8_9 
REMARK    6  A    between atoms: C6_6  and  C7_7 
REMARK    7  A    between atoms: C7_7  and  O1_8 
REMARK    8  A    between atoms: C8_9  and  O2_12 
REMARK    9  A    between atoms: C25_27  and  O3_28 
ROOT
HETATM    1  C11 UNL     1      -0.980  51.147 -25.097  1.00  0.00     0.005 C 
HETATM    2  C12 UNL     1      -0.169  52.452 -25.261  1.00  0.00     0.033 C 
HETATM    3  C13 UNL     1       0.297  52.725 -23.872  1.00  0.00    -0.018 C 
HETATM    4  C14 UNL     1      -0.423  52.050 -22.966  1.00  0.00    -0.047 C 
HETATM    5  C15 UNL     1      -0.248  52.021 -21.523  1.00  0.00    -0.048 C 
HETATM    6  C16 UNL     1      -0.880  51.083 -20.772  1.00  0.00    -0.064 C 
HETATM    7  C17 UNL     1      -1.763  50.019 -21.414  1.00  0.00     0.036 C 
HETATM    8  C18 UNL     1      -1.613  49.887 -22.935  1.00  0.00     0.019 C 
HETATM    9  C19 UNL     1      -1.531  51.250 -23.633  1.00  0.00    -0.012 C 
HETATM   10  C20 UNL     1      -2.856  52.032 -23.528  1.00  0.00     0.021 C 
HETATM   11  C21 UNL     1      -0.793  51.088 -19.228  1.00  0.00    -0.016 C 
HETATM   12  C22 UNL     1      -2.074  51.800 -18.724  1.00  0.00     0.020 C 
HETATM   13  C23 UNL     1      -0.735  49.661 -18.609  1.00  0.00     0.016 C 
HETATM   14  C24 UNL     1      -0.521  49.659 -17.093  1.00  0.00     0.033 C 
HETATM   15  C25 UNL     1       0.709  50.462 -16.681  1.00  0.00     0.118 C 
HETATM   16  C26 UNL     1       0.701  51.872 -17.269  1.00  0.00     0.037 C 
HETATM   17  C27 UNL     1       0.514  51.825 -18.790  1.00  0.00     0.001 C 
HETATM   18  C28 UNL     1       0.596  53.216 -19.410  1.00  0.00     0.010 C 
HETATM   19  C29 UNL     1       0.624  53.112 -20.933  1.00  0.00     0.040 C 
ENDROOT
BRANCH   1  20
HETATM   20  C2  UNL     1      -1.987  50.925 -26.258  1.00  0.00    -0.013 C 
HETATM   21  C1  UNL     1      -3.318  51.653 -26.041  1.00  0.00     0.010 C 
BRANCH  20  22
HETATM   22  C3  UNL     1      -2.245  49.419 -26.548  1.00  0.00     0.009 C 
BRANCH  22  23
HETATM   23  C4  UNL     1      -3.022  48.660 -25.455  1.00  0.00     0.037 C 
BRANCH  23  24
HETATM   24  C5  UNL     1      -4.513  48.525 -25.764  1.00  0.00    -0.049 C 
HETATM   25  C6  UNL     1      -4.950  48.298 -27.025  1.00  0.00     0.004 C 
BRANCH  25  26
HETATM   26  C7  UNL     1      -4.145  48.149 -28.277  1.00  0.00     0.191 C 
BRANCH  26  27
HETATM   27  O1  UNL     1      -4.563  49.157 -29.185  1.00  0.00    -0.397 OA
HETATM   28  H12 UNL     1      -5.513  49.014 -29.344  1.00  0.00     0.209 HD
ENDBRANCH  26  27
ENDBRANCH  25  26
BRANCH  24  29
HETATM   29  C8  UNL     1      -5.463  48.598 -24.552  1.00  0.00     0.074 C 
HETATM   30  C9  UNL     1      -6.748  47.786 -24.759  1.00  0.00     0.050 C 
HETATM   31  C10 UNL     1      -4.852  48.182 -23.203  1.00  0.00     0.050 C 
BRANCH  29  32
HETATM   32  O2  UNL     1      -5.850  49.970 -24.408  1.00  0.00    -0.386 OA
HETATM   33  H19 UNL     1      -5.029  50.487 -24.350  1.00  0.00     0.211 HD
ENDBRANCH  29  32
ENDBRANCH  24  29
ENDBRANCH  23  24
ENDBRANCH  22  23
ENDBRANCH  20  22
ENDBRANCH   1  20
BRANCH  15  34
HETATM   34  O3  UNL     1       0.779  50.538 -15.261  1.00  0.00    -0.396 OA
HETATM   35  H39 UNL     1      -0.015  51.001 -14.943  1.00  0.00     0.210 HD
ENDBRANCH  15  34
TORSDOF 9
ENDMDL
MODEL 2
REMARK minimizedAffinity -10.0859509
REMARK  9 active torsions:
REMARK  status: ('A' for Active; 'I' for Inactive)
REMARK    1  A    between atoms: C2_2  and  C3_3 
REMARK    2  A    between atoms: C2_2  and  C11_13 
REMARK    3  A    between atoms: C3_3  and  C4_4 
REMARK    4  A    between atoms: C4_4  and  C5_5 
REMARK    5  A    between atoms: C5_5  and  C8_9 
REMARK    6  A    between atoms: C6_6  and  C7_7 
REMARK    7  A    between atoms: C7_7  and  O1_8 
REMARK    8  A    between atoms: C8_9  and  O2_12 
REMARK    9  A    between atoms: C25_27  and  O3_28 
ROOT
HETATM    1  C11 UNL     1      -0.668  51.234 -21.558  1.00  0.00     0.005 C 
HETATM    2  C12 UNL     1      -0.047  52.648 -21.504  1.00  0.00     0.033 C 
HETATM    3  C13 UNL     1       0.556  52.689 -20.141  1.00  0.00    -0.018 C 
HETATM    4  C14 UNL     1       0.044  51.741 -19.344  1.00  0.00    -0.047 C 
HETATM    5  C15 UNL     1       0.403  51.437 -17.969  1.00  0.00    -0.048 C 
HETATM    6  C16 UNL     1      -0.011  50.281 -17.390  1.00  0.00    -0.064 C 
HETATM    7  C17 UNL     1      -0.834  49.258 -18.164  1.00  0.00     0.036 C 
HETATM    8  C18 UNL     1      -0.864  49.471 -19.683  1.00  0.00     0.019 C 
HETATM    9  C19 UNL     1      -1.037  50.947 -20.062  1.00  0.00    -0.012 C 
HETATM   10  C20 UNL     1      -2.422  51.489 -19.654  1.00  0.00     0.021 C 
HETATM   11  C21 UNL     1       0.271  49.975 -15.900  1.00  0.00    -0.016 C 
HETATM   12  C22 UNL     1      -1.012  50.373 -15.125  1.00  0.00     0.020 C 
HETATM   13  C23 UNL     1       0.578  48.474 -15.626  1.00  0.00     0.016 C 
HETATM   14  C24 UNL     1       0.982  48.187 -14.178  1.00  0.00     0.033 C 
HETATM   15  C25 UNL     1       2.149  49.055 -13.719  1.00  0.00     0.118 C 
HETATM   16  C26 UNL     1       1.897  50.540 -13.972  1.00  0.00     0.037 C 
HETATM   17  C27 UNL     1       1.524  50.786 -15.438  1.00  0.00     0.001 C 
HETATM   18  C28 UNL     1       1.359  52.273 -15.734  1.00  0.00     0.010 C 
HETATM   19  C29 UNL     1       1.205  52.495 -17.237  1.00  0.00     0.040 C 
ENDROOT
BRANCH   1  20
HETATM   20  C2  UNL     1      -1.780  51.116 -22.635  1.00  0.00    -0.013 C 
HETATM   21  C1  UNL     1      -2.155  49.663 -22.949  1.00  0.00     0.010 C 
BRANCH  20  22
HETATM   22  C3  UNL     1      -1.427  51.869 -23.949  1.00  0.00     0.009 C 
BRANCH  22  23
HETATM   23  C4  UNL     1      -0.073  51.495 -24.581  1.00  0.00     0.037 C 
BRANCH  23  24
HETATM   24  C5  UNL     1      -0.148  51.321 -26.098  1.00  0.00    -0.049 C 
HETATM   25  C6  UNL     1       0.974  51.271 -26.854  1.00  0.00     0.004 C 
BRANCH  25  26
HETATM   26  C7  UNL     1       2.400  51.371 -26.413  1.00  0.00     0.191 C 
BRANCH  26  27
HETATM   27  O1  UNL     1       3.200  51.573 -27.569  1.00  0.00    -0.397 OA
HETATM   28  H12 UNL     1       3.052  50.805 -28.148  1.00  0.00     0.209 HD
ENDBRANCH  26  27
ENDBRANCH  25  26
BRANCH  24  29
HETATM   29  C8  UNL     1      -1.560  51.143 -26.690  1.00  0.00     0.074 C 
HETATM   30  C9  UNL     1      -2.108  49.724 -26.494  1.00  0.00     0.050 C 
HETATM   31  C10 UNL     1      -2.621  52.136 -26.183  1.00  0.00     0.050 C 
BRANCH  29  32
HETATM   32  O2  UNL     1      -1.451  51.362 -28.102  1.00  0.00    -0.386 OA
HETATM   33  H19 UNL     1      -1.036  52.233 -28.218  1.00  0.00     0.211 HD
ENDBRANCH  29  32
ENDBRANCH  24  29
ENDBRANCH  23  24
ENDBRANCH  22  23
ENDBRANCH  20  22
ENDBRANCH   1  20
BRANCH  15  34
HETATM   34  O3  UNL     1       2.390  48.841 -12.332  1.00  0.00    -0.396 OA
HETATM   35  H39 UNL     1       1.594  49.107 -11.842  1.00  0.00     0.210 HD
ENDBRANCH  15  34
TORSDOF 9
ENDMDL
MODEL 3
REMARK minimizedAffinity -9.99870682
REMARK  9 active torsions:
REMARK  status: ('A' for Active; 'I' for Inactive)
REMARK    1  A    between atoms: C2_2  and  C3_3 
REMARK    2  A    between atoms: C2_2  and  C11_13 
REMARK    3  A    between atoms: C3_3  and  C4_4 
REMARK    4  A    between atoms: C4_4  and  C5_5 
REMARK    5  A    between atoms: C5_5  and  C8_9 
REMARK    6  A    between atoms: C6_6  and  C7_7 
REMARK    7  A    between atoms: C7_7  and  O1_8 
REMARK    8  A    between atoms: C8_9  and  O2_12 
REMARK    9  A    between atoms: C25_27  and  O3_28 
ROOT
HETATM    1  C11 UNL     1      -0.752  51.126 -21.903  1.00  0.00     0.005 C 
HETATM    2  C12 UNL     1      -0.116  52.534 -21.935  1.00  0.00     0.033 C 
HETATM    3  C13 UNL     1       0.502  52.645 -20.583  1.00  0.00    -0.018 C 
HETATM    4  C14 UNL     1      -0.012  51.749 -19.728  1.00  0.00    -0.047 C 
HETATM    5  C15 UNL     1       0.358  51.519 -18.341  1.00  0.00    -0.048 C 
HETATM    6  C16 UNL     1      -0.062  50.403 -17.694  1.00  0.00    -0.064 C 
HETATM    7  C17 UNL     1      -0.904  49.347 -18.401  1.00  0.00     0.036 C 
HETATM    8  C18 UNL     1      -0.948  49.474 -19.929  1.00  0.00     0.019 C 
HETATM    9  C19 UNL     1      -1.108  50.928 -20.389  1.00  0.00    -0.012 C 
HETATM   10  C20 UNL     1      -2.483  51.508 -19.999  1.00  0.00     0.021 C 
HETATM   11  C21 UNL     1       0.233  50.178 -16.192  1.00  0.00    -0.016 C 
HETATM   12  C22 UNL     1      -1.038  50.634 -15.428  1.00  0.00     0.020 C 
HETATM   13  C23 UNL     1       0.527  48.692 -15.837  1.00  0.00     0.016 C 
HETATM   14  C24 UNL     1       0.943  48.482 -14.378  1.00  0.00     0.033 C 
HETATM   15  C25 UNL     1       2.124  49.363 -13.981  1.00  0.00     0.118 C 
HETATM   16  C26 UNL     1       1.885  50.833 -14.315  1.00  0.00     0.037 C 
HETATM   17  C27 UNL     1       1.500  51.000 -15.789  1.00  0.00     0.001 C 
HETATM   18  C28 UNL     1       1.347  52.470 -16.168  1.00  0.00     0.010 C 
HETATM   19  C29 UNL     1       1.180  52.608 -17.679  1.00  0.00     0.040 C 
ENDROOT
BRANCH   1  20
HETATM   20  C2  UNL     1      -1.877  50.959 -22.960  1.00  0.00    -0.013 C 
HETATM   21  C1  UNL     1      -2.290  49.497 -23.166  1.00  0.00     0.010 C 
BRANCH  20  22
HETATM   22  C3  UNL     1      -1.518  51.609 -24.327  1.00  0.00     0.009 C 
BRANCH  22  23
HETATM   23  C4  UNL     1      -0.815  50.680 -25.335  1.00  0.00     0.037 C 
BRANCH  23  24
HETATM   24  C5  UNL     1      -0.595  51.333 -26.700  1.00  0.00    -0.049 C 
HETATM   25  C6  UNL     1      -1.574  51.347 -27.635  1.00  0.00     0.004 C 
BRANCH  25  26
HETATM   26  C7  UNL     1      -2.953  50.774 -27.549  1.00  0.00     0.191 C 
BRANCH  26  27
HETATM   27  O1  UNL     1      -3.431  50.592 -28.874  1.00  0.00    -0.397 OA
HETATM   28  H12 UNL     1      -3.427  51.469 -29.296  1.00  0.00     0.209 HD
ENDBRANCH  26  27
ENDBRANCH  25  26
BRANCH  24  29
HETATM   29  C8  UNL     1       0.768  52.020 -26.908  1.00  0.00     0.074 C 
HETATM   30  C9  UNL     1       1.831  51.539 -25.913  1.00  0.00     0.050 C 
HETATM   31  C10 UNL     1       1.358  51.907 -28.325  1.00  0.00     0.050 C 
BRANCH  29  32
HETATM   32  O2  UNL     1       0.570  53.419 -26.669  1.00  0.00    -0.386 OA
HETATM   33  H19 UNL     1      -0.155  53.702 -27.252  1.00  0.00     0.211 HD
ENDBRANCH  29  32
ENDBRANCH  24  29
ENDBRANCH  23  24
ENDBRANCH  22  23
ENDBRANCH  20  22
ENDBRANCH   1  20
BRANCH  15  34
HETATM   34  O3  UNL     1       2.378  49.224 -12.586  1.00  0.00    -0.396 OA
HETATM   35  H39 UNL     1       1.589  49.526 -12.105  1.00  0.00     0.210 HD
ENDBRANCH  15  34
TORSDOF 9
ENDMDL
MODEL 4
REMARK minimizedAffinity -9.85982704
REMARK  9 active torsions:
REMARK  status: ('A' for Active; 'I' for Inactive)
REMARK    1  A    between atoms: C2_2  and  C3_3 
REMARK    2  A    between atoms: C2_2  and  C11_13 
REMARK    3  A    between atoms: C3_3  and  C4_4 
REMARK    4  A    between atoms: C4_4  and  C5_5 
REMARK    5  A    between atoms: C5_5  and  C8_9 
REMARK    6  A    between atoms: C6_6  and  C7_7 
REMARK    7  A    between atoms: C7_7  and  O1_8 
REMARK    8  A    between atoms: C8_9  and  O2_12 
REMARK    9  A    between atoms: C25_27  and  O3_28 
ROOT
HETATM    1  C11 UNL     1      -1.316  48.495 -19.557  1.00  0.00     0.005 C 
HETATM    2  C12 UNL     1      -2.429  47.506 -19.969  1.00  0.00     0.033 C 
HETATM    3  C13 UNL     1      -2.588  47.779 -21.426  1.00  0.00    -0.018 C 
HETATM    4  C14 UNL     1      -2.065  48.965 -21.767  1.00  0.00    -0.047 C 
HETATM    5  C15 UNL     1      -1.987  49.563 -23.091  1.00  0.00    -0.048 C 
HETATM    6  C16 UNL     1      -1.191  50.639 -23.313  1.00  0.00    -0.064 C 
HETATM    7  C17 UNL     1      -0.336  51.235 -22.201  1.00  0.00     0.036 C 
HETATM    8  C18 UNL     1      -0.191  50.351 -20.955  1.00  0.00     0.019 C 
HETATM    9  C19 UNL     1      -1.515  49.692 -20.550  1.00  0.00    -0.012 C 
HETATM   10  C20 UNL     1      -2.550  50.727 -20.066  1.00  0.00     0.021 C 
HETATM   11  C21 UNL     1      -1.163  51.357 -24.683  1.00  0.00    -0.016 C 
HETATM   12  C22 UNL     1      -2.118  52.572 -24.556  1.00  0.00     0.020 C 
HETATM   13  C23 UNL     1       0.251  51.868 -25.083  1.00  0.00     0.016 C 
HETATM   14  C24 UNL     1       0.311  52.466 -26.491  1.00  0.00     0.033 C 
HETATM   15  C25 UNL     1      -0.220  51.504 -27.551  1.00  0.00     0.118 C 
HETATM   16  C26 UNL     1      -1.607  50.969 -27.200  1.00  0.00     0.037 C 
HETATM   17  C27 UNL     1      -1.614  50.355 -25.796  1.00  0.00     0.001 C 
HETATM   18  C28 UNL     1      -2.965  49.731 -25.462  1.00  0.00     0.010 C 
HETATM   19  C29 UNL     1      -2.872  48.945 -24.157  1.00  0.00     0.040 C 
ENDROOT
BRANCH   1  20
HETATM   20  C2  UNL     1      -1.315  48.785 -18.032  1.00  0.00    -0.013 C 
HETATM   21  C1  UNL     1      -2.601  49.469 -17.554  1.00  0.00     0.010 C 
BRANCH  20  22
HETATM   22  C3  UNL     1      -0.075  49.608 -17.579  1.00  0.00     0.009 C 
BRANCH  22  23
HETATM   23  C4  UNL     1      -0.388  50.969 -16.928  1.00  0.00     0.037 C 
BRANCH  23  24
HETATM   24  C5  UNL     1       0.860  51.818 -16.685  1.00  0.00    -0.049 C 
HETATM   25  C6  UNL     1       1.346  52.640 -17.645  1.00  0.00     0.004 C 
BRANCH  25  26
HETATM   26  C7  UNL     1       0.822  52.871 -19.027  1.00  0.00     0.191 C 
BRANCH  26  27
HETATM   27  O1  UNL     1       0.106  54.097 -19.020  1.00  0.00    -0.397 OA
HETATM   28  H12 UNL     1      -0.612  53.998 -18.370  1.00  0.00     0.209 HD
ENDBRANCH  26  27
ENDBRANCH  25  26
BRANCH  24  29
HETATM   29  C8  UNL     1       1.476  51.726 -15.275  1.00  0.00     0.074 C 
HETATM   30  C9  UNL     1       1.161  50.397 -14.578  1.00  0.00     0.050 C 
HETATM   31  C10 UNL     1       2.996  51.953 -15.199  1.00  0.00     0.050 C 
BRANCH  29  32
HETATM   32  O2  UNL     1       0.879  52.765 -14.491  1.00  0.00    -0.386 OA
HETATM   33  H19 UNL     1       1.019  53.597 -14.975  1.00  0.00     0.211 HD
ENDBRANCH  29  32
ENDBRANCH  24  29
ENDBRANCH  23  24
ENDBRANCH  22  23
ENDBRANCH  20  22
ENDBRANCH   1  20
BRANCH  15  34
HETATM   34  O3  UNL     1      -0.266  52.161 -28.814  1.00  0.00    -0.396 OA
HETATM   35  H39 UNL     1      -0.878  52.912 -28.741  1.00  0.00     0.210 HD
ENDBRANCH  15  34
TORSDOF 9
ENDMDL
MODEL 5
REMARK minimizedAffinity -9.85363579
REMARK  9 active torsions:
REMARK  status: ('A' for Active; 'I' for Inactive)
REMARK    1  A    between atoms: C2_2  and  C3_3 
REMARK    2  A    between atoms: C2_2  and  C11_13 
REMARK    3  A    between atoms: C3_3  and  C4_4 
REMARK    4  A    between atoms: C4_4  and  C5_5 
REMARK    5  A    between atoms: C5_5  and  C8_9 
REMARK    6  A    between atoms: C6_6  and  C7_7 
REMARK    7  A    between atoms: C7_7  and  O1_8 
REMARK    8  A    between atoms: C8_9  and  O2_12 
REMARK    9  A    between atoms: C25_27  and  O3_28 
ROOT
HETATM    1  C11 UNL     1      -0.312  50.522 -19.551  1.00  0.00     0.005 C 
HETATM    2  C12 UNL     1      -0.703  49.048 -19.303  1.00  0.00     0.033 C 
HETATM    3  C13 UNL     1      -1.295  48.642 -20.610  1.00  0.00    -0.018 C 
HETATM    4  C14 UNL     1      -1.641  49.705 -21.348  1.00  0.00    -0.047 C 
HETATM    5  C15 UNL     1      -2.205  49.720 -22.688  1.00  0.00    -0.048 C 
HETATM    6  C16 UNL     1      -2.248  50.872 -23.404  1.00  0.00    -0.064 C 
HETATM    7  C17 UNL     1      -1.683  52.173 -22.844  1.00  0.00     0.036 C 
HETATM    8  C18 UNL     1      -0.794  52.010 -21.604  1.00  0.00     0.019 C 
HETATM    9  C19 UNL     1      -1.371  51.002 -20.602  1.00  0.00    -0.012 C 
HETATM   10  C20 UNL     1      -2.683  51.506 -19.968  1.00  0.00     0.021 C 
HETATM   11  C21 UNL     1      -2.931  50.940 -24.790  1.00  0.00    -0.016 C 
HETATM   12  C22 UNL     1      -4.358  51.492 -24.543  1.00  0.00     0.020 C 
HETATM   13  C23 UNL     1      -2.196  51.876 -25.794  1.00  0.00     0.016 C 
HETATM   14  C24 UNL     1      -2.793  51.850 -27.204  1.00  0.00     0.033 C 
HETATM   15  C25 UNL     1      -2.879  50.436 -27.769  1.00  0.00     0.118 C 
HETATM   16  C26 UNL     1      -3.589  49.476 -26.816  1.00  0.00     0.037 C 
HETATM   17  C27 UNL     1      -2.942  49.513 -25.427  1.00  0.00     0.001 C 
HETATM   18  C28 UNL     1      -3.575  48.494 -24.485  1.00  0.00     0.010 C 
HETATM   19  C29 UNL     1      -2.770  48.405 -23.190  1.00  0.00     0.040 C 
ENDROOT
BRANCH   1  20
HETATM   20  C2  UNL     1      -0.156  51.324 -18.231  1.00  0.00    -0.013 C 
HETATM   21  C1  UNL     1       0.660  52.610 -18.407  1.00  0.00     0.010 C 
BRANCH  20  22
HETATM   22  C3  UNL     1       0.440  50.470 -17.076  1.00  0.00     0.009 C 
BRANCH  22  23
HETATM   23  C4  UNL     1       0.521  51.175 -15.708  1.00  0.00     0.037 C 
BRANCH  23  24
HETATM   24  C5  UNL     1       1.564  50.557 -14.776  1.00  0.00    -0.049 C 
HETATM   25  C6  UNL     1       1.373  49.338 -14.220  1.00  0.00     0.004 C 
BRANCH  25  26
HETATM   26  C7  UNL     1       0.205  48.416 -14.376  1.00  0.00     0.191 C 
BRANCH  26  27
HETATM   27  O1  UNL     1       0.548  47.439 -15.347  1.00  0.00    -0.397 OA
HETATM   28  H12 UNL     1       0.743  47.922 -16.171  1.00  0.00     0.209 HD
ENDBRANCH  26  27
ENDBRANCH  25  26
BRANCH  24  29
HETATM   29  C8  UNL     1       2.855  51.374 -14.571  1.00  0.00     0.074 C 
HETATM   30  C9  UNL     1       4.048  50.501 -14.163  1.00  0.00     0.050 C 
HETATM   31  C10 UNL     1       3.289  52.241 -15.766  1.00  0.00     0.050 C 
BRANCH  29  32
HETATM   32  O2  UNL     1       2.607  52.281 -13.490  1.00  0.00    -0.386 OA
HETATM   33  H19 UNL     1       1.807  52.781 -13.723  1.00  0.00     0.211 HD
ENDBRANCH  29  32
ENDBRANCH  24  29
ENDBRANCH  23  24
ENDBRANCH  22  23
ENDBRANCH  20  22
ENDBRANCH   1  20
BRANCH  15  34
HETATM   34  O3  UNL     1      -3.562  50.460 -29.019  1.00  0.00    -0.396 OA
HETATM   35  H39 UNL     1      -4.464  50.788 -28.864  1.00  0.00     0.210 HD
ENDBRANCH  15  34
TORSDOF 9
ENDMDL
MODEL 6
REMARK minimizedAffinity -9.51586914
REMARK  9 active torsions:
REMARK  status: ('A' for Active; 'I' for Inactive)
REMARK    1  A    between atoms: C2_2  and  C3_3 
REMARK    2  A    between atoms: C2_2  and  C11_13 
REMARK    3  A    between atoms: C3_3  and  C4_4 
REMARK    4  A    between atoms: C4_4  and  C5_5 
REMARK    5  A    between atoms: C5_5  and  C8_9 
REMARK    6  A    between atoms: C6_6  and  C7_7 
REMARK    7  A    between atoms: C7_7  and  O1_8 
REMARK    8  A    between atoms: C8_9  and  O2_12 
REMARK    9  A    between atoms: C25_27  and  O3_28 
ROOT
HETATM    1  C11 UNL     1      -1.161  48.575 -19.401  1.00  0.00     0.005 C 
HETATM    2  C12 UNL     1      -2.261  47.557 -19.777  1.00  0.00     0.033 C 
HETATM    3  C13 UNL     1      -2.455  47.808 -21.234  1.00  0.00    -0.018 C 
HETATM    4  C14 UNL     1      -1.965  49.000 -21.601  1.00  0.00    -0.047 C 
HETATM    5  C15 UNL     1      -1.927  49.582 -22.933  1.00  0.00    -0.048 C 
HETATM    6  C16 UNL     1      -1.159  50.672 -23.186  1.00  0.00    -0.064 C 
HETATM    7  C17 UNL     1      -0.294  51.300 -22.099  1.00  0.00     0.036 C 
HETATM    8  C18 UNL     1      -0.105  50.437 -20.845  1.00  0.00     0.019 C 
HETATM    9  C19 UNL     1      -1.406  49.755 -20.404  1.00  0.00    -0.012 C 
HETATM   10  C20 UNL     1      -2.453  50.774 -19.913  1.00  0.00     0.021 C 
HETATM   11  C21 UNL     1      -1.175  51.372 -24.565  1.00  0.00    -0.016 C 
HETATM   12  C22 UNL     1      -2.152  52.567 -24.433  1.00  0.00     0.020 C 
HETATM   13  C23 UNL     1       0.220  51.908 -25.000  1.00  0.00     0.016 C 
HETATM   14  C24 UNL     1       0.238  52.488 -26.417  1.00  0.00     0.033 C 
HETATM   15  C25 UNL     1      -0.293  51.501 -27.453  1.00  0.00     0.118 C 
HETATM   16  C26 UNL     1      -1.661  50.941 -27.067  1.00  0.00     0.037 C 
HETATM   17  C27 UNL     1      -1.626  50.346 -25.655  1.00  0.00     0.001 C 
HETATM   18  C28 UNL     1      -2.956  49.698 -25.285  1.00  0.00     0.010 C 
HETATM   19  C29 UNL     1      -2.819  48.931 -23.972  1.00  0.00     0.040 C 
ENDROOT
BRANCH   1  20
HETATM   20  C2  UNL     1      -1.135  48.886 -17.880  1.00  0.00    -0.013 C 
HETATM   21  C1  UNL     1      -2.534  49.098 -17.290  1.00  0.00     0.010 C 
BRANCH  20  22
HETATM   22  C3  UNL     1      -0.221  50.095 -17.530  1.00  0.00     0.009 C 
BRANCH  22  23
HETATM   23  C4  UNL     1      -0.416  50.682 -16.119  1.00  0.00     0.037 C 
BRANCH  23  24
HETATM   24  C5  UNL     1       0.845  50.603 -15.258  1.00  0.00    -0.049 C 
HETATM   25  C6  UNL     1       1.161  49.475 -14.580  1.00  0.00     0.004 C 
BRANCH  25  26
HETATM   26  C7  UNL     1       0.413  48.180 -14.525  1.00  0.00     0.191 C 
BRANCH  26  27
HETATM   27  O1  UNL     1       1.052  47.271 -15.409  1.00  0.00    -0.397 OA
HETATM   28  H12 UNL     1       1.019  47.673 -16.295  1.00  0.00     0.209 HD
ENDBRANCH  26  27
ENDBRANCH  25  26
BRANCH  24  29
HETATM   29  C8  UNL     1       1.750  51.851 -15.267  1.00  0.00     0.074 C 
HETATM   30  C9  UNL     1       3.026  51.662 -14.438  1.00  0.00     0.050 C 
HETATM   31  C10 UNL     1       2.160  52.363 -16.659  1.00  0.00     0.050 C 
BRANCH  29  32
HETATM   32  O2  UNL     1       1.004  52.911 -14.657  1.00  0.00    -0.386 OA
HETATM   33  H19 UNL     1       0.164  52.977 -15.142  1.00  0.00     0.211 HD
ENDBRANCH  29  32
ENDBRANCH  24  29
ENDBRANCH  23  24
ENDBRANCH  22  23
ENDBRANCH  20  22
ENDBRANCH   1  20
BRANCH  15  34
HETATM   34  O3  UNL     1      -0.379  52.140 -28.723  1.00  0.00    -0.396 OA
HETATM   35  H39 UNL     1      -1.006  52.879 -28.648  1.00  0.00     0.210 HD
ENDBRANCH  15  34
TORSDOF 9
ENDMDL
MODEL 7
REMARK minimizedAffinity -9.48081303
REMARK  9 active torsions:
REMARK  status: ('A' for Active; 'I' for Inactive)
REMARK    1  A    between atoms: C2_2  and  C3_3 
REMARK    2  A    between atoms: C2_2  and  C11_13 
REMARK    3  A    between atoms: C3_3  and  C4_4 
REMARK    4  A    between atoms: C4_4  and  C5_5 
REMARK    5  A    between atoms: C5_5  and  C8_9 
REMARK    6  A    between atoms: C6_6  and  C7_7 
REMARK    7  A    between atoms: C7_7  and  O1_8 
REMARK    8  A    between atoms: C8_9  and  O2_12 
REMARK    9  A    between atoms: C25_27  and  O3_28 
ROOT
HETATM    1  C11 UNL     1      -0.085  51.352 -23.008  1.00  0.00     0.005 C 
HETATM    2  C12 UNL     1       0.558  52.753 -22.892  1.00  0.00     0.033 C 
HETATM    3  C13 UNL     1       0.902  52.836 -21.444  1.00  0.00    -0.018 C 
HETATM    4  C14 UNL     1       0.225  51.934 -20.721  1.00  0.00    -0.047 C 
HETATM    5  C15 UNL     1       0.317  51.679 -19.292  1.00  0.00    -0.048 C 
HETATM    6  C16 UNL     1      -0.230  50.558 -18.757  1.00  0.00    -0.064 C 
HETATM    7  C17 UNL     1      -0.927  49.523 -19.632  1.00  0.00     0.036 C 
HETATM    8  C18 UNL     1      -0.673  49.673 -21.137  1.00  0.00     0.019 C 
HETATM    9  C19 UNL     1      -0.729  51.136 -21.595  1.00  0.00    -0.012 C 
HETATM   10  C20 UNL     1      -2.149  51.725 -21.469  1.00  0.00     0.021 C 
HETATM   11  C21 UNL     1      -0.234  50.307 -17.231  1.00  0.00    -0.016 C 
HETATM   12  C22 UNL     1      -1.625  50.766 -16.721  1.00  0.00     0.020 C 
HETATM   13  C23 UNL     1      -0.027  48.813 -16.851  1.00  0.00     0.016 C 
HETATM   14  C24 UNL     1       0.097  48.576 -15.343  1.00  0.00     0.033 C 
HETATM   15  C25 UNL     1       1.186  49.437 -14.709  1.00  0.00     0.118 C 
HETATM   16  C26 UNL     1       1.028  50.916 -15.059  1.00  0.00     0.037 C 
HETATM   17  C27 UNL     1       0.937  51.109 -16.576  1.00  0.00     0.001 C 
HETATM   18  C28 UNL     1       0.874  52.585 -16.952  1.00  0.00     0.010 C 
HETATM   19  C29 UNL     1       1.004  52.749 -18.465  1.00  0.00     0.040 C 
ENDROOT
BRANCH   1  20
HETATM   20  C2  UNL     1      -0.985  51.214 -24.266  1.00  0.00    -0.013 C 
HETATM   21  C1  UNL     1      -0.181  51.129 -25.568  1.00  0.00     0.010 C 
BRANCH  20  22
HETATM   22  C3  UNL     1      -2.048  52.344 -24.370  1.00  0.00     0.009 C 
BRANCH  22  23
HETATM   23  C4  UNL     1      -3.175  52.098 -25.391  1.00  0.00     0.037 C 
BRANCH  23  24
HETATM   24  C5  UNL     1      -3.822  50.720 -25.248  1.00  0.00    -0.049 C 
HETATM   25  C6  UNL     1      -4.597  50.416 -24.181  1.00  0.00     0.004 C 
BRANCH  25  26
HETATM   26  C7  UNL     1      -4.952  51.280 -23.011  1.00  0.00     0.191 C 
BRANCH  26  27
HETATM   27  O1  UNL     1      -6.020  52.128 -23.406  1.00  0.00    -0.397 OA
HETATM   28  H12 UNL     1      -5.696  52.652 -24.160  1.00  0.00     0.209 HD
ENDBRANCH  26  27
ENDBRANCH  25  26
BRANCH  24  29
HETATM   29  C8  UNL     1      -3.591  49.741 -26.416  1.00  0.00     0.074 C 
HETATM   30  C9  UNL     1      -3.138  50.449 -27.700  1.00  0.00     0.050 C 
HETATM   31  C10 UNL     1      -2.606  48.593 -26.135  1.00  0.00     0.050 C 
BRANCH  29  32
HETATM   32  O2  UNL     1      -4.852  49.123 -26.698  1.00  0.00    -0.386 OA
HETATM   33  H19 UNL     1      -5.168  48.739 -25.863  1.00  0.00     0.211 HD
ENDBRANCH  29  32
ENDBRANCH  24  29
ENDBRANCH  23  24
ENDBRANCH  22  23
ENDBRANCH  20  22
ENDBRANCH   1  20
BRANCH  15  34
HETATM   34  O3  UNL     1       1.163  49.275 -13.295  1.00  0.00    -0.396 OA
HETATM   35  H39 UNL     1       0.298  49.579 -12.970  1.00  0.00     0.210 HD
ENDBRANCH  15  34
TORSDOF 9
ENDMDL
MODEL 8
REMARK minimizedAffinity -9.31314182
REMARK  9 active torsions:
REMARK  status: ('A' for Active; 'I' for Inactive)
REMARK    1  A    between atoms: C2_2  and  C3_3 
REMARK    2  A    between atoms: C2_2  and  C11_13 
REMARK    3  A    between atoms: C3_3  and  C4_4 
REMARK    4  A    between atoms: C4_4  and  C5_5 
REMARK    5  A    between atoms: C5_5  and  C8_9 
REMARK    6  A    between atoms: C6_6  and  C7_7 
REMARK    7  A    between atoms: C7_7  and  O1_8 
REMARK    8  A    between atoms: C8_9  and  O2_12 
REMARK    9  A    between atoms: C25_27  and  O3_28 
ROOT
HETATM    1  C11 UNL     1      -6.475  49.318 -22.677  1.00  0.00     0.005 C 
HETATM    2  C12 UNL     1      -7.072  49.334 -21.252  1.00  0.00     0.033 C 
HETATM    3  C13 UNL     1      -6.016  50.030 -20.463  1.00  0.00    -0.018 C 
HETATM    4  C14 UNL     1      -4.839  50.032 -21.103  1.00  0.00    -0.047 C 
HETATM    5  C15 UNL     1      -3.590  50.643 -20.680  1.00  0.00    -0.048 C 
HETATM    6  C16 UNL     1      -2.564  50.790 -21.557  1.00  0.00    -0.064 C 
HETATM    7  C17 UNL     1      -2.697  50.351 -23.010  1.00  0.00     0.036 C 
HETATM    8  C18 UNL     1      -4.132  50.058 -23.468  1.00  0.00     0.019 C 
HETATM    9  C19 UNL     1      -4.930  49.274 -22.419  1.00  0.00    -0.012 C 
HETATM   10  C20 UNL     1      -4.379  47.847 -22.223  1.00  0.00     0.021 C 
HETATM   11  C21 UNL     1      -1.191  51.346 -21.112  1.00  0.00    -0.016 C 
HETATM   12  C22 UNL     1      -0.287  50.113 -20.855  1.00  0.00     0.020 C 
HETATM   13  C23 UNL     1      -0.515  52.250 -22.183  1.00  0.00     0.016 C 
HETATM   14  C24 UNL     1       0.782  52.904 -21.701  1.00  0.00     0.033 C 
HETATM   15  C25 UNL     1       0.591  53.681 -20.402  1.00  0.00     0.118 C 
HETATM   16  C26 UNL     1      -0.075  52.836 -19.318  1.00  0.00     0.037 C 
HETATM   17  C27 UNL     1      -1.383  52.224 -19.833  1.00  0.00     0.001 C 
HETATM   18  C28 UNL     1      -2.112  51.453 -18.739  1.00  0.00     0.010 C 
HETATM   19  C29 UNL     1      -3.503  51.045 -19.220  1.00  0.00     0.040 C 
ENDROOT
BRANCH   1  20
HETATM   20  C2  UNL     1      -7.111  48.223 -23.575  1.00  0.00    -0.013 C 
HETATM   21  C1  UNL     1      -7.121  46.840 -22.913  1.00  0.00     0.010 C 
BRANCH  20  22
HETATM   22  C3  UNL     1      -6.446  48.136 -24.979  1.00  0.00     0.009 C 
BRANCH  22  23
HETATM   23  C4  UNL     1      -7.101  47.144 -25.959  1.00  0.00     0.037 C 
BRANCH  23  24
HETATM   24  C5  UNL     1      -7.575  47.806 -27.254  1.00  0.00    -0.049 C 
HETATM   25  C6  UNL     1      -8.740  48.492 -27.304  1.00  0.00     0.004 C 
BRANCH  25  26
HETATM   26  C7  UNL     1      -9.732  48.727 -26.209  1.00  0.00     0.191 C 
BRANCH  26  27
HETATM   27  O1  UNL     1      -9.714  50.112 -25.896  1.00  0.00    -0.397 OA
HETATM   28  H12 UNL     1      -8.805  50.322 -25.616  1.00  0.00     0.209 HD
ENDBRANCH  26  27
ENDBRANCH  25  26
BRANCH  24  29
HETATM   29  C8  UNL     1      -6.618  47.696 -28.457  1.00  0.00     0.074 C 
HETATM   30  C9  UNL     1      -5.157  47.969 -28.078  1.00  0.00     0.050 C 
HETATM   31  C10 UNL     1      -6.668  46.364 -29.225  1.00  0.00     0.050 C 
BRANCH  29  32
HETATM   32  O2  UNL     1      -7.008  48.710 -29.392  1.00  0.00    -0.386 OA
HETATM   33  H19 UNL     1      -7.953  48.575 -29.573  1.00  0.00     0.211 HD
ENDBRANCH  29  32
ENDBRANCH  24  29
ENDBRANCH  23  24
ENDBRANCH  22  23
ENDBRANCH  20  22
ENDBRANCH   1  20
BRANCH  15  34
HETATM   34  O3  UNL     1       1.852  54.151 -19.934  1.00  0.00    -0.396 OA
HETATM   35  H39 UNL     1       2.414  53.378 -19.755  1.00  0.00     0.210 HD
ENDBRANCH  15  34
TORSDOF 9
ENDMDL
MODEL 9
REMARK minimizedAffinity -9.26653481
REMARK  9 active torsions:
REMARK  status: ('A' for Active; 'I' for Inactive)
REMARK    1  A    between atoms: C2_2  and  C3_3 
REMARK    2  A    between atoms: C2_2  and  C11_13 
REMARK    3  A    between atoms: C3_3  and  C4_4 
REMARK    4  A    between atoms: C4_4  and  C5_5 
REMARK    5  A    between atoms: C5_5  and  C8_9 
REMARK    6  A    between atoms: C6_6  and  C7_7 
REMARK    7  A    between atoms: C7_7  and  O1_8 
REMARK    8  A    between atoms: C8_9  and  O2_12 
REMARK    9  A    between atoms: C25_27  and  O3_28 
ROOT
HETATM    1  C11 UNL     1      -0.436  50.220 -19.691  1.00  0.00     0.005 C 
HETATM    2  C12 UNL     1      -0.895  48.756 -19.510  1.00  0.00     0.033 C 
HETATM    3  C13 UNL     1      -1.485  48.430 -20.841  1.00  0.00    -0.018 C 
HETATM    4  C14 UNL     1      -1.773  49.537 -21.539  1.00  0.00    -0.047 C 
HETATM    5  C15 UNL     1      -2.316  49.633 -22.884  1.00  0.00    -0.048 C 
HETATM    6  C16 UNL     1      -2.298  50.814 -23.551  1.00  0.00    -0.064 C 
HETATM    7  C17 UNL     1      -1.686  52.064 -22.930  1.00  0.00     0.036 C 
HETATM    8  C18 UNL     1      -0.824  51.811 -21.687  1.00  0.00     0.019 C 
HETATM    9  C19 UNL     1      -1.458  50.789 -20.735  1.00  0.00    -0.012 C 
HETATM   10  C20 UNL     1      -2.756  51.324 -20.097  1.00  0.00     0.021 C 
HETATM   11  C21 UNL     1      -2.956  50.970 -24.942  1.00  0.00    -0.016 C 
HETATM   12  C22 UNL     1      -4.362  51.573 -24.691  1.00  0.00     0.020 C 
HETATM   13  C23 UNL     1      -2.167  51.913 -25.896  1.00  0.00     0.016 C 
HETATM   14  C24 UNL     1      -2.743  51.972 -27.313  1.00  0.00     0.033 C 
HETATM   15  C25 UNL     1      -2.883  50.587 -27.939  1.00  0.00     0.118 C 
HETATM   16  C26 UNL     1      -3.647  49.621 -27.036  1.00  0.00     0.037 C 
HETATM   17  C27 UNL     1      -3.020  49.572 -25.639  1.00  0.00     0.001 C 
HETATM   18  C28 UNL     1      -3.710  48.543 -24.749  1.00  0.00     0.010 C 
HETATM   19  C29 UNL     1      -2.930  48.366 -23.449  1.00  0.00     0.040 C 
ENDROOT
BRANCH   1  20
HETATM   20  C2  UNL     1      -0.266  50.960 -18.337  1.00  0.00    -0.013 C 
HETATM   21  C1  UNL     1       0.548  52.252 -18.462  1.00  0.00     0.010 C 
BRANCH  20  22
HETATM   22  C3  UNL     1       0.343  50.052 -17.230  1.00  0.00     0.009 C 
BRANCH  22  23
HETATM   23  C4  UNL     1       0.323  50.643 -15.807  1.00  0.00     0.037 C 
BRANCH  23  24
HETATM   24  C5  UNL     1       1.177  49.851 -14.817  1.00  0.00    -0.049 C 
HETATM   25  C6  UNL     1       2.315  50.370 -14.301  1.00  0.00     0.004 C 
BRANCH  25  26
HETATM   26  C7  UNL     1       2.934  51.706 -14.565  1.00  0.00     0.191 C 
BRANCH  26  27
HETATM   27  O1  UNL     1       2.766  52.501 -13.400  1.00  0.00    -0.397 OA
HETATM   28  H12 UNL     1       1.807  52.568 -13.244  1.00  0.00     0.209 HD
ENDBRANCH  26  27
ENDBRANCH  25  26
BRANCH  24  29
HETATM   29  C8  UNL     1       0.627  48.472 -14.403  1.00  0.00     0.074 C 
HETATM   30  C9  UNL     1       1.282  47.933 -13.126  1.00  0.00     0.050 C 
HETATM   31  C10 UNL     1      -0.899  48.392 -14.223  1.00  0.00     0.050 C 
BRANCH  29  32
HETATM   32  O2  UNL     1       0.951  47.560 -15.460  1.00  0.00    -0.386 OA
HETATM   33  H19 UNL     1       0.595  47.944 -16.279  1.00  0.00     0.211 HD
ENDBRANCH  29  32
ENDBRANCH  24  29
ENDBRANCH  23  24
ENDBRANCH  22  23
ENDBRANCH  20  22
ENDBRANCH   1  20
BRANCH  15  34
HETATM   34  O3  UNL     1      -3.545  50.693 -29.195  1.00  0.00    -0.396 OA
HETATM   35  H39 UNL     1      -4.434  51.054 -29.038  1.00  0.00     0.210 HD
ENDBRANCH  15  34
TORSDOF 9
ENDMDL
