MODEL 1
REMARK minimizedAffinity -9.88864422
REMARK CNNscore 0.718187332
REMARK CNNaffinity 7.38232994
REMARK  7 active torsions:
REMARK  status: ('A' for Active; 'I' for Inactive)
REMARK    1  A    between atoms: C6_7  and  O1_8 
REMARK    2  A    between atoms: C8_11  and  C9_12 
REMARK    3  A    between atoms: C9_12  and  O3_13 
REMARK    4  A    between atoms: C9_12  and  C10_14 
REMARK    5  A    between atoms: C10_14  and  O4_16 
REMARK    6  A    between atoms: C10_14  and  C12_17 
REMARK    7  A    between atoms: C19_25  and  C20_26 
ROOT
HETATM    1  C12 UNL     1      -1.959   8.542  14.743  1.00  0.00     0.034 C 
HETATM    2  C13 UNL     1      -2.026   7.671  16.030  1.00  0.00     0.012 C 
HETATM    3  C14 UNL     1      -1.479   8.535  17.180  1.00  0.00     0.044 C 
HETATM    4  C15 UNL     1      -1.562   9.985  16.664  1.00  0.00     0.093 C 
HETATM    5  O5  UNL     1      -2.932  10.448  16.585  1.00  0.00    -0.363 OA
HETATM    6  C16 UNL     1      -3.807  10.307  17.701  1.00  0.00     0.263 C 
HETATM    7  C17 UNL     1      -4.107  11.595  18.344  1.00  0.00    -0.080 C 
HETATM    8  C18 UNL     1      -4.419  12.616  18.899  1.00  0.00    -0.093 C 
HETATM    9  C19 UNL     1      -4.814  13.886  19.561  1.00  0.00     0.121 C 
HETATM   10  C26 UNL     1      -3.616  14.587  20.254  1.00  0.00     0.190 C 
HETATM   11  O6  UNL     1      -2.813  15.365  19.350  1.00  0.00    -0.384 OA
HETATM   12  C27 UNL     1      -1.846  14.610  18.625  1.00  0.00     0.122 C 
HETATM   13  C28 UNL     1      -1.489  15.363  17.341  1.00  0.00     0.033 C 
HETATM   14  C29 UNL     1      -0.151  14.930  16.725  1.00  0.00     0.013 C 
HETATM   15  C30 UNL     1       0.296  13.497  17.126  1.00  0.00    -0.026 C 
HETATM   16  C31 UNL     1       1.731  13.276  16.572  1.00  0.00     0.016 C 
HETATM   17  C32 UNL     1       0.415  13.460  18.683  1.00  0.00     0.071 C 
HETATM   18  C33 UNL     1      -0.603  14.322  19.450  1.00  0.00     0.045 C 
HETATM   19  C34 UNL     1       0.448  12.056  19.253  1.00  0.00     0.154 C 
HETATM   20  O7  UNL     1       0.962  11.817  20.346  1.00  0.00    -0.293 OA
HETATM   21  C35 UNL     1      -0.202  10.951  18.529  1.00  0.00     0.057 C 
HETATM   22  C36 UNL     1      -0.758  11.101  17.317  1.00  0.00    -0.036 C 
HETATM   23  C37 UNL     1      -0.710  12.418  16.533  1.00  0.00     0.026 C 
HETATM   24  C38 UNL     1      -0.538  12.232  14.994  1.00  0.00     0.011 C 
HETATM   25  C39 UNL     1      -1.323  11.061  14.393  1.00  0.00     0.014 C 
HETATM   26  C40 UNL     1      -1.060   9.760  15.182  1.00  0.00    -0.002 C 
HETATM   27  C41 UNL     1       0.451   9.402  15.105  1.00  0.00     0.019 C 
ENDROOT
BRANCH   1  28
HETATM   28  C10 UNL     1      -1.673   7.767  13.406  1.00  0.00     0.087 C 
HETATM   29  C11 UNL     1      -2.897   7.123  12.752  1.00  0.00     0.049 C 
BRANCH  28  30
HETATM   30  C9  UNL     1      -0.844   8.627  12.378  1.00  0.00     0.181 C 
BRANCH  30  31
HETATM   31  C8  UNL     1       0.244   7.936  11.532  1.00  0.00     0.158 C 
HETATM   32  C2  UNL     1       0.640   8.505  10.168  1.00  0.00     0.020 C 
HETATM   33  C1  UNL     1      -0.561   8.866   9.282  1.00  0.00     0.013 C 
HETATM   34  C3  UNL     1       1.371   7.309   9.539  1.00  0.00     0.027 C 
HETATM   35  C4  UNL     1       2.893   7.343   9.704  1.00  0.00     0.038 C 
HETATM   36  C7  UNL     1       0.759   6.078  10.216  1.00  0.00     0.185 C 
HETATM   37  C5  UNL     1       3.466   5.969   9.349  1.00  0.00     0.273 C 
HETATM   38  N1  UNL     1       3.036   4.927  10.265  1.00  0.00     0.114 N 
HETATM   39  C6  UNL     1       1.792   5.184  10.956  1.00  0.00     0.383 C 
HETATM   40  H10 UNL     1       2.964   4.023   9.807  1.00  0.00     0.319 HD
HETATM   41  O2  UNL     1      -0.189   6.591  11.181  1.00  0.00    -0.373 OA
BRANCH  39  42
HETATM   42  O1  UNL     1       1.186   3.926  11.228  1.00  0.00    -0.366 OA
HETATM   43  H12 UNL     1       0.382   4.146  11.737  1.00  0.00     0.212 HD
ENDBRANCH  39  42
ENDBRANCH  30  31
BRANCH  30  44
HETATM   44  O3  UNL     1      -1.808   9.196  11.449  1.00  0.00    -0.390 OA
HETATM   45  H16 UNL     1      -2.632   9.323  11.958  1.00  0.00     0.210 HD
ENDBRANCH  30  44
ENDBRANCH  28  30
BRANCH  28  46
HETATM   46  O4  UNL     1      -0.785   6.668  13.731  1.00  0.00    -0.387 OA
HETATM   47  H20 UNL     1      -0.639   6.139  12.925  1.00  0.00     0.210 HD
ENDBRANCH  28  46
ENDBRANCH   1  28
BRANCH   9  48
HETATM   48  C20 UNL     1      -5.938  13.644  20.561  1.00  0.00    -0.040 A 
HETATM   49  C21 UNL     1      -5.673  13.414  21.922  1.00  0.00     0.008 A 
HETATM   50  C22 UNL     1      -6.719  13.250  22.834  1.00  0.00     0.001 A 
HETATM   51  C23 UNL     1      -8.039  13.309  22.399  1.00  0.00     0.000 A 
HETATM   52  C24 UNL     1      -8.319  13.523  21.050  1.00  0.00     0.001 A 
HETATM   53  C25 UNL     1      -7.275  13.686  20.135  1.00  0.00     0.008 A 
ENDBRANCH   9  48
TORSDOF 7
ENDMDL
MODEL 2
REMARK minimizedAffinity -8.78042126
REMARK CNNscore 0.602919638
REMARK CNNaffinity 6.94036722
REMARK  7 active torsions:
REMARK  status: ('A' for Active; 'I' for Inactive)
REMARK    1  A    between atoms: C6_7  and  O1_8 
REMARK    2  A    between atoms: C8_11  and  C9_12 
REMARK    3  A    between atoms: C9_12  and  O3_13 
REMARK    4  A    between atoms: C9_12  and  C10_14 
REMARK    5  A    between atoms: C10_14  and  O4_16 
REMARK    6  A    between atoms: C10_14  and  C12_17 
REMARK    7  A    between atoms: C19_25  and  C20_26 
ROOT
HETATM    1  C12 UNL     1       2.891  11.754  20.637  1.00  0.00     0.034 C 
HETATM    2  C13 UNL     1       2.962  11.121  22.055  1.00  0.00     0.012 C 
HETATM    3  C14 UNL     1       4.313  11.539  22.662  1.00  0.00     0.044 C 
HETATM    4  C15 UNL     1       4.766  12.753  21.827  1.00  0.00     0.093 C 
HETATM    5  O5  UNL     1       3.956  13.923  22.099  1.00  0.00    -0.363 OA
HETATM    6  C16 UNL     1       3.727  14.347  23.441  1.00  0.00     0.263 C 
HETATM    7  C17 UNL     1       4.447  15.588  23.765  1.00  0.00    -0.080 C 
HETATM    8  C18 UNL     1       4.982  16.616  24.090  1.00  0.00    -0.093 C 
HETATM    9  C19 UNL     1       5.630  17.898  24.469  1.00  0.00     0.121 C 
HETATM   10  C26 UNL     1       7.178  17.793  24.487  1.00  0.00     0.190 C 
HETATM   11  O6  UNL     1       7.772  17.934  23.185  1.00  0.00    -0.384 OA
HETATM   12  C27 UNL     1       7.781  16.739  22.411  1.00  0.00     0.122 C 
HETATM   13  C28 UNL     1       7.866  17.108  20.927  1.00  0.00     0.033 C 
HETATM   14  C29 UNL     1       8.362  15.962  20.034  1.00  0.00     0.013 C 
HETATM   15  C30 UNL     1       8.137  14.548  20.636  1.00  0.00    -0.026 C 
HETATM   16  C31 UNL     1       8.841  13.520  19.708  1.00  0.00     0.016 C 
HETATM   17  C32 UNL     1       8.890  14.493  22.003  1.00  0.00     0.071 C 
HETATM   18  C33 UNL     1       8.915  15.807  22.805  1.00  0.00     0.045 C 
HETATM   19  C34 UNL     1       8.447  13.347  22.891  1.00  0.00     0.154 C 
HETATM   20  O7  UNL     1       9.184  12.885  23.763  1.00  0.00    -0.293 OA
HETATM   21  C35 UNL     1       7.084  12.804  22.769  1.00  0.00     0.057 C 
HETATM   22  C36 UNL     1       6.217  13.214  21.830  1.00  0.00    -0.036 C 
HETATM   23  C37 UNL     1       6.581  14.236  20.747  1.00  0.00     0.026 C 
HETATM   24  C38 UNL     1       5.937  13.942  19.357  1.00  0.00     0.011 C 
HETATM   25  C39 UNL     1       4.495  13.426  19.410  1.00  0.00     0.014 C 
HETATM   26  C40 UNL     1       4.370  12.237  20.386  1.00  0.00    -0.002 C 
HETATM   27  C41 UNL     1       5.269  11.067  19.898  1.00  0.00     0.019 C 
ENDROOT
BRANCH   1  28
HETATM   28  C10 UNL     1       2.119  10.920  19.552  1.00  0.00     0.087 C 
HETATM   29  C11 UNL     1       0.625  10.725  19.821  1.00  0.00     0.049 C 
BRANCH  28  30
HETATM   30  C9  UNL     1       2.387  11.442  18.088  1.00  0.00     0.181 C 
BRANCH  30  31
HETATM   31  C8  UNL     1       2.122  10.497  16.899  1.00  0.00     0.158 C 
HETATM   32  C2  UNL     1       0.788  10.552  16.152  1.00  0.00     0.020 C 
HETATM   33  C1  UNL     1      -0.435  10.581  17.080  1.00  0.00     0.013 C 
HETATM   34  C3  UNL     1       0.803   9.212  15.402  1.00  0.00     0.027 C 
HETATM   35  C4  UNL     1       1.315   9.301  13.962  1.00  0.00     0.038 C 
HETATM   36  C7  UNL     1       1.685   8.296  16.257  1.00  0.00     0.185 C 
HETATM   37  C5  UNL     1       1.601   7.890  13.443  1.00  0.00     0.273 C 
HETATM   38  N1  UNL     1       2.680   7.234  14.161  1.00  0.00     0.114 N 
HETATM   39  C6  UNL     1       2.914   7.717  15.504  1.00  0.00     0.383 C 
HETATM   40  H10 UNL     1       2.554   6.227  14.204  1.00  0.00     0.319 HD
HETATM   41  O2  UNL     1       2.153   9.115  17.355  1.00  0.00    -0.373 OA
BRANCH  39  42
HETATM   42  O1  UNL     1       3.439   6.635  16.263  1.00  0.00    -0.366 OA
HETATM   43  H12 UNL     1       3.628   7.019  17.140  1.00  0.00     0.212 HD
ENDBRANCH  39  42
ENDBRANCH  30  31
BRANCH  30  44
HETATM   44  O3  UNL     1       1.535  12.606  17.906  1.00  0.00    -0.390 OA
HETATM   45  H16 UNL     1       1.448  13.018  18.787  1.00  0.00     0.210 HD
ENDBRANCH  30  44
ENDBRANCH  28  30
BRANCH  28  46
HETATM   46  O4  UNL     1       2.689   9.588  19.553  1.00  0.00    -0.387 OA
HETATM   47  H20 UNL     1       2.187   9.034  18.926  1.00  0.00     0.210 HD
ENDBRANCH  28  46
ENDBRANCH   1  28
BRANCH   9  48
HETATM   48  C20 UNL     1       5.115  18.380  25.819  1.00  0.00    -0.040 A 
HETATM   49  C21 UNL     1       5.146  19.740  26.173  1.00  0.00     0.008 A 
HETATM   50  C22 UNL     1       4.617  20.172  27.393  1.00  0.00     0.001 A 
HETATM   51  C23 UNL     1       4.056  19.252  28.274  1.00  0.00     0.000 A 
HETATM   52  C24 UNL     1       4.030  17.898  27.944  1.00  0.00     0.001 A 
HETATM   53  C25 UNL     1       4.559  17.463  26.725  1.00  0.00     0.008 A 
ENDBRANCH   9  48
TORSDOF 7
ENDMDL
MODEL 3
REMARK minimizedAffinity -9.0323782
REMARK CNNscore 0.421942323
REMARK CNNaffinity 6.65151644
REMARK  7 active torsions:
REMARK  status: ('A' for Active; 'I' for Inactive)
REMARK    1  A    between atoms: C6_7  and  O1_8 
REMARK    2  A    between atoms: C8_11  and  C9_12 
REMARK    3  A    between atoms: C9_12  and  O3_13 
REMARK    4  A    between atoms: C9_12  and  C10_14 
REMARK    5  A    between atoms: C10_14  and  O4_16 
REMARK    6  A    between atoms: C10_14  and  C12_17 
REMARK    7  A    between atoms: C19_25  and  C20_26 
ROOT
HETATM    1  C12 UNL     1     -16.926  -1.584  16.986  1.00  0.00     0.034 C 
HETATM    2  C13 UNL     1     -15.880  -1.869  15.871  1.00  0.00     0.012 C 
HETATM    3  C14 UNL     1     -16.345  -1.103  14.619  1.00  0.00     0.044 C 
HETATM    4  C15 UNL     1     -17.334  -0.044  15.145  1.00  0.00     0.093 C 
HETATM    5  O5  UNL     1     -16.657   1.002  15.883  1.00  0.00    -0.363 OA
HETATM    6  C16 UNL     1     -15.526   1.665  15.324  1.00  0.00     0.263 C 
HETATM    7  C17 UNL     1     -15.827   3.051  14.934  1.00  0.00    -0.080 C 
HETATM    8  C18 UNL     1     -15.995   4.201  14.621  1.00  0.00    -0.093 C 
HETATM    9  C19 UNL     1     -16.210   5.626  14.260  1.00  0.00     0.121 C 
HETATM   10  C26 UNL     1     -17.217   5.793  13.092  1.00  0.00     0.190 C 
HETATM   11  O6  UNL     1     -18.591   5.743  13.515  1.00  0.00    -0.384 OA
HETATM   12  C27 UNL     1     -19.111   4.426  13.668  1.00  0.00     0.122 C 
HETATM   13  C28 UNL     1     -20.295   4.469  14.638  1.00  0.00     0.033 C 
HETATM   14  C29 UNL     1     -21.229   3.256  14.524  1.00  0.00     0.013 C 
HETATM   15  C30 UNL     1     -20.554   1.991  13.925  1.00  0.00    -0.026 C 
HETATM   16  C31 UNL     1     -21.659   0.920  13.714  1.00  0.00     0.016 C 
HETATM   17  C32 UNL     1     -20.030   2.367  12.503  1.00  0.00     0.071 C 
HETATM   18  C33 UNL     1     -19.519   3.811  12.340  1.00  0.00     0.045 C 
HETATM   19  C34 UNL     1     -19.012   1.387  11.956  1.00  0.00     0.154 C 
HETATM   20  O7  UNL     1     -18.825   1.260  10.745  1.00  0.00    -0.293 OA
HETATM   21  C35 UNL     1     -18.170   0.606  12.878  1.00  0.00     0.057 C 
HETATM   22  C36 UNL     1     -18.318   0.646  14.211  1.00  0.00    -0.036 C 
HETATM   23  C37 UNL     1     -19.423   1.452  14.904  1.00  0.00     0.026 C 
HETATM   24  C38 UNL     1     -20.018   0.754  16.166  1.00  0.00     0.011 C 
HETATM   25  C39 UNL     1     -18.995   0.024  17.043  1.00  0.00     0.014 C 
HETATM   26  C40 UNL     1     -18.120  -0.924  16.197  1.00  0.00    -0.002 C 
HETATM   27  C41 UNL     1     -19.018  -2.003  15.529  1.00  0.00     0.019 C 
ENDROOT
BRANCH   1  28
HETATM   28  C10 UNL     1     -17.180  -2.756  18.002  1.00  0.00     0.087 C 
HETATM   29  C11 UNL     1     -18.518  -2.696  18.743  1.00  0.00     0.049 C 
BRANCH  28  30
HETATM   30  C9  UNL     1     -16.928  -4.174  17.362  1.00  0.00     0.181 C 
BRANCH  30  31
HETATM   31  C8  UNL     1     -16.045  -4.278  16.103  1.00  0.00     0.158 C 
HETATM   32  C2  UNL     1     -16.594  -4.916  14.825  1.00  0.00     0.020 C 
HETATM   33  C1  UNL     1     -17.320  -6.247  15.066  1.00  0.00     0.013 C 
HETATM   34  C3  UNL     1     -15.302  -5.196  14.044  1.00  0.00     0.027 C 
HETATM   35  C4  UNL     1     -14.929  -4.110  13.031  1.00  0.00     0.038 C 
HETATM   36  C7  UNL     1     -14.222  -5.356  15.120  1.00  0.00     0.185 C 
HETATM   37  C5  UNL     1     -13.484  -4.326  12.573  1.00  0.00     0.273 C 
HETATM   38  N1  UNL     1     -12.522  -4.152  13.647  1.00  0.00     0.114 N 
HETATM   39  C6  UNL     1     -13.038  -4.360  14.982  1.00  0.00     0.383 C 
HETATM   40  H10 UNL     1     -11.704  -4.742  13.527  1.00  0.00     0.319 HD
HETATM   41  O2  UNL     1     -14.889  -5.116  16.382  1.00  0.00    -0.373 OA
BRANCH  39  42
HETATM   42  O1  UNL     1     -11.963  -4.822  15.789  1.00  0.00    -0.366 OA
HETATM   43  H12 UNL     1     -12.344  -4.899  16.685  1.00  0.00     0.212 HD
ENDBRANCH  39  42
ENDBRANCH  30  31
BRANCH  30  44
HETATM   44  O3  UNL     1     -16.295  -4.981  18.394  1.00  0.00    -0.390 OA
HETATM   45  H16 UNL     1     -16.644  -4.654  19.245  1.00  0.00     0.210 HD
ENDBRANCH  30  44
ENDBRANCH  28  30
BRANCH  28  46
HETATM   46  O4  UNL     1     -16.163  -2.656  19.031  1.00  0.00    -0.387 OA
HETATM   47  H20 UNL     1     -16.336  -3.339  19.705  1.00  0.00     0.210 HD
ENDBRANCH  28  46
ENDBRANCH   1  28
BRANCH   9  48
HETATM   48  C20 UNL     1     -14.886   6.299  13.920  1.00  0.00    -0.040 A 
HETATM   49  C21 UNL     1     -14.832   7.435  13.094  1.00  0.00     0.008 A 
HETATM   50  C22 UNL     1     -13.614   8.073  12.839  1.00  0.00     0.001 A 
HETATM   51  C23 UNL     1     -12.439   7.583  13.400  1.00  0.00     0.000 A 
HETATM   52  C24 UNL     1     -12.474   6.449  14.210  1.00  0.00     0.001 A 
HETATM   53  C25 UNL     1     -13.690   5.808  14.467  1.00  0.00     0.008 A 
ENDBRANCH   9  48
TORSDOF 7
ENDMDL
MODEL 4
REMARK minimizedAffinity -9.5607214
REMARK CNNscore 0.358957171
REMARK CNNaffinity 7.18080664
REMARK  7 active torsions:
REMARK  status: ('A' for Active; 'I' for Inactive)
REMARK    1  A    between atoms: C6_7  and  O1_8 
REMARK    2  A    between atoms: C8_11  and  C9_12 
REMARK    3  A    between atoms: C9_12  and  O3_13 
REMARK    4  A    between atoms: C9_12  and  C10_14 
REMARK    5  A    between atoms: C10_14  and  O4_16 
REMARK    6  A    between atoms: C10_14  and  C12_17 
REMARK    7  A    between atoms: C19_25  and  C20_26 
ROOT
HETATM    1  C12 UNL     1      -9.066 -10.133   1.799  1.00  0.00     0.034 C 
HETATM    2  C13 UNL     1      -9.808 -11.294   2.520  1.00  0.00     0.012 C 
HETATM    3  C14 UNL     1      -8.757 -12.034   3.368  1.00  0.00     0.044 C 
HETATM    4  C15 UNL     1      -7.585 -11.042   3.505  1.00  0.00     0.093 C 
HETATM    5  O5  UNL     1      -7.921  -9.932   4.373  1.00  0.00    -0.363 OA
HETATM    6  C16 UNL     1      -8.478 -10.168   5.663  1.00  0.00     0.263 C 
HETATM    7  C17 UNL     1      -7.530  -9.864   6.745  1.00  0.00    -0.080 C 
HETATM    8  C18 UNL     1      -6.816  -9.606   7.680  1.00  0.00    -0.093 C 
HETATM    9  C19 UNL     1      -5.934  -9.262   8.824  1.00  0.00     0.121 C 
HETATM   10  C26 UNL     1      -4.687 -10.182   8.904  1.00  0.00     0.190 C 
HETATM   11  O6  UNL     1      -3.624  -9.776   8.025  1.00  0.00    -0.384 OA
HETATM   12  C27 UNL     1      -3.769 -10.226   6.681  1.00  0.00     0.122 C 
HETATM   13  C28 UNL     1      -2.973  -9.300   5.758  1.00  0.00     0.033 C 
HETATM   14  C29 UNL     1      -2.645  -9.922   4.394  1.00  0.00     0.013 C 
HETATM   15  C30 UNL     1      -3.612 -11.062   3.970  1.00  0.00    -0.026 C 
HETATM   16  C31 UNL     1      -3.052 -11.698   2.668  1.00  0.00     0.016 C 
HETATM   17  C32 UNL     1      -3.542 -12.171   5.067  1.00  0.00     0.071 C 
HETATM   18  C33 UNL     1      -3.333 -11.671   6.508  1.00  0.00     0.045 C 
HETATM   19  C34 UNL     1      -4.700 -13.147   5.014  1.00  0.00     0.154 C 
HETATM   20  O7  UNL     1      -4.603 -14.287   5.471  1.00  0.00    -0.293 OA
HETATM   21  C35 UNL     1      -5.999 -12.721   4.467  1.00  0.00     0.057 C 
HETATM   22  C36 UNL     1      -6.197 -11.514   3.915  1.00  0.00    -0.036 C 
HETATM   23  C37 UNL     1      -5.075 -10.485   3.732  1.00  0.00     0.026 C 
HETATM   24  C38 UNL     1      -5.179  -9.664   2.410  1.00  0.00     0.011 C 
HETATM   25  C39 UNL     1      -6.602  -9.261   2.010  1.00  0.00     0.014 C 
HETATM   26  C40 UNL     1      -7.546 -10.483   2.026  1.00  0.00    -0.002 C 
HETATM   27  C41 UNL     1      -7.050 -11.536   0.997  1.00  0.00     0.019 C 
ENDROOT
BRANCH   1  28
HETATM   28  C10 UNL     1      -9.603  -9.760   0.370  1.00  0.00     0.087 C 
HETATM   29  C11 UNL     1     -11.125  -9.638   0.257  1.00  0.00     0.049 C 
BRANCH  28  30
HETATM   30  C9  UNL     1      -8.868  -8.507  -0.242  1.00  0.00     0.181 C 
BRANCH  30  31
HETATM   31  C8  UNL     1      -8.692  -8.418  -1.771  1.00  0.00     0.158 C 
HETATM   32  C2  UNL     1      -7.755  -9.384  -2.498  1.00  0.00     0.020 C 
HETATM   33  C1  UNL     1      -6.385  -9.536  -1.821  1.00  0.00     0.013 C 
HETATM   34  C3  UNL     1      -7.561  -8.667  -3.843  1.00  0.00     0.027 C 
HETATM   35  C4  UNL     1      -8.497  -9.150  -4.954  1.00  0.00     0.038 C 
HETATM   36  C7  UNL     1      -7.779  -7.183  -3.529  1.00  0.00     0.185 C 
HETATM   37  C5  UNL     1      -8.449  -8.155  -6.117  1.00  0.00     0.273 C 
HETATM   38  N1  UNL     1      -8.970  -6.847  -5.760  1.00  0.00     0.114 N 
HETATM   39  C6  UNL     1      -8.919  -6.522  -4.351  1.00  0.00     0.383 C 
HETATM   40  H10 UNL     1      -8.513  -6.100  -6.274  1.00  0.00     0.319 HD
HETATM   41  O2  UNL     1      -8.123  -7.126  -2.124  1.00  0.00    -0.373 OA
BRANCH  39  42
HETATM   42  O1  UNL     1      -8.794  -5.110  -4.242  1.00  0.00    -0.366 OA
HETATM   43  H12 UNL     1      -8.815  -4.936  -3.281  1.00  0.00     0.212 HD
ENDBRANCH  39  42
ENDBRANCH  30  31
BRANCH  30  44
HETATM   44  O3  UNL     1      -9.637  -7.342   0.167  1.00  0.00    -0.390 OA
HETATM   45  H16 UNL     1     -10.028  -7.566   1.034  1.00  0.00     0.210 HD
ENDBRANCH  30  44
ENDBRANCH  28  30
BRANCH  28  46
HETATM   46  O4  UNL     1      -9.235 -10.844  -0.520  1.00  0.00    -0.387 OA
HETATM   47  H20 UNL     1      -9.609 -10.661  -1.403  1.00  0.00     0.210 HD
ENDBRANCH  28  46
ENDBRANCH   1  28
BRANCH   9  48
HETATM   48  C20 UNL     1      -6.711  -9.306  10.134  1.00  0.00    -0.040 A 
HETATM   49  C21 UNL     1      -6.112  -8.952  11.355  1.00  0.00     0.008 A 
HETATM   50  C22 UNL     1      -6.856  -8.943  12.539  1.00  0.00     0.001 A 
HETATM   51  C23 UNL     1      -8.203  -9.293  12.517  1.00  0.00     0.000 A 
HETATM   52  C24 UNL     1      -8.809  -9.660  11.317  1.00  0.00     0.001 A 
HETATM   53  C25 UNL     1      -8.067  -9.670  10.132  1.00  0.00     0.008 A 
ENDBRANCH   9  48
TORSDOF 7
ENDMDL
MODEL 5
REMARK minimizedAffinity -10.1034174
REMARK CNNscore 0.340132028
REMARK CNNaffinity 6.99234915
REMARK  7 active torsions:
REMARK  status: ('A' for Active; 'I' for Inactive)
REMARK    1  A    between atoms: C6_7  and  O1_8 
REMARK    2  A    between atoms: C8_11  and  C9_12 
REMARK    3  A    between atoms: C9_12  and  O3_13 
REMARK    4  A    between atoms: C9_12  and  C10_14 
REMARK    5  A    between atoms: C10_14  and  O4_16 
REMARK    6  A    between atoms: C10_14  and  C12_17 
REMARK    7  A    between atoms: C19_25  and  C20_26 
ROOT
HETATM    1  C12 UNL     1      -2.083   9.095  14.532  1.00  0.00     0.034 C 
HETATM    2  C13 UNL     1      -2.209   8.103  15.722  1.00  0.00     0.012 C 
HETATM    3  C14 UNL     1      -1.655   8.824  16.963  1.00  0.00     0.044 C 
HETATM    4  C15 UNL     1      -1.673  10.321  16.596  1.00  0.00     0.093 C 
HETATM    5  O5  UNL     1      -3.023  10.843  16.541  1.00  0.00    -0.363 OA
HETATM    6  C16 UNL     1      -3.927  10.623  17.622  1.00  0.00     0.263 C 
HETATM    7  C17 UNL     1      -4.192  11.851  18.386  1.00  0.00    -0.080 C 
HETATM    8  C18 UNL     1      -4.479  12.822  19.037  1.00  0.00    -0.093 C 
HETATM    9  C19 UNL     1      -4.841  14.033  19.817  1.00  0.00     0.121 C 
HETATM   10  C26 UNL     1      -3.633  14.614  20.598  1.00  0.00     0.190 C 
HETATM   11  O6  UNL     1      -2.782  15.447  19.792  1.00  0.00    -0.384 OA
HETATM   12  C27 UNL     1      -1.829  14.732  19.012  1.00  0.00     0.122 C 
HETATM   13  C28 UNL     1      -1.417  15.597  17.817  1.00  0.00     0.033 C 
HETATM   14  C29 UNL     1      -0.083  15.176  17.183  1.00  0.00     0.013 C 
HETATM   15  C30 UNL     1       0.302  13.694  17.445  1.00  0.00    -0.026 C 
HETATM   16  C31 UNL     1       1.739  13.475  16.896  1.00  0.00     0.016 C 
HETATM   17  C32 UNL     1       0.387  13.496  18.991  1.00  0.00     0.071 C 
HETATM   18  C33 UNL     1      -0.615  14.315  19.825  1.00  0.00     0.045 C 
HETATM   19  C34 UNL     1       0.356  12.041  19.416  1.00  0.00     0.154 C 
HETATM   20  O7  UNL     1       0.837  11.673  20.488  1.00  0.00    -0.293 OA
HETATM   21  C35 UNL     1      -0.319  11.041  18.573  1.00  0.00     0.057 C 
HETATM   22  C36 UNL     1      -0.844  11.333  17.373  1.00  0.00    -0.036 C 
HETATM   23  C37 UNL     1      -0.730  12.720  16.728  1.00  0.00     0.026 C 
HETATM   24  C38 UNL     1      -0.533  12.684  15.181  1.00  0.00     0.011 C 
HETATM   25  C39 UNL     1      -1.347  11.610  14.451  1.00  0.00     0.014 C 
HETATM   26  C40 UNL     1      -1.149  10.227  15.107  1.00  0.00    -0.002 C 
HETATM   27  C41 UNL     1       0.349   9.820  15.021  1.00  0.00     0.019 C 
ENDROOT
BRANCH   1  28
HETATM   28  C10 UNL     1      -1.797   8.449  13.128  1.00  0.00     0.087 C 
HETATM   29  C11 UNL     1      -0.805   9.214  12.249  1.00  0.00     0.049 C 
BRANCH  28  30
HETATM   30  C9  UNL     1      -1.429   6.920  13.232  1.00  0.00     0.181 C 
BRANCH  30  31
HETATM   31  C8  UNL     1      -2.458   5.871  12.768  1.00  0.00     0.158 C 
HETATM   32  C2  UNL     1      -3.502   5.328  13.746  1.00  0.00     0.020 C 
HETATM   33  C1  UNL     1      -2.916   4.920  15.105  1.00  0.00     0.013 C 
HETATM   34  C3  UNL     1      -3.975   4.062  13.015  1.00  0.00     0.027 C 
HETATM   35  C4  UNL     1      -5.241   4.255  12.177  1.00  0.00     0.038 C 
HETATM   36  C7  UNL     1      -2.784   3.645  12.148  1.00  0.00     0.185 C 
HETATM   37  C5  UNL     1      -5.416   3.050  11.248  1.00  0.00     0.273 C 
HETATM   38  N1  UNL     1      -4.354   2.940  10.264  1.00  0.00     0.114 N 
HETATM   39  C6  UNL     1      -3.102   3.566  10.629  1.00  0.00     0.383 C 
HETATM   40  H10 UNL     1      -4.164   1.974  10.013  1.00  0.00     0.319 HD
HETATM   41  O2  UNL     1      -1.770   4.656  12.360  1.00  0.00    -0.373 OA
BRANCH  39  42
HETATM   42  O1  UNL     1      -2.059   2.845   9.985  1.00  0.00    -0.366 OA
HETATM   43  H12 UNL     1      -1.245   3.332  10.218  1.00  0.00     0.212 HD
ENDBRANCH  39  42
ENDBRANCH  30  31
BRANCH  30  44
HETATM   44  O3  UNL     1      -0.234   6.731  12.424  1.00  0.00    -0.390 OA
HETATM   45  H16 UNL     1       0.261   7.572  12.473  1.00  0.00     0.210 HD
ENDBRANCH  30  44
ENDBRANCH  28  30
BRANCH  28  46
HETATM   46  O4  UNL     1      -3.047   8.453  12.394  1.00  0.00    -0.387 OA
HETATM   47  H20 UNL     1      -2.882   8.109  11.497  1.00  0.00     0.210 HD
ENDBRANCH  28  46
ENDBRANCH   1  28
BRANCH   9  48
HETATM   48  C20 UNL     1      -5.993  13.735  20.768  1.00  0.00    -0.040 A 
HETATM   49  C21 UNL     1      -7.322  13.676  20.314  1.00  0.00     0.008 A 
HETATM   50  C22 UNL     1      -8.361  13.345  21.189  1.00  0.00     0.001 A 
HETATM   51  C23 UNL     1      -8.086  13.074  22.526  1.00  0.00     0.000 A 
HETATM   52  C24 UNL     1      -6.775  13.142  22.995  1.00  0.00     0.001 A 
HETATM   53  C25 UNL     1      -5.734  13.473  22.122  1.00  0.00     0.008 A 
ENDBRANCH   9  48
TORSDOF 7
ENDMDL
MODEL 6
REMARK minimizedAffinity -10.4798641
REMARK CNNscore 0.324752659
REMARK CNNaffinity 6.85050201
REMARK  7 active torsions:
REMARK  status: ('A' for Active; 'I' for Inactive)
REMARK    1  A    between atoms: C6_7  and  O1_8 
REMARK    2  A    between atoms: C8_11  and  C9_12 
REMARK    3  A    between atoms: C9_12  and  O3_13 
REMARK    4  A    between atoms: C9_12  and  C10_14 
REMARK    5  A    between atoms: C10_14  and  O4_16 
REMARK    6  A    between atoms: C10_14  and  C12_17 
REMARK    7  A    between atoms: C19_25  and  C20_26 
ROOT
HETATM    1  C12 UNL     1      -0.148   7.547  14.763  1.00  0.00     0.034 C 
HETATM    2  C13 UNL     1       1.290   7.937  14.319  1.00  0.00     0.012 C 
HETATM    3  C14 UNL     1       1.429   9.453  14.546  1.00  0.00     0.044 C 
HETATM    4  C15 UNL     1       0.299   9.814  15.531  1.00  0.00     0.093 C 
HETATM    5  O5  UNL     1       0.562   9.301  16.859  1.00  0.00    -0.363 OA
HETATM    6  C16 UNL     1       1.817   9.541  17.491  1.00  0.00     0.263 C 
HETATM    7  C17 UNL     1       1.709  10.498  18.603  1.00  0.00    -0.080 C 
HETATM    8  C18 UNL     1       1.689  11.249  19.543  1.00  0.00    -0.093 C 
HETATM    9  C19 UNL     1       1.645  12.161  20.714  1.00  0.00     0.121 C 
HETATM   10  C26 UNL     1       1.268  13.613  20.318  1.00  0.00     0.190 C 
HETATM   11  O6  UNL     1      -0.148  13.812  20.172  1.00  0.00    -0.384 OA
HETATM   12  C27 UNL     1      -0.669  13.418  18.906  1.00  0.00     0.122 C 
HETATM   13  C28 UNL     1      -2.163  13.117  19.055  1.00  0.00     0.033 C 
HETATM   14  C29 UNL     1      -2.935  13.155  17.728  1.00  0.00     0.013 C 
HETATM   15  C30 UNL     1      -2.050  12.911  16.474  1.00  0.00    -0.026 C 
HETATM   16  C31 UNL     1      -2.932  13.152  15.218  1.00  0.00     0.016 C 
HETATM   17  C32 UNL     1      -0.946  14.016  16.455  1.00  0.00     0.071 C 
HETATM   18  C33 UNL     1      -0.431  14.468  17.834  1.00  0.00     0.045 C 
HETATM   19  C34 UNL     1       0.218  13.690  15.542  1.00  0.00     0.154 C 
HETATM   20  O7  UNL     1       0.930  14.575  15.065  1.00  0.00    -0.293 OA
HETATM   21  C35 UNL     1       0.564  12.287  15.259  1.00  0.00     0.057 C 
HETATM   22  C36 UNL     1      -0.167  11.253  15.701  1.00  0.00    -0.036 C 
HETATM   23  C37 UNL     1      -1.474  11.429  16.484  1.00  0.00     0.026 C 
HETATM   24  C38 UNL     1      -2.565  10.369  16.139  1.00  0.00     0.011 C 
HETATM   25  C39 UNL     1      -2.038   8.946  15.921  1.00  0.00     0.014 C 
HETATM   26  C40 UNL     1      -0.867   8.941  14.916  1.00  0.00    -0.002 C 
HETATM   27  C41 UNL     1      -1.359   9.475  13.542  1.00  0.00     0.019 C 
ENDROOT
BRANCH   1  28
HETATM   28  C10 UNL     1      -0.820   6.376  13.958  1.00  0.00     0.087 C 
HETATM   29  C11 UNL     1      -2.212   5.967  14.443  1.00  0.00     0.049 C 
BRANCH  28  30
HETATM   30  C9  UNL     1      -0.791   6.622  12.401  1.00  0.00     0.181 C 
BRANCH  30  31
HETATM   31  C8  UNL     1       0.563   6.875  11.710  1.00  0.00     0.158 C 
HETATM   32  C2  UNL     1       0.811   8.181  10.952  1.00  0.00     0.020 C 
HETATM   33  C1  UNL     1      -0.336   8.572  10.011  1.00  0.00     0.013 C 
HETATM   34  C3  UNL     1       2.038   7.813  10.104  1.00  0.00     0.027 C 
HETATM   35  C4  UNL     1       3.378   8.221  10.721  1.00  0.00     0.038 C 
HETATM   36  C7  UNL     1       1.943   6.295   9.919  1.00  0.00     0.185 C 
HETATM   37  C5  UNL     1       4.511   7.516   9.972  1.00  0.00     0.273 C 
HETATM   38  N1  UNL     1       4.476   6.072  10.128  1.00  0.00     0.114 N 
HETATM   39  C6  UNL     1       3.179   5.514  10.443  1.00  0.00     0.383 C 
HETATM   40  H10 UNL     1       4.839   5.591   9.311  1.00  0.00     0.319 HD
HETATM   41  O2  UNL     1       0.777   5.880  10.670  1.00  0.00    -0.373 OA
BRANCH  39  42
HETATM   42  O1  UNL     1       3.140   4.196   9.911  1.00  0.00    -0.366 OA
HETATM   43  H12 UNL     1       2.273   3.844  10.191  1.00  0.00     0.212 HD
ENDBRANCH  39  42
ENDBRANCH  30  31
BRANCH  30  44
HETATM   44  O3  UNL     1      -1.366   5.435  11.789  1.00  0.00    -0.390 OA
HETATM   45  H16 UNL     1      -2.020   5.091  12.428  1.00  0.00     0.210 HD
ENDBRANCH  30  44
ENDBRANCH  28  30
BRANCH  28  46
HETATM   46  O4  UNL     1       0.012   5.203  14.137  1.00  0.00    -0.387 OA
HETATM   47  H20 UNL     1      -0.416   4.448  13.692  1.00  0.00     0.210 HD
ENDBRANCH  28  46
ENDBRANCH   1  28
BRANCH   9  48
HETATM   48  C20 UNL     1       2.974  12.142  21.459  1.00  0.00    -0.040 A 
HETATM   49  C21 UNL     1       3.838  13.250  21.447  1.00  0.00     0.008 A 
HETATM   50  C22 UNL     1       5.027  13.236  22.183  1.00  0.00     0.001 A 
HETATM   51  C23 UNL     1       5.368  12.116  22.934  1.00  0.00     0.000 A 
HETATM   52  C24 UNL     1       4.528  11.003  22.947  1.00  0.00     0.001 A 
HETATM   53  C25 UNL     1       3.339  11.014  22.212  1.00  0.00     0.008 A 
ENDBRANCH   9  48
TORSDOF 7
ENDMDL
MODEL 7
REMARK minimizedAffinity -9.87201595
REMARK CNNscore 0.313297391
REMARK CNNaffinity 7.3755722
REMARK  7 active torsions:
REMARK  status: ('A' for Active; 'I' for Inactive)
REMARK    1  A    between atoms: C6_7  and  O1_8 
REMARK    2  A    between atoms: C8_11  and  C9_12 
REMARK    3  A    between atoms: C9_12  and  O3_13 
REMARK    4  A    between atoms: C9_12  and  C10_14 
REMARK    5  A    between atoms: C10_14  and  O4_16 
REMARK    6  A    between atoms: C10_14  and  C12_17 
REMARK    7  A    between atoms: C19_25  and  C20_26 
ROOT
HETATM    1  C12 UNL     1      -0.739  11.988  17.147  1.00  0.00     0.034 C 
HETATM    2  C13 UNL     1      -1.623  12.870  16.221  1.00  0.00     0.012 C 
HETATM    3  C14 UNL     1      -1.842  12.072  14.923  1.00  0.00     0.044 C 
HETATM    4  C15 UNL     1      -1.513  10.612  15.292  1.00  0.00     0.093 C 
HETATM    5  O5  UNL     1      -2.524  10.037  16.155  1.00  0.00    -0.363 OA
HETATM    6  C16 UNL     1      -3.904  10.123  15.808  1.00  0.00     0.263 C 
HETATM    7  C17 UNL     1      -4.460   8.825  15.400  1.00  0.00    -0.080 C 
HETATM    8  C18 UNL     1      -4.988   7.790  15.084  1.00  0.00    -0.093 C 
HETATM    9  C19 UNL     1      -5.633   6.503  14.719  1.00  0.00     0.121 C 
HETATM   10  C26 UNL     1      -5.067   5.913  13.400  1.00  0.00     0.190 C 
HETATM   11  O6  UNL     1      -3.837   5.190  13.582  1.00  0.00    -0.384 OA
HETATM   12  C27 UNL     1      -2.674   6.011  13.620  1.00  0.00     0.122 C 
HETATM   13  C28 UNL     1      -1.567   5.269  14.375  1.00  0.00     0.033 C 
HETATM   14  C29 UNL     1      -0.157   5.801  14.081  1.00  0.00     0.013 C 
HETATM   15  C30 UNL     1      -0.127   7.272  13.582  1.00  0.00    -0.026 C 
HETATM   16  C31 UNL     1       1.333   7.601  13.166  1.00  0.00     0.016 C 
HETATM   17  C32 UNL     1      -0.982   7.343  12.277  1.00  0.00     0.071 C 
HETATM   18  C33 UNL     1      -2.208   6.412  12.230  1.00  0.00     0.045 C 
HETATM   19  C34 UNL     1      -1.381   8.754  11.892  1.00  0.00     0.154 C 
HETATM   20  O7  UNL     1      -1.653   9.052  10.728  1.00  0.00    -0.293 OA
HETATM   21  C35 UNL     1      -1.517   9.790  12.929  1.00  0.00     0.057 C 
HETATM   22  C36 UNL     1      -1.212   9.576  14.218  1.00  0.00    -0.036 C 
HETATM   23  C37 UNL     1      -0.624   8.256  14.729  1.00  0.00     0.026 C 
HETATM   24  C38 UNL     1       0.438   8.431  15.857  1.00  0.00     0.011 C 
HETATM   25  C39 UNL     1       0.118   9.524  16.882  1.00  0.00     0.014 C 
HETATM   26  C40 UNL     1      -0.226  10.855  16.179  1.00  0.00    -0.002 C 
HETATM   27  C41 UNL     1       0.997  11.334  15.348  1.00  0.00     0.019 C 
ENDROOT
BRANCH   1  28
HETATM   28  C10 UNL     1       0.258  12.762  18.083  1.00  0.00     0.087 C 
HETATM   29  C11 UNL     1      -0.292  13.120  19.465  1.00  0.00     0.049 C 
BRANCH  28  30
HETATM   30  C9  UNL     1       1.666  12.058  18.177  1.00  0.00     0.181 C 
BRANCH  30  31
HETATM   31  C8  UNL     1       2.303  11.846  19.564  1.00  0.00     0.158 C 
HETATM   32  C2  UNL     1       3.600  12.567  19.936  1.00  0.00     0.020 C 
HETATM   33  C1  UNL     1       4.680  12.489  18.847  1.00  0.00     0.013 C 
HETATM   34  C3  UNL     1       4.067  11.748  21.149  1.00  0.00     0.027 C 
HETATM   35  C4  UNL     1       3.658  12.337  22.502  1.00  0.00     0.038 C 
HETATM   36  C7  UNL     1       3.463  10.356  20.936  1.00  0.00     0.185 C 
HETATM   37  C5  UNL     1       3.875  11.285  23.593  1.00  0.00     0.273 C 
HETATM   38  N1  UNL     1       3.012  10.127  23.437  1.00  0.00     0.114 N 
HETATM   39  C6  UNL     1       2.539   9.882  22.092  1.00  0.00     0.383 C 
HETATM   40  H10 UNL     1       3.448   9.277  23.780  1.00  0.00     0.319 HD
HETATM   41  O2  UNL     1       2.680  10.450  19.722  1.00  0.00    -0.373 OA
BRANCH  39  42
HETATM   42  O1  UNL     1       2.333   8.482  21.959  1.00  0.00    -0.366 OA
HETATM   43  H12 UNL     1       1.968   8.372  21.060  1.00  0.00     0.212 HD
ENDBRANCH  39  42
ENDBRANCH  30  31
BRANCH  30  44
HETATM   44  O3  UNL     1       1.506  10.743  17.575  1.00  0.00    -0.390 OA
HETATM   45  H16 UNL     1       0.822  10.842  16.886  1.00  0.00     0.210 HD
ENDBRANCH  30  44
ENDBRANCH  28  30
BRANCH  28  46
HETATM   46  O4  UNL     1       0.548  14.029  17.442  1.00  0.00    -0.387 OA
HETATM   47  H20 UNL     1       1.121  14.552  18.033  1.00  0.00     0.210 HD
ENDBRANCH  28  46
ENDBRANCH   1  28
BRANCH   9  48
HETATM   48  C20 UNL     1      -7.144   6.668  14.621  1.00  0.00    -0.040 A 
HETATM   49  C21 UNL     1      -7.865   7.407  15.575  1.00  0.00     0.008 A 
HETATM   50  C22 UNL     1      -9.244   7.595  15.438  1.00  0.00     0.001 A 
HETATM   51  C23 UNL     1      -9.917   7.045  14.352  1.00  0.00     0.000 A 
HETATM   52  C24 UNL     1      -9.220   6.297  13.405  1.00  0.00     0.001 A 
HETATM   53  C25 UNL     1      -7.841   6.107  13.539  1.00  0.00     0.008 A 
ENDBRANCH   9  48
TORSDOF 7
ENDMDL
MODEL 8
REMARK minimizedAffinity -9.51696682
REMARK CNNscore 0.258880675
REMARK CNNaffinity 6.9561348
REMARK  7 active torsions:
REMARK  status: ('A' for Active; 'I' for Inactive)
REMARK    1  A    between atoms: C6_7  and  O1_8 
REMARK    2  A    between atoms: C8_11  and  C9_12 
REMARK    3  A    between atoms: C9_12  and  O3_13 
REMARK    4  A    between atoms: C9_12  and  C10_14 
REMARK    5  A    between atoms: C10_14  and  O4_16 
REMARK    6  A    between atoms: C10_14  and  C12_17 
REMARK    7  A    between atoms: C19_25  and  C20_26 
ROOT
HETATM    1  C12 UNL     1      -1.610   7.173  14.152  1.00  0.00     0.034 C 
HETATM    2  C13 UNL     1      -2.603   6.920  15.321  1.00  0.00     0.012 C 
HETATM    3  C14 UNL     1      -2.319   7.994  16.386  1.00  0.00     0.044 C 
HETATM    4  C15 UNL     1      -1.542   9.098  15.642  1.00  0.00     0.093 C 
HETATM    5  O5  UNL     1      -2.394   9.826  14.724  1.00  0.00    -0.363 OA
HETATM    6  C16 UNL     1      -3.642  10.357  15.163  1.00  0.00     0.263 C 
HETATM    7  C17 UNL     1      -3.620  11.823  15.263  1.00  0.00    -0.080 C 
HETATM    8  C18 UNL     1      -3.684  13.023  15.339  1.00  0.00    -0.093 C 
HETATM    9  C19 UNL     1      -3.754  14.505  15.405  1.00  0.00     0.121 C 
HETATM   10  C26 UNL     1      -2.821  15.092  16.497  1.00  0.00     0.190 C 
HETATM   11  O6  UNL     1      -1.456  15.225  16.066  1.00  0.00    -0.384 OA
HETATM   12  C27 UNL     1      -0.688  14.029  16.167  1.00  0.00     0.122 C 
HETATM   13  C28 UNL     1       0.484  14.106  15.185  1.00  0.00     0.033 C 
HETATM   14  C29 UNL     1       1.632  13.143  15.519  1.00  0.00     0.013 C 
HETATM   15  C30 UNL     1       1.201  11.916  16.371  1.00  0.00    -0.026 C 
HETATM   16  C31 UNL     1       2.488  11.141  16.768  1.00  0.00     0.016 C 
HETATM   17  C32 UNL     1       0.587  12.459  17.700  1.00  0.00     0.071 C 
HETATM   18  C33 UNL     1      -0.196  13.780  17.583  1.00  0.00     0.045 C 
HETATM   19  C34 UNL     1      -0.233  11.429  18.450  1.00  0.00     0.154 C 
HETATM   20  O7  UNL     1      -0.416  11.512  19.666  1.00  0.00    -0.293 OA
HETATM   21  C35 UNL     1      -0.891  10.334  17.718  1.00  0.00     0.057 C 
HETATM   22  C36 UNL     1      -0.728  10.136  16.401  1.00  0.00    -0.036 C 
HETATM   23  C37 UNL     1       0.215  10.986  15.540  1.00  0.00     0.026 C 
HETATM   24  C38 UNL     1       0.958  10.179  14.431  1.00  0.00     0.011 C 
HETATM   25  C39 UNL     1       0.112   9.107  13.736  1.00  0.00     0.014 C 
HETATM   26  C40 UNL     1      -0.581   8.195  14.771  1.00  0.00    -0.002 C 
HETATM   27  C41 UNL     1       0.495   7.464  15.622  1.00  0.00     0.019 C 
ENDROOT
BRANCH   1  28
HETATM   28  C10 UNL     1      -1.115   5.895  13.383  1.00  0.00     0.087 C 
HETATM   29  C11 UNL     1      -1.967   4.641  13.590  1.00  0.00     0.049 C 
BRANCH  28  30
HETATM   30  C9  UNL     1      -0.848   6.177  11.856  1.00  0.00     0.181 C 
BRANCH  30  31
HETATM   31  C8  UNL     1       0.592   6.479  11.393  1.00  0.00     0.158 C 
HETATM   32  C2  UNL     1       0.950   7.859  10.836  1.00  0.00     0.020 C 
HETATM   33  C1  UNL     1      -0.054   8.380   9.798  1.00  0.00     0.013 C 
HETATM   34  C3  UNL     1       2.281   7.565  10.128  1.00  0.00     0.027 C 
HETATM   35  C4  UNL     1       3.523   7.870  10.969  1.00  0.00     0.038 C 
HETATM   36  C7  UNL     1       2.205   6.081   9.754  1.00  0.00     0.185 C 
HETATM   37  C5  UNL     1       4.747   7.233  10.305  1.00  0.00     0.273 C 
HETATM   38  N1  UNL     1       4.683   5.781  10.284  1.00  0.00     0.114 N 
HETATM   39  C6  UNL     1       3.352   5.218  10.349  1.00  0.00     0.383 C 
HETATM   40  H10 UNL     1       5.154   5.391   9.473  1.00  0.00     0.319 HD
HETATM   41  O2  UNL     1       0.943   5.607  10.283  1.00  0.00    -0.373 OA
BRANCH  39  42
HETATM   42  O1  UNL     1       3.381   3.972   9.664  1.00  0.00    -0.366 OA
HETATM   43  H12 UNL     1       2.482   3.609   9.779  1.00  0.00     0.212 HD
ENDBRANCH  39  42
ENDBRANCH  30  31
BRANCH  30  44
HETATM   44  O3  UNL     1      -1.285   4.989  11.139  1.00  0.00    -0.390 OA
HETATM   45  H16 UNL     1      -2.021   4.614  11.659  1.00  0.00     0.210 HD
ENDBRANCH  30  44
ENDBRANCH  28  30
BRANCH  28  46
HETATM   46  O4  UNL     1       0.195   5.563  13.907  1.00  0.00    -0.387 OA
HETATM   47  H20 UNL     1       0.498   4.738  13.485  1.00  0.00     0.210 HD
ENDBRANCH  28  46
ENDBRANCH   1  28
BRANCH   9  48
HETATM   48  C20 UNL     1      -5.189  14.965  15.631  1.00  0.00    -0.040 A 
HETATM   49  C21 UNL     1      -5.699  16.115  15.004  1.00  0.00     0.008 A 
HETATM   50  C22 UNL     1      -7.035  16.490  15.178  1.00  0.00     0.001 A 
HETATM   51  C23 UNL     1      -7.874  15.724  15.982  1.00  0.00     0.000 A 
HETATM   52  C24 UNL     1      -7.381  14.588  16.621  1.00  0.00     0.001 A 
HETATM   53  C25 UNL     1      -6.045  14.211  16.450  1.00  0.00     0.008 A 
ENDBRANCH   9  48
TORSDOF 7
ENDMDL
MODEL 9
REMARK minimizedAffinity -9.59961033
REMARK CNNscore 0.229185507
REMARK CNNaffinity 5.92126322
REMARK  7 active torsions:
REMARK  status: ('A' for Active; 'I' for Inactive)
REMARK    1  A    between atoms: C6_7  and  O1_8 
REMARK    2  A    between atoms: C8_11  and  C9_12 
REMARK    3  A    between atoms: C9_12  and  O3_13 
REMARK    4  A    between atoms: C9_12  and  C10_14 
REMARK    5  A    between atoms: C10_14  and  O4_16 
REMARK    6  A    between atoms: C10_14  and  C12_17 
REMARK    7  A    between atoms: C19_25  and  C20_26 
ROOT
HETATM    1  C12 UNL     1     -11.617  10.738  16.896  1.00  0.00     0.034 C 
HETATM    2  C13 UNL     1     -11.731  12.272  16.673  1.00  0.00     0.012 C 
HETATM    3  C14 UNL     1     -12.183  12.884  18.012  1.00  0.00     0.044 C 
HETATM    4  C15 UNL     1     -11.861  11.809  19.069  1.00  0.00     0.093 C 
HETATM    5  O5  UNL     1     -10.435  11.678  19.282  1.00  0.00    -0.363 OA
HETATM    6  C16 UNL     1      -9.633  12.829  19.537  1.00  0.00     0.263 C 
HETATM    7  C17 UNL     1      -9.165  12.886  20.930  1.00  0.00    -0.080 C 
HETATM    8  C18 UNL     1      -8.721  12.981  22.045  1.00  0.00    -0.093 C 
HETATM    9  C19 UNL     1      -8.163  13.074  23.418  1.00  0.00     0.121 C 
HETATM   10  C26 UNL     1      -9.265  13.278  24.491  1.00  0.00     0.190 C 
HETATM   11  O6  UNL     1      -9.907  12.054  24.887  1.00  0.00    -0.384 OA
HETATM   12  C27 UNL     1     -10.949  11.628  24.014  1.00  0.00     0.122 C 
HETATM   13  C28 UNL     1     -11.140  10.117  24.169  1.00  0.00     0.033 C 
HETATM   14  C29 UNL     1     -12.504   9.614  23.676  1.00  0.00     0.013 C 
HETATM   15  C30 UNL     1     -13.179  10.542  22.627  1.00  0.00    -0.026 C 
HETATM   16  C31 UNL     1     -14.609   9.996  22.362  1.00  0.00     0.016 C 
HETATM   17  C32 UNL     1     -13.360  11.945  23.288  1.00  0.00     0.071 C 
HETATM   18  C33 UNL     1     -12.251  12.369  24.269  1.00  0.00     0.045 C 
HETATM   19  C34 UNL     1     -13.627  13.053  22.289  1.00  0.00     0.154 C 
HETATM   20  O7  UNL     1     -14.211  14.087  22.615  1.00  0.00    -0.293 OA
HETATM   21  C35 UNL     1     -13.126  12.939  20.909  1.00  0.00     0.057 C 
HETATM   22  C36 UNL     1     -12.509  11.841  20.446  1.00  0.00    -0.036 C 
HETATM   23  C37 UNL     1     -12.327  10.570  21.285  1.00  0.00     0.026 C 
HETATM   24  C38 UNL     1     -12.468   9.248  20.468  1.00  0.00     0.011 C 
HETATM   25  C39 UNL     1     -11.849   9.286  19.067  1.00  0.00     0.014 C 
HETATM   26  C40 UNL     1     -12.336  10.523  18.282  1.00  0.00    -0.002 C 
HETATM   27  C41 UNL     1     -13.880  10.456  18.112  1.00  0.00     0.019 C 
ENDROOT
BRANCH   1  28
HETATM   28  C10 UNL     1     -11.968   9.838  15.657  1.00  0.00     0.087 C 
HETATM   29  C11 UNL     1     -13.328  10.117  15.013  1.00  0.00     0.049 C 
BRANCH  28  30
HETATM   30  C9  UNL     1     -10.809   9.805  14.589  1.00  0.00     0.181 C 
BRANCH  30  31
HETATM   31  C8  UNL     1      -9.877   8.579  14.536  1.00  0.00     0.158 C 
HETATM   32  C2  UNL     1     -10.258   7.355  13.701  1.00  0.00     0.020 C 
HETATM   33  C1  UNL     1     -11.710   6.900  13.906  1.00  0.00     0.013 C 
HETATM   34  C3  UNL     1      -9.322   6.285  14.283  1.00  0.00     0.027 C 
HETATM   35  C4  UNL     1      -8.021   6.091  13.498  1.00  0.00     0.038 C 
HETATM   36  C7  UNL     1      -9.049   6.745  15.719  1.00  0.00     0.185 C 
HETATM   37  C5  UNL     1      -7.044   5.269  14.343  1.00  0.00     0.273 C 
HETATM   38  N1  UNL     1      -6.627   5.959  15.551  1.00  0.00     0.114 N 
HETATM   39  C6  UNL     1      -7.545   6.965  16.039  1.00  0.00     0.383 C 
HETATM   40  H10 UNL     1      -6.431   5.313  16.311  1.00  0.00     0.319 HD
HETATM   41  O2  UNL     1      -9.747   8.004  15.867  1.00  0.00    -0.373 OA
BRANCH  39  42
HETATM   42  O1  UNL     1      -7.390   7.038  17.450  1.00  0.00    -0.366 OA
HETATM   43  H12 UNL     1      -7.986   7.760  17.726  1.00  0.00     0.212 HD
ENDBRANCH  39  42
ENDBRANCH  30  31
BRANCH  30  44
HETATM   44  O3  UNL     1     -11.450   9.910  13.287  1.00  0.00    -0.390 OA
HETATM   45  H16 UNL     1     -12.256  10.445  13.424  1.00  0.00     0.210 HD
ENDBRANCH  30  44
ENDBRANCH  28  30
BRANCH  28  46
HETATM   46  O4  UNL     1     -12.039   8.469  16.130  1.00  0.00    -0.387 OA
HETATM   47  H20 UNL     1     -12.312   7.898  15.388  1.00  0.00     0.210 HD
ENDBRANCH  28  46
ENDBRANCH   1  28
BRANCH   9  48
HETATM   48  C20 UNL     1      -7.127  14.188  23.502  1.00  0.00    -0.040 A 
HETATM   49  C21 UNL     1      -7.276  15.263  24.395  1.00  0.00     0.008 A 
HETATM   50  C22 UNL     1      -6.287  16.246  24.499  1.00  0.00     0.001 A 
HETATM   51  C23 UNL     1      -5.143  16.170  23.711  1.00  0.00     0.000 A 
HETATM   52  C24 UNL     1      -4.986  15.118  22.811  1.00  0.00     0.001 A 
HETATM   53  C25 UNL     1      -5.973  14.133  22.704  1.00  0.00     0.008 A 
ENDBRANCH   9  48
TORSDOF 7
ENDMDL
