MODEL 1
REMARK minimizedAffinity -10.2345419
REMARK  6 active torsions:
REMARK  status: ('A' for Active; 'I' for Inactive)
REMARK    1  A    between atoms: C2_2  and  C3_3 
REMARK    2  A    between atoms: C2_2  and  C27_30 
REMARK    3  A    between atoms: C3_3  and  C4_4 
REMARK    4  A    between atoms: C4_4  and  C5_5 
REMARK    5  A    between atoms: C5_5  and  C7_7 
REMARK    6  A    between atoms: C26_28  and  O3_29 
ROOT
HETATM    1  C7  UNL     1      -0.985  51.451 -25.135  1.00  0.00    -0.002 C 
HETATM    2  C8  UNL     1      -0.197  52.783 -25.233  1.00  0.00     0.006 C 
HETATM    3  C9  UNL     1       0.255  53.149 -23.814  1.00  0.00     0.010 C 
HETATM    4  C10 UNL     1      -0.085  51.916 -22.981  1.00  0.00     0.027 C 
HETATM    5  C11 UNL     1      -0.148  51.995 -21.474  1.00  0.00    -0.036 C 
HETATM    6  C12 UNL     1      -0.858  51.087 -20.759  1.00  0.00     0.002 C 
HETATM    7  C13 UNL     1      -1.670  50.051 -21.515  1.00  0.00     0.157 C 
HETATM    8  O1  UNL     1      -2.345  49.217 -20.911  1.00  0.00    -0.293 OA
HETATM    9  C14 UNL     1      -1.640  50.021 -23.036  1.00  0.00     0.093 C 
HETATM   10  C15 UNL     1      -1.397  51.409 -23.630  1.00  0.00    -0.026 C 
HETATM   11  C16 UNL     1      -2.618  52.326 -23.358  1.00  0.00     0.016 C 
HETATM   12  C17 UNL     1      -0.883  51.057 -19.216  1.00  0.00    -0.008 C 
HETATM   13  C18 UNL     1      -2.260  51.632 -18.789  1.00  0.00     0.021 C 
HETATM   14  C19 UNL     1      -0.734  49.608 -18.645  1.00  0.00     0.022 C 
HETATM   15  C20 UNL     1      -0.014  49.490 -17.301  1.00  0.00     0.080 C 
HETATM   16  C21 UNL     1      -0.181  50.726 -16.457  1.00  0.00     0.131 C 
HETATM   17  O2  UNL     1      -0.559  50.661 -15.288  1.00  0.00    -0.298 OA
HETATM   18  C22 UNL     1       0.219  52.049 -17.091  1.00  0.00     0.056 C 
HETATM   19  C23 UNL     1       1.538  52.503 -16.466  1.00  0.00     0.018 C 
HETATM   20  C24 UNL     1       0.305  51.901 -18.629  1.00  0.00     0.012 C 
HETATM   21  C25 UNL     1       0.417  53.261 -19.330  1.00  0.00     0.042 C 
HETATM   22  C26 UNL     1       0.675  53.077 -20.825  1.00  0.00     0.148 C 
ENDROOT
BRANCH   1  23
HETATM   23  C5  UNL     1      -2.076  51.310 -26.241  1.00  0.00    -0.014 C 
HETATM   24  C6  UNL     1      -3.460  51.722 -25.718  1.00  0.00     0.010 C 
BRANCH  23  25
HETATM   25  C4  UNL     1      -2.184  49.850 -26.773  1.00  0.00     0.009 C 
BRANCH  25  26
HETATM   26  C3  UNL     1      -2.886  48.830 -25.862  1.00  0.00     0.034 C 
BRANCH  26  27
HETATM   27  C2  UNL     1      -4.348  48.545 -26.159  1.00  0.00    -0.086 C 
HETATM   28  C1  UNL     1      -4.724  48.199 -27.404  1.00  0.00     0.014 C 
BRANCH  27  29
HETATM   29  C27 UNL     1      -5.384  48.558 -25.038  1.00  0.00     0.005 C 
HETATM   30  C28 UNL     1      -6.594  47.661 -25.309  1.00  0.00     0.014 C 
HETATM   31  C29 UNL     1      -4.775  48.248 -23.669  1.00  0.00     0.014 C 
ENDBRANCH  27  29
ENDBRANCH  26  27
ENDBRANCH  25  26
ENDBRANCH  23  25
ENDBRANCH   1  23
BRANCH  22  32
HETATM   32  O3  UNL     1       2.040  52.726 -21.030  1.00  0.00    -0.391 OA
HETATM   33  H37 UNL     1       2.580  53.483 -20.747  1.00  0.00     0.210 HD
ENDBRANCH  22  32
TORSDOF 6
ENDMDL
MODEL 2
REMARK minimizedAffinity -10.0532503
REMARK  6 active torsions:
REMARK  status: ('A' for Active; 'I' for Inactive)
REMARK    1  A    between atoms: C2_2  and  C3_3 
REMARK    2  A    between atoms: C2_2  and  C27_30 
REMARK    3  A    between atoms: C3_3  and  C4_4 
REMARK    4  A    between atoms: C4_4  and  C5_5 
REMARK    5  A    between atoms: C5_5  and  C7_7 
REMARK    6  A    between atoms: C26_28  and  O3_29 
ROOT
HETATM    1  C7  UNL     1      -0.859  51.766 -25.228  1.00  0.00    -0.002 C 
HETATM    2  C8  UNL     1      -0.045  53.086 -25.255  1.00  0.00     0.006 C 
HETATM    3  C9  UNL     1       0.389  53.383 -23.815  1.00  0.00     0.010 C 
HETATM    4  C10 UNL     1       0.010  52.124 -23.041  1.00  0.00     0.027 C 
HETATM    5  C11 UNL     1      -0.079  52.141 -21.533  1.00  0.00    -0.036 C 
HETATM    6  C12 UNL     1      -0.818  51.218 -20.869  1.00  0.00     0.002 C 
HETATM    7  C13 UNL     1      -1.636  50.230 -21.682  1.00  0.00     0.157 C 
HETATM    8  O1  UNL     1      -2.337  49.385 -21.126  1.00  0.00    -0.293 OA
HETATM    9  C14 UNL     1      -1.579  50.263 -23.202  1.00  0.00     0.093 C 
HETATM   10  C15 UNL     1      -1.299  51.670 -23.733  1.00  0.00    -0.026 C 
HETATM   11  C16 UNL     1      -2.507  52.598 -23.444  1.00  0.00     0.016 C 
HETATM   12  C17 UNL     1      -0.872  51.124 -19.330  1.00  0.00    -0.008 C 
HETATM   13  C18 UNL     1      -2.246  51.707 -18.902  1.00  0.00     0.021 C 
HETATM   14  C19 UNL     1      -0.761  49.650 -18.817  1.00  0.00     0.022 C 
HETATM   15  C20 UNL     1      -0.068  49.461 -17.467  1.00  0.00     0.080 C 
HETATM   16  C21 UNL     1      -0.226  50.664 -16.575  1.00  0.00     0.131 C 
HETATM   17  O2  UNL     1      -0.626  50.559 -15.416  1.00  0.00    -0.298 OA
HETATM   18  C22 UNL     1       0.210  52.005 -17.146  1.00  0.00     0.056 C 
HETATM   19  C23 UNL     1       1.525  52.406 -16.479  1.00  0.00     0.018 C 
HETATM   20  C24 UNL     1       0.321  51.920 -18.687  1.00  0.00     0.012 C 
HETATM   21  C25 UNL     1       0.471  53.305 -19.328  1.00  0.00     0.042 C 
HETATM   22  C26 UNL     1       0.753  53.178 -20.825  1.00  0.00     0.148 C 
ENDROOT
BRANCH   1  23
HETATM   23  C5  UNL     1      -1.933  51.692 -26.357  1.00  0.00    -0.014 C 
HETATM   24  C6  UNL     1      -3.337  51.997 -25.816  1.00  0.00     0.010 C 
BRANCH  23  25
HETATM   25  C4  UNL     1      -1.977  50.289 -27.031  1.00  0.00     0.009 C 
BRANCH  25  26
HETATM   26  C3  UNL     1      -2.315  49.095 -26.125  1.00  0.00     0.034 C 
BRANCH  26  27
HETATM   27  C2  UNL     1      -3.741  48.575 -26.188  1.00  0.00    -0.086 C 
HETATM   28  C1  UNL     1      -4.498  48.559 -25.075  1.00  0.00     0.014 C 
BRANCH  27  29
HETATM   29  C27 UNL     1      -4.355  48.155 -27.520  1.00  0.00     0.005 C 
HETATM   30  C28 UNL     1      -5.818  47.718 -27.412  1.00  0.00     0.014 C 
HETATM   31  C29 UNL     1      -4.186  49.217 -28.608  1.00  0.00     0.014 C 
ENDBRANCH  27  29
ENDBRANCH  26  27
ENDBRANCH  25  26
ENDBRANCH  23  25
ENDBRANCH   1  23
BRANCH  22  32
HETATM   32  O3  UNL     1       2.115  52.809 -21.021  1.00  0.00    -0.391 OA
HETATM   33  H37 UNL     1       2.664  53.543 -20.697  1.00  0.00     0.210 HD
ENDBRANCH  22  32
TORSDOF 6
ENDMDL
MODEL 3
REMARK minimizedAffinity -9.97276592
REMARK  6 active torsions:
REMARK  status: ('A' for Active; 'I' for Inactive)
REMARK    1  A    between atoms: C2_2  and  C3_3 
REMARK    2  A    between atoms: C2_2  and  C27_30 
REMARK    3  A    between atoms: C3_3  and  C4_4 
REMARK    4  A    between atoms: C4_4  and  C5_5 
REMARK    5  A    between atoms: C5_5  and  C7_7 
REMARK    6  A    between atoms: C26_28  and  O3_29 
ROOT
HETATM    1  C7  UNL     1      -0.067  50.411 -18.540  1.00  0.00    -0.002 C 
HETATM    2  C8  UNL     1      -1.010  49.250 -18.129  1.00  0.00     0.006 C 
HETATM    3  C9  UNL     1      -1.761  48.806 -19.390  1.00  0.00     0.010 C 
HETATM    4  C10 UNL     1      -1.072  49.560 -20.523  1.00  0.00     0.027 C 
HETATM    5  C11 UNL     1      -1.734  49.698 -21.874  1.00  0.00    -0.036 C 
HETATM    6  C12 UNL     1      -1.384  50.697 -22.722  1.00  0.00     0.002 C 
HETATM    7  C13 UNL     1      -0.384  51.732 -22.240  1.00  0.00     0.157 C 
HETATM    8  O1  UNL     1      -0.048  52.668 -22.966  1.00  0.00    -0.293 OA
HETATM    9  C14 UNL     1       0.232  51.610 -20.854  1.00  0.00     0.093 C 
HETATM   10  C15 UNL     1      -0.712  50.917 -19.870  1.00  0.00    -0.026 C 
HETATM   11  C16 UNL     1      -1.943  51.817 -19.588  1.00  0.00     0.016 C 
HETATM   12  C17 UNL     1      -1.953  50.834 -24.150  1.00  0.00    -0.008 C 
HETATM   13  C18 UNL     1      -2.981  51.997 -24.102  1.00  0.00     0.021 C 
HETATM   14  C19 UNL     1      -0.847  51.171 -25.203  1.00  0.00     0.022 C 
HETATM   15  C20 UNL     1      -1.071  50.614 -26.610  1.00  0.00     0.080 C 
HETATM   16  C21 UNL     1      -2.533  50.454 -26.931  1.00  0.00     0.131 C 
HETATM   17  O2  UNL     1      -3.020  50.911 -27.964  1.00  0.00    -0.298 OA
HETATM   18  C22 UNL     1      -3.363  49.629 -25.959  1.00  0.00     0.056 C 
HETATM   19  C23 UNL     1      -3.666  48.280 -26.611  1.00  0.00     0.018 C 
HETATM   20  C24 UNL     1      -2.622  49.488 -24.608  1.00  0.00     0.012 C 
HETATM   21  C25 UNL     1      -3.532  48.920 -23.512  1.00  0.00     0.042 C 
HETATM   22  C26 UNL     1      -2.731  48.630 -22.243  1.00  0.00     0.148 C 
ENDROOT
BRANCH   1  23
HETATM   23  C5  UNL     1       0.200  51.416 -17.378  1.00  0.00    -0.014 C 
HETATM   24  C6  UNL     1       1.071  52.592 -17.844  1.00  0.00     0.010 C 
BRANCH  23  25
HETATM   25  C4  UNL     1       0.920  50.739 -16.174  1.00  0.00     0.009 C 
BRANCH  25  26
HETATM   26  C3  UNL     1       1.468  51.671 -15.081  1.00  0.00     0.034 C 
BRANCH  26  27
HETATM   27  C2  UNL     1       2.957  51.584 -14.797  1.00  0.00    -0.086 C 
HETATM   28  C1  UNL     1       3.833  52.191 -15.620  1.00  0.00     0.014 C 
BRANCH  27  29
HETATM   29  C27 UNL     1       3.468  50.893 -13.536  1.00  0.00     0.005 C 
HETATM   30  C28 UNL     1       2.357  50.473 -12.571  1.00  0.00     0.014 C 
HETATM   31  C29 UNL     1       4.392  49.713 -13.844  1.00  0.00     0.014 C 
ENDBRANCH  27  29
ENDBRANCH  26  27
ENDBRANCH  25  26
ENDBRANCH  23  25
ENDBRANCH   1  23
BRANCH  22  32
HETATM   32  O3  UNL     1      -1.991  47.426 -22.416  1.00  0.00    -0.391 OA
HETATM   33  H37 UNL     1      -2.632  46.701 -22.510  1.00  0.00     0.210 HD
ENDBRANCH  22  32
TORSDOF 6
ENDMDL
MODEL 4
REMARK minimizedAffinity -9.41424084
REMARK  6 active torsions:
REMARK  status: ('A' for Active; 'I' for Inactive)
REMARK    1  A    between atoms: C2_2  and  C3_3 
REMARK    2  A    between atoms: C2_2  and  C27_30 
REMARK    3  A    between atoms: C3_3  and  C4_4 
REMARK    4  A    between atoms: C4_4  and  C5_5 
REMARK    5  A    between atoms: C5_5  and  C7_7 
REMARK    6  A    between atoms: C26_28  and  O3_29 
ROOT
HETATM    1  C7  UNL     1      -0.272  51.917 -21.242  1.00  0.00    -0.002 C 
HETATM    2  C8  UNL     1       0.332  53.321 -20.976  1.00  0.00     0.006 C 
HETATM    3  C9  UNL     1       0.800  53.345 -19.516  1.00  0.00     0.010 C 
HETATM    4  C10 UNL     1       0.662  51.898 -19.052  1.00  0.00     0.027 C 
HETATM    5  C11 UNL     1       0.661  51.554 -17.581  1.00  0.00    -0.036 C 
HETATM    6  C12 UNL     1       0.109  50.397 -17.138  1.00  0.00     0.002 C 
HETATM    7  C13 UNL     1      -0.598  49.505 -18.142  1.00  0.00     0.157 C 
HETATM    8  O1  UNL     1      -1.130  48.453 -17.786  1.00  0.00    -0.293 OA
HETATM    9  C14 UNL     1      -0.637  49.894 -19.613  1.00  0.00     0.093 C 
HETATM   10  C15 UNL     1      -0.604  51.411 -19.802  1.00  0.00    -0.026 C 
HETATM   11  C16 UNL     1      -1.918  52.043 -19.275  1.00  0.00     0.016 C 
HETATM   12  C17 UNL     1       0.161  49.945 -15.663  1.00  0.00    -0.008 C 
HETATM   13  C18 UNL     1      -1.256  50.187 -15.079  1.00  0.00     0.021 C 
HETATM   14  C19 UNL     1       0.523  48.430 -15.516  1.00  0.00     0.022 C 
HETATM   15  C20 UNL     1       1.316  48.050 -14.264  1.00  0.00     0.080 C 
HETATM   16  C21 UNL     1       1.031  48.975 -13.110  1.00  0.00     0.131 C 
HETATM   17  O2  UNL     1       0.721  48.543 -12.000  1.00  0.00    -0.298 OA
HETATM   18  C22 UNL     1       1.226  50.462 -13.358  1.00  0.00     0.056 C 
HETATM   19  C23 UNL     1       2.504  50.905 -12.645  1.00  0.00     0.018 C 
HETATM   20  C24 UNL     1       1.257  50.752 -14.878  1.00  0.00     0.012 C 
HETATM   21  C25 UNL     1       1.160  52.254 -15.177  1.00  0.00     0.042 C 
HETATM   22  C26 UNL     1       1.368  52.520 -16.668  1.00  0.00     0.148 C 
ENDROOT
BRANCH   1  23
HETATM   23  C5  UNL     1      -1.387  51.934 -22.332  1.00  0.00    -0.014 C 
HETATM   24  C6  UNL     1      -2.728  51.440 -21.770  1.00  0.00     0.010 C 
BRANCH  23  25
HETATM   25  C4  UNL     1      -1.025  51.038 -23.553  1.00  0.00     0.009 C 
BRANCH  25  26
HETATM   26  C3  UNL     1      -0.245  51.705 -24.696  1.00  0.00     0.034 C 
BRANCH  26  27
HETATM   27  C2  UNL     1      -0.296  51.016 -26.049  1.00  0.00    -0.086 C 
HETATM   28  C1  UNL     1      -1.416  50.373 -26.432  1.00  0.00     0.014 C 
BRANCH  27  29
HETATM   29  C27 UNL     1       0.877  51.121 -27.019  1.00  0.00     0.005 C 
HETATM   30  C28 UNL     1       0.640  52.106 -28.167  1.00  0.00     0.014 C 
HETATM   31  C29 UNL     1       2.200  51.421 -26.313  1.00  0.00     0.014 C 
ENDBRANCH  27  29
ENDBRANCH  26  27
ENDBRANCH  25  26
ENDBRANCH  23  25
ENDBRANCH   1  23
BRANCH  22  32
HETATM   32  O3  UNL     1       2.755  52.429 -16.975  1.00  0.00    -0.391 OA
HETATM   33  H37 UNL     1       3.206  53.147 -16.500  1.00  0.00     0.210 HD
ENDBRANCH  22  32
TORSDOF 6
ENDMDL
MODEL 5
REMARK minimizedAffinity -9.31452751
REMARK  6 active torsions:
REMARK  status: ('A' for Active; 'I' for Inactive)
REMARK    1  A    between atoms: C2_2  and  C3_3 
REMARK    2  A    between atoms: C2_2  and  C27_30 
REMARK    3  A    between atoms: C3_3  and  C4_4 
REMARK    4  A    between atoms: C4_4  and  C5_5 
REMARK    5  A    between atoms: C5_5  and  C7_7 
REMARK    6  A    between atoms: C26_28  and  O3_29 
ROOT
HETATM    1  C7  UNL     1      -0.599  51.117 -21.242  1.00  0.00    -0.002 C 
HETATM    2  C8  UNL     1      -1.012  51.798 -19.911  1.00  0.00     0.006 C 
HETATM    3  C9  UNL     1      -2.461  51.389 -19.622  1.00  0.00     0.010 C 
HETATM    4  C10 UNL     1      -2.764  50.316 -20.663  1.00  0.00     0.027 C 
HETATM    5  C11 UNL     1      -4.188  49.916 -20.969  1.00  0.00    -0.036 C 
HETATM    6  C12 UNL     1      -4.507  49.329 -22.150  1.00  0.00     0.002 C 
HETATM    7  C13 UNL     1      -3.418  49.175 -23.195  1.00  0.00     0.157 C 
HETATM    8  O1  UNL     1      -3.662  48.665 -24.289  1.00  0.00    -0.293 OA
HETATM    9  C14 UNL     1      -1.999  49.635 -22.891  1.00  0.00     0.093 C 
HETATM   10  C15 UNL     1      -1.977  50.804 -21.905  1.00  0.00    -0.026 C 
HETATM   11  C16 UNL     1      -2.583  52.069 -22.565  1.00  0.00     0.016 C 
HETATM   12  C17 UNL     1      -5.923  48.813 -22.483  1.00  0.00    -0.008 C 
HETATM   13  C18 UNL     1      -6.543  49.837 -23.470  1.00  0.00     0.021 C 
HETATM   14  C19 UNL     1      -5.900  47.401 -23.157  1.00  0.00     0.022 C 
HETATM   15  C20 UNL     1      -7.095  46.496 -22.856  1.00  0.00     0.080 C 
HETATM   16  C21 UNL     1      -8.346  47.283 -22.570  1.00  0.00     0.131 C 
HETATM   17  O2  UNL     1      -9.405  47.044 -23.149  1.00  0.00    -0.298 OA
HETATM   18  C22 UNL     1      -8.261  48.333 -21.473  1.00  0.00     0.056 C 
HETATM   19  C23 UNL     1      -9.006  47.807 -20.246  1.00  0.00     0.018 C 
HETATM   20  C24 UNL     1      -6.782  48.676 -21.174  1.00  0.00     0.012 C 
HETATM   21  C25 UNL     1      -6.650  49.924 -20.292  1.00  0.00     0.042 C 
HETATM   22  C26 UNL     1      -5.195  50.136 -19.871  1.00  0.00     0.148 C 
ENDROOT
BRANCH   1  23
HETATM   23  C5  UNL     1       0.473  51.931 -22.032  1.00  0.00    -0.014 C 
HETATM   24  C6  UNL     1       1.006  53.108 -21.203  1.00  0.00     0.010 C 
BRANCH  23  25
HETATM   25  C4  UNL     1      -0.094  52.506 -23.364  1.00  0.00     0.009 C 
BRANCH  25  26
HETATM   26  C3  UNL     1       0.800  52.384 -24.608  1.00  0.00     0.034 C 
BRANCH  26  27
HETATM   27  C2  UNL     1       0.236  51.595 -25.777  1.00  0.00    -0.086 C 
HETATM   28  C1  UNL     1      -1.079  51.308 -25.819  1.00  0.00     0.014 C 
BRANCH  27  29
HETATM   29  C27 UNL     1       1.128  51.204 -26.952  1.00  0.00     0.005 C 
HETATM   30  C28 UNL     1       0.699  51.824 -28.284  1.00  0.00     0.014 C 
HETATM   31  C29 UNL     1       2.609  51.473 -26.682  1.00  0.00     0.014 C 
ENDBRANCH  27  29
ENDBRANCH  26  27
ENDBRANCH  25  26
ENDBRANCH  23  25
ENDBRANCH   1  23
BRANCH  22  32
HETATM   32  O3  UNL     1      -4.867  49.221 -18.830  1.00  0.00    -0.391 OA
HETATM   33  H37 UNL     1      -5.414  49.449 -18.059  1.00  0.00     0.210 HD
ENDBRANCH  22  32
TORSDOF 6
ENDMDL
MODEL 6
REMARK minimizedAffinity -9.31328106
REMARK  6 active torsions:
REMARK  status: ('A' for Active; 'I' for Inactive)
REMARK    1  A    between atoms: C2_2  and  C3_3 
REMARK    2  A    between atoms: C2_2  and  C27_30 
REMARK    3  A    between atoms: C3_3  and  C4_4 
REMARK    4  A    between atoms: C4_4  and  C5_5 
REMARK    5  A    between atoms: C5_5  and  C7_7 
REMARK    6  A    between atoms: C26_28  and  O3_29 
ROOT
HETATM    1  C7  UNL     1       0.315  50.665 -18.040  1.00  0.00    -0.002 C 
HETATM    2  C8  UNL     1      -0.557  49.459 -17.603  1.00  0.00     0.006 C 
HETATM    3  C9  UNL     1      -1.319  48.976 -18.843  1.00  0.00     0.010 C 
HETATM    4  C10 UNL     1      -0.700  49.762 -19.995  1.00  0.00     0.027 C 
HETATM    5  C11 UNL     1      -1.405  49.865 -21.327  1.00  0.00    -0.036 C 
HETATM    6  C12 UNL     1      -1.128  50.879 -22.184  1.00  0.00     0.002 C 
HETATM    7  C13 UNL     1      -0.169  51.964 -21.730  1.00  0.00     0.157 C 
HETATM    8  O1  UNL     1       0.100  52.915 -22.464  1.00  0.00    -0.293 OA
HETATM    9  C14 UNL     1       0.490  51.875 -20.361  1.00  0.00     0.093 C 
HETATM   10  C15 UNL     1      -0.390  51.137 -19.351  1.00  0.00    -0.026 C 
HETATM   11  C16 UNL     1      -1.657  51.973 -19.036  1.00  0.00     0.016 C 
HETATM   12  C17 UNL     1      -1.742  50.986 -23.596  1.00  0.00    -0.008 C 
HETATM   13  C18 UNL     1      -2.825  52.096 -23.520  1.00  0.00     0.021 C 
HETATM   14  C19 UNL     1      -0.684  51.377 -24.679  1.00  0.00     0.022 C 
HETATM   15  C20 UNL     1      -0.917  50.808 -26.080  1.00  0.00     0.080 C 
HETATM   16  C21 UNL     1      -2.378  50.574 -26.360  1.00  0.00     0.131 C 
HETATM   17  O2  UNL     1      -2.915  51.005 -27.380  1.00  0.00    -0.298 OA
HETATM   18  C22 UNL     1      -3.138  49.709 -25.367  1.00  0.00     0.056 C 
HETATM   19  C23 UNL     1      -3.391  48.346 -26.010  1.00  0.00     0.018 C 
HETATM   20  C24 UNL     1      -2.355  49.608 -24.036  1.00  0.00     0.012 C 
HETATM   21  C25 UNL     1      -3.205  48.996 -22.915  1.00  0.00     0.042 C 
HETATM   22  C26 UNL     1      -2.356  48.748 -21.669  1.00  0.00     0.148 C 
ENDROOT
BRANCH   1  23
HETATM   23  C5  UNL     1       0.563  51.684 -16.885  1.00  0.00    -0.014 C 
HETATM   24  C6  UNL     1       1.919  52.387 -17.041  1.00  0.00     0.010 C 
BRANCH  23  25
HETATM   25  C4  UNL     1       0.540  50.999 -15.487  1.00  0.00     0.009 C 
BRANCH  25  26
HETATM   26  C3  UNL     1       0.623  51.922 -14.261  1.00  0.00     0.034 C 
BRANCH  26  27
HETATM   27  C2  UNL     1      -0.611  51.993 -13.378  1.00  0.00    -0.086 C 
HETATM   28  C1  UNL     1      -0.582  52.715 -12.242  1.00  0.00     0.014 C 
BRANCH  27  29
HETATM   29  C27 UNL     1      -1.914  51.327 -13.811  1.00  0.00     0.005 C 
HETATM   30  C28 UNL     1      -2.102  49.917 -13.247  1.00  0.00     0.014 C 
HETATM   31  C29 UNL     1      -3.142  52.193 -13.523  1.00  0.00     0.014 C 
ENDBRANCH  27  29
ENDBRANCH  26  27
ENDBRANCH  25  26
ENDBRANCH  23  25
ENDBRANCH   1  23
BRANCH  22  32
HETATM   32  O3  UNL     1      -1.561  47.582 -21.863  1.00  0.00    -0.391 OA
HETATM   33  H37 UNL     1      -2.168  46.826 -21.939  1.00  0.00     0.210 HD
ENDBRANCH  22  32
TORSDOF 6
ENDMDL
MODEL 7
REMARK minimizedAffinity -9.2513876
REMARK  6 active torsions:
REMARK  status: ('A' for Active; 'I' for Inactive)
REMARK    1  A    between atoms: C2_2  and  C3_3 
REMARK    2  A    between atoms: C2_2  and  C27_30 
REMARK    3  A    between atoms: C3_3  and  C4_4 
REMARK    4  A    between atoms: C4_4  and  C5_5 
REMARK    5  A    between atoms: C5_5  and  C7_7 
REMARK    6  A    between atoms: C26_28  and  O3_29 
ROOT
HETATM    1  C7  UNL     1      -0.825  52.393 -22.010  1.00  0.00    -0.002 C 
HETATM    2  C8  UNL     1       0.020  52.073 -23.271  1.00  0.00     0.006 C 
HETATM    3  C9  UNL     1      -0.843  51.193 -24.185  1.00  0.00     0.010 C 
HETATM    4  C10 UNL     1      -2.224  51.219 -23.537  1.00  0.00     0.027 C 
HETATM    5  C11 UNL     1      -3.268  50.191 -23.903  1.00  0.00    -0.036 C 
HETATM    6  C12 UNL     1      -4.295  49.913 -23.061  1.00  0.00     0.002 C 
HETATM    7  C13 UNL     1      -4.313  50.585 -21.700  1.00  0.00     0.157 C 
HETATM    8  O1  UNL     1      -5.214  50.352 -20.894  1.00  0.00    -0.293 OA
HETATM    9  C14 UNL     1      -3.222  51.577 -21.325  1.00  0.00     0.093 C 
HETATM   10  C15 UNL     1      -1.898  51.259 -22.023  1.00  0.00    -0.026 C 
HETATM   11  C16 UNL     1      -1.315  49.930 -21.479  1.00  0.00     0.016 C 
HETATM   12  C17 UNL     1      -5.443  48.945 -23.417  1.00  0.00    -0.008 C 
HETATM   13  C18 UNL     1      -5.179  47.639 -22.622  1.00  0.00     0.021 C 
HETATM   14  C19 UNL     1      -6.846  49.511 -23.020  1.00  0.00     0.022 C 
HETATM   15  C20 UNL     1      -8.014  49.099 -23.917  1.00  0.00     0.080 C 
HETATM   16  C21 UNL     1      -7.788  47.757 -24.562  1.00  0.00     0.131 C 
HETATM   17  O2  UNL     1      -8.634  46.866 -24.508  1.00  0.00    -0.298 OA
HETATM   18  C22 UNL     1      -6.500  47.583 -25.352  1.00  0.00     0.056 C 
HETATM   19  C23 UNL     1      -6.845  47.592 -26.841  1.00  0.00     0.018 C 
HETATM   20  C24 UNL     1      -5.482  48.683 -24.966  1.00  0.00     0.012 C 
HETATM   21  C25 UNL     1      -4.080  48.384 -25.513  1.00  0.00     0.042 C 
HETATM   22  C26 UNL     1      -3.143  49.566 -25.267  1.00  0.00     0.148 C 
ENDROOT
BRANCH   1  23
HETATM   23  C5  UNL     1       0.048  52.619 -20.737  1.00  0.00    -0.014 C 
HETATM   24  C6  UNL     1       1.530  52.796 -21.098  1.00  0.00     0.010 C 
BRANCH  23  25
HETATM   25  C4  UNL     1      -0.059  51.430 -19.737  1.00  0.00     0.009 C 
BRANCH  25  26
HETATM   26  C3  UNL     1      -0.377  51.781 -18.275  1.00  0.00     0.034 C 
BRANCH  26  27
HETATM   27  C2  UNL     1       0.274  50.914 -17.211  1.00  0.00    -0.086 C 
HETATM   28  C1  UNL     1      -0.073  49.618 -17.097  1.00  0.00     0.014 C 
BRANCH  27  29
HETATM   29  C27 UNL     1       1.386  51.473 -16.327  1.00  0.00     0.005 C 
HETATM   30  C28 UNL     1       2.161  52.625 -16.969  1.00  0.00     0.014 C 
HETATM   31  C29 UNL     1       0.890  51.864 -14.934  1.00  0.00     0.014 C 
ENDBRANCH  27  29
ENDBRANCH  26  27
ENDBRANCH  25  26
ENDBRANCH  23  25
ENDBRANCH   1  23
BRANCH  22  32
HETATM   32  O3  UNL     1      -3.420  50.594 -26.212  1.00  0.00    -0.391 OA
HETATM   33  H37 UNL     1      -3.202  50.245 -27.093  1.00  0.00     0.210 HD
ENDBRANCH  22  32
TORSDOF 6
ENDMDL
MODEL 8
REMARK minimizedAffinity -9.21267223
REMARK  6 active torsions:
REMARK  status: ('A' for Active; 'I' for Inactive)
REMARK    1  A    between atoms: C2_2  and  C3_3 
REMARK    2  A    between atoms: C2_2  and  C27_30 
REMARK    3  A    between atoms: C3_3  and  C4_4 
REMARK    4  A    between atoms: C4_4  and  C5_5 
REMARK    5  A    between atoms: C5_5  and  C7_7 
REMARK    6  A    between atoms: C26_28  and  O3_29 
ROOT
HETATM    1  C7  UNL     1      -0.848  51.160 -16.003  1.00  0.00    -0.002 C 
HETATM    2  C8  UNL     1       0.610  51.685 -15.945  1.00  0.00     0.006 C 
HETATM    3  C9  UNL     1       1.004  52.091 -17.370  1.00  0.00     0.010 C 
HETATM    4  C10 UNL     1      -0.299  52.003 -18.160  1.00  0.00     0.027 C 
HETATM    5  C11 UNL     1      -0.285  51.958 -19.670  1.00  0.00    -0.036 C 
HETATM    6  C12 UNL     1      -1.334  51.445 -20.359  1.00  0.00     0.002 C 
HETATM    7  C13 UNL     1      -2.476  50.823 -19.576  1.00  0.00     0.157 C 
HETATM    8  O1  UNL     1      -3.442  50.327 -20.157  1.00  0.00    -0.293 OA
HETATM    9  C14 UNL     1      -2.447  50.826 -18.055  1.00  0.00     0.093 C 
HETATM   10  C15 UNL     1      -1.018  50.794 -17.511  1.00  0.00    -0.026 C 
HETATM   11  C16 UNL     1      -0.354  49.431 -17.835  1.00  0.00     0.016 C 
HETATM   12  C17 UNL     1      -1.422  51.458 -21.900  1.00  0.00    -0.008 C 
HETATM   13  C18 UNL     1      -1.128  50.008 -22.369  1.00  0.00     0.021 C 
HETATM   14  C19 UNL     1      -2.836  51.885 -22.414  1.00  0.00     0.022 C 
HETATM   15  C20 UNL     1      -2.865  52.643 -23.742  1.00  0.00     0.080 C 
HETATM   16  C21 UNL     1      -1.712  52.268 -24.635  1.00  0.00     0.131 C 
HETATM   17  O2  UNL     1      -1.886  51.933 -25.806  1.00  0.00    -0.298 OA
HETATM   18  C22 UNL     1      -0.316  52.402 -24.045  1.00  0.00     0.056 C 
HETATM   19  C23 UNL     1       0.353  53.626 -24.669  1.00  0.00     0.018 C 
HETATM   20  C24 UNL     1      -0.392  52.481 -22.502  1.00  0.00     0.012 C 
HETATM   21  C25 UNL     1       0.989  52.325 -21.852  1.00  0.00     0.042 C 
HETATM   22  C26 UNL     1       0.907  52.581 -20.347  1.00  0.00     0.148 C 
ENDROOT
BRANCH   1  23
HETATM   23  C5  UNL     1      -1.152  50.091 -14.908  1.00  0.00    -0.014 C 
HETATM   24  C6  UNL     1      -2.456  49.338 -15.206  1.00  0.00     0.010 C 
BRANCH  23  25
HETATM   25  C4  UNL     1      -1.282  50.725 -13.492  1.00  0.00     0.009 C 
BRANCH  25  26
HETATM   26  C3  UNL     1      -2.258  51.903 -13.346  1.00  0.00     0.034 C 
BRANCH  26  27
HETATM   27  C2  UNL     1      -2.440  52.467 -11.948  1.00  0.00    -0.086 C 
HETATM   28  C1  UNL     1      -1.365  52.860 -11.238  1.00  0.00     0.014 C 
BRANCH  27  29
HETATM   29  C27 UNL     1      -3.837  52.679 -11.372  1.00  0.00     0.005 C 
HETATM   30  C28 UNL     1      -4.420  51.435 -10.697  1.00  0.00     0.014 C 
HETATM   31  C29 UNL     1      -3.912  53.888 -10.437  1.00  0.00     0.014 C 
ENDBRANCH  27  29
ENDBRANCH  26  27
ENDBRANCH  25  26
ENDBRANCH  23  25
ENDBRANCH   1  23
BRANCH  22  32
HETATM   32  O3  UNL     1       0.824  53.982 -20.110  1.00  0.00    -0.391 OA
HETATM   33  H37 UNL     1       1.658  54.379 -20.414  1.00  0.00     0.210 HD
ENDBRANCH  22  32
TORSDOF 6
ENDMDL
MODEL 9
REMARK minimizedAffinity -8.92520237
REMARK  6 active torsions:
REMARK  status: ('A' for Active; 'I' for Inactive)
REMARK    1  A    between atoms: C2_2  and  C3_3 
REMARK    2  A    between atoms: C2_2  and  C27_30 
REMARK    3  A    between atoms: C3_3  and  C4_4 
REMARK    4  A    between atoms: C4_4  and  C5_5 
REMARK    5  A    between atoms: C5_5  and  C7_7 
REMARK    6  A    between atoms: C26_28  and  O3_29 
ROOT
HETATM    1  C7  UNL     1      -1.825  48.259 -19.385  1.00  0.00    -0.002 C 
HETATM    2  C8  UNL     1      -3.149  47.545 -19.763  1.00  0.00     0.006 C 
HETATM    3  C9  UNL     1      -3.522  47.998 -21.180  1.00  0.00     0.010 C 
HETATM    4  C10 UNL     1      -2.299  48.774 -21.660  1.00  0.00     0.027 C 
HETATM    5  C11 UNL     1      -2.391  49.701 -22.850  1.00  0.00    -0.036 C 
HETATM    6  C12 UNL     1      -1.496  50.705 -23.019  1.00  0.00     0.002 C 
HETATM    7  C13 UNL     1      -0.461  50.939 -21.933  1.00  0.00     0.157 C 
HETATM    8  O1  UNL     1       0.361  51.850 -22.032  1.00  0.00    -0.293 OA
HETATM    9  C14 UNL     1      -0.419  50.031 -20.713  1.00  0.00     0.093 C 
HETATM   10  C15 UNL     1      -1.800  49.471 -20.370  1.00  0.00    -0.026 C 
HETATM   11  C16 UNL     1      -2.730  50.610 -19.880  1.00  0.00     0.016 C 
HETATM   12  C17 UNL     1      -1.479  51.624 -24.260  1.00  0.00    -0.008 C 
HETATM   13  C18 UNL     1      -2.070  52.985 -23.806  1.00  0.00     0.021 C 
HETATM   14  C19 UNL     1      -0.033  51.853 -24.813  1.00  0.00     0.022 C 
HETATM   15  C20 UNL     1       0.081  52.051 -26.325  1.00  0.00     0.080 C 
HETATM   16  C21 UNL     1      -1.163  52.661 -26.913  1.00  0.00     0.131 C 
HETATM   17  O2  UNL     1      -1.112  53.649 -27.645  1.00  0.00    -0.298 OA
HETATM   18  C22 UNL     1      -2.477  51.951 -26.628  1.00  0.00     0.056 C 
HETATM   19  C23 UNL     1      -2.924  51.236 -27.904  1.00  0.00     0.018 C 
HETATM   20  C24 UNL     1      -2.316  50.988 -25.427  1.00  0.00     0.012 C 
HETATM   21  C25 UNL     1      -3.669  50.472 -24.921  1.00  0.00     0.042 C 
HETATM   22  C26 UNL     1      -3.470  49.395 -23.855  1.00  0.00     0.148 C 
ENDROOT
BRANCH   1  23
HETATM   23  C5  UNL     1      -1.685  48.506 -17.851  1.00  0.00    -0.014 C 
HETATM   24  C6  UNL     1      -2.874  49.307 -17.302  1.00  0.00     0.010 C 
BRANCH  23  25
HETATM   25  C4  UNL     1      -0.384  49.285 -17.501  1.00  0.00     0.009 C 
BRANCH  25  26
HETATM   26  C3  UNL     1      -0.552  50.608 -16.737  1.00  0.00     0.034 C 
BRANCH  26  27
HETATM   27  C2  UNL     1       0.715  51.247 -16.195  1.00  0.00    -0.086 C 
HETATM   28  C1  UNL     1       1.372  50.670 -15.171  1.00  0.00     0.014 C 
BRANCH  27  29
HETATM   29  C27 UNL     1       1.304  52.489 -16.860  1.00  0.00     0.005 C 
HETATM   30  C28 UNL     1       2.819  52.621 -16.684  1.00  0.00     0.014 C 
HETATM   31  C29 UNL     1       0.919  52.605 -18.336  1.00  0.00     0.014 C 
ENDBRANCH  27  29
ENDBRANCH  26  27
ENDBRANCH  25  26
ENDBRANCH  23  25
ENDBRANCH   1  23
BRANCH  22  32
HETATM   32  O3  UNL     1      -3.104  48.170 -24.483  1.00  0.00    -0.391 OA
HETATM   33  H37 UNL     1      -3.859  47.886 -25.027  1.00  0.00     0.210 HD
ENDBRANCH  22  32
TORSDOF 6
ENDMDL
