MODEL 1
REMARK minimizedAffinity -10.1698256
REMARK CNNscore 0.750754476
REMARK CNNaffinity 7.93235588
REMARK  11 active torsions:
REMARK  status: ('A' for Active; 'I' for Inactive)
REMARK    1  A    between atoms: C2_2  and  O2_4 
REMARK    2  A    between atoms: O2_4  and  C3_5 
REMARK    3  A    between atoms: C4_6  and  O3_7 
REMARK    4  A    between atoms: O3_7  and  C5_8 
REMARK    5  A    between atoms: C15_18  and  C16_19 
REMARK    6  A    between atoms: C20_23  and  C21_24 
REMARK    7  A    between atoms: C21_24  and  O4_27 
REMARK    8  A    between atoms: C24_29  and  O6_30 
REMARK    9  A    between atoms: C30_36  and  O7_37 
REMARK   10  A    between atoms: C36_44  and  O9_45 
REMARK   11  A    between atoms: C37_46  and  O10_47 
ROOT
HETATM    1  C5  UNL     1       3.190   8.092  11.342  1.00  0.00     0.133 C 
HETATM    2  C6  UNL     1       2.497   9.246  12.073  1.00  0.00     0.034 C 
HETATM    3  C7  UNL     1       1.446   8.743  13.052  1.00  0.00     0.013 C 
HETATM    4  C8  UNL     1       0.429   7.859  12.342  1.00  0.00    -0.025 A 
HETATM    5  C9  UNL     1      -0.728   8.569  11.688  1.00  0.00     0.021 A 
HETATM    6  C10 UNL     1      -1.013   7.705  12.907  1.00  0.00    -0.027 A 
HETATM    7  C11 UNL     1      -1.340   8.434  14.217  1.00  0.00     0.011 C 
HETATM    8  C12 UNL     1      -2.777   8.352  14.764  1.00  0.00     0.011 C 
HETATM    9  C13 UNL     1      -3.700   7.399  14.003  1.00  0.00    -0.028 C 
HETATM   10  C14 UNL     1      -4.221   8.147  12.748  1.00  0.00     0.016 C 
HETATM   11  C15 UNL     1      -4.904   6.808  14.811  1.00  0.00     0.057 C 
HETATM   12  C24 UNL     1      -5.235   5.488  14.047  1.00  0.00     0.126 C 
HETATM   13  C25 UNL     1      -3.997   5.147  13.190  1.00  0.00     0.042 C 
HETATM   14  C26 UNL     1      -2.879   6.095  13.674  1.00  0.00    -0.029 C 
HETATM   15  C27 UNL     1      -2.216   5.414  14.914  1.00  0.00     0.016 C 
HETATM   16  C28 UNL     1      -1.804   6.413  12.599  1.00  0.00     0.006 C 
HETATM   17  C29 UNL     1      -0.868   5.240  12.303  1.00  0.00     0.038 C 
HETATM   18  C30 UNL     1       0.119   5.576  11.183  1.00  0.00     0.124 C 
HETATM   19  C31 UNL     1       1.118   6.654  11.659  1.00  0.00     0.034 C 
HETATM   20  C32 UNL     1       2.187   7.140  10.605  1.00  0.00    -0.015 C 
HETATM   21  C33 UNL     1       3.010   5.956  10.032  1.00  0.00     0.018 C 
HETATM   22  C34 UNL     1       1.542   7.843   9.390  1.00  0.00     0.018 C 
ENDROOT
BRANCH   1  23
HETATM   23  O3  UNL     1       4.101   8.665  10.394  1.00  0.00    -0.352 OA
BRANCH  23  24
HETATM   24  C4  UNL     1       5.357   9.039  10.971  1.00  0.00     0.292 C 
HETATM   25  C3  UNL     1       5.223   8.964  12.511  1.00  0.00     0.218 C 
HETATM   26  C37 UNL     1       6.579   8.603  13.110  1.00  0.00     0.183 C 
HETATM   27  C36 UNL     1       7.032   7.228  12.590  1.00  0.00     0.173 C 
HETATM   28  C35 UNL     1       6.560   6.990  11.150  1.00  0.00     0.205 C 
HETATM   29  O8  UNL     1       6.421   8.228  10.451  1.00  0.00    -0.356 OA
BRANCH  25  30
HETATM   30  O2  UNL     1       4.820  10.270  12.992  1.00  0.00    -0.309 OA
BRANCH  30  31
HETATM   31  C2  UNL     1       5.601  11.321  12.632  1.00  0.00     0.255 C 
HETATM   32  C1  UNL     1       6.080  12.042  13.857  1.00  0.00     0.126 C 
HETATM   33  O1  UNL     1       5.919  11.630  11.492  1.00  0.00    -0.266 OA
ENDBRANCH  30  31
ENDBRANCH  25  30
BRANCH  26  34
HETATM   34  O10 UNL     1       6.518   8.564  14.544  1.00  0.00    -0.390 OA
HETATM   35  H60 UNL     1       7.429   8.368  14.837  1.00  0.00     0.210 HD
ENDBRANCH  26  34
BRANCH  27  36
HETATM   36  O9  UNL     1       8.464   7.188  12.693  1.00  0.00    -0.391 OA
HETATM   37  H58 UNL     1       8.761   6.331  12.338  1.00  0.00     0.210 HD
ENDBRANCH  27  36
ENDBRANCH  23  24
ENDBRANCH   1  23
BRANCH  18  38
HETATM   38  O7  UNL     1       0.811   4.360  10.880  1.00  0.00    -0.395 OA
HETATM   39  H47 UNL     1       0.156   3.734  10.525  1.00  0.00     0.210 HD
ENDBRANCH  18  38
BRANCH  11  40
HETATM   40  C16 UNL     1      -6.100   7.666  15.315  1.00  0.00     0.065 C 
HETATM   41  C17 UNL     1      -5.818   9.117  15.735  1.00  0.00     0.046 C 
HETATM   42  C18 UNL     1      -6.889   6.954  16.422  1.00  0.00     0.041 C 
HETATM   43  C19 UNL     1      -8.319   7.372  16.170  1.00  0.00     0.038 C 
HETATM   44  C20 UNL     1      -8.389   7.505  14.655  1.00  0.00     0.156 C 
HETATM   45  O5  UNL     1      -7.035   7.742  14.204  1.00  0.00    -0.372 OA
BRANCH  44  46
HETATM   46  C21 UNL     1      -8.985   6.281  13.898  1.00  0.00     0.076 C 
HETATM   47  C22 UNL     1      -8.519   6.266  12.433  1.00  0.00     0.048 C 
HETATM   48  C23 UNL     1     -10.517   6.300  13.947  1.00  0.00     0.048 C 
BRANCH  46  49
HETATM   49  O4  UNL     1      -8.556   5.061  14.519  1.00  0.00    -0.388 OA
HETATM   50  H35 UNL     1      -8.619   4.353  13.858  1.00  0.00     0.210 HD
ENDBRANCH  46  49
ENDBRANCH  44  46
ENDBRANCH  11  40
BRANCH  12  51
HETATM   51  O6  UNL     1      -6.353   5.571  13.181  1.00  0.00    -0.395 OA
HETATM   52  H37 UNL     1      -6.590   4.665  12.921  1.00  0.00     0.210 HD
ENDBRANCH  12  51
TORSDOF 11
ENDMDL
MODEL 2
REMARK minimizedAffinity -8.20717335
REMARK CNNscore 0.744652987
REMARK CNNaffinity 7.03224373
REMARK  11 active torsions:
REMARK  status: ('A' for Active; 'I' for Inactive)
REMARK    1  A    between atoms: C2_2  and  O2_4 
REMARK    2  A    between atoms: O2_4  and  C3_5 
REMARK    3  A    between atoms: C4_6  and  O3_7 
REMARK    4  A    between atoms: O3_7  and  C5_8 
REMARK    5  A    between atoms: C15_18  and  C16_19 
REMARK    6  A    between atoms: C20_23  and  C21_24 
REMARK    7  A    between atoms: C21_24  and  O4_27 
REMARK    8  A    between atoms: C24_29  and  O6_30 
REMARK    9  A    between atoms: C30_36  and  O7_37 
REMARK   10  A    between atoms: C36_44  and  O9_45 
REMARK   11  A    between atoms: C37_46  and  O10_47 
ROOT
HETATM    1  C5  UNL     1       0.021   7.839  12.991  1.00  0.00     0.133 C 
HETATM    2  C6  UNL     1       0.450   9.302  12.846  1.00  0.00     0.034 C 
HETATM    3  C7  UNL     1       0.385  10.042  14.174  1.00  0.00     0.013 C 
HETATM    4  C8  UNL     1      -1.009   9.940  14.778  1.00  0.00    -0.025 A 
HETATM    5  C9  UNL     1      -2.010  10.969  14.320  1.00  0.00     0.021 A 
HETATM    6  C10 UNL     1      -1.525  11.032  15.760  1.00  0.00    -0.027 A 
HETATM    7  C11 UNL     1      -0.560  12.170  16.121  1.00  0.00     0.011 C 
HETATM    8  C12 UNL     1      -1.066  13.298  17.039  1.00  0.00     0.011 C 
HETATM    9  C13 UNL     1      -2.459  13.070  17.629  1.00  0.00    -0.028 C 
HETATM   10  C14 UNL     1      -3.500  13.478  16.554  1.00  0.00     0.016 C 
HETATM   11  C15 UNL     1      -2.768  13.802  18.978  1.00  0.00     0.057 C 
HETATM   12  C24 UNL     1      -3.898  12.929  19.608  1.00  0.00     0.126 C 
HETATM   13  C25 UNL     1      -3.861  11.564  18.889  1.00  0.00     0.042 C 
HETATM   14  C26 UNL     1      -2.553  11.560  18.068  1.00  0.00    -0.029 C 
HETATM   15  C27 UNL     1      -1.417  11.091  19.032  1.00  0.00     0.016 C 
HETATM   16  C28 UNL     1      -2.595  10.652  16.808  1.00  0.00     0.006 C 
HETATM   17  C29 UNL     1      -2.558   9.156  17.130  1.00  0.00     0.038 C 
HETATM   18  C30 UNL     1      -2.683   8.306  15.864  1.00  0.00     0.124 C 
HETATM   19  C31 UNL     1      -1.419   8.464  14.990  1.00  0.00     0.034 C 
HETATM   20  C32 UNL     1      -1.403   7.674  13.624  1.00  0.00    -0.015 C 
HETATM   21  C33 UNL     1      -1.643   6.156  13.834  1.00  0.00     0.018 C 
HETATM   22  C34 UNL     1      -2.504   8.153  12.652  1.00  0.00     0.018 C 
ENDROOT
BRANCH   1  23
HETATM   23  O3  UNL     1       0.042   7.249  11.683  1.00  0.00    -0.352 OA
BRANCH  23  24
HETATM   24  C4  UNL     1       1.205   6.452  11.440  1.00  0.00     0.292 C 
HETATM   25  C3  UNL     1       2.086   7.186  10.401  1.00  0.00     0.218 C 
HETATM   26  C37 UNL     1       3.550   6.845  10.661  1.00  0.00     0.183 C 
HETATM   27  C36 UNL     1       3.956   7.315  12.067  1.00  0.00     0.173 C 
HETATM   28  C35 UNL     1       2.787   7.204  13.055  1.00  0.00     0.205 C 
HETATM   29  O8  UNL     1       1.893   6.160  12.666  1.00  0.00    -0.356 OA
BRANCH  25  30
HETATM   30  O2  UNL     1       1.713   6.718   9.081  1.00  0.00    -0.309 OA
BRANCH  30  31
HETATM   31  C2  UNL     1       1.397   7.669   8.164  1.00  0.00     0.255 C 
HETATM   32  C1  UNL     1       1.857   7.236   6.804  1.00  0.00     0.126 C 
HETATM   33  O1  UNL     1       0.792   8.710   8.379  1.00  0.00    -0.266 OA
ENDBRANCH  30  31
ENDBRANCH  25  30
BRANCH  26  34
HETATM   34  O10 UNL     1       4.408   7.469   9.694  1.00  0.00    -0.390 OA
HETATM   35  H60 UNL     1       5.310   7.164   9.912  1.00  0.00     0.210 HD
ENDBRANCH  26  34
BRANCH  27  36
HETATM   36  O9  UNL     1       5.075   6.511  12.477  1.00  0.00    -0.391 OA
HETATM   37  H58 UNL     1       5.319   6.784  13.379  1.00  0.00     0.210 HD
ENDBRANCH  27  36
ENDBRANCH  23  24
ENDBRANCH   1  23
BRANCH  18  38
HETATM   38  O7  UNL     1      -2.814   6.950  16.304  1.00  0.00    -0.395 OA
HETATM   39  H47 UNL     1      -3.651   6.882  16.794  1.00  0.00     0.210 HD
ENDBRANCH  18  38
BRANCH  11  40
HETATM   40  C16 UNL     1      -2.899  15.347  19.102  1.00  0.00     0.065 C 
HETATM   41  C17 UNL     1      -1.620  16.159  19.360  1.00  0.00     0.046 C 
HETATM   42  C18 UNL     1      -3.977  15.750  20.117  1.00  0.00     0.041 C 
HETATM   43  C19 UNL     1      -4.577  17.004  19.526  1.00  0.00     0.038 C 
HETATM   44  C20 UNL     1      -4.487  16.767  18.024  1.00  0.00     0.156 C 
HETATM   45  O5  UNL     1      -3.421  15.810  17.827  1.00  0.00    -0.372 OA
BRANCH  44  46
HETATM   46  C21 UNL     1      -5.788  16.247  17.345  1.00  0.00     0.076 C 
HETATM   47  C22 UNL     1      -6.361  15.045  18.112  1.00  0.00     0.048 C 
HETATM   48  C23 UNL     1      -5.524  15.847  15.889  1.00  0.00     0.048 C 
BRANCH  46  49
HETATM   49  O4  UNL     1      -6.781  17.283  17.325  1.00  0.00    -0.388 OA
HETATM   50  H35 UNL     1      -7.651  16.859  17.249  1.00  0.00     0.210 HD
ENDBRANCH  46  49
ENDBRANCH  44  46
ENDBRANCH  11  40
BRANCH  12  51
HETATM   51  O6  UNL     1      -5.204  13.460  19.463  1.00  0.00    -0.395 OA
HETATM   52  H37 UNL     1      -5.791  12.958  20.054  1.00  0.00     0.210 HD
ENDBRANCH  12  51
TORSDOF 11
ENDMDL
MODEL 3
REMARK minimizedAffinity -8.16763115
REMARK CNNscore 0.657418907
REMARK CNNaffinity 6.95685196
REMARK  11 active torsions:
REMARK  status: ('A' for Active; 'I' for Inactive)
REMARK    1  A    between atoms: C2_2  and  O2_4 
REMARK    2  A    between atoms: O2_4  and  C3_5 
REMARK    3  A    between atoms: C4_6  and  O3_7 
REMARK    4  A    between atoms: O3_7  and  C5_8 
REMARK    5  A    between atoms: C15_18  and  C16_19 
REMARK    6  A    between atoms: C20_23  and  C21_24 
REMARK    7  A    between atoms: C21_24  and  O4_27 
REMARK    8  A    between atoms: C24_29  and  O6_30 
REMARK    9  A    between atoms: C30_36  and  O7_37 
REMARK   10  A    between atoms: C36_44  and  O9_45 
REMARK   11  A    between atoms: C37_46  and  O10_47 
ROOT
HETATM    1  C5  UNL     1       0.251   8.094  13.206  1.00  0.00     0.133 C 
HETATM    2  C6  UNL     1       0.606   9.574  13.040  1.00  0.00     0.034 C 
HETATM    3  C7  UNL     1       0.466  10.337  14.350  1.00  0.00     0.013 C 
HETATM    4  C8  UNL     1      -0.937  10.174  14.920  1.00  0.00    -0.025 A 
HETATM    5  C9  UNL     1      -1.977  11.139  14.413  1.00  0.00     0.021 A 
HETATM    6  C10 UNL     1      -1.535  11.257  15.864  1.00  0.00    -0.027 A 
HETATM    7  C11 UNL     1      -0.642  12.451  16.225  1.00  0.00     0.011 C 
HETATM    8  C12 UNL     1      -1.231  13.569  17.105  1.00  0.00     0.011 C 
HETATM    9  C13 UNL     1      -2.626  13.280  17.662  1.00  0.00    -0.028 C 
HETATM   10  C14 UNL     1      -3.657  13.610  16.552  1.00  0.00     0.016 C 
HETATM   11  C15 UNL     1      -3.009  14.022  18.986  1.00  0.00     0.057 C 
HETATM   12  C24 UNL     1      -4.109  13.104  19.606  1.00  0.00     0.126 C 
HETATM   13  C25 UNL     1      -3.981  11.728  18.918  1.00  0.00     0.042 C 
HETATM   14  C26 UNL     1      -2.653  11.776  18.132  1.00  0.00    -0.029 C 
HETATM   15  C27 UNL     1      -1.520  11.388  19.135  1.00  0.00     0.016 C 
HETATM   16  C28 UNL     1      -2.613  10.841  16.892  1.00  0.00     0.006 C 
HETATM   17  C29 UNL     1      -2.506   9.357  17.246  1.00  0.00     0.038 C 
HETATM   18  C30 UNL     1      -2.551   8.476  15.997  1.00  0.00     0.124 C 
HETATM   19  C31 UNL     1      -1.274   8.683  15.153  1.00  0.00     0.034 C 
HETATM   20  C32 UNL     1      -1.180   7.867  13.805  1.00  0.00    -0.015 C 
HETATM   21  C33 UNL     1      -1.345   6.343  14.042  1.00  0.00     0.018 C 
HETATM   22  C34 UNL     1      -2.277   8.267  12.794  1.00  0.00     0.018 C 
ENDROOT
BRANCH   1  23
HETATM   23  O3  UNL     1       0.338   7.479  11.912  1.00  0.00    -0.352 OA
BRANCH  23  24
HETATM   24  C4  UNL     1       1.502   6.662  11.751  1.00  0.00     0.292 C 
HETATM   25  C3  UNL     1       2.402   7.310  10.671  1.00  0.00     0.218 C 
HETATM   26  C37 UNL     1       3.860   6.987  10.981  1.00  0.00     0.183 C 
HETATM   27  C36 UNL     1       4.246   7.565  12.352  1.00  0.00     0.173 C 
HETATM   28  C35 UNL     1       3.061   7.535  13.327  1.00  0.00     0.205 C 
HETATM   29  O8  UNL     1       2.169   6.467  13.007  1.00  0.00    -0.356 OA
BRANCH  25  30
HETATM   30  O2  UNL     1       2.046   6.741   9.387  1.00  0.00    -0.309 OA
BRANCH  30  31
HETATM   31  C2  UNL     1       1.587   7.603   8.444  1.00  0.00     0.255 C 
HETATM   32  C1  UNL     1       1.939   7.097   7.077  1.00  0.00     0.126 C 
HETATM   33  O1  UNL     1       0.942   8.623   8.648  1.00  0.00    -0.266 OA
ENDBRANCH  30  31
ENDBRANCH  25  30
BRANCH  26  34
HETATM   34  O10 UNL     1       4.735   7.530   9.981  1.00  0.00    -0.390 OA
HETATM   35  H60 UNL     1       5.633   7.241  10.236  1.00  0.00     0.210 HD
ENDBRANCH  26  34
BRANCH  27  36
HETATM   36  O9  UNL     1       5.355   6.793  12.841  1.00  0.00    -0.391 OA
HETATM   37  H58 UNL     1       5.587   7.135  13.723  1.00  0.00     0.210 HD
ENDBRANCH  27  36
ENDBRANCH  23  24
ENDBRANCH   1  23
BRANCH  18  38
HETATM   38  O7  UNL     1      -2.623   7.124  16.462  1.00  0.00    -0.395 OA
HETATM   39  H47 UNL     1      -3.470   7.022  16.932  1.00  0.00     0.210 HD
ENDBRANCH  18  38
BRANCH  11  40
HETATM   40  C16 UNL     1      -3.224  15.560  19.074  1.00  0.00     0.065 C 
HETATM   41  C17 UNL     1      -3.778  16.280  17.835  1.00  0.00     0.046 C 
HETATM   42  C18 UNL     1      -1.968  16.287  19.573  1.00  0.00     0.041 C 
HETATM   43  C19 UNL     1      -2.516  17.425  20.402  1.00  0.00     0.038 C 
HETATM   44  C20 UNL     1      -3.788  16.845  21.006  1.00  0.00     0.156 C 
HETATM   45  O5  UNL     1      -4.200  15.769  20.132  1.00  0.00    -0.372 OA
BRANCH  44  46
HETATM   46  C21 UNL     1      -3.659  16.313  22.464  1.00  0.00     0.076 C 
HETATM   47  C22 UNL     1      -4.435  14.998  22.636  1.00  0.00     0.048 C 
HETATM   48  C23 UNL     1      -4.175  17.347  23.472  1.00  0.00     0.048 C 
BRANCH  46  49
HETATM   49  O4  UNL     1      -2.281  16.067  22.779  1.00  0.00    -0.388 OA
HETATM   50  H35 UNL     1      -2.252  15.423  23.504  1.00  0.00     0.210 HD
ENDBRANCH  46  49
ENDBRANCH  44  46
ENDBRANCH  11  40
BRANCH  12  51
HETATM   51  O6  UNL     1      -5.437  13.561  19.415  1.00  0.00    -0.395 OA
HETATM   52  H37 UNL     1      -6.012  13.041  20.001  1.00  0.00     0.210 HD
ENDBRANCH  12  51
TORSDOF 11
ENDMDL
MODEL 4
REMARK minimizedAffinity -8.92844963
REMARK CNNscore 0.594365597
REMARK CNNaffinity 8.02733517
REMARK  11 active torsions:
REMARK  status: ('A' for Active; 'I' for Inactive)
REMARK    1  A    between atoms: C2_2  and  O2_4 
REMARK    2  A    between atoms: O2_4  and  C3_5 
REMARK    3  A    between atoms: C4_6  and  O3_7 
REMARK    4  A    between atoms: O3_7  and  C5_8 
REMARK    5  A    between atoms: C15_18  and  C16_19 
REMARK    6  A    between atoms: C20_23  and  C21_24 
REMARK    7  A    between atoms: C21_24  and  O4_27 
REMARK    8  A    between atoms: C24_29  and  O6_30 
REMARK    9  A    between atoms: C30_36  and  O7_37 
REMARK   10  A    between atoms: C36_44  and  O9_45 
REMARK   11  A    between atoms: C37_46  and  O10_47 
ROOT
HETATM    1  C5  UNL     1      -6.630   5.193  13.000  1.00  0.00     0.133 C 
HETATM    2  C6  UNL     1      -7.935   4.933  12.241  1.00  0.00     0.034 C 
HETATM    3  C7  UNL     1      -8.847   6.151  12.256  1.00  0.00     0.013 C 
HETATM    4  C8  UNL     1      -9.127   6.597  13.685  1.00  0.00    -0.025 A 
HETATM    5  C9  UNL     1     -10.272   5.911  14.383  1.00  0.00     0.021 A 
HETATM    6  C10 UNL     1     -10.428   7.381  14.026  1.00  0.00    -0.027 A 
HETATM    7  C11 UNL     1     -11.373   7.720  12.866  1.00  0.00     0.011 C 
HETATM    8  C12 UNL     1     -12.697   8.438  13.184  1.00  0.00     0.011 C 
HETATM    9  C13 UNL     1     -12.853   8.883  14.639  1.00  0.00    -0.028 C 
HETATM   10  C14 UNL     1     -13.321   7.655  15.462  1.00  0.00     0.016 C 
HETATM   11  C15 UNL     1     -13.812  10.095  14.894  1.00  0.00     0.057 C 
HETATM   12  C24 UNL     1     -13.293  10.684  16.243  1.00  0.00     0.126 C 
HETATM   13  C25 UNL     1     -11.866  10.135  16.451  1.00  0.00     0.042 C 
HETATM   14  C26 UNL     1     -11.472   9.478  15.110  1.00  0.00    -0.029 C 
HETATM   15  C27 UNL     1     -10.909  10.615  14.199  1.00  0.00     0.016 C 
HETATM   16  C28 UNL     1     -10.430   8.334  15.243  1.00  0.00     0.006 C 
HETATM   17  C29 UNL     1      -9.019   8.825  15.573  1.00  0.00     0.038 C 
HETATM   18  C30 UNL     1      -8.049   7.659  15.773  1.00  0.00     0.124 C 
HETATM   19  C31 UNL     1      -7.814   6.926  14.434  1.00  0.00     0.034 C 
HETATM   20  C32 UNL     1      -6.859   5.670  14.475  1.00  0.00    -0.015 C 
HETATM   21  C33 UNL     1      -5.470   6.022  15.068  1.00  0.00     0.018 C 
HETATM   22  C34 UNL     1      -7.424   4.528  15.348  1.00  0.00     0.018 C 
ENDROOT
BRANCH   1  23
HETATM   23  O3  UNL     1      -5.876   3.973  12.996  1.00  0.00    -0.352 OA
BRANCH  23  24
HETATM   24  C4  UNL     1      -4.937   3.890  11.919  1.00  0.00     0.292 C 
HETATM   25  C3  UNL     1      -3.527   4.186  12.484  1.00  0.00     0.218 C 
HETATM   26  C37 UNL     1      -2.494   3.415  11.668  1.00  0.00     0.183 C 
HETATM   27  C36 UNL     1      -2.759   1.905  11.779  1.00  0.00     0.173 C 
HETATM   28  C35 UNL     1      -4.260   1.606  11.897  1.00  0.00     0.205 C 
HETATM   29  O8  UNL     1      -5.031   2.622  11.253  1.00  0.00    -0.356 OA
BRANCH  25  30
HETATM   30  O2  UNL     1      -3.277   5.607  12.352  1.00  0.00    -0.309 OA
BRANCH  30  31
HETATM   31  C2  UNL     1      -2.579   6.199  13.355  1.00  0.00     0.255 C 
HETATM   32  C1  UNL     1      -2.646   7.690  13.212  1.00  0.00     0.126 C 
HETATM   33  O1  UNL     1      -2.007   5.628  14.275  1.00  0.00    -0.266 OA
ENDBRANCH  30  31
ENDBRANCH  25  30
BRANCH  26  34
HETATM   34  O10 UNL     1      -1.161   3.690  12.125  1.00  0.00    -0.390 OA
HETATM   35  H60 UNL     1      -0.573   3.192  11.526  1.00  0.00     0.210 HD
ENDBRANCH  26  34
BRANCH  27  36
HETATM   36  O9  UNL     1      -2.186   1.287  10.615  1.00  0.00    -0.391 OA
HETATM   37  H58 UNL     1      -2.375   0.333  10.664  1.00  0.00     0.210 HD
ENDBRANCH  27  36
ENDBRANCH  23  24
ENDBRANCH   1  23
BRANCH  18  38
HETATM   38  O7  UNL     1      -6.825   8.232  16.245  1.00  0.00    -0.395 OA
HETATM   39  H47 UNL     1      -7.005   8.626  17.116  1.00  0.00     0.210 HD
ENDBRANCH  18  38
BRANCH  11  40
HETATM   40  C16 UNL     1     -15.351  10.027  14.684  1.00  0.00     0.065 C 
HETATM   41  C17 UNL     1     -16.132  11.349  14.657  1.00  0.00     0.046 C 
HETATM   42  C18 UNL     1     -16.021   9.054  15.664  1.00  0.00     0.041 C 
HETATM   43  C19 UNL     1     -17.145   8.447  14.859  1.00  0.00     0.038 C 
HETATM   44  C20 UNL     1     -16.582   8.400  13.444  1.00  0.00     0.156 C 
HETATM   45  O5  UNL     1     -15.552   9.413  13.382  1.00  0.00    -0.372 OA
BRANCH  44  46
HETATM   46  C21 UNL     1     -15.995   7.028  12.997  1.00  0.00     0.076 C 
HETATM   47  C22 UNL     1     -17.079   6.157  12.343  1.00  0.00     0.048 C 
HETATM   48  C23 UNL     1     -15.387   6.279  14.189  1.00  0.00     0.048 C 
BRANCH  46  49
HETATM   49  O4  UNL     1     -14.943   7.230  12.043  1.00  0.00    -0.388 OA
HETATM   50  H35 UNL     1     -14.851   6.414  11.525  1.00  0.00     0.210 HD
ENDBRANCH  46  49
ENDBRANCH  44  46
ENDBRANCH  11  40
BRANCH  12  51
HETATM   51  O6  UNL     1     -14.064  10.328  17.378  1.00  0.00    -0.395 OA
HETATM   52  H37 UNL     1     -13.783  10.900  18.113  1.00  0.00     0.210 HD
ENDBRANCH  12  51
TORSDOF 11
ENDMDL
MODEL 5
REMARK minimizedAffinity -8.37848854
REMARK CNNscore 0.53527832
REMARK CNNaffinity 7.25892878
REMARK  11 active torsions:
REMARK  status: ('A' for Active; 'I' for Inactive)
REMARK    1  A    between atoms: C2_2  and  O2_4 
REMARK    2  A    between atoms: O2_4  and  C3_5 
REMARK    3  A    between atoms: C4_6  and  O3_7 
REMARK    4  A    between atoms: O3_7  and  C5_8 
REMARK    5  A    between atoms: C15_18  and  C16_19 
REMARK    6  A    between atoms: C20_23  and  C21_24 
REMARK    7  A    between atoms: C21_24  and  O4_27 
REMARK    8  A    between atoms: C24_29  and  O6_30 
REMARK    9  A    between atoms: C30_36  and  O7_37 
REMARK   10  A    between atoms: C36_44  and  O9_45 
REMARK   11  A    between atoms: C37_46  and  O10_47 
ROOT
HETATM    1  C5  UNL     1      -5.784   6.118  15.514  1.00  0.00     0.133 C 
HETATM    2  C6  UNL     1      -6.278   7.190  16.490  1.00  0.00     0.034 C 
HETATM    3  C7  UNL     1      -7.798   7.232  16.558  1.00  0.00     0.013 C 
HETATM    4  C8  UNL     1      -8.392   7.442  15.172  1.00  0.00    -0.025 A 
HETATM    5  C9  UNL     1      -8.517   8.871  14.711  1.00  0.00     0.021 A 
HETATM    6  C10 UNL     1      -9.794   8.099  15.006  1.00  0.00    -0.027 A 
HETATM    7  C11 UNL     1     -10.555   8.473  16.284  1.00  0.00     0.011 C 
HETATM    8  C12 UNL     1     -11.914   9.183  16.149  1.00  0.00     0.011 C 
HETATM    9  C13 UNL     1     -12.439   9.297  14.716  1.00  0.00    -0.028 C 
HETATM   10  C14 UNL     1     -11.739  10.511  14.052  1.00  0.00     0.016 C 
HETATM   11  C15 UNL     1     -13.991   9.421  14.555  1.00  0.00     0.057 C 
HETATM   12  C24 UNL     1     -14.244   8.893  13.108  1.00  0.00     0.126 C 
HETATM   13  C25 UNL     1     -12.990   8.092  12.700  1.00  0.00     0.042 C 
HETATM   14  C26 UNL     1     -12.161   7.925  13.993  1.00  0.00    -0.029 C 
HETATM   15  C27 UNL     1     -12.728   6.672  14.734  1.00  0.00     0.016 C 
HETATM   16  C28 UNL     1     -10.635   7.761  13.754  1.00  0.00     0.006 C 
HETATM   17  C29 UNL     1     -10.250   6.400  13.170  1.00  0.00     0.038 C 
HETATM   18  C30 UNL     1      -8.750   6.318  12.879  1.00  0.00     0.124 C 
HETATM   19  C31 UNL     1      -7.950   6.323  14.200  1.00  0.00     0.034 C 
HETATM   20  C32 UNL     1      -6.377   6.277  14.073  1.00  0.00    -0.015 C 
HETATM   21  C33 UNL     1      -5.903   5.057  13.240  1.00  0.00     0.018 C 
HETATM   22  C34 UNL     1      -5.805   7.527  13.369  1.00  0.00     0.018 C 
ENDROOT
BRANCH   1  23
HETATM   23  O3  UNL     1      -4.353   6.207  15.462  1.00  0.00    -0.352 OA
BRANCH  23  24
HETATM   24  C4  UNL     1      -3.858   6.623  14.185  1.00  0.00     0.292 C 
HETATM   25  C3  UNL     1      -2.846   7.772  14.410  1.00  0.00     0.218 C 
HETATM   26  C37 UNL     1      -1.793   7.730  13.307  1.00  0.00     0.183 C 
HETATM   27  C36 UNL     1      -1.035   6.394  13.357  1.00  0.00     0.173 C 
HETATM   28  C35 UNL     1      -1.948   5.248  13.813  1.00  0.00     0.205 C 
HETATM   29  O8  UNL     1      -3.307   5.512  13.462  1.00  0.00    -0.356 OA
BRANCH  25  30
HETATM   30  O2  UNL     1      -3.566   9.028  14.338  1.00  0.00    -0.309 OA
BRANCH  30  31
HETATM   31  C2  UNL     1      -3.200   9.993  15.220  1.00  0.00     0.255 C 
HETATM   32  C1  UNL     1      -4.061   9.917  16.445  1.00  0.00     0.126 C 
HETATM   33  O1  UNL     1      -2.281  10.789  15.081  1.00  0.00    -0.266 OA
ENDBRANCH  30  31
ENDBRANCH  25  30
BRANCH  26  34
HETATM   34  O10 UNL     1      -0.853   8.806  13.446  1.00  0.00    -0.390 OA
HETATM   35  H60 UNL     1      -0.250   8.724  12.682  1.00  0.00     0.210 HD
ENDBRANCH  26  34
BRANCH  27  36
HETATM   36  O9  UNL     1      -0.505   6.158  12.042  1.00  0.00    -0.391 OA
HETATM   37  H58 UNL     1      -0.048   5.298  12.058  1.00  0.00     0.210 HD
ENDBRANCH  27  36
ENDBRANCH  23  24
ENDBRANCH   1  23
BRANCH  18  38
HETATM   38  O7  UNL     1      -8.544   5.084  12.181  1.00  0.00    -0.395 OA
HETATM   39  H47 UNL     1      -9.012   5.150  11.330  1.00  0.00     0.210 HD
ENDBRANCH  18  38
BRANCH  11  40
HETATM   40  C16 UNL     1     -14.803  10.664  15.019  1.00  0.00     0.065 C 
HETATM   41  C17 UNL     1     -15.216  10.743  16.497  1.00  0.00     0.046 C 
HETATM   42  C18 UNL     1     -16.028  10.912  14.129  1.00  0.00     0.041 C 
HETATM   43  C19 UNL     1     -16.141  12.418  14.083  1.00  0.00     0.038 C 
HETATM   44  C20 UNL     1     -14.693  12.885  14.149  1.00  0.00     0.156 C 
HETATM   45  O5  UNL     1     -13.949  11.815  14.777  1.00  0.00    -0.372 OA
BRANCH  44  46
HETATM   46  C21 UNL     1     -14.038  13.245  12.783  1.00  0.00     0.076 C 
HETATM   47  C22 UNL     1     -13.082  14.439  12.934  1.00  0.00     0.048 C 
HETATM   48  C23 UNL     1     -15.105  13.574  11.733  1.00  0.00     0.048 C 
BRANCH  46  49
HETATM   49  O4  UNL     1     -13.287  12.128  12.287  1.00  0.00    -0.388 OA
HETATM   50  H35 UNL     1     -12.621  12.468  11.668  1.00  0.00     0.210 HD
ENDBRANCH  46  49
ENDBRANCH  44  46
ENDBRANCH  11  40
BRANCH  12  51
HETATM   51  O6  UNL     1     -14.448   9.905  12.138  1.00  0.00    -0.395 OA
HETATM   52  H37 UNL     1     -14.792   9.476  11.336  1.00  0.00     0.210 HD
ENDBRANCH  12  51
TORSDOF 11
ENDMDL
MODEL 6
REMARK minimizedAffinity -9.55100632
REMARK CNNscore 0.4492549
REMARK CNNaffinity 7.0410881
REMARK  11 active torsions:
REMARK  status: ('A' for Active; 'I' for Inactive)
REMARK    1  A    between atoms: C2_2  and  O2_4 
REMARK    2  A    between atoms: O2_4  and  C3_5 
REMARK    3  A    between atoms: C4_6  and  O3_7 
REMARK    4  A    between atoms: O3_7  and  C5_8 
REMARK    5  A    between atoms: C15_18  and  C16_19 
REMARK    6  A    between atoms: C20_23  and  C21_24 
REMARK    7  A    between atoms: C21_24  and  O4_27 
REMARK    8  A    between atoms: C24_29  and  O6_30 
REMARK    9  A    between atoms: C30_36  and  O7_37 
REMARK   10  A    between atoms: C36_44  and  O9_45 
REMARK   11  A    between atoms: C37_46  and  O10_47 
ROOT
HETATM    1  C5  UNL     1      -2.963   6.784  14.023  1.00  0.00     0.133 C 
HETATM    2  C6  UNL     1      -1.484   6.491  14.291  1.00  0.00     0.034 C 
HETATM    3  C7  UNL     1      -0.962   7.273  15.488  1.00  0.00     0.013 C 
HETATM    4  C8  UNL     1      -1.197   8.766  15.299  1.00  0.00    -0.025 A 
HETATM    5  C9  UNL     1      -0.138   9.514  14.533  1.00  0.00     0.021 A 
HETATM    6  C10 UNL     1      -0.287   9.804  16.018  1.00  0.00    -0.027 A 
HETATM    7  C11 UNL     1       0.807   9.262  16.947  1.00  0.00     0.011 C 
HETATM    8  C12 UNL     1       1.762  10.264  17.620  1.00  0.00     0.011 C 
HETATM    9  C13 UNL     1       1.405  11.736  17.404  1.00  0.00    -0.028 C 
HETATM   10  C14 UNL     1       1.947  12.154  16.012  1.00  0.00     0.016 C 
HETATM   11  C15 UNL     1       1.908  12.738  18.497  1.00  0.00     0.057 C 
HETATM   12  C24 UNL     1       0.916  13.936  18.367  1.00  0.00     0.126 C 
HETATM   13  C25 UNL     1      -0.319  13.412  17.603  1.00  0.00     0.042 C 
HETATM   14  C26 UNL     1      -0.157  11.877  17.550  1.00  0.00    -0.029 C 
HETATM   15  C27 UNL     1      -0.739  11.316  18.887  1.00  0.00     0.016 C 
HETATM   16  C28 UNL     1      -0.858  11.205  16.338  1.00  0.00     0.006 C 
HETATM   17  C29 UNL     1      -2.383  11.177  16.450  1.00  0.00     0.038 C 
HETATM   18  C30 UNL     1      -3.028  10.579  15.198  1.00  0.00     0.124 C 
HETATM   19  C31 UNL     1      -2.699   9.073  15.097  1.00  0.00     0.034 C 
HETATM   20  C32 UNL     1      -3.265   8.310  13.836  1.00  0.00    -0.015 C 
HETATM   21  C33 UNL     1      -4.803   8.465  13.712  1.00  0.00     0.018 C 
HETATM   22  C34 UNL     1      -2.671   8.837  12.512  1.00  0.00     0.018 C 
ENDROOT
BRANCH   1  23
HETATM   23  O3  UNL     1      -3.340   6.066  12.840  1.00  0.00    -0.352 OA
BRANCH  23  24
HETATM   24  C4  UNL     1      -3.152   4.652  12.952  1.00  0.00     0.292 C 
HETATM   25  C3  UNL     1      -4.324   3.949  12.224  1.00  0.00     0.218 C 
HETATM   26  C37 UNL     1      -3.834   2.618  11.663  1.00  0.00     0.183 C 
HETATM   27  C36 UNL     1      -2.703   2.861  10.650  1.00  0.00     0.173 C 
HETATM   28  C35 UNL     1      -1.849   4.074  11.042  1.00  0.00     0.205 C 
HETATM   29  O8  UNL     1      -1.861   4.265  12.458  1.00  0.00    -0.356 OA
BRANCH  25  30
HETATM   30  O2  UNL     1      -5.374   3.704  13.193  1.00  0.00    -0.309 OA
BRANCH  30  31
HETATM   31  C2  UNL     1      -6.563   4.322  12.973  1.00  0.00     0.255 C 
HETATM   32  C1  UNL     1      -7.660   3.303  12.893  1.00  0.00     0.126 C 
HETATM   33  O1  UNL     1      -6.747   5.529  12.892  1.00  0.00    -0.266 OA
ENDBRANCH  30  31
ENDBRANCH  25  30
BRANCH  26  34
HETATM   34  O10 UNL     1      -4.898   1.906  11.014  1.00  0.00    -0.390 OA
HETATM   35  H60 UNL     1      -4.506   1.058  10.727  1.00  0.00     0.210 HD
ENDBRANCH  26  34
BRANCH  27  36
HETATM   36  O9  UNL     1      -1.921   1.657  10.592  1.00  0.00    -0.391 OA
HETATM   37  H58 UNL     1      -1.185   1.814   9.973  1.00  0.00     0.210 HD
ENDBRANCH  27  36
ENDBRANCH  23  24
ENDBRANCH   1  23
BRANCH  18  38
HETATM   38  O7  UNL     1      -4.440  10.768  15.345  1.00  0.00    -0.395 OA
HETATM   39  H47 UNL     1      -4.607  11.727  15.340  1.00  0.00     0.210 HD
ENDBRANCH  18  38
BRANCH  11  40
HETATM   40  C16 UNL     1       3.410  13.070  18.726  1.00  0.00     0.065 C 
HETATM   41  C17 UNL     1       3.956  14.377  18.131  1.00  0.00     0.046 C 
HETATM   42  C18 UNL     1       4.323  11.903  18.329  1.00  0.00     0.041 C 
HETATM   43  C19 UNL     1       5.448  11.966  19.335  1.00  0.00     0.038 C 
HETATM   44  C20 UNL     1       4.765  12.472  20.599  1.00  0.00     0.156 C 
HETATM   45  O5  UNL     1       3.581  13.181  20.166  1.00  0.00    -0.372 OA
BRANCH  44  46
HETATM   46  C21 UNL     1       4.371  11.380  21.637  1.00  0.00     0.076 C 
HETATM   47  C22 UNL     1       2.897  11.526  22.049  1.00  0.00     0.048 C 
HETATM   48  C23 UNL     1       5.261  11.460  22.882  1.00  0.00     0.048 C 
BRANCH  46  49
HETATM   49  O4  UNL     1       4.552  10.074  21.070  1.00  0.00    -0.388 OA
HETATM   50  H35 UNL     1       3.983   9.457  21.557  1.00  0.00     0.210 HD
ENDBRANCH  46  49
ENDBRANCH  44  46
ENDBRANCH  11  40
BRANCH  12  51
HETATM   51  O6  UNL     1       1.425  15.051  17.657  1.00  0.00    -0.395 OA
HETATM   52  H37 UNL     1       0.820  15.796  17.810  1.00  0.00     0.210 HD
ENDBRANCH  12  51
TORSDOF 11
ENDMDL
MODEL 7
REMARK minimizedAffinity -8.41124058
REMARK CNNscore 0.393758565
REMARK CNNaffinity 7.80056572
REMARK  11 active torsions:
REMARK  status: ('A' for Active; 'I' for Inactive)
REMARK    1  A    between atoms: C2_2  and  O2_4 
REMARK    2  A    between atoms: O2_4  and  C3_5 
REMARK    3  A    between atoms: C4_6  and  O3_7 
REMARK    4  A    between atoms: O3_7  and  C5_8 
REMARK    5  A    between atoms: C15_18  and  C16_19 
REMARK    6  A    between atoms: C20_23  and  C21_24 
REMARK    7  A    between atoms: C21_24  and  O4_27 
REMARK    8  A    between atoms: C24_29  and  O6_30 
REMARK    9  A    between atoms: C30_36  and  O7_37 
REMARK   10  A    between atoms: C36_44  and  O9_45 
REMARK   11  A    between atoms: C37_46  and  O10_47 
ROOT
HETATM    1  C5  UNL     1      -6.426   5.108  12.996  1.00  0.00     0.133 C 
HETATM    2  C6  UNL     1      -7.661   4.867  12.122  1.00  0.00     0.034 C 
HETATM    3  C7  UNL     1      -8.601   6.064  12.133  1.00  0.00     0.013 C 
HETATM    4  C8  UNL     1      -9.003   6.419  13.558  1.00  0.00    -0.025 A 
HETATM    5  C9  UNL     1     -10.182   5.670  14.123  1.00  0.00     0.021 A 
HETATM    6  C10 UNL     1     -10.345   7.156  13.839  1.00  0.00    -0.027 A 
HETATM    7  C11 UNL     1     -11.205   7.543  12.628  1.00  0.00     0.011 C 
HETATM    8  C12 UNL     1     -12.567   8.215  12.879  1.00  0.00     0.011 C 
HETATM    9  C13 UNL     1     -12.848   8.571  14.340  1.00  0.00    -0.028 C 
HETATM   10  C14 UNL     1     -13.349   7.287  15.052  1.00  0.00     0.016 C 
HETATM   11  C15 UNL     1     -13.853   9.745  14.586  1.00  0.00     0.057 C 
HETATM   12  C24 UNL     1     -13.457  10.265  16.004  1.00  0.00     0.126 C 
HETATM   13  C25 UNL     1     -12.037   9.733  16.293  1.00  0.00     0.042 C 
HETATM   14  C26 UNL     1     -11.523   9.164  14.953  1.00  0.00    -0.029 C 
HETATM   15  C27 UNL     1     -10.918  10.364  14.156  1.00  0.00     0.016 C 
HETATM   16  C28 UNL     1     -10.466   8.035  15.104  1.00  0.00     0.006 C 
HETATM   17  C29 UNL     1      -9.099   8.535  15.573  1.00  0.00     0.038 C 
HETATM   18  C30 UNL     1      -8.119   7.379  15.783  1.00  0.00     0.124 C 
HETATM   19  C31 UNL     1      -7.762   6.730  14.427  1.00  0.00     0.034 C 
HETATM   20  C32 UNL     1      -6.782   5.493  14.473  1.00  0.00    -0.015 C 
HETATM   21  C33 UNL     1      -5.453   5.838  15.195  1.00  0.00     0.018 C 
HETATM   22  C34 UNL     1      -7.385   4.291  15.233  1.00  0.00     0.018 C 
ENDROOT
BRANCH   1  23
HETATM   23  O3  UNL     1      -5.644   3.905  12.984  1.00  0.00    -0.352 OA
BRANCH  23  24
HETATM   24  C4  UNL     1      -4.717   3.844  11.896  1.00  0.00     0.292 C 
HETATM   25  C3  UNL     1      -3.298   4.106  12.454  1.00  0.00     0.218 C 
HETATM   26  C37 UNL     1      -2.282   3.348  11.606  1.00  0.00     0.183 C 
HETATM   27  C36 UNL     1      -2.564   1.838  11.675  1.00  0.00     0.173 C 
HETATM   28  C35 UNL     1      -4.067   1.554  11.799  1.00  0.00     0.205 C 
HETATM   29  O8  UNL     1      -4.832   2.598  11.193  1.00  0.00    -0.356 OA
BRANCH  25  30
HETATM   30  O2  UNL     1      -3.032   5.528  12.363  1.00  0.00    -0.309 OA
BRANCH  30  31
HETATM   31  C2  UNL     1      -2.371   6.093  13.405  1.00  0.00     0.255 C 
HETATM   32  C1  UNL     1      -2.357   7.585  13.251  1.00  0.00     0.126 C 
HETATM   33  O1  UNL     1      -1.888   5.503  14.362  1.00  0.00    -0.266 OA
ENDBRANCH  30  31
ENDBRANCH  25  30
BRANCH  26  34
HETATM   34  O10 UNL     1      -0.942   3.594  12.058  1.00  0.00    -0.390 OA
HETATM   35  H60 UNL     1      -0.365   3.107  11.438  1.00  0.00     0.210 HD
ENDBRANCH  26  34
BRANCH  27  36
HETATM   36  O9  UNL     1      -2.009   1.249  10.488  1.00  0.00    -0.391 OA
HETATM   37  H58 UNL     1      -2.210   0.296  10.510  1.00  0.00     0.210 HD
ENDBRANCH  27  36
ENDBRANCH  23  24
ENDBRANCH   1  23
BRANCH  18  38
HETATM   38  O7  UNL     1      -6.950   7.947  16.383  1.00  0.00    -0.395 OA
HETATM   39  H47 UNL     1      -7.208   8.286  17.258  1.00  0.00     0.210 HD
ENDBRANCH  18  38
BRANCH  11  40
HETATM   40  C16 UNL     1     -15.369   9.659  14.250  1.00  0.00     0.065 C 
HETATM   41  C17 UNL     1     -16.135   8.406  14.703  1.00  0.00     0.046 C 
HETATM   42  C18 UNL     1     -15.642   9.919  12.763  1.00  0.00     0.041 C 
HETATM   43  C19 UNL     1     -16.964  10.650  12.762  1.00  0.00     0.038 C 
HETATM   44  C20 UNL     1     -16.923  11.461  14.051  1.00  0.00     0.156 C 
HETATM   45  O5  UNL     1     -15.995  10.782  14.928  1.00  0.00    -0.372 OA
BRANCH  44  46
HETATM   46  C21 UNL     1     -16.500  12.952  13.896  1.00  0.00     0.076 C 
HETATM   47  C22 UNL     1     -16.344  13.323  12.413  1.00  0.00     0.048 C 
HETATM   48  C23 UNL     1     -15.186  13.228  14.634  1.00  0.00     0.048 C 
BRANCH  46  49
HETATM   49  O4  UNL     1     -17.497  13.808  14.471  1.00  0.00    -0.388 OA
HETATM   50  H35 UNL     1     -17.412  14.683  14.059  1.00  0.00     0.210 HD
ENDBRANCH  46  49
ENDBRANCH  44  46
ENDBRANCH  11  40
BRANCH  12  51
HETATM   51  O6  UNL     1     -14.305   9.828  17.051  1.00  0.00    -0.395 OA
HETATM   52  H37 UNL     1     -14.098  10.361  17.837  1.00  0.00     0.210 HD
ENDBRANCH  12  51
TORSDOF 11
ENDMDL
MODEL 8
REMARK minimizedAffinity -7.57547665
REMARK CNNscore 0.381410301
REMARK CNNaffinity 6.69317627
REMARK  11 active torsions:
REMARK  status: ('A' for Active; 'I' for Inactive)
REMARK    1  A    between atoms: C2_2  and  O2_4 
REMARK    2  A    between atoms: O2_4  and  C3_5 
REMARK    3  A    between atoms: C4_6  and  O3_7 
REMARK    4  A    between atoms: O3_7  and  C5_8 
REMARK    5  A    between atoms: C15_18  and  C16_19 
REMARK    6  A    between atoms: C20_23  and  C21_24 
REMARK    7  A    between atoms: C21_24  and  O4_27 
REMARK    8  A    between atoms: C24_29  and  O6_30 
REMARK    9  A    between atoms: C30_36  and  O7_37 
REMARK   10  A    between atoms: C36_44  and  O9_45 
REMARK   11  A    between atoms: C37_46  and  O10_47 
ROOT
HETATM    1  C5  UNL     1       9.948  10.693  14.312  1.00  0.00     0.133 C 
HETATM    2  C6  UNL     1       9.489  10.325  12.898  1.00  0.00     0.034 C 
HETATM    3  C7  UNL     1       8.011  10.621  12.691  1.00  0.00     0.013 C 
HETATM    4  C8  UNL     1       7.167   9.909  13.740  1.00  0.00    -0.025 A 
HETATM    5  C9  UNL     1       6.778   8.487  13.427  1.00  0.00     0.021 A 
HETATM    6  C10 UNL     1       5.683   9.543  13.444  1.00  0.00    -0.027 A 
HETATM    7  C11 UNL     1       5.108   9.971  12.087  1.00  0.00     0.011 C 
HETATM    8  C12 UNL     1       3.663   9.566  11.742  1.00  0.00     0.011 C 
HETATM    9  C13 UNL     1       2.893   8.900  12.883  1.00  0.00    -0.028 C 
HETATM   10  C14 UNL     1       3.303   7.405  12.922  1.00  0.00     0.016 C 
HETATM   11  C15 UNL     1       1.333   9.025  12.832  1.00  0.00     0.057 C 
HETATM   12  C24 UNL     1       0.910   8.852  14.324  1.00  0.00     0.126 C 
HETATM   13  C25 UNL     1       2.172   9.102  15.177  1.00  0.00     0.042 C 
HETATM   14  C26 UNL     1       3.222   9.687  14.208  1.00  0.00    -0.029 C 
HETATM   15  C27 UNL     1       2.960  11.225  14.133  1.00  0.00     0.016 C 
HETATM   16  C28 UNL     1       4.694   9.414  14.624  1.00  0.00     0.006 C 
HETATM   17  C29 UNL     1       5.151  10.235  15.831  1.00  0.00     0.038 C 
HETATM   18  C30 UNL     1       6.577   9.873  16.250  1.00  0.00     0.124 C 
HETATM   19  C31 UNL     1       7.582  10.329  15.169  1.00  0.00     0.034 C 
HETATM   20  C32 UNL     1       9.102   9.998  15.434  1.00  0.00    -0.015 C 
HETATM   21  C33 UNL     1       9.586  10.564  16.795  1.00  0.00     0.018 C 
HETATM   22  C34 UNL     1       9.376   8.479  15.479  1.00  0.00     0.018 C 
ENDROOT
BRANCH   1  23
HETATM   23  O3  UNL     1      11.325  10.309  14.435  1.00  0.00    -0.352 OA
BRANCH  23  24
HETATM   24  C4  UNL     1      12.234  11.399  14.254  1.00  0.00     0.292 C 
HETATM   25  C3  UNL     1      13.195  11.433  15.466  1.00  0.00     0.218 C 
HETATM   26  C37 UNL     1      14.544  11.988  15.016  1.00  0.00     0.183 C 
HETATM   27  C36 UNL     1      15.150  11.078  13.936  1.00  0.00     0.173 C 
HETATM   28  C35 UNL     1      14.062  10.453  13.053  1.00  0.00     0.205 C 
HETATM   29  O8  UNL     1      12.911  11.298  12.992  1.00  0.00    -0.356 OA
BRANCH  25  30
HETATM   30  O2  UNL     1      12.626  12.312  16.468  1.00  0.00    -0.309 OA
BRANCH  30  31
HETATM   31  C2  UNL     1      12.969  12.067  17.760  1.00  0.00     0.255 C 
HETATM   32  C1  UNL     1      12.640  13.259  18.609  1.00  0.00     0.126 C 
HETATM   33  O1  UNL     1      13.436  11.025  18.199  1.00  0.00    -0.266 OA
ENDBRANCH  30  31
ENDBRANCH  25  30
BRANCH  26  34
HETATM   34  O10 UNL     1      15.460  12.081  16.117  1.00  0.00    -0.390 OA
HETATM   35  H60 UNL     1      16.271  12.480  15.747  1.00  0.00     0.210 HD
ENDBRANCH  26  34
BRANCH  27  36
HETATM   36  O9  UNL     1      16.060  11.881  13.167  1.00  0.00    -0.391 OA
HETATM   37  H58 UNL     1      16.427  11.318  12.461  1.00  0.00     0.210 HD
ENDBRANCH  27  36
ENDBRANCH  23  24
ENDBRANCH   1  23
BRANCH  18  38
HETATM   38  O7  UNL     1       6.823  10.567  17.478  1.00  0.00    -0.395 OA
HETATM   39  H47 UNL     1       6.213  10.205  18.144  1.00  0.00     0.210 HD
ENDBRANCH  18  38
BRANCH  11  40
HETATM   40  C16 UNL     1       0.454   8.333  11.751  1.00  0.00     0.065 C 
HETATM   41  C17 UNL     1      -0.991   8.824  11.577  1.00  0.00     0.046 C 
HETATM   42  C18 UNL     1       0.464   6.805  11.897  1.00  0.00     0.041 C 
HETATM   43  C19 UNL     1       0.399   6.307  10.472  1.00  0.00     0.038 C 
HETATM   44  C20 UNL     1       1.172   7.362   9.691  1.00  0.00     0.156 C 
HETATM   45  O5  UNL     1       1.118   8.573  10.480  1.00  0.00    -0.372 OA
BRANCH  44  46
HETATM   46  C21 UNL     1       2.656   7.012   9.373  1.00  0.00     0.076 C 
HETATM   47  C22 UNL     1       3.471   8.286   9.101  1.00  0.00     0.048 C 
HETATM   48  C23 UNL     1       2.750   6.076   8.163  1.00  0.00     0.048 C 
BRANCH  46  49
HETATM   49  O4  UNL     1       3.250   6.327  10.485  1.00  0.00    -0.388 OA
HETATM   50  H35 UNL     1       4.212   6.444  10.427  1.00  0.00     0.210 HD
ENDBRANCH  46  49
ENDBRANCH  44  46
ENDBRANCH  11  40
BRANCH  12  51
HETATM   51  O6  UNL     1       0.413   7.566  14.652  1.00  0.00    -0.395 OA
HETATM   52  H37 UNL     1      -0.002   7.627  15.529  1.00  0.00     0.210 HD
ENDBRANCH  12  51
TORSDOF 11
ENDMDL
MODEL 9
REMARK minimizedAffinity -8.67611122
REMARK CNNscore 0.370458305
REMARK CNNaffinity 6.72623968
REMARK  11 active torsions:
REMARK  status: ('A' for Active; 'I' for Inactive)
REMARK    1  A    between atoms: C2_2  and  O2_4 
REMARK    2  A    between atoms: O2_4  and  C3_5 
REMARK    3  A    between atoms: C4_6  and  O3_7 
REMARK    4  A    between atoms: O3_7  and  C5_8 
REMARK    5  A    between atoms: C15_18  and  C16_19 
REMARK    6  A    between atoms: C20_23  and  C21_24 
REMARK    7  A    between atoms: C21_24  and  O4_27 
REMARK    8  A    between atoms: C24_29  and  O6_30 
REMARK    9  A    between atoms: C30_36  and  O7_37 
REMARK   10  A    between atoms: C36_44  and  O9_45 
REMARK   11  A    between atoms: C37_46  and  O10_47 
ROOT
HETATM    1  C5  UNL     1       3.252   8.019  11.500  1.00  0.00     0.133 C 
HETATM    2  C6  UNL     1       4.265   8.896  10.758  1.00  0.00     0.034 C 
HETATM    3  C7  UNL     1       5.649   8.810  11.384  1.00  0.00     0.013 C 
HETATM    4  C8  UNL     1       5.595   9.171  12.863  1.00  0.00    -0.025 A 
HETATM    5  C9  UNL     1       5.695  10.637  13.193  1.00  0.00     0.021 A 
HETATM    6  C10 UNL     1       6.854   9.733  13.585  1.00  0.00    -0.027 A 
HETATM    7  C11 UNL     1       8.143   9.858  12.762  1.00  0.00     0.011 C 
HETATM    8  C12 UNL     1       9.386  10.471  13.432  1.00  0.00     0.011 C 
HETATM    9  C13 UNL     1       9.236  10.751  14.929  1.00  0.00    -0.028 C 
HETATM   10  C14 UNL     1       8.486  12.099  15.086  1.00  0.00     0.016 C 
HETATM   11  C15 UNL     1      10.560  10.775  15.765  1.00  0.00     0.057 C 
HETATM   12  C24 UNL     1      10.076  10.444  17.211  1.00  0.00     0.126 C 
HETATM   13  C25 UNL     1       8.674   9.811  17.079  1.00  0.00     0.042 C 
HETATM   14  C26 UNL     1       8.486   9.524  15.573  1.00  0.00    -0.029 C 
HETATM   15  C27 UNL     1       9.147   8.137  15.292  1.00  0.00     0.016 C 
HETATM   16  C28 UNL     1       7.004   9.515  15.107  1.00  0.00     0.006 C 
HETATM   17  C29 UNL     1       6.221   8.288  15.578  1.00  0.00     0.038 C 
HETATM   18  C30 UNL     1       4.751   8.366  15.163  1.00  0.00     0.124 C 
HETATM   19  C31 UNL     1       4.623   8.242  13.629  1.00  0.00     0.034 C 
HETATM   20  C32 UNL     1       3.165   8.338  13.031  1.00  0.00    -0.015 C 
HETATM   21  C33 UNL     1       2.213   7.292  13.668  1.00  0.00     0.018 C 
HETATM   22  C34 UNL     1       2.516   9.718  13.278  1.00  0.00     0.018 C 
ENDROOT
BRANCH   1  23
HETATM   23  O3  UNL     1       1.971   8.225  10.888  1.00  0.00    -0.352 OA
BRANCH  23  24
HETATM   24  C4  UNL     1       1.493   7.080  10.175  1.00  0.00     0.292 C 
HETATM   25  C3  UNL     1       2.566   5.969  10.270  1.00  0.00     0.218 C 
HETATM   26  C37 UNL     1       1.877   4.608  10.235  1.00  0.00     0.183 C 
HETATM   27  C36 UNL     1       0.925   4.473  11.435  1.00  0.00     0.173 C 
HETATM   28  C35 UNL     1       0.297   5.823  11.808  1.00  0.00     0.205 C 
HETATM   29  O8  UNL     1       0.206   6.672  10.663  1.00  0.00    -0.356 OA
BRANCH  25  30
HETATM   30  O2  UNL     1       3.443   6.091   9.123  1.00  0.00    -0.309 OA
BRANCH  30  31
HETATM   31  C2  UNL     1       2.861   6.015   7.898  1.00  0.00     0.255 C 
HETATM   32  C1  UNL     1       2.374   7.371   7.481  1.00  0.00     0.126 C 
HETATM   33  O1  UNL     1       2.771   5.015   7.200  1.00  0.00    -0.266 OA
ENDBRANCH  30  31
ENDBRANCH  25  30
BRANCH  26  34
HETATM   34  O10 UNL     1       2.836   3.540  10.276  1.00  0.00    -0.390 OA
HETATM   35  H60 UNL     1       2.312   2.719  10.209  1.00  0.00     0.210 HD
ENDBRANCH  26  34
BRANCH  27  36
HETATM   36  O9  UNL     1      -0.074   3.505  11.075  1.00  0.00    -0.391 OA
HETATM   37  H58 UNL     1      -0.698   3.435  11.820  1.00  0.00     0.210 HD
ENDBRANCH  27  36
ENDBRANCH  23  24
ENDBRANCH   1  23
BRANCH  18  38
HETATM   38  O7  UNL     1       4.094   7.266  15.804  1.00  0.00    -0.395 OA
HETATM   39  H47 UNL     1       4.144   7.418  16.764  1.00  0.00     0.210 HD
ENDBRANCH  18  38
BRANCH  11  40
HETATM   40  C16 UNL     1      11.652  11.870  15.606  1.00  0.00     0.065 C 
HETATM   41  C17 UNL     1      12.099  12.629  16.865  1.00  0.00     0.046 C 
HETATM   42  C18 UNL     1      11.301  12.874  14.499  1.00  0.00     0.041 C 
HETATM   43  C19 UNL     1      12.639  13.223  13.891  1.00  0.00     0.038 C 
HETATM   44  C20 UNL     1      13.435  11.931  14.019  1.00  0.00     0.156 C 
HETATM   45  O5  UNL     1      12.834  11.189  15.105  1.00  0.00    -0.372 OA
BRANCH  44  46
HETATM   46  C21 UNL     1      13.485  11.041  12.741  1.00  0.00     0.076 C 
HETATM   47  C22 UNL     1      14.936  10.815  12.290  1.00  0.00     0.048 C 
HETATM   48  C23 UNL     1      12.687  11.679  11.598  1.00  0.00     0.048 C 
BRANCH  46  49
HETATM   49  O4  UNL     1      12.892   9.762  13.009  1.00  0.00    -0.388 OA
HETATM   50  H35 UNL     1      13.247   9.129  12.364  1.00  0.00     0.210 HD
ENDBRANCH  46  49
ENDBRANCH  44  46
ENDBRANCH  11  40
BRANCH  12  51
HETATM   51  O6  UNL     1       9.965  11.567  18.068  1.00  0.00    -0.395 OA
HETATM   52  H37 UNL     1       9.860  11.233  18.976  1.00  0.00     0.210 HD
ENDBRANCH  12  51
TORSDOF 11
ENDMDL
