MODEL 1
REMARK minimizedAffinity -8.11926842
REMARK CNNscore 0.695174277
REMARK CNNaffinity 7.27900457
REMARK  13 active torsions:
REMARK  status: ('A' for Active; 'I' for Inactive)
REMARK    1  A    between atoms: C2_2  and  C3_3 
REMARK    2  A    between atoms: C2_2  and  C26_30 
REMARK    3  A    between atoms: C4_4  and  C5_5 
REMARK    4  A    between atoms: C5_5  and  C7_7 
REMARK    5  A    between atoms: C9_9  and  O1_10 
REMARK    6  A    between atoms: C20_21  and  O2_22 
REMARK    7  A    between atoms: C23_25  and  O3_26 
REMARK    8  A    between atoms: C25_28  and  O4_29 
REMARK    9  A    between atoms: C26_30  and  C28_32 
REMARK       I    between atoms: C28_32  and  N1_34 
REMARK   10  A    between atoms: N1_34  and  C29_35 
REMARK   11  A    between atoms: C29_35  and  C30_36 
REMARK   12  A    between atoms: C30_36  and  O6_37 
REMARK   13  A    between atoms: O6_37  and  S1_38 
ROOT
HETATM    1  C7  UNL     1      -2.735  52.123 -12.803  1.00  0.00     0.005 C 
HETATM    2  C8  UNL     1      -3.849  52.417 -11.756  1.00  0.00     0.038 C 
HETATM    3  C9  UNL     1      -3.174  53.201 -10.615  1.00  0.00     0.126 C 
HETATM    4  C10 UNL     1      -1.728  53.379 -11.073  1.00  0.00     0.059 C 
HETATM    5  C11 UNL     1      -1.434  52.108 -11.935  1.00  0.00    -0.015 C 
HETATM    6  C12 UNL     1      -1.301  50.777 -11.165  1.00  0.00     0.018 C 
HETATM    7  C13 UNL     1      -0.110  52.380 -12.679  1.00  0.00     0.123 A 
HETATM    8  C14 UNL     1       1.038  52.737 -11.711  1.00  0.00     0.122 A 
HETATM    9  C15 UNL     1       0.701  53.953 -10.809  1.00  0.00     0.046 C 
HETATM   10  C16 UNL     1       1.896  54.453  -9.905  1.00  0.00    -0.030 C 
HETATM   11  C17 UNL     1       2.387  53.336  -8.950  1.00  0.00     0.016 C 
HETATM   12  C18 UNL     1       3.107  54.870 -10.808  1.00  0.00     0.012 C 
HETATM   13  C19 UNL     1       3.760  56.212 -10.450  1.00  0.00     0.032 C 
HETATM   14  C20 UNL     1       3.863  56.467  -8.951  1.00  0.00     0.118 C 
HETATM   15  C21 UNL     1       2.523  56.311  -8.224  1.00  0.00     0.039 C 
HETATM   16  C22 UNL     1       1.413  55.710  -9.112  1.00  0.00     0.025 C 
HETATM   17  C23 UNL     1       0.114  55.460  -8.326  1.00  0.00     0.126 C 
HETATM   18  C24 UNL     1      -1.012  55.007  -9.258  1.00  0.00     0.071 C 
HETATM   19  C25 UNL     1      -0.643  53.737 -10.037  1.00  0.00     0.073 C 
HETATM   20 NA1  UNL     1      -0.748  51.894 -13.142  1.00  0.00    -0.420 Na
ATOM     21  HA1 UNL     1      -1.477  51.448 -13.699  1.00  0.00     0.153 HD
ENDROOT
BRANCH   1  22
HETATM   22  C5  UNL     1      -3.087  50.988 -13.806  1.00  0.00     0.009 C 
HETATM   23  C6  UNL     1      -2.930  49.544 -13.307  1.00  0.00     0.014 C 
BRANCH  22  24
HETATM   24  C4  UNL     1      -2.471  51.252 -15.164  1.00  0.00    -0.026 C 
HETATM   25  C3  UNL     1      -1.809  50.390 -15.952  1.00  0.00    -0.025 C 
BRANCH  25  26
HETATM   26  C2  UNL     1      -1.259  50.766 -17.318  1.00  0.00     0.016 C 
HETATM   27  C1  UNL     1       0.263  50.584 -17.284  1.00  0.00     0.015 C 
BRANCH  26  28
HETATM   28  C26 UNL     1      -1.949  49.922 -18.420  1.00  0.00     0.081 C 
HETATM   29  C27 UNL     1      -0.964  49.322 -19.429  1.00  0.00     0.020 C 
BRANCH  28  30
HETATM   30  C28 UNL     1      -2.962  50.761 -19.209  1.00  0.00     0.222 C 
HETATM   31  O5  UNL     1      -3.077  51.976 -19.085  1.00  0.00    -0.273 OA
HETATM   32  N1  UNL     1      -3.673  50.020 -20.133  1.00  0.00    -0.359 N 
HETATM   33  H46 UNL     1      -3.687  49.014 -20.022  1.00  0.00     0.162 HD
BRANCH  32  34
HETATM   34  C29 UNL     1      -4.768  50.605 -20.891  1.00  0.00     0.150 C 
BRANCH  34  35
HETATM   35  C30 UNL     1      -4.408  50.791 -22.358  1.00  0.00     0.212 C 
BRANCH  35  36
HETATM   36  O6  UNL     1      -3.747  52.031 -22.522  1.00  0.00    -0.255 OA
BRANCH  36  37
HETATM   37  S1  UNL     1      -2.291  51.992 -23.258  1.00  0.00     0.251 S 
HETATM   38  O7  UNL     1      -1.352  52.242 -22.167  1.00  0.00    -0.572 OA
HETATM   39  O8  UNL     1      -2.223  50.643 -23.817  1.00  0.00    -0.572 OA
HETATM   40  O9  UNL     1      -2.382  53.059 -24.250  1.00  0.00    -0.572 OA
ENDBRANCH  36  37
ENDBRANCH  35  36
ENDBRANCH  34  35
ENDBRANCH  32  34
ENDBRANCH  28  30
ENDBRANCH  26  28
ENDBRANCH  25  26
ENDBRANCH  22  24
ENDBRANCH   1  22
BRANCH   3  41
HETATM   41  O1  UNL     1      -3.238  52.481  -9.387  1.00  0.00    -0.395 OA
HETATM   42  H15 UNL     1      -4.183  52.368  -9.176  1.00  0.00     0.210 HD
ENDBRANCH   3  41
BRANCH  19  43
HETATM   43  O4  UNL     1      -0.525  52.688  -9.081  1.00  0.00    -0.389 OA
HETATM   44  H41 UNL     1      -1.444  52.425  -8.846  1.00  0.00     0.210 HD
ENDBRANCH  19  43
BRANCH  17  45
HETATM   45  O3  UNL     1      -0.313  56.676  -7.705  1.00  0.00    -0.395 OA
HETATM   46  H38 UNL     1       0.077  56.686  -6.812  1.00  0.00     0.210 HD
ENDBRANCH  17  45
BRANCH  14  47
HETATM   47  O2  UNL     1       4.817  55.582  -8.367  1.00  0.00    -0.396 OA
HETATM   48  H33 UNL     1       5.639  55.650  -8.879  1.00  0.00     0.210 HD
ENDBRANCH  14  47
TORSDOF 13
ENDMDL
MODEL 2
REMARK minimizedAffinity -7.92788839
REMARK CNNscore 0.680095553
REMARK CNNaffinity 7.40306854
REMARK  13 active torsions:
REMARK  status: ('A' for Active; 'I' for Inactive)
REMARK    1  A    between atoms: C2_2  and  C3_3 
REMARK    2  A    between atoms: C2_2  and  C26_30 
REMARK    3  A    between atoms: C4_4  and  C5_5 
REMARK    4  A    between atoms: C5_5  and  C7_7 
REMARK    5  A    between atoms: C9_9  and  O1_10 
REMARK    6  A    between atoms: C20_21  and  O2_22 
REMARK    7  A    between atoms: C23_25  and  O3_26 
REMARK    8  A    between atoms: C25_28  and  O4_29 
REMARK    9  A    between atoms: C26_30  and  C28_32 
REMARK       I    between atoms: C28_32  and  N1_34 
REMARK   10  A    between atoms: N1_34  and  C29_35 
REMARK   11  A    between atoms: C29_35  and  C30_36 
REMARK   12  A    between atoms: C30_36  and  O6_37 
REMARK   13  A    between atoms: O6_37  and  S1_38 
ROOT
HETATM    1  C7  UNL     1      -4.927  47.549 -22.233  1.00  0.00     0.005 C 
HETATM    2  C8  UNL     1      -6.076  47.379 -23.268  1.00  0.00     0.038 C 
HETATM    3  C9  UNL     1      -5.672  48.207 -24.503  1.00  0.00     0.126 C 
HETATM    4  C10 UNL     1      -4.292  48.765 -24.157  1.00  0.00     0.059 C 
HETATM    5  C11 UNL     1      -4.323  48.943 -22.604  1.00  0.00    -0.015 C 
HETATM    6  C12 UNL     1      -5.209  50.087 -22.066  1.00  0.00     0.018 C 
HETATM    7  C13 UNL     1      -2.868  49.201 -22.163  1.00  0.00     0.123 A 
HETATM    8  C14 UNL     1      -2.241  50.403 -22.901  1.00  0.00     0.122 A 
HETATM    9  C15 UNL     1      -2.287  50.246 -24.443  1.00  0.00     0.046 C 
HETATM   10  C16 UNL     1      -1.526  51.376 -25.243  1.00  0.00    -0.030 C 
HETATM   11  C17 UNL     1      -2.116  52.776 -24.939  1.00  0.00     0.016 C 
HETATM   12  C18 UNL     1      -0.016  51.398 -24.826  1.00  0.00     0.012 C 
HETATM   13  C19 UNL     1       0.984  51.473 -25.988  1.00  0.00     0.032 C 
HETATM   14  C20 UNL     1       0.541  52.388 -27.123  1.00  0.00     0.118 C 
HETATM   15  C21 UNL     1      -0.863  52.061 -27.643  1.00  0.00     0.039 C 
HETATM   16  C22 UNL     1      -1.615  51.038 -26.766  1.00  0.00     0.025 C 
HETATM   17  C23 UNL     1      -3.059  50.815 -27.247  1.00  0.00     0.126 C 
HETATM   18  C24 UNL     1      -3.732  49.690 -26.456  1.00  0.00     0.071 C 
HETATM   19  C25 UNL     1      -3.742  49.969 -24.947  1.00  0.00     0.073 C 
HETATM   20 NA1  UNL     1      -3.390  48.703 -21.583  1.00  0.00    -0.420 Na
ATOM     21  HA1 UNL     1      -3.921  48.070 -20.985  1.00  0.00     0.153 HD
ENDROOT
BRANCH   1  22
HETATM   22  C5  UNL     1      -5.319  47.166 -20.777  1.00  0.00     0.009 C 
HETATM   23  C6  UNL     1      -4.171  46.949 -19.780  1.00  0.00     0.014 C 
BRANCH  22  24
HETATM   24  C4  UNL     1      -6.372  46.078 -20.766  1.00  0.00    -0.026 C 
HETATM   25  C3  UNL     1      -6.653  45.211 -19.781  1.00  0.00    -0.025 C 
BRANCH  25  26
HETATM   26  C2  UNL     1      -7.763  44.176 -19.875  1.00  0.00     0.016 C 
HETATM   27  C1  UNL     1      -8.340  44.227 -21.295  1.00  0.00     0.015 C 
BRANCH  26  28
HETATM   28  C26 UNL     1      -7.218  42.777 -19.490  1.00  0.00     0.081 C 
HETATM   29  C27 UNL     1      -5.711  42.627 -19.724  1.00  0.00     0.020 C 
BRANCH  28  30
HETATM   30  C28 UNL     1      -7.920  41.670 -20.286  1.00  0.00     0.222 C 
HETATM   31  O5  UNL     1      -9.084  41.332 -20.096  1.00  0.00    -0.273 OA
HETATM   32  N1  UNL     1      -7.133  41.149 -21.295  1.00  0.00    -0.359 N 
HETATM   33  H46 UNL     1      -6.135  41.310 -21.246  1.00  0.00     0.162 HD
BRANCH  32  34
HETATM   34  C29 UNL     1      -7.568  40.005 -22.081  1.00  0.00     0.150 C 
BRANCH  34  35
HETATM   35  C30 UNL     1      -6.978  38.701 -21.562  1.00  0.00     0.212 C 
BRANCH  35  36
HETATM   36  O6  UNL     1      -5.846  38.360 -22.338  1.00  0.00    -0.255 OA
BRANCH  36  37
HETATM   37  S1  UNL     1      -4.429  38.219 -21.542  1.00  0.00     0.251 S 
HETATM   38  O7  UNL     1      -4.601  36.998 -20.757  1.00  0.00    -0.572 OA
HETATM   39  O8  UNL     1      -3.440  38.114 -22.613  1.00  0.00    -0.572 OA
HETATM   40  O9  UNL     1      -4.353  39.448 -20.760  1.00  0.00    -0.572 OA
ENDBRANCH  36  37
ENDBRANCH  35  36
ENDBRANCH  34  35
ENDBRANCH  32  34
ENDBRANCH  28  30
ENDBRANCH  26  28
ENDBRANCH  25  26
ENDBRANCH  22  24
ENDBRANCH   1  22
BRANCH   3  41
HETATM   41  O1  UNL     1      -6.603  49.257 -24.746  1.00  0.00    -0.395 OA
HETATM   42  H15 UNL     1      -7.465  48.834 -24.918  1.00  0.00     0.210 HD
ENDBRANCH   3  41
BRANCH  19  43
HETATM   43  O4  UNL     1      -4.581  51.103 -24.744  1.00  0.00    -0.389 OA
HETATM   44  H41 UNL     1      -5.507  50.776 -24.814  1.00  0.00     0.210 HD
ENDBRANCH  19  43
BRANCH  17  45
HETATM   45  O3  UNL     1      -3.053  50.420 -28.623  1.00  0.00    -0.395 OA
HETATM   46  H38 UNL     1      -3.137  51.236 -29.147  1.00  0.00     0.210 HD
ENDBRANCH  17  45
BRANCH  14  47
HETATM   47  O2  UNL     1       0.576  53.750 -26.699  1.00  0.00    -0.396 OA
HETATM   48  H33 UNL     1       1.452  53.920 -26.316  1.00  0.00     0.210 HD
ENDBRANCH  14  47
TORSDOF 13
ENDMDL
MODEL 3
REMARK minimizedAffinity -7.94212675
REMARK CNNscore 0.610470712
REMARK CNNaffinity 7.31684685
REMARK  13 active torsions:
REMARK  status: ('A' for Active; 'I' for Inactive)
REMARK    1  A    between atoms: C2_2  and  C3_3 
REMARK    2  A    between atoms: C2_2  and  C26_30 
REMARK    3  A    between atoms: C4_4  and  C5_5 
REMARK    4  A    between atoms: C5_5  and  C7_7 
REMARK    5  A    between atoms: C9_9  and  O1_10 
REMARK    6  A    between atoms: C20_21  and  O2_22 
REMARK    7  A    between atoms: C23_25  and  O3_26 
REMARK    8  A    between atoms: C25_28  and  O4_29 
REMARK    9  A    between atoms: C26_30  and  C28_32 
REMARK       I    between atoms: C28_32  and  N1_34 
REMARK   10  A    between atoms: N1_34  and  C29_35 
REMARK   11  A    between atoms: C29_35  and  C30_36 
REMARK   12  A    between atoms: C30_36  and  O6_37 
REMARK   13  A    between atoms: O6_37  and  S1_38 
ROOT
HETATM    1  C7  UNL     1      -4.696  47.544 -22.224  1.00  0.00     0.005 C 
HETATM    2  C8  UNL     1      -5.908  47.418 -23.192  1.00  0.00     0.038 C 
HETATM    3  C9  UNL     1      -5.557  48.254 -24.437  1.00  0.00     0.126 C 
HETATM    4  C10 UNL     1      -4.146  48.773 -24.166  1.00  0.00     0.059 C 
HETATM    5  C11 UNL     1      -4.081  48.929 -22.611  1.00  0.00    -0.015 C 
HETATM    6  C12 UNL     1      -4.904  50.086 -22.006  1.00  0.00     0.018 C 
HETATM    7  C13 UNL     1      -2.596  49.144 -22.254  1.00  0.00     0.123 A 
HETATM    8  C14 UNL     1      -1.983  50.342 -23.012  1.00  0.00     0.122 A 
HETATM    9  C15 UNL     1      -2.123  50.209 -24.550  1.00  0.00     0.046 C 
HETATM   10  C16 UNL     1      -1.382  51.332 -25.378  1.00  0.00    -0.030 C 
HETATM   11  C17 UNL     1      -1.918  52.742 -25.021  1.00  0.00     0.016 C 
HETATM   12  C18 UNL     1       0.150  51.311 -25.051  1.00  0.00     0.012 C 
HETATM   13  C19 UNL     1       1.081  51.379 -26.269  1.00  0.00     0.032 C 
HETATM   14  C20 UNL     1       0.595  52.322 -27.363  1.00  0.00     0.118 C 
HETATM   15  C21 UNL     1      -0.845  52.036 -27.804  1.00  0.00     0.039 C 
HETATM   16  C22 UNL     1      -1.570  51.019 -26.898  1.00  0.00     0.025 C 
HETATM   17  C23 UNL     1      -3.045  50.838 -27.295  1.00  0.00     0.126 C 
HETATM   18  C24 UNL     1      -3.699  49.719 -26.482  1.00  0.00     0.071 C 
HETATM   19  C25 UNL     1      -3.613  49.976 -24.970  1.00  0.00     0.073 C 
HETATM   20 NA1  UNL     1      -3.095  48.651 -21.651  1.00  0.00    -0.420 Na
ATOM     21  HA1 UNL     1      -3.606  48.022 -21.031  1.00  0.00     0.153 HD
ENDROOT
BRANCH   1  22
HETATM   22  C5  UNL     1      -5.012  47.150 -20.753  1.00  0.00     0.009 C 
HETATM   23  C6  UNL     1      -3.814  46.851 -19.839  1.00  0.00     0.014 C 
BRANCH  22  24
HETATM   24  C4  UNL     1      -6.119  46.118 -20.693  1.00  0.00    -0.026 C 
HETATM   25  C3  UNL     1      -7.164  46.077 -19.851  1.00  0.00    -0.025 C 
BRANCH  25  26
HETATM   26  C2  UNL     1      -8.235  45.000 -19.907  1.00  0.00     0.016 C 
HETATM   27  C1  UNL     1      -9.586  45.686 -20.140  1.00  0.00     0.015 C 
BRANCH  26  28
HETATM   28  C26 UNL     1      -7.884  43.958 -20.999  1.00  0.00     0.081 C 
HETATM   29  C27 UNL     1      -9.027  43.711 -21.991  1.00  0.00     0.020 C 
BRANCH  28  30
HETATM   30  C28 UNL     1      -7.515  42.605 -20.377  1.00  0.00     0.222 C 
HETATM   31  O5  UNL     1      -8.332  41.859 -19.846  1.00  0.00    -0.273 OA
HETATM   32  N1  UNL     1      -6.185  42.277 -20.550  1.00  0.00    -0.359 N 
HETATM   33  H46 UNL     1      -5.541  43.022 -20.788  1.00  0.00     0.162 HD
BRANCH  32  34
HETATM   34  C29 UNL     1      -5.609  41.096 -19.925  1.00  0.00     0.150 C 
BRANCH  34  35
HETATM   35  C30 UNL     1      -4.878  41.436 -18.635  1.00  0.00     0.212 C 
BRANCH  35  36
HETATM   36  O6  UNL     1      -4.182  40.293 -18.179  1.00  0.00    -0.255 OA
BRANCH  36  37
HETATM   37  S1  UNL     1      -2.584  40.472 -17.899  1.00  0.00     0.251 S 
HETATM   38  O7  UNL     1      -2.533  40.961 -16.523  1.00  0.00    -0.572 OA
HETATM   39  O8  UNL     1      -2.048  39.125 -18.081  1.00  0.00    -0.572 OA
HETATM   40  O9  UNL     1      -2.167  41.436 -18.911  1.00  0.00    -0.572 OA
ENDBRANCH  36  37
ENDBRANCH  35  36
ENDBRANCH  34  35
ENDBRANCH  32  34
ENDBRANCH  28  30
ENDBRANCH  26  28
ENDBRANCH  25  26
ENDBRANCH  22  24
ENDBRANCH   1  22
BRANCH   3  41
HETATM   41  O1  UNL     1      -6.474  49.330 -24.611  1.00  0.00    -0.395 OA
HETATM   42  H15 UNL     1      -7.354  48.931 -24.738  1.00  0.00     0.210 HD
ENDBRANCH   3  41
BRANCH  19  43
HETATM   43  O4  UNL     1      -4.409  51.126 -24.703  1.00  0.00    -0.389 OA
HETATM   44  H41 UNL     1      -5.345  50.822 -24.723  1.00  0.00     0.210 HD
ENDBRANCH  19  43
BRANCH  17  45
HETATM   45  O3  UNL     1      -3.129  50.464 -28.674  1.00  0.00    -0.395 OA
HETATM   46  H38 UNL     1      -3.224  51.290 -29.182  1.00  0.00     0.210 HD
ENDBRANCH  17  45
BRANCH  14  47
HETATM   47  O2  UNL     1       0.689  53.675 -26.924  1.00  0.00    -0.396 OA
HETATM   48  H33 UNL     1       1.591  53.819 -26.591  1.00  0.00     0.210 HD
ENDBRANCH  14  47
TORSDOF 13
ENDMDL
MODEL 4
REMARK minimizedAffinity -8.35893631
REMARK CNNscore 0.607984245
REMARK CNNaffinity 7.11044502
REMARK  13 active torsions:
REMARK  status: ('A' for Active; 'I' for Inactive)
REMARK    1  A    between atoms: C2_2  and  C3_3 
REMARK    2  A    between atoms: C2_2  and  C26_30 
REMARK    3  A    between atoms: C4_4  and  C5_5 
REMARK    4  A    between atoms: C5_5  and  C7_7 
REMARK    5  A    between atoms: C9_9  and  O1_10 
REMARK    6  A    between atoms: C20_21  and  O2_22 
REMARK    7  A    between atoms: C23_25  and  O3_26 
REMARK    8  A    between atoms: C25_28  and  O4_29 
REMARK    9  A    between atoms: C26_30  and  C28_32 
REMARK       I    between atoms: C28_32  and  N1_34 
REMARK   10  A    between atoms: N1_34  and  C29_35 
REMARK   11  A    between atoms: C29_35  and  C30_36 
REMARK   12  A    between atoms: C30_36  and  O6_37 
REMARK   13  A    between atoms: O6_37  and  S1_38 
ROOT
HETATM    1  C7  UNL     1      -4.682  47.643 -22.016  1.00  0.00     0.005 C 
HETATM    2  C8  UNL     1      -5.922  47.492 -22.944  1.00  0.00     0.038 C 
HETATM    3  C9  UNL     1      -5.592  48.262 -24.236  1.00  0.00     0.126 C 
HETATM    4  C10 UNL     1      -4.165  48.769 -24.028  1.00  0.00     0.059 C 
HETATM    5  C11 UNL     1      -4.055  48.997 -22.485  1.00  0.00    -0.015 C 
HETATM    6  C12 UNL     1      -4.843  50.195 -21.914  1.00  0.00     0.018 C 
HETATM    7  C13 UNL     1      -2.558  49.202 -22.178  1.00  0.00     0.123 A 
HETATM    8  C14 UNL     1      -1.947  50.351 -23.008  1.00  0.00     0.122 A 
HETATM    9  C15 UNL     1      -2.131  50.148 -24.534  1.00  0.00     0.046 C 
HETATM   10  C16 UNL     1      -1.395  51.218 -25.434  1.00  0.00    -0.030 C 
HETATM   11  C17 UNL     1      -1.897  52.652 -25.131  1.00  0.00     0.016 C 
HETATM   12  C18 UNL     1       0.145  51.185 -25.147  1.00  0.00     0.012 C 
HETATM   13  C19 UNL     1       1.044  51.180 -26.391  1.00  0.00     0.032 C 
HETATM   14  C20 UNL     1       0.544  52.078 -27.516  1.00  0.00     0.118 C 
HETATM   15  C21 UNL     1      -0.913  51.797 -27.905  1.00  0.00     0.039 C 
HETATM   16  C22 UNL     1      -1.629  50.837 -26.931  1.00  0.00     0.025 C 
HETATM   17  C23 UNL     1      -3.117  50.664 -27.281  1.00  0.00     0.126 C 
HETATM   18  C24 UNL     1      -3.766  49.595 -26.397  1.00  0.00     0.071 C 
HETATM   19  C25 UNL     1      -3.635  49.922 -24.903  1.00  0.00     0.073 C 
HETATM   20 NA1  UNL     1      -3.048  48.746 -21.539  1.00  0.00    -0.420 Na
ATOM     21  HA1 UNL     1      -3.552  48.157 -20.876  1.00  0.00     0.153 HD
ENDROOT
BRANCH   1  22
HETATM   22  C5  UNL     1      -4.964  47.323 -20.520  1.00  0.00     0.009 C 
HETATM   23  C6  UNL     1      -3.939  46.443 -19.790  1.00  0.00     0.014 C 
BRANCH  22  24
HETATM   24  C4  UNL     1      -6.405  46.908 -20.314  1.00  0.00    -0.026 C 
HETATM   25  C3  UNL     1      -7.366  47.564 -19.644  1.00  0.00    -0.025 C 
BRANCH  25  26
HETATM   26  C2  UNL     1      -8.795  47.058 -19.531  1.00  0.00     0.016 C 
HETATM   27  C1  UNL     1      -9.718  48.273 -19.380  1.00  0.00     0.015 C 
BRANCH  26  28
HETATM   28  C26 UNL     1      -9.145  46.177 -20.757  1.00  0.00     0.081 C 
HETATM   29  C27 UNL     1      -9.549  46.989 -21.992  1.00  0.00     0.020 C 
BRANCH  28  30
HETATM   30  C28 UNL     1     -10.299  45.218 -20.439  1.00  0.00     0.222 C 
HETATM   31  O5  UNL     1     -10.902  44.577 -21.293  1.00  0.00    -0.273 OA
HETATM   32  N1  UNL     1     -10.536  45.089 -19.084  1.00  0.00    -0.359 N 
HETATM   33  H46 UNL     1     -10.164  45.802 -18.469  1.00  0.00     0.162 HD
BRANCH  32  34
HETATM   34  C29 UNL     1     -11.668  44.326 -18.583  1.00  0.00     0.150 C 
BRANCH  34  35
HETATM   35  C30 UNL     1     -12.967  45.114 -18.667  1.00  0.00     0.212 C 
BRANCH  35  36
HETATM   36  O6  UNL     1     -13.546  45.198 -17.380  1.00  0.00    -0.255 OA
BRANCH  36  37
HETATM   37  S1  UNL     1     -13.782  46.698 -16.781  1.00  0.00     0.251 S 
HETATM   38  O7  UNL     1     -12.479  47.338 -16.947  1.00  0.00    -0.572 OA
HETATM   39  O8  UNL     1     -14.837  47.247 -17.631  1.00  0.00    -0.572 OA
HETATM   40  O9  UNL     1     -14.178  46.454 -15.398  1.00  0.00    -0.572 OA
ENDBRANCH  36  37
ENDBRANCH  35  36
ENDBRANCH  34  35
ENDBRANCH  32  34
ENDBRANCH  28  30
ENDBRANCH  26  28
ENDBRANCH  25  26
ENDBRANCH  22  24
ENDBRANCH   1  22
BRANCH   3  41
HETATM   41  O1  UNL     1      -6.495  49.345 -24.436  1.00  0.00    -0.395 OA
HETATM   42  H15 UNL     1      -7.386  48.956 -24.521  1.00  0.00     0.210 HD
ENDBRANCH   3  41
BRANCH  19  43
HETATM   43  O4  UNL     1      -4.405  51.098 -24.670  1.00  0.00    -0.389 OA
HETATM   44  H41 UNL     1      -5.346  50.810 -24.649  1.00  0.00     0.210 HD
ENDBRANCH  19  43
BRANCH  17  45
HETATM   45  O3  UNL     1      -3.245  50.226 -28.637  1.00  0.00    -0.395 OA
HETATM   46  H38 UNL     1      -3.340  51.028 -29.181  1.00  0.00     0.210 HD
ENDBRANCH  17  45
BRANCH  14  47
HETATM   47  O2  UNL     1       0.672  53.449 -27.144  1.00  0.00    -0.396 OA
HETATM   48  H33 UNL     1       1.584  53.592 -26.843  1.00  0.00     0.210 HD
ENDBRANCH  14  47
TORSDOF 13
ENDMDL
MODEL 5
REMARK minimizedAffinity -8.76447201
REMARK CNNscore 0.599900603
REMARK CNNaffinity 7.22979689
REMARK  13 active torsions:
REMARK  status: ('A' for Active; 'I' for Inactive)
REMARK    1  A    between atoms: C2_2  and  C3_3 
REMARK    2  A    between atoms: C2_2  and  C26_30 
REMARK    3  A    between atoms: C4_4  and  C5_5 
REMARK    4  A    between atoms: C5_5  and  C7_7 
REMARK    5  A    between atoms: C9_9  and  O1_10 
REMARK    6  A    between atoms: C20_21  and  O2_22 
REMARK    7  A    between atoms: C23_25  and  O3_26 
REMARK    8  A    between atoms: C25_28  and  O4_29 
REMARK    9  A    between atoms: C26_30  and  C28_32 
REMARK       I    between atoms: C28_32  and  N1_34 
REMARK   10  A    between atoms: N1_34  and  C29_35 
REMARK   11  A    between atoms: C29_35  and  C30_36 
REMARK   12  A    between atoms: C30_36  and  O6_37 
REMARK   13  A    between atoms: O6_37  and  S1_38 
ROOT
HETATM    1  C7  UNL     1      -4.728  47.626 -22.185  1.00  0.00     0.005 C 
HETATM    2  C8  UNL     1      -5.935  47.477 -23.157  1.00  0.00     0.038 C 
HETATM    3  C9  UNL     1      -5.573  48.279 -24.422  1.00  0.00     0.126 C 
HETATM    4  C10 UNL     1      -4.162  48.801 -24.156  1.00  0.00     0.059 C 
HETATM    5  C11 UNL     1      -4.106  48.998 -22.606  1.00  0.00    -0.015 C 
HETATM    6  C12 UNL     1      -4.930  50.173 -22.037  1.00  0.00     0.018 C 
HETATM    7  C13 UNL     1      -2.623  49.218 -22.245  1.00  0.00     0.123 A 
HETATM    8  C14 UNL     1      -2.002  50.393 -23.031  1.00  0.00     0.122 A 
HETATM    9  C15 UNL     1      -2.133  50.219 -24.566  1.00  0.00     0.046 C 
HETATM   10  C16 UNL     1      -1.383  51.317 -25.419  1.00  0.00    -0.030 C 
HETATM   11  C17 UNL     1      -1.916  52.738 -25.103  1.00  0.00     0.016 C 
HETATM   12  C18 UNL     1       0.147  51.300 -25.082  1.00  0.00     0.012 C 
HETATM   13  C19 UNL     1       1.086  51.333 -26.296  1.00  0.00     0.032 C 
HETATM   14  C20 UNL     1       0.610  52.247 -27.418  1.00  0.00     0.118 C 
HETATM   15  C21 UNL     1      -0.829  51.955 -27.860  1.00  0.00     0.039 C 
HETATM   16  C22 UNL     1      -1.563  50.965 -26.931  1.00  0.00     0.025 C 
HETATM   17  C23 UNL     1      -3.036  50.778 -27.333  1.00  0.00     0.126 C 
HETATM   18  C24 UNL     1      -3.698  49.682 -26.493  1.00  0.00     0.071 C 
HETATM   19  C25 UNL     1      -3.620  49.979 -24.989  1.00  0.00     0.073 C 
HETATM   20 NA1  UNL     1      -3.127  48.742 -21.632  1.00  0.00    -0.420 Na
ATOM     21  HA1 UNL     1      -3.644  48.132 -20.999  1.00  0.00     0.153 HD
ENDROOT
BRANCH   1  22
HETATM   22  C5  UNL     1      -5.054  47.271 -20.706  1.00  0.00     0.009 C 
HETATM   23  C6  UNL     1      -4.059  46.362 -19.972  1.00  0.00     0.014 C 
BRANCH  22  24
HETATM   24  C4  UNL     1      -6.505  46.867 -20.551  1.00  0.00    -0.026 C 
HETATM   25  C3  UNL     1      -7.361  47.217 -19.578  1.00  0.00    -0.025 C 
BRANCH  25  26
HETATM   26  C2  UNL     1      -8.813  46.769 -19.546  1.00  0.00     0.016 C 
HETATM   27  C1  UNL     1      -8.946  45.667 -18.487  1.00  0.00     0.015 C 
BRANCH  26  28
HETATM   28  C26 UNL     1      -9.738  47.983 -19.280  1.00  0.00     0.081 C 
HETATM   29  C27 UNL     1      -9.347  48.782 -18.032  1.00  0.00     0.020 C 
BRANCH  28  30
HETATM   30  C28 UNL     1     -11.196  47.541 -19.103  1.00  0.00     0.222 C 
HETATM   31  O5  UNL     1     -11.801  47.611 -18.038  1.00  0.00    -0.273 OA
HETATM   32  N1  UNL     1     -11.784  47.133 -20.285  1.00  0.00    -0.359 N 
HETATM   33  H46 UNL     1     -11.175  46.892 -21.057  1.00  0.00     0.162 HD
BRANCH  32  34
HETATM   34  C29 UNL     1     -13.119  46.558 -20.308  1.00  0.00     0.150 C 
BRANCH  34  35
HETATM   35  C30 UNL     1     -14.099  47.427 -21.084  1.00  0.00     0.212 C 
BRANCH  35  36
HETATM   36  O6  UNL     1     -13.610  47.625 -22.396  1.00  0.00    -0.255 OA
BRANCH  36  37
HETATM   37  S1  UNL     1     -14.438  46.901 -23.602  1.00  0.00     0.251 S 
HETATM   38  O7  UNL     1     -15.329  47.955 -24.081  1.00  0.00    -0.572 OA
HETATM   39  O8  UNL     1     -13.397  46.514 -24.551  1.00  0.00    -0.572 OA
HETATM   40  O9  UNL     1     -15.103  45.786 -22.937  1.00  0.00    -0.572 OA
ENDBRANCH  36  37
ENDBRANCH  35  36
ENDBRANCH  34  35
ENDBRANCH  32  34
ENDBRANCH  28  30
ENDBRANCH  26  28
ENDBRANCH  25  26
ENDBRANCH  22  24
ENDBRANCH   1  22
BRANCH   3  41
HETATM   41  O1  UNL     1      -6.486  49.353 -24.630  1.00  0.00    -0.395 OA
HETATM   42  H15 UNL     1      -7.367  48.954 -24.751  1.00  0.00     0.210 HD
ENDBRANCH   3  41
BRANCH  19  43
HETATM   43  O4  UNL     1      -4.414  51.139 -24.758  1.00  0.00    -0.389 OA
HETATM   44  H41 UNL     1      -5.352  50.838 -24.774  1.00  0.00     0.210 HD
ENDBRANCH  19  43
BRANCH  17  45
HETATM   45  O3  UNL     1      -3.113  50.367 -28.702  1.00  0.00    -0.395 OA
HETATM   46  H38 UNL     1      -3.202  51.179 -29.232  1.00  0.00     0.210 HD
ENDBRANCH  17  45
BRANCH  14  47
HETATM   47  O2  UNL     1       0.705  53.612 -27.014  1.00  0.00    -0.396 OA
HETATM   48  H33 UNL     1       1.605  53.761 -26.680  1.00  0.00     0.210 HD
ENDBRANCH  14  47
TORSDOF 13
ENDMDL
MODEL 6
REMARK minimizedAffinity -8.33640194
REMARK CNNscore 0.531608522
REMARK CNNaffinity 7.23258543
REMARK  13 active torsions:
REMARK  status: ('A' for Active; 'I' for Inactive)
REMARK    1  A    between atoms: C2_2  and  C3_3 
REMARK    2  A    between atoms: C2_2  and  C26_30 
REMARK    3  A    between atoms: C4_4  and  C5_5 
REMARK    4  A    between atoms: C5_5  and  C7_7 
REMARK    5  A    between atoms: C9_9  and  O1_10 
REMARK    6  A    between atoms: C20_21  and  O2_22 
REMARK    7  A    between atoms: C23_25  and  O3_26 
REMARK    8  A    between atoms: C25_28  and  O4_29 
REMARK    9  A    between atoms: C26_30  and  C28_32 
REMARK       I    between atoms: C28_32  and  N1_34 
REMARK   10  A    between atoms: N1_34  and  C29_35 
REMARK   11  A    between atoms: C29_35  and  C30_36 
REMARK   12  A    between atoms: C30_36  and  O6_37 
REMARK   13  A    between atoms: O6_37  and  S1_38 
ROOT
HETATM    1  C7  UNL     1      -4.050  47.740 -21.905  1.00  0.00     0.005 C 
HETATM    2  C8  UNL     1      -5.362  47.590 -22.728  1.00  0.00     0.038 C 
HETATM    3  C9  UNL     1      -5.142  48.372 -24.038  1.00  0.00     0.126 C 
HETATM    4  C10 UNL     1      -3.705  48.884 -23.944  1.00  0.00     0.059 C 
HETATM    5  C11 UNL     1      -3.469  49.100 -22.413  1.00  0.00    -0.015 C 
HETATM    6  C12 UNL     1      -4.213  50.291 -21.770  1.00  0.00     0.018 C 
HETATM    7  C13 UNL     1      -1.953  49.311 -22.229  1.00  0.00     0.123 A 
HETATM    8  C14 UNL     1      -1.417  50.469 -23.097  1.00  0.00     0.122 A 
HETATM    9  C15 UNL     1      -1.726  50.277 -24.604  1.00  0.00     0.046 C 
HETATM   10  C16 UNL     1      -1.071  51.357 -25.553  1.00  0.00    -0.030 C 
HETATM   11  C17 UNL     1      -1.552  52.786 -25.198  1.00  0.00     0.016 C 
HETATM   12  C18 UNL     1       0.488  51.330 -25.394  1.00  0.00     0.012 C 
HETATM   13  C19 UNL     1       1.281  51.338 -26.708  1.00  0.00     0.032 C 
HETATM   14  C20 UNL     1       0.686  52.242 -27.781  1.00  0.00     0.118 C 
HETATM   15  C21 UNL     1      -0.796  51.957 -28.051  1.00  0.00     0.039 C 
HETATM   16  C22 UNL     1      -1.426  50.986 -27.029  1.00  0.00     0.025 C 
HETATM   17  C23 UNL     1      -2.937  50.809 -27.256  1.00  0.00     0.126 C 
HETATM   18  C24 UNL     1      -3.507  49.730 -26.331  1.00  0.00     0.071 C 
HETATM   19  C25 UNL     1      -3.254  50.046 -24.850  1.00  0.00     0.073 C 
HETATM   20 NA1  UNL     1      -2.387  48.848 -21.555  1.00  0.00    -0.420 Na
ATOM     21  HA1 UNL     1      -2.832  48.251 -20.858  1.00  0.00     0.153 HD
ENDROOT
BRANCH   1  22
HETATM   22  C5  UNL     1      -4.206  47.408 -20.393  1.00  0.00     0.009 C 
HETATM   23  C6  UNL     1      -3.897  45.967 -19.960  1.00  0.00     0.014 C 
BRANCH  22  24
HETATM   24  C4  UNL     1      -5.505  47.961 -19.846  1.00  0.00    -0.026 C 
HETATM   25  C3  UNL     1      -6.330  47.398 -18.950  1.00  0.00    -0.025 C 
BRANCH  25  26
HETATM   26  C2  UNL     1      -7.600  48.069 -18.452  1.00  0.00     0.016 C 
HETATM   27  C1  UNL     1      -7.819  49.343 -19.276  1.00  0.00     0.015 C 
BRANCH  26  28
HETATM   28  C26 UNL     1      -8.791  47.079 -18.533  1.00  0.00     0.081 C 
HETATM   29  C27 UNL     1     -10.105  47.745 -18.957  1.00  0.00     0.020 C 
BRANCH  28  30
HETATM   30  C28 UNL     1      -9.037  46.396 -17.181  1.00  0.00     0.222 C 
HETATM   31  O5  UNL     1      -8.485  46.738 -16.140  1.00  0.00    -0.273 OA
HETATM   32  N1  UNL     1     -10.004  45.412 -17.242  1.00  0.00    -0.359 N 
HETATM   33  H46 UNL     1     -10.243  45.040 -18.153  1.00  0.00     0.162 HD
BRANCH  32  34
HETATM   34  C29 UNL     1     -10.292  44.562 -16.098  1.00  0.00     0.150 C 
BRANCH  34  35
HETATM   35  C30 UNL     1     -11.424  45.120 -15.246  1.00  0.00     0.212 C 
BRANCH  35  36
HETATM   36  O6  UNL     1     -12.653  44.929 -15.920  1.00  0.00    -0.255 OA
BRANCH  36  37
HETATM   37  S1  UNL     1     -13.428  46.275 -16.423  1.00  0.00     0.251 S 
HETATM   38  O7  UNL     1     -14.424  46.502 -15.379  1.00  0.00    -0.572 OA
HETATM   39  O8  UNL     1     -12.370  47.282 -16.478  1.00  0.00    -0.572 OA
HETATM   40  O9  UNL     1     -13.971  45.890 -17.721  1.00  0.00    -0.572 OA
ENDBRANCH  36  37
ENDBRANCH  35  36
ENDBRANCH  34  35
ENDBRANCH  32  34
ENDBRANCH  28  30
ENDBRANCH  26  28
ENDBRANCH  25  26
ENDBRANCH  22  24
ENDBRANCH   1  22
BRANCH   3  41
HETATM   41  O1  UNL     1      -6.063  49.452 -24.154  1.00  0.00    -0.395 OA
HETATM   42  H15 UNL     1      -6.956  49.059 -24.168  1.00  0.00     0.210 HD
ENDBRANCH   3  41
BRANCH  19  43
HETATM   43  O4  UNL     1      -4.007  51.216 -24.545  1.00  0.00    -0.389 OA
HETATM   44  H41 UNL     1      -4.942  50.924 -24.450  1.00  0.00     0.210 HD
ENDBRANCH  19  43
BRANCH  17  45
HETATM   45  O3  UNL     1      -3.174  50.381 -28.601  1.00  0.00    -0.395 OA
HETATM   46  H38 UNL     1      -3.317  51.186 -29.129  1.00  0.00     0.210 HD
ENDBRANCH  17  45
BRANCH  14  47
HETATM   47  O2  UNL     1       0.838  53.611 -27.410  1.00  0.00    -0.396 OA
HETATM   48  H33 UNL     1       1.772  53.756 -27.184  1.00  0.00     0.210 HD
ENDBRANCH  14  47
TORSDOF 13
ENDMDL
MODEL 7
REMARK minimizedAffinity -7.76058102
REMARK CNNscore 0.456596226
REMARK CNNaffinity 6.26642275
REMARK  13 active torsions:
REMARK  status: ('A' for Active; 'I' for Inactive)
REMARK    1  A    between atoms: C2_2  and  C3_3 
REMARK    2  A    between atoms: C2_2  and  C26_30 
REMARK    3  A    between atoms: C4_4  and  C5_5 
REMARK    4  A    between atoms: C5_5  and  C7_7 
REMARK    5  A    between atoms: C9_9  and  O1_10 
REMARK    6  A    between atoms: C20_21  and  O2_22 
REMARK    7  A    between atoms: C23_25  and  O3_26 
REMARK    8  A    between atoms: C25_28  and  O4_29 
REMARK    9  A    between atoms: C26_30  and  C28_32 
REMARK       I    between atoms: C28_32  and  N1_34 
REMARK   10  A    between atoms: N1_34  and  C29_35 
REMARK   11  A    between atoms: C29_35  and  C30_36 
REMARK   12  A    between atoms: C30_36  and  O6_37 
REMARK   13  A    between atoms: O6_37  and  S1_38 
ROOT
HETATM    1  C7  UNL     1     -13.908  45.844 -28.144  1.00  0.00     0.005 C 
HETATM    2  C8  UNL     1     -13.726  47.092 -27.232  1.00  0.00     0.038 C 
HETATM    3  C9  UNL     1     -12.462  47.815 -27.737  1.00  0.00     0.126 C 
HETATM    4  C10 UNL     1     -12.006  46.997 -28.944  1.00  0.00     0.059 C 
HETATM    5  C11 UNL     1     -12.448  45.534 -28.611  1.00  0.00    -0.015 C 
HETATM    6  C12 UNL     1     -11.655  44.818 -27.497  1.00  0.00     0.018 C 
HETATM    7  C13 UNL     1     -12.303  44.724 -29.915  1.00  0.00     0.123 A 
HETATM    8  C14 UNL     1     -10.875  44.811 -30.497  1.00  0.00     0.122 A 
HETATM    9  C15 UNL     1     -10.423  46.273 -30.751  1.00  0.00     0.046 C 
HETATM   10  C16 UNL     1      -9.031  46.413 -31.484  1.00  0.00    -0.030 C 
HETATM   11  C17 UNL     1      -7.893  45.750 -30.667  1.00  0.00     0.016 C 
HETATM   12  C18 UNL     1      -9.089  45.699 -32.878  1.00  0.00     0.012 C 
HETATM   13  C19 UNL     1      -8.513  46.504 -34.051  1.00  0.00     0.032 C 
HETATM   14  C20 UNL     1      -7.254  47.289 -33.700  1.00  0.00     0.118 C 
HETATM   15  C21 UNL     1      -7.431  48.185 -32.469  1.00  0.00     0.039 C 
HETATM   16  C22 UNL     1      -8.754  47.933 -31.716  1.00  0.00     0.025 C 
HETATM   17  C23 UNL     1      -8.852  48.764 -30.425  1.00  0.00     0.126 C 
HETATM   18  C24 UNL     1     -10.231  48.611 -29.778  1.00  0.00     0.071 C 
HETATM   19  C25 UNL     1     -10.562  47.146 -29.460  1.00  0.00     0.073 C 
HETATM   20 NA1  UNL     1     -13.015  44.497 -29.370  1.00  0.00    -0.420 Na
ATOM     21  HA1 UNL     1     -13.859  44.306 -28.830  1.00  0.00     0.153 HD
ENDROOT
BRANCH   1  22
HETATM   22  C5  UNL     1     -14.848  44.755 -27.552  1.00  0.00     0.009 C 
HETATM   23  C6  UNL     1     -15.845  44.095 -28.516  1.00  0.00     0.014 C 
BRANCH  22  24
HETATM   24  C4  UNL     1     -15.453  45.214 -26.242  1.00  0.00    -0.026 C 
HETATM   25  C3  UNL     1     -16.678  44.947 -25.760  1.00  0.00    -0.025 C 
BRANCH  25  26
HETATM   26  C2  UNL     1     -17.166  45.443 -24.408  1.00  0.00     0.016 C 
HETATM   27  C1  UNL     1     -16.295  46.636 -23.997  1.00  0.00     0.015 C 
BRANCH  26  28
HETATM   28  C26 UNL     1     -18.675  45.787 -24.481  1.00  0.00     0.081 C 
HETATM   29  C27 UNL     1     -18.953  47.294 -24.491  1.00  0.00     0.020 C 
BRANCH  28  30
HETATM   30  C28 UNL     1     -19.439  45.187 -23.294  1.00  0.00     0.222 C 
HETATM   31  O5  UNL     1     -19.264  45.534 -22.131  1.00  0.00    -0.273 OA
HETATM   32  N1  UNL     1     -20.403  44.274 -23.679  1.00  0.00    -0.359 N 
HETATM   33  H46 UNL     1     -20.335  43.879 -24.608  1.00  0.00     0.162 HD
BRANCH  32  34
HETATM   34  C29 UNL     1     -21.147  43.501 -22.697  1.00  0.00     0.150 C 
BRANCH  34  35
HETATM   35  C30 UNL     1     -20.271  43.071 -21.529  1.00  0.00     0.212 C 
BRANCH  35  36
HETATM   36  O6  UNL     1     -20.876  43.479 -20.318  1.00  0.00    -0.255 OA
BRANCH  36  37
HETATM   37  S1  UNL     1     -21.567  42.309 -19.414  1.00  0.00     0.251 S 
HETATM   38  O7  UNL     1     -22.195  43.049 -18.322  1.00  0.00    -0.572 OA
HETATM   39  O8  UNL     1     -22.509  41.674 -20.333  1.00  0.00    -0.572 OA
HETATM   40  O9  UNL     1     -20.439  41.471 -19.022  1.00  0.00    -0.572 OA
ENDBRANCH  36  37
ENDBRANCH  35  36
ENDBRANCH  34  35
ENDBRANCH  32  34
ENDBRANCH  28  30
ENDBRANCH  26  28
ENDBRANCH  25  26
ENDBRANCH  22  24
ENDBRANCH   1  22
BRANCH   3  41
HETATM   41  O1  UNL     1     -11.453  47.849 -26.732  1.00  0.00    -0.395 OA
HETATM   42  H15 UNL     1     -11.822  48.349 -25.980  1.00  0.00     0.210 HD
ENDBRANCH   3  41
BRANCH  19  43
HETATM   43  O4  UNL     1      -9.644  46.727 -28.454  1.00  0.00    -0.389 OA
HETATM   44  H41 UNL     1      -9.969  47.112 -27.608  1.00  0.00     0.210 HD
ENDBRANCH  19  43
BRANCH  17  45
HETATM   45  O3  UNL     1      -8.680  50.151 -30.731  1.00  0.00    -0.395 OA
HETATM   46  H38 UNL     1      -7.730  50.343 -30.633  1.00  0.00     0.210 HD
ENDBRANCH  17  45
BRANCH  14  47
HETATM   47  O2  UNL     1      -6.165  46.396 -33.475  1.00  0.00    -0.396 OA
HETATM   48  H33 UNL     1      -6.109  45.797 -34.237  1.00  0.00     0.210 HD
ENDBRANCH  14  47
TORSDOF 13
ENDMDL
MODEL 8
REMARK minimizedAffinity -9.51468372
REMARK CNNscore 0.454876751
REMARK CNNaffinity 6.86008787
REMARK  13 active torsions:
REMARK  status: ('A' for Active; 'I' for Inactive)
REMARK    1  A    between atoms: C2_2  and  C3_3 
REMARK    2  A    between atoms: C2_2  and  C26_30 
REMARK    3  A    between atoms: C4_4  and  C5_5 
REMARK    4  A    between atoms: C5_5  and  C7_7 
REMARK    5  A    between atoms: C9_9  and  O1_10 
REMARK    6  A    between atoms: C20_21  and  O2_22 
REMARK    7  A    between atoms: C23_25  and  O3_26 
REMARK    8  A    between atoms: C25_28  and  O4_29 
REMARK    9  A    between atoms: C26_30  and  C28_32 
REMARK       I    between atoms: C28_32  and  N1_34 
REMARK   10  A    between atoms: N1_34  and  C29_35 
REMARK   11  A    between atoms: C29_35  and  C30_36 
REMARK   12  A    between atoms: C30_36  and  O6_37 
REMARK   13  A    between atoms: O6_37  and  S1_38 
ROOT
HETATM    1  C7  UNL     1      -5.033  47.592 -22.264  1.00  0.00     0.005 C 
HETATM    2  C8  UNL     1      -6.201  47.450 -23.282  1.00  0.00     0.038 C 
HETATM    3  C9  UNL     1      -5.783  48.243 -24.535  1.00  0.00     0.126 C 
HETATM    4  C10 UNL     1      -4.379  48.754 -24.216  1.00  0.00     0.059 C 
HETATM    5  C11 UNL     1      -4.383  48.957 -22.665  1.00  0.00    -0.015 C 
HETATM    6  C12 UNL     1      -5.218  50.142 -22.134  1.00  0.00     0.018 C 
HETATM    7  C13 UNL     1      -2.913  49.166 -22.247  1.00  0.00     0.123 A 
HETATM    8  C14 UNL     1      -2.252  50.333 -23.012  1.00  0.00     0.122 A 
HETATM    9  C15 UNL     1      -2.323  50.153 -24.550  1.00  0.00     0.046 C 
HETATM   10  C16 UNL     1      -1.531  51.242 -25.377  1.00  0.00    -0.030 C 
HETATM   11  C17 UNL     1      -2.064  52.668 -25.088  1.00  0.00     0.016 C 
HETATM   12  C18 UNL     1      -0.016  51.213 -24.979  1.00  0.00     0.012 C 
HETATM   13  C19 UNL     1       0.971  51.234 -26.155  1.00  0.00     0.032 C 
HETATM   14  C20 UNL     1       0.548  52.147 -27.299  1.00  0.00     0.118 C 
HETATM   15  C21 UNL     1      -0.874  51.864 -27.796  1.00  0.00     0.039 C 
HETATM   16  C22 UNL     1      -1.653  50.884 -26.893  1.00  0.00     0.025 C 
HETATM   17  C23 UNL     1      -3.110  50.708 -27.353  1.00  0.00     0.126 C 
HETATM   18  C24 UNL     1      -3.815  49.622 -26.536  1.00  0.00     0.071 C 
HETATM   19  C25 UNL     1      -3.795  49.924 -25.031  1.00  0.00     0.073 C 
HETATM   20 NA1  UNL     1      -3.446  48.697 -21.652  1.00  0.00    -0.420 Na
ATOM     21  HA1 UNL     1      -3.992  48.094 -21.037  1.00  0.00     0.153 HD
ENDROOT
BRANCH   1  22
HETATM   22  C5  UNL     1      -5.420  47.247 -20.798  1.00  0.00     0.009 C 
HETATM   23  C6  UNL     1      -4.603  46.149 -20.101  1.00  0.00     0.014 C 
BRANCH  22  24
HETATM   24  C4  UNL     1      -6.920  47.100 -20.652  1.00  0.00    -0.026 C 
HETATM   25  C3  UNL     1      -7.774  47.926 -20.029  1.00  0.00    -0.025 C 
BRANCH  25  26
HETATM   26  C2  UNL     1      -9.275  47.686 -19.974  1.00  0.00     0.016 C 
HETATM   27  C1  UNL     1      -9.509  46.179 -19.818  1.00  0.00     0.015 C 
BRANCH  26  28
HETATM   28  C26 UNL     1      -9.905  48.522 -18.832  1.00  0.00     0.081 C 
HETATM   29  C27 UNL     1      -8.882  49.359 -18.056  1.00  0.00     0.020 C 
BRANCH  28  30
HETATM   30  C28 UNL     1     -10.625  47.622 -17.819  1.00  0.00     0.222 C 
HETATM   31  O5  UNL     1     -10.092  47.182 -16.805  1.00  0.00    -0.273 OA
HETATM   32  N1  UNL     1     -11.958  47.426 -18.123  1.00  0.00    -0.359 N 
HETATM   33  H46 UNL     1     -12.261  47.624 -19.068  1.00  0.00     0.162 HD
BRANCH  32  34
HETATM   34  C29 UNL     1     -12.781  46.503 -17.357  1.00  0.00     0.150 C 
BRANCH  34  35
HETATM   35  C30 UNL     1     -14.265  46.705 -17.630  1.00  0.00     0.212 C 
BRANCH  35  36
HETATM   36  O6  UNL     1     -14.678  47.939 -17.075  1.00  0.00    -0.255 OA
BRANCH  36  37
HETATM   37  S1  UNL     1     -15.389  48.997 -18.094  1.00  0.00     0.251 S 
HETATM   38  O7  UNL     1     -14.406  49.150 -19.164  1.00  0.00    -0.572 OA
HETATM   39  O8  UNL     1     -16.618  48.316 -18.496  1.00  0.00    -0.572 OA
HETATM   40  O9  UNL     1     -15.591  50.182 -17.268  1.00  0.00    -0.572 OA
ENDBRANCH  36  37
ENDBRANCH  35  36
ENDBRANCH  34  35
ENDBRANCH  32  34
ENDBRANCH  28  30
ENDBRANCH  26  28
ENDBRANCH  25  26
ENDBRANCH  22  24
ENDBRANCH   1  22
BRANCH   3  41
HETATM   41  O1  UNL     1      -6.677  49.323 -24.783  1.00  0.00    -0.395 OA
HETATM   42  H15 UNL     1      -7.556  48.931 -24.938  1.00  0.00     0.210 HD
ENDBRANCH   3  41
BRANCH  19  43
HETATM   43  O4  UNL     1      -4.587  51.092 -24.836  1.00  0.00    -0.389 OA
HETATM   44  H41 UNL     1      -5.526  50.798 -24.889  1.00  0.00     0.210 HD
ENDBRANCH  19  43
BRANCH  17  45
HETATM   45  O3  UNL     1      -3.136  50.292 -28.722  1.00  0.00    -0.395 OA
HETATM   46  H38 UNL     1      -3.197  51.102 -29.259  1.00  0.00     0.210 HD
ENDBRANCH  17  45
BRANCH  14  47
HETATM   47  O2  UNL     1       0.639  53.512 -26.897  1.00  0.00    -0.396 OA
HETATM   48  H33 UNL     1       1.526  53.656 -26.528  1.00  0.00     0.210 HD
ENDBRANCH  14  47
TORSDOF 13
ENDMDL
MODEL 9
REMARK minimizedAffinity -9.53774738
REMARK CNNscore 0.454691082
REMARK CNNaffinity 7.33802462
REMARK  13 active torsions:
REMARK  status: ('A' for Active; 'I' for Inactive)
REMARK    1  A    between atoms: C2_2  and  C3_3 
REMARK    2  A    between atoms: C2_2  and  C26_30 
REMARK    3  A    between atoms: C4_4  and  C5_5 
REMARK    4  A    between atoms: C5_5  and  C7_7 
REMARK    5  A    between atoms: C9_9  and  O1_10 
REMARK    6  A    between atoms: C20_21  and  O2_22 
REMARK    7  A    between atoms: C23_25  and  O3_26 
REMARK    8  A    between atoms: C25_28  and  O4_29 
REMARK    9  A    between atoms: C26_30  and  C28_32 
REMARK       I    between atoms: C28_32  and  N1_34 
REMARK   10  A    between atoms: N1_34  and  C29_35 
REMARK   11  A    between atoms: C29_35  and  C30_36 
REMARK   12  A    between atoms: C30_36  and  O6_37 
REMARK   13  A    between atoms: O6_37  and  S1_38 
ROOT
HETATM    1  C7  UNL     1      -4.964  47.614 -22.256  1.00  0.00     0.005 C 
HETATM    2  C8  UNL     1      -6.132  47.464 -23.274  1.00  0.00     0.038 C 
HETATM    3  C9  UNL     1      -5.721  48.267 -24.524  1.00  0.00     0.126 C 
HETATM    4  C10 UNL     1      -4.322  48.789 -24.203  1.00  0.00     0.059 C 
HETATM    5  C11 UNL     1      -4.327  48.986 -22.652  1.00  0.00    -0.015 C 
HETATM    6  C12 UNL     1      -5.173  50.161 -22.116  1.00  0.00     0.018 C 
HETATM    7  C13 UNL     1      -2.859  49.207 -22.233  1.00  0.00     0.123 A 
HETATM    8  C14 UNL     1      -2.208  50.382 -22.994  1.00  0.00     0.122 A 
HETATM    9  C15 UNL     1      -2.279  50.208 -24.533  1.00  0.00     0.046 C 
HETATM   10  C16 UNL     1      -1.497  51.307 -25.356  1.00  0.00    -0.030 C 
HETATM   11  C17 UNL     1      -2.043  52.727 -25.061  1.00  0.00     0.016 C 
HETATM   12  C18 UNL     1       0.018  51.291 -24.959  1.00  0.00     0.012 C 
HETATM   13  C19 UNL     1       1.004  51.325 -26.135  1.00  0.00     0.032 C 
HETATM   14  C20 UNL     1       0.572  52.239 -27.275  1.00  0.00     0.118 C 
HETATM   15  C21 UNL     1      -0.848  51.946 -27.773  1.00  0.00     0.039 C 
HETATM   16  C22 UNL     1      -1.617  50.955 -26.874  1.00  0.00     0.025 C 
HETATM   17  C23 UNL     1      -3.073  50.767 -27.333  1.00  0.00     0.126 C 
HETATM   18  C24 UNL     1      -3.767  49.671 -26.520  1.00  0.00     0.071 C 
HETATM   19  C25 UNL     1      -3.749  49.968 -25.014  1.00  0.00     0.073 C 
HETATM   20 NA1  UNL     1      -3.387  48.730 -21.641  1.00  0.00    -0.420 Na
ATOM     21  HA1 UNL     1      -3.927  48.120 -21.028  1.00  0.00     0.153 HD
ENDROOT
BRANCH   1  22
HETATM   22  C5  UNL     1      -5.348  47.259 -20.791  1.00  0.00     0.009 C 
HETATM   23  C6  UNL     1      -6.763  47.634 -20.331  1.00  0.00     0.014 C 
BRANCH  22  24
HETATM   24  C4  UNL     1      -4.249  47.660 -19.830  1.00  0.00    -0.026 C 
HETATM   25  C3  UNL     1      -4.296  48.592 -18.865  1.00  0.00    -0.025 C 
BRANCH  25  26
HETATM   26  C2  UNL     1      -3.129  48.887 -17.936  1.00  0.00     0.016 C 
HETATM   27  C1  UNL     1      -1.849  48.371 -18.602  1.00  0.00     0.015 C 
BRANCH  26  28
HETATM   28  C26 UNL     1      -3.079  50.401 -17.611  1.00  0.00     0.081 C 
HETATM   29  C27 UNL     1      -2.287  51.217 -18.639  1.00  0.00     0.020 C 
BRANCH  28  30
HETATM   30  C28 UNL     1      -2.442  50.653 -16.237  1.00  0.00     0.222 C 
HETATM   31  O5  UNL     1      -1.265  50.962 -16.083  1.00  0.00    -0.273 OA
HETATM   32  N1  UNL     1      -3.351  50.576 -15.199  1.00  0.00    -0.359 N 
HETATM   33  H46 UNL     1      -4.229  50.104 -15.374  1.00  0.00     0.162 HD
BRANCH  32  34
HETATM   34  C29 UNL     1      -2.923  50.658 -13.812  1.00  0.00     0.150 C 
BRANCH  34  35
HETATM   35  C30 UNL     1      -2.867  52.097 -13.318  1.00  0.00     0.212 C 
BRANCH  35  36
HETATM   36  O6  UNL     1      -2.562  52.105 -11.938  1.00  0.00    -0.255 OA
BRANCH  36  37
HETATM   37  S1  UNL     1      -3.729  52.647 -10.933  1.00  0.00     0.251 S 
HETATM   38  O7  UNL     1      -3.008  52.918  -9.691  1.00  0.00    -0.572 OA
HETATM   39  O8  UNL     1      -4.239  53.838 -11.608  1.00  0.00    -0.572 OA
HETATM   40  O9  UNL     1      -4.669  51.533 -10.870  1.00  0.00    -0.572 OA
ENDBRANCH  36  37
ENDBRANCH  35  36
ENDBRANCH  34  35
ENDBRANCH  32  34
ENDBRANCH  28  30
ENDBRANCH  26  28
ENDBRANCH  25  26
ENDBRANCH  22  24
ENDBRANCH   1  22
BRANCH   3  41
HETATM   41  O1  UNL     1      -6.625  49.340 -24.768  1.00  0.00    -0.395 OA
HETATM   42  H15 UNL     1      -7.501  48.940 -24.924  1.00  0.00     0.210 HD
ENDBRANCH   3  41
BRANCH  19  43
HETATM   43  O4  UNL     1      -4.552  51.127 -24.814  1.00  0.00    -0.389 OA
HETATM   44  H41 UNL     1      -5.487  50.826 -24.868  1.00  0.00     0.210 HD
ENDBRANCH  19  43
BRANCH  17  45
HETATM   45  O3  UNL     1      -3.096  50.357 -28.704  1.00  0.00    -0.395 OA
HETATM   46  H38 UNL     1      -3.164  51.169 -29.237  1.00  0.00     0.210 HD
ENDBRANCH  17  45
BRANCH  14  47
HETATM   47  O2  UNL     1       0.651  53.604 -26.867  1.00  0.00    -0.396 OA
HETATM   48  H33 UNL     1       1.537  53.753 -26.498  1.00  0.00     0.210 HD
ENDBRANCH  14  47
TORSDOF 13
ENDMDL
