MODEL 1
REMARK minimizedAffinity -10.1596794
REMARK  2 active torsions:
REMARK  status: ('A' for Active; 'I' for Inactive)
REMARK    1  A    between atoms: C14_15  and  C15_16 
REMARK    2  A    between atoms: C19_21  and  O3_22 
ROOT
HETATM    1  C1  UNL     1       0.502  51.008 -27.059  1.00  0.00     0.023 C 
HETATM    2  C2  UNL     1      -0.545  51.822 -26.268  1.00  0.00     0.017 C 
HETATM    3  C3  UNL     1      -1.573  52.360 -27.282  1.00  0.00     0.023 C 
HETATM    4  C4  UNL     1       0.207  53.003 -25.641  1.00  0.00     0.135 C 
HETATM    5  O1  UNL     1       0.421  54.051 -26.251  1.00  0.00    -0.297 OA
HETATM    6  C5  UNL     1       0.766  52.793 -24.258  1.00  0.00     0.080 C 
HETATM    7  C6  UNL     1      -0.307  52.402 -23.248  1.00  0.00     0.017 C 
HETATM    8  C7  UNL     1      -1.588  51.710 -23.835  1.00  0.00    -0.035 C 
HETATM    9  C8  UNL     1      -2.606  52.835 -24.126  1.00  0.00     0.016 C 
HETATM   10  C9  UNL     1      -2.127  50.669 -22.762  1.00  0.00     0.003 C 
HETATM   11  C10 UNL     1      -2.460  51.294 -21.381  1.00  0.00     0.006 C 
HETATM   12  C11 UNL     1      -2.811  50.263 -20.296  1.00  0.00     0.006 C 
HETATM   13  C12 UNL     1      -3.916  49.340 -20.790  1.00  0.00    -0.000 C 
HETATM   14  C13 UNL     1      -4.540  48.359 -19.800  1.00  0.00     0.008 C 
HETATM   15  C14 UNL     1      -4.732  48.666 -18.310  1.00  0.00     0.030 C 
HETATM   16  C18 UNL     1      -5.836  47.647 -17.886  1.00  0.00     0.040 C 
HETATM   17  C19 UNL     1      -6.372  47.006 -19.189  1.00  0.00     0.127 C 
HETATM   18  C20 UNL     1      -5.975  48.010 -20.288  1.00  0.00    -0.013 C 
HETATM   19  C21 UNL     1      -6.999  49.184 -20.230  1.00  0.00     0.018 C 
HETATM   20  C22 UNL     1      -5.951  47.502 -21.748  1.00  0.00     0.013 C 
HETATM   21  C23 UNL     1      -4.572  47.447 -22.436  1.00  0.00     0.011 C 
HETATM   22  C24 UNL     1      -3.494  48.553 -22.090  1.00  0.00    -0.032 C 
HETATM   23  C25 UNL     1      -2.185  47.724 -21.827  1.00  0.00     0.016 C 
HETATM   24  C26 UNL     1      -3.238  49.647 -23.258  1.00  0.00    -0.032 C 
HETATM   25  C27 UNL     1      -4.584  50.354 -23.586  1.00  0.00     0.016 C 
HETATM   26  C28 UNL     1      -2.723  48.989 -24.568  1.00  0.00     0.011 C 
HETATM   27  C29 UNL     1      -2.267  49.984 -25.639  1.00  0.00     0.007 C 
HETATM   28  C30 UNL     1      -1.163  50.929 -25.131  1.00  0.00     0.009 C 
ENDROOT
BRANCH  15  29
HETATM   29  C15 UNL     1      -3.491  48.536 -17.450  1.00  0.00     0.083 A 
HETATM   30  C16 UNL     1      -2.950  49.745 -16.745  1.00  0.00     0.049 C 
HETATM   31  C17 UNL     1      -3.076  47.165 -16.945  1.00  0.00     0.207 A 
HETATM   32  O2  UNL     1      -2.459  47.759 -18.089  1.00  0.00    -0.375 OA
ENDBRANCH  15  29
BRANCH  17  33
HETATM   33  O3  UNL     1      -5.727  45.752 -19.398  1.00  0.00    -0.395 OA
HETATM   34  H30 UNL     1      -5.977  45.172 -18.658  1.00  0.00     0.210 HD
ENDBRANCH  17  33
TORSDOF 2
ENDMDL
MODEL 2
REMARK minimizedAffinity -9.61651134
REMARK  2 active torsions:
REMARK  status: ('A' for Active; 'I' for Inactive)
REMARK    1  A    between atoms: C14_15  and  C15_16 
REMARK    2  A    between atoms: C19_21  and  O3_22 
ROOT
HETATM    1  C1  UNL     1      -8.642  48.474 -20.498  1.00  0.00     0.023 C 
HETATM    2  C2  UNL     1      -7.340  47.734 -20.873  1.00  0.00     0.017 C 
HETATM    3  C3  UNL     1      -7.726  46.556 -21.789  1.00  0.00     0.023 C 
HETATM    4  C4  UNL     1      -6.761  47.182 -19.564  1.00  0.00     0.135 C 
HETATM    5  O1  UNL     1      -7.121  46.108 -19.082  1.00  0.00    -0.297 OA
HETATM    6  C5  UNL     1      -5.788  48.065 -18.828  1.00  0.00     0.080 C 
HETATM    7  C6  UNL     1      -4.585  48.448 -19.683  1.00  0.00     0.017 C 
HETATM    8  C7  UNL     1      -4.808  48.422 -21.237  1.00  0.00    -0.035 C 
HETATM    9  C8  UNL     1      -4.403  47.011 -21.719  1.00  0.00     0.016 C 
HETATM   10  C9  UNL     1      -3.912  49.563 -21.887  1.00  0.00     0.003 C 
HETATM   11  C10 UNL     1      -2.397  49.437 -21.576  1.00  0.00     0.006 C 
HETATM   12  C11 UNL     1      -1.558  50.633 -22.054  1.00  0.00     0.006 C 
HETATM   13  C12 UNL     1      -1.822  50.899 -23.531  1.00  0.00    -0.000 C 
HETATM   14  C13 UNL     1      -0.953  51.929 -24.249  1.00  0.00     0.008 C 
HETATM   15  C14 UNL     1       0.527  52.166 -23.923  1.00  0.00     0.030 C 
HETATM   16  C18 UNL     1       1.058  52.862 -25.215  1.00  0.00     0.040 C 
HETATM   17  C19 UNL     1      -0.067  52.757 -26.271  1.00  0.00     0.127 C 
HETATM   18  C20 UNL     1      -0.943  51.593 -25.767  1.00  0.00    -0.013 C 
HETATM   19  C21 UNL     1      -0.213  50.271 -26.149  1.00  0.00     0.018 C 
HETATM   20  C22 UNL     1      -2.384  51.491 -26.317  1.00  0.00     0.013 C 
HETATM   21  C23 UNL     1      -3.526  51.715 -25.306  1.00  0.00     0.011 C 
HETATM   22  C24 UNL     1      -3.338  51.224 -23.812  1.00  0.00    -0.032 C 
HETATM   23  C25 UNL     1      -3.801  52.460 -22.957  1.00  0.00     0.016 C 
HETATM   24  C26 UNL     1      -4.199  49.912 -23.410  1.00  0.00    -0.032 C 
HETATM   25  C27 UNL     1      -3.812  48.747 -24.365  1.00  0.00     0.016 C 
HETATM   26  C28 UNL     1      -5.728  50.152 -23.559  1.00  0.00     0.011 C 
HETATM   27  C29 UNL     1      -6.602  49.025 -23.001  1.00  0.00     0.007 C 
HETATM   28  C30 UNL     1      -6.321  48.746 -21.513  1.00  0.00     0.009 C 
ENDROOT
BRANCH  15  29
HETATM   29  C15 UNL     1       0.799  52.997 -22.686  1.00  0.00     0.083 A 
HETATM   30  C16 UNL     1       1.266  54.416 -22.837  1.00  0.00     0.049 C 
HETATM   31  C17 UNL     1       0.190  52.579 -21.360  1.00  0.00     0.207 A 
HETATM   32  O2  UNL     1       1.546  52.271 -21.689  1.00  0.00    -0.375 OA
ENDBRANCH  15  29
BRANCH  17  33
HETATM   33  O3  UNL     1      -0.811  53.973 -26.291  1.00  0.00    -0.395 OA
HETATM   34  H30 UNL     1      -0.205  54.678 -26.575  1.00  0.00     0.210 HD
ENDBRANCH  17  33
TORSDOF 2
ENDMDL
MODEL 3
REMARK minimizedAffinity -9.36822224
REMARK  2 active torsions:
REMARK  status: ('A' for Active; 'I' for Inactive)
REMARK    1  A    between atoms: C14_15  and  C15_16 
REMARK    2  A    between atoms: C19_21  and  O3_22 
ROOT
HETATM    1  C1  UNL     1      -6.266  48.602 -18.510  1.00  0.00     0.023 C 
HETATM    2  C2  UNL     1      -4.942  48.073 -19.101  1.00  0.00     0.017 C 
HETATM    3  C3  UNL     1      -5.188  46.620 -19.554  1.00  0.00     0.023 C 
HETATM    4  C4  UNL     1      -3.923  48.075 -17.955  1.00  0.00     0.135 C 
HETATM    5  O1  UNL     1      -3.826  47.145 -17.152  1.00  0.00    -0.297 OA
HETATM    6  C5  UNL     1      -3.094  49.321 -17.788  1.00  0.00     0.080 C 
HETATM    7  C6  UNL     1      -2.305  49.671 -19.044  1.00  0.00     0.017 C 
HETATM    8  C7  UNL     1      -2.889  49.131 -20.397  1.00  0.00    -0.035 C 
HETATM    9  C8  UNL     1      -2.228  47.757 -20.650  1.00  0.00     0.016 C 
HETATM   10  C9  UNL     1      -2.551  50.183 -21.540  1.00  0.00     0.003 C 
HETATM   11  C10 UNL     1      -1.036  50.476 -21.707  1.00  0.00     0.006 C 
HETATM   12  C11 UNL     1      -0.723  51.620 -22.686  1.00  0.00     0.006 C 
HETATM   13  C12 UNL     1      -1.411  51.367 -24.021  1.00  0.00    -0.000 C 
HETATM   14  C13 UNL     1      -1.083  52.290 -25.193  1.00  0.00     0.008 C 
HETATM   15  C14 UNL     1       0.298  52.917 -25.417  1.00  0.00     0.030 C 
HETATM   16  C18 UNL     1       0.269  53.286 -26.933  1.00  0.00     0.040 C 
HETATM   17  C19 UNL     1      -1.004  52.635 -27.523  1.00  0.00     0.127 C 
HETATM   18  C20 UNL     1      -1.354  51.521 -26.517  1.00  0.00    -0.013 C 
HETATM   19  C21 UNL     1      -0.392  50.328 -26.800  1.00  0.00     0.018 C 
HETATM   20  C22 UNL     1      -2.794  50.959 -26.542  1.00  0.00     0.013 C 
HETATM   21  C23 UNL     1      -3.663  51.235 -25.298  1.00  0.00     0.011 C 
HETATM   22  C24 UNL     1      -2.977  51.268 -23.872  1.00  0.00    -0.032 C 
HETATM   23  C25 UNL     1      -3.548  52.579 -23.218  1.00  0.00     0.016 C 
HETATM   24  C26 UNL     1      -3.296  49.989 -22.930  1.00  0.00    -0.032 C 
HETATM   25  C27 UNL     1      -2.839  48.698 -23.667  1.00  0.00     0.016 C 
HETATM   26  C28 UNL     1      -4.815  49.848 -22.635  1.00  0.00     0.011 C 
HETATM   27  C29 UNL     1      -5.161  48.785 -21.587  1.00  0.00     0.007 C 
HETATM   28  C30 UNL     1      -4.450  49.033 -20.244  1.00  0.00     0.009 C 
ENDROOT
BRANCH  15  29
HETATM   29  C15 UNL     1       0.618  54.121 -24.554  1.00  0.00     0.083 A 
HETATM   30  C16 UNL     1       0.218  55.491 -25.018  1.00  0.00     0.049 C 
HETATM   31  C17 UNL     1       0.912  53.920 -23.078  1.00  0.00     0.207 A 
HETATM   32  O2  UNL     1       1.962  54.082 -24.033  1.00  0.00    -0.375 OA
ENDBRANCH  15  29
BRANCH  17  33
HETATM   33  O3  UNL     1      -2.048  53.605 -27.581  1.00  0.00    -0.395 OA
HETATM   34  H30 UNL     1      -1.761  54.302 -28.196  1.00  0.00     0.210 HD
ENDBRANCH  17  33
TORSDOF 2
ENDMDL
MODEL 4
REMARK minimizedAffinity -9.1519928
REMARK  2 active torsions:
REMARK  status: ('A' for Active; 'I' for Inactive)
REMARK    1  A    between atoms: C14_15  and  C15_16 
REMARK    2  A    between atoms: C19_21  and  O3_22 
ROOT
HETATM    1  C1  UNL     1       1.709  51.860 -25.804  1.00  0.00     0.023 C 
HETATM    2  C2  UNL     1       0.462  52.585 -25.254  1.00  0.00     0.017 C 
HETATM    3  C3  UNL     1      -0.078  53.491 -26.378  1.00  0.00     0.023 C 
HETATM    4  C4  UNL     1       0.945  53.461 -24.092  1.00  0.00     0.135 C 
HETATM    5  O1  UNL     1       1.410  54.589 -24.261  1.00  0.00    -0.297 OA
HETATM    6  C5  UNL     1       0.919  52.841 -22.720  1.00  0.00     0.080 C 
HETATM    7  C6  UNL     1      -0.472  52.359 -22.323  1.00  0.00     0.017 C 
HETATM    8  C7  UNL     1      -1.444  52.014 -23.506  1.00  0.00    -0.035 C 
HETATM    9  C8  UNL     1      -2.238  53.302 -23.819  1.00  0.00     0.016 C 
HETATM   10  C9  UNL     1      -2.387  50.821 -23.042  1.00  0.00     0.003 C 
HETATM   11  C10 UNL     1      -3.211  51.122 -21.761  1.00  0.00     0.006 C 
HETATM   12  C11 UNL     1      -3.984  49.911 -21.215  1.00  0.00     0.006 C 
HETATM   13  C12 UNL     1      -4.838  49.296 -22.316  1.00  0.00    -0.000 C 
HETATM   14  C13 UNL     1      -5.825  48.193 -21.940  1.00  0.00     0.008 C 
HETATM   15  C14 UNL     1      -6.570  48.143 -20.601  1.00  0.00     0.030 C 
HETATM   16  C18 UNL     1      -7.781  47.210 -20.913  1.00  0.00     0.040 C 
HETATM   17  C19 UNL     1      -7.788  46.990 -22.444  1.00  0.00     0.127 C 
HETATM   18  C20 UNL     1      -6.968  48.173 -22.994  1.00  0.00    -0.013 C 
HETATM   19  C21 UNL     1      -7.900  49.421 -22.986  1.00  0.00     0.018 C 
HETATM   20  C22 UNL     1      -6.395  48.044 -24.424  1.00  0.00     0.013 C 
HETATM   21  C23 UNL     1      -4.859  47.977 -24.548  1.00  0.00     0.011 C 
HETATM   22  C24 UNL     1      -3.968  48.808 -23.537  1.00  0.00    -0.032 C 
HETATM   23  C25 UNL     1      -2.887  47.771 -23.059  1.00  0.00     0.016 C 
HETATM   24  C26 UNL     1      -3.249  50.113 -24.174  1.00  0.00    -0.032 C 
HETATM   25  C27 UNL     1      -4.342  51.053 -24.757  1.00  0.00     0.016 C 
HETATM   26  C28 UNL     1      -2.285  49.737 -25.334  1.00  0.00     0.011 C 
HETATM   27  C29 UNL     1      -1.421  50.897 -25.840  1.00  0.00     0.007 C 
HETATM   28  C30 UNL     1      -0.574  51.528 -24.721  1.00  0.00     0.009 C 
ENDROOT
BRANCH  15  29
HETATM   29  C15 UNL     1      -5.763  47.638 -19.421  1.00  0.00     0.083 A 
HETATM   30  C16 UNL     1      -4.736  46.564 -19.634  1.00  0.00     0.049 C 
HETATM   31  C17 UNL     1      -5.660  48.492 -18.170  1.00  0.00     0.207 A 
HETATM   32  O2  UNL     1      -6.580  47.402 -18.257  1.00  0.00    -0.375 OA
ENDBRANCH  15  29
BRANCH  17  33
HETATM   33  O3  UNL     1      -7.149  45.752 -22.747  1.00  0.00    -0.395 OA
HETATM   34  H30 UNL     1      -7.683  45.045 -22.344  1.00  0.00     0.210 HD
ENDBRANCH  17  33
TORSDOF 2
ENDMDL
MODEL 5
REMARK minimizedAffinity -9.0077343
REMARK  2 active torsions:
REMARK  status: ('A' for Active; 'I' for Inactive)
REMARK    1  A    between atoms: C14_15  and  C15_16 
REMARK    2  A    between atoms: C19_21  and  O3_22 
ROOT
HETATM    1  C1  UNL     1      -0.060  54.350 -25.367  1.00  0.00     0.023 C 
HETATM    2  C2  UNL     1      -0.242  52.829 -25.563  1.00  0.00     0.017 C 
HETATM    3  C3  UNL     1       1.162  52.193 -25.569  1.00  0.00     0.023 C 
HETATM    4  C4  UNL     1      -0.883  52.643 -26.944  1.00  0.00     0.135 C 
HETATM    5  O1  UNL     1      -0.220  52.601 -27.981  1.00  0.00    -0.297 OA
HETATM    6  C5  UNL     1      -2.387  52.607 -26.993  1.00  0.00     0.080 C 
HETATM    7  C6  UNL     1      -2.975  51.510 -26.113  1.00  0.00     0.017 C 
HETATM    8  C7  UNL     1      -2.084  51.042 -24.908  1.00  0.00    -0.035 C 
HETATM    9  C8  UNL     1      -1.238  49.854 -25.416  1.00  0.00     0.016 C 
HETATM   10  C9  UNL     1      -3.045  50.631 -23.710  1.00  0.00     0.003 C 
HETATM   11  C10 UNL     1      -4.066  49.517 -24.067  1.00  0.00     0.006 C 
HETATM   12  C11 UNL     1      -5.106  49.246 -22.968  1.00  0.00     0.006 C 
HETATM   13  C12 UNL     1      -4.407  48.982 -21.640  1.00  0.00    -0.000 C 
HETATM   14  C13 UNL     1      -5.249  48.511 -20.457  1.00  0.00     0.008 C 
HETATM   15  C14 UNL     1      -6.478  47.605 -20.599  1.00  0.00     0.030 C 
HETATM   16  C18 UNL     1      -6.632  47.004 -19.167  1.00  0.00     0.040 C 
HETATM   17  C19 UNL     1      -5.362  47.403 -18.379  1.00  0.00     0.127 C 
HETATM   18  C20 UNL     1      -4.330  47.728 -19.477  1.00  0.00    -0.013 C 
HETATM   19  C21 UNL     1      -3.790  46.370 -20.017  1.00  0.00     0.018 C 
HETATM   20  C22 UNL     1      -3.102  48.578 -19.078  1.00  0.00     0.013 C 
HETATM   21  C23 UNL     1      -3.002  49.983 -19.704  1.00  0.00     0.011 C 
HETATM   22  C24 UNL     1      -3.523  50.205 -21.183  1.00  0.00    -0.032 C 
HETATM   23  C25 UNL     1      -4.401  51.505 -21.074  1.00  0.00     0.016 C 
HETATM   24  C26 UNL     1      -2.361  50.407 -22.294  1.00  0.00    -0.032 C 
HETATM   25  C27 UNL     1      -1.432  49.159 -22.280  1.00  0.00     0.016 C 
HETATM   26  C28 UNL     1      -1.479  51.651 -21.994  1.00  0.00     0.011 C 
HETATM   27  C29 UNL     1      -0.497  52.016 -23.111  1.00  0.00     0.007 C 
HETATM   28  C30 UNL     1      -1.205  52.264 -24.456  1.00  0.00     0.009 C 
ENDROOT
BRANCH  15  29
HETATM   29  C15 UNL     1      -7.749  48.293 -21.057  1.00  0.00     0.083 A 
HETATM   30  C16 UNL     1      -7.695  49.256 -22.207  1.00  0.00     0.049 C 
HETATM   31  C17 UNL     1      -9.094  47.696 -20.683  1.00  0.00     0.207 A 
HETATM   32  O2  UNL     1      -8.533  48.790 -19.954  1.00  0.00    -0.375 OA
ENDBRANCH  15  29
BRANCH  17  33
HETATM   33  O3  UNL     1      -5.637  48.558 -17.591  1.00  0.00    -0.395 OA
HETATM   34  H30 UNL     1      -6.320  48.310 -16.944  1.00  0.00     0.210 HD
ENDBRANCH  17  33
TORSDOF 2
ENDMDL
MODEL 6
REMARK minimizedAffinity -9.00743198
REMARK  2 active torsions:
REMARK  status: ('A' for Active; 'I' for Inactive)
REMARK    1  A    between atoms: C14_15  and  C15_16 
REMARK    2  A    between atoms: C19_21  and  O3_22 
ROOT
HETATM    1  C1  UNL     1      -0.407  50.763 -26.934  1.00  0.00     0.023 C 
HETATM    2  C2  UNL     1      -1.348  51.510 -25.964  1.00  0.00     0.017 C 
HETATM    3  C3  UNL     1      -2.733  51.592 -26.637  1.00  0.00     0.023 C 
HETATM    4  C4  UNL     1      -0.780  52.927 -25.813  1.00  0.00     0.135 C 
HETATM    5  O1  UNL     1      -1.036  53.832 -26.608  1.00  0.00    -0.297 OA
HETATM    6  C5  UNL     1       0.195  53.148 -24.687  1.00  0.00     0.080 C 
HETATM    7  C6  UNL     1      -0.391  52.789 -23.326  1.00  0.00     0.017 C 
HETATM    8  C7  UNL     1      -1.562  51.744 -23.335  1.00  0.00    -0.035 C 
HETATM    9  C8  UNL     1      -2.876  52.550 -23.425  1.00  0.00     0.016 C 
HETATM   10  C9  UNL     1      -1.470  50.885 -22.000  1.00  0.00     0.003 C 
HETATM   11  C10 UNL     1      -1.532  51.726 -20.697  1.00  0.00     0.006 C 
HETATM   12  C11 UNL     1      -1.267  50.916 -19.417  1.00  0.00     0.006 C 
HETATM   13  C12 UNL     1      -2.189  49.705 -19.364  1.00  0.00    -0.000 C 
HETATM   14  C13 UNL     1      -2.215  48.868 -18.087  1.00  0.00     0.008 C 
HETATM   15  C14 UNL     1      -2.033  49.458 -16.683  1.00  0.00     0.030 C 
HETATM   16  C18 UNL     1      -2.658  48.363 -15.764  1.00  0.00     0.040 C 
HETATM   17  C19 UNL     1      -3.367  47.352 -16.696  1.00  0.00     0.127 C 
HETATM   18  C20 UNL     1      -3.587  48.142 -18.002  1.00  0.00    -0.013 C 
HETATM   19  C21 UNL     1      -4.817  49.071 -17.774  1.00  0.00     0.018 C 
HETATM   20  C22 UNL     1      -3.862  47.333 -19.290  1.00  0.00     0.013 C 
HETATM   21  C23 UNL     1      -2.783  47.399 -20.389  1.00  0.00     0.011 C 
HETATM   22  C24 UNL     1      -1.978  48.747 -20.598  1.00  0.00    -0.032 C 
HETATM   23  C25 UNL     1      -0.481  48.274 -20.675  1.00  0.00     0.016 C 
HETATM   24  C26 UNL     1      -2.372  49.578 -21.932  1.00  0.00    -0.032 C 
HETATM   25  C27 UNL     1      -3.890  49.912 -21.884  1.00  0.00     0.016 C 
HETATM   26  C28 UNL     1      -2.113  48.758 -23.226  1.00  0.00     0.011 C 
HETATM   27  C29 UNL     1      -2.268  49.557 -24.523  1.00  0.00     0.007 C 
HETATM   28  C30 UNL     1      -1.349  50.791 -24.566  1.00  0.00     0.009 C 
ENDROOT
BRANCH  15  29
HETATM   29  C15 UNL     1      -0.604  49.773 -16.287  1.00  0.00     0.083 A 
HETATM   30  C16 UNL     1      -0.112  51.189 -16.359  1.00  0.00     0.049 C 
HETATM   31  C17 UNL     1       0.160  48.791 -15.416  1.00  0.00     0.207 A 
HETATM   32  O2  UNL     1       0.339  48.830 -16.834  1.00  0.00    -0.375 OA
ENDBRANCH  15  29
BRANCH  17  33
HETATM   33  O3  UNL     1      -2.509  46.236 -16.923  1.00  0.00    -0.395 OA
HETATM   34  H30 UNL     1      -2.370  45.799 -16.065  1.00  0.00     0.210 HD
ENDBRANCH  17  33
TORSDOF 2
ENDMDL
MODEL 7
REMARK minimizedAffinity -8.77581882
REMARK  2 active torsions:
REMARK  status: ('A' for Active; 'I' for Inactive)
REMARK    1  A    between atoms: C14_15  and  C15_16 
REMARK    2  A    between atoms: C19_21  and  O3_22 
ROOT
HETATM    1  C1  UNL     1      -0.285  50.715 -26.345  1.00  0.00     0.023 C 
HETATM    2  C2  UNL     1      -1.257  51.457 -25.402  1.00  0.00     0.017 C 
HETATM    3  C3  UNL     1      -2.333  52.125 -26.281  1.00  0.00     0.023 C 
HETATM    4  C4  UNL     1      -0.435  52.546 -24.701  1.00  0.00     0.135 C 
HETATM    5  O1  UNL     1      -0.232  53.651 -25.206  1.00  0.00    -0.297 OA
HETATM    6  C5  UNL     1       0.205  52.173 -23.390  1.00  0.00     0.080 C 
HETATM    7  C6  UNL     1      -0.811  51.693 -22.359  1.00  0.00     0.017 C 
HETATM    8  C7  UNL     1      -2.145  51.097 -22.933  1.00  0.00    -0.035 C 
HETATM    9  C8  UNL     1      -3.149  52.267 -23.030  1.00  0.00     0.016 C 
HETATM   10  C9  UNL     1      -2.643  49.954 -21.946  1.00  0.00     0.003 C 
HETATM   11  C10 UNL     1      -2.870  50.428 -20.486  1.00  0.00     0.006 C 
HETATM   12  C11 UNL     1      -3.179  49.291 -19.499  1.00  0.00     0.006 C 
HETATM   13  C12 UNL     1      -4.339  48.450 -20.017  1.00  0.00    -0.000 C 
HETATM   14  C13 UNL     1      -4.924  47.377 -19.101  1.00  0.00     0.008 C 
HETATM   15  C14 UNL     1      -5.013  47.521 -17.577  1.00  0.00     0.030 C 
HETATM   16  C18 UNL     1      -6.115  46.484 -17.195  1.00  0.00     0.040 C 
HETATM   17  C19 UNL     1      -6.749  46.002 -18.521  1.00  0.00     0.127 C 
HETATM   18  C20 UNL     1      -6.396  47.114 -19.529  1.00  0.00    -0.013 C 
HETATM   19  C21 UNL     1      -7.382  48.294 -19.274  1.00  0.00     0.018 C 
HETATM   20  C22 UNL     1      -6.478  46.770 -21.033  1.00  0.00     0.013 C 
HETATM   21  C23 UNL     1      -5.148  46.764 -21.813  1.00  0.00     0.011 C 
HETATM   22  C24 UNL     1      -4.021  47.804 -21.420  1.00  0.00    -0.032 C 
HETATM   23  C25 UNL     1      -2.721  46.925 -21.337  1.00  0.00     0.016 C 
HETATM   24  C26 UNL     1      -3.811  49.016 -22.476  1.00  0.00    -0.032 C 
HETATM   25  C27 UNL     1      -5.155  49.781 -22.634  1.00  0.00     0.016 C 
HETATM   26  C28 UNL     1      -3.398  48.497 -23.882  1.00  0.00     0.011 C 
HETATM   27  C29 UNL     1      -2.984  49.596 -24.865  1.00  0.00     0.007 C 
HETATM   28  C30 UNL     1      -1.825  50.455 -24.331  1.00  0.00     0.009 C 
ENDROOT
BRANCH  15  29
HETATM   29  C15 UNL     1      -3.723  47.272 -16.821  1.00  0.00     0.083 A 
HETATM   30  C16 UNL     1      -2.734  46.276 -17.353  1.00  0.00     0.049 C 
HETATM   31  C17 UNL     1      -3.234  48.308 -15.824  1.00  0.00     0.207 A 
HETATM   32  O2  UNL     1      -3.936  47.137 -15.401  1.00  0.00    -0.375 OA
ENDBRANCH  15  29
BRANCH  17  33
HETATM   33  O3  UNL     1      -6.153  44.766 -18.908  1.00  0.00    -0.395 OA
HETATM   34  H30 UNL     1      -6.371  44.113 -18.222  1.00  0.00     0.210 HD
ENDBRANCH  17  33
TORSDOF 2
ENDMDL
MODEL 8
REMARK minimizedAffinity -8.76546192
REMARK  2 active torsions:
REMARK  status: ('A' for Active; 'I' for Inactive)
REMARK    1  A    between atoms: C14_15  and  C15_16 
REMARK    2  A    between atoms: C19_21  and  O3_22 
ROOT
HETATM    1  C1  UNL     1      -0.070  54.638 -25.683  1.00  0.00     0.023 C 
HETATM    2  C2  UNL     1      -0.094  53.109 -25.897  1.00  0.00     0.017 C 
HETATM    3  C3  UNL     1       1.336  52.588 -25.656  1.00  0.00     0.023 C 
HETATM    4  C4  UNL     1      -0.470  52.882 -27.366  1.00  0.00     0.135 C 
HETATM    5  O1  UNL     1       0.362  52.901 -28.274  1.00  0.00    -0.297 OA
HETATM    6  C5  UNL     1      -1.936  52.727 -27.674  1.00  0.00     0.080 C 
HETATM    7  C6  UNL     1      -2.578  51.581 -26.901  1.00  0.00     0.017 C 
HETATM    8  C7  UNL     1      -1.873  51.177 -25.558  1.00  0.00    -0.035 C 
HETATM    9  C8  UNL     1      -0.860  50.064 -25.904  1.00  0.00     0.016 C 
HETATM   10  C9  UNL     1      -2.991  50.681 -24.540  1.00  0.00     0.003 C 
HETATM   11  C10 UNL     1      -3.842  49.492 -25.060  1.00  0.00     0.006 C 
HETATM   12  C11 UNL     1      -5.031  49.131 -24.155  1.00  0.00     0.006 C 
HETATM   13  C12 UNL     1      -4.553  48.915 -22.726  1.00  0.00    -0.000 C 
HETATM   14  C13 UNL     1      -5.547  48.370 -21.702  1.00  0.00     0.008 C 
HETATM   15  C14 UNL     1      -6.656  47.370 -22.048  1.00  0.00     0.030 C 
HETATM   16  C18 UNL     1      -7.007  46.748 -20.660  1.00  0.00     0.040 C 
HETATM   17  C19 UNL     1      -5.927  47.241 -19.668  1.00  0.00     0.127 C 
HETATM   18  C20 UNL     1      -4.751  47.655 -20.573  1.00  0.00    -0.013 C 
HETATM   19  C21 UNL     1      -4.019  46.348 -21.003  1.00  0.00     0.018 C 
HETATM   20  C22 UNL     1      -3.682  48.597 -19.974  1.00  0.00     0.013 C 
HETATM   21  C23 UNL     1      -3.588  50.011 -20.583  1.00  0.00     0.011 C 
HETATM   22  C24 UNL     1      -3.862  50.201 -22.131  1.00  0.00    -0.032 C 
HETATM   23  C25 UNL     1      -4.846  51.425 -22.183  1.00  0.00     0.016 C 
HETATM   24  C26 UNL     1      -2.545  50.502 -23.026  1.00  0.00    -0.032 C 
HETATM   25  C27 UNL     1      -1.536  49.333 -22.843  1.00  0.00     0.016 C 
HETATM   26  C28 UNL     1      -1.831  51.811 -22.586  1.00  0.00     0.011 C 
HETATM   27  C29 UNL     1      -0.703  52.261 -23.520  1.00  0.00     0.007 C 
HETATM   28  C30 UNL     1      -1.185  52.461 -24.969  1.00  0.00     0.009 C 
ENDROOT
BRANCH  15  29
HETATM   29  C15 UNL     1      -7.880  47.957 -22.723  1.00  0.00     0.083 A 
HETATM   30  C16 UNL     1      -9.199  47.252 -22.605  1.00  0.00     0.049 C 
HETATM   31  C17 UNL     1      -7.882  49.425 -23.110  1.00  0.00     0.207 A 
HETATM   32  O2  UNL     1      -7.606  48.401 -24.067  1.00  0.00    -0.375 OA
ENDBRANCH  15  29
BRANCH  17  33
HETATM   33  O3  UNL     1      -6.425  48.365 -18.946  1.00  0.00    -0.395 OA
HETATM   34  H30 UNL     1      -7.188  48.059 -18.425  1.00  0.00     0.210 HD
ENDBRANCH  17  33
TORSDOF 2
ENDMDL
MODEL 9
REMARK minimizedAffinity -8.1590662
REMARK  2 active torsions:
REMARK  status: ('A' for Active; 'I' for Inactive)
REMARK    1  A    between atoms: C14_15  and  C15_16 
REMARK    2  A    between atoms: C19_21  and  O3_22 
ROOT
HETATM    1  C1  UNL     1      -4.569  43.413 -18.061  1.00  0.00     0.023 C 
HETATM    2  C2  UNL     1      -5.566  44.461 -18.600  1.00  0.00     0.017 C 
HETATM    3  C3  UNL     1      -6.252  45.113 -17.383  1.00  0.00     0.023 C 
HETATM    4  C4  UNL     1      -6.613  43.688 -19.411  1.00  0.00     0.135 C 
HETATM    5  O1  UNL     1      -7.596  43.159 -18.891  1.00  0.00    -0.297 OA
HETATM    6  C5  UNL     1      -6.339  43.516 -20.882  1.00  0.00     0.080 C 
HETATM    7  C6  UNL     1      -6.157  44.847 -21.603  1.00  0.00     0.017 C 
HETATM    8  C7  UNL     1      -5.684  46.052 -20.715  1.00  0.00    -0.035 C 
HETATM    9  C8  UNL     1      -6.960  46.765 -20.216  1.00  0.00     0.016 C 
HETATM   10  C9  UNL     1      -4.772  47.000 -21.608  1.00  0.00     0.003 C 
HETATM   11  C10 UNL     1      -5.472  47.537 -22.885  1.00  0.00     0.006 C 
HETATM   12  C11 UNL     1      -4.539  48.306 -23.834  1.00  0.00     0.006 C 
HETATM   13  C12 UNL     1      -3.809  49.404 -23.073  1.00  0.00    -0.000 C 
HETATM   14  C13 UNL     1      -2.969  50.403 -23.867  1.00  0.00     0.008 C 
HETATM   15  C14 UNL     1      -3.334  50.886 -25.276  1.00  0.00     0.030 C 
HETATM   16  C18 UNL     1      -2.529  52.216 -25.405  1.00  0.00     0.040 C 
HETATM   17  C19 UNL     1      -1.962  52.530 -24.000  1.00  0.00     0.127 C 
HETATM   18  C20 UNL     1      -2.861  51.719 -23.047  1.00  0.00    -0.013 C 
HETATM   19  C21 UNL     1      -4.194  52.512 -22.886  1.00  0.00     0.018 C 
HETATM   20  C22 UNL     1      -2.327  51.438 -21.624  1.00  0.00     0.013 C 
HETATM   21  C23 UNL     1      -2.023  49.966 -21.279  1.00  0.00     0.011 C 
HETATM   22  C24 UNL     1      -2.935  48.828 -21.894  1.00  0.00    -0.032 C 
HETATM   23  C25 UNL     1      -1.899  47.779 -22.441  1.00  0.00     0.016 C 
HETATM   24  C26 UNL     1      -3.946  48.120 -20.842  1.00  0.00    -0.032 C 
HETATM   25  C27 UNL     1      -4.866  49.209 -20.221  1.00  0.00     0.016 C 
HETATM   26  C28 UNL     1      -3.182  47.430 -19.677  1.00  0.00     0.011 C 
HETATM   27  C29 UNL     1      -4.063  46.571 -18.765  1.00  0.00     0.007 C 
HETATM   28  C30 UNL     1      -4.815  45.473 -19.540  1.00  0.00     0.009 C 
ENDROOT
BRANCH  15  29
HETATM   29  C15 UNL     1      -3.011  49.924 -26.402  1.00  0.00     0.083 A 
HETATM   30  C16 UNL     1      -2.540  48.536 -26.076  1.00  0.00     0.049 C 
HETATM   31  C17 UNL     1      -3.575  50.184 -27.787  1.00  0.00     0.207 A 
HETATM   32  O2  UNL     1      -2.234  50.542 -27.447  1.00  0.00    -0.375 OA
ENDBRANCH  15  29
BRANCH  17  33
HETATM   33  O3  UNL     1      -0.612  52.079 -23.923  1.00  0.00    -0.395 OA
HETATM   34  H30 UNL     1      -0.099  52.592 -24.570  1.00  0.00     0.210 HD
ENDBRANCH  17  33
TORSDOF 2
ENDMDL
