MODEL 1
REMARK minimizedAffinity -9.71826744
REMARK  4 active torsions:
REMARK  status: ('A' for Active; 'I' for Inactive)
REMARK    1  A    between atoms: C4_4  and  C5_5 
REMARK    2  A    between atoms: C5_5  and  C6_6 
REMARK    3  A    between atoms: C6_6  and  C7_7 
REMARK    4  A    between atoms: C7_7  and  C9_9 
ROOT
HETATM    1  C9  UNL     1      -0.725  52.513 -21.613  1.00  0.00    -0.001 C 
HETATM    2  C10 UNL     1      -0.007  52.274 -22.973  1.00  0.00     0.007 C 
HETATM    3  C11 UNL     1      -0.832  51.248 -23.769  1.00  0.00     0.024 C 
HETATM    4  C12 UNL     1      -2.065  51.020 -22.925  1.00  0.00     0.092 C 
HETATM    5  C13 UNL     1      -3.194  52.022 -23.280  1.00  0.00     0.272 C 
HETATM    6  O1  UNL     1      -3.083  53.133 -23.765  1.00  0.00    -0.264 OA
HETATM    7  O2  UNL     1      -4.407  51.439 -22.957  1.00  0.00    -0.305 OA
HETATM    8  C14 UNL     1      -4.165  50.118 -22.414  1.00  0.00     0.113 C 
HETATM    9  C15 UNL     1      -3.933  50.305 -20.882  1.00  0.00     0.043 C 
HETATM   10  C16 UNL     1      -2.846  51.362 -20.543  1.00  0.00     0.014 C 
HETATM   11  C17 UNL     1      -1.595  51.225 -21.448  1.00  0.00    -0.020 C 
HETATM   12  C18 UNL     1      -0.734  50.048 -20.923  1.00  0.00     0.017 C 
HETATM   13  C19 UNL     1      -2.864  49.784 -23.066  1.00  0.00     0.137 A 
HETATM   14  O3  UNL     1      -2.293  48.494 -22.973  1.00  0.00    -0.364 OA
HETATM   15  C20 UNL     1      -2.788  48.888 -24.273  1.00  0.00     0.162 A 
HETATM   16  C21 UNL     1      -3.994  48.141 -24.735  1.00  0.00     0.041 C 
HETATM   17  C22 UNL     1      -5.308  48.851 -24.343  1.00  0.00     0.010 C 
HETATM   18  C23 UNL     1      -6.547  48.062 -24.851  1.00  0.00     0.056 C 
HETATM   19  C24 UNL     1      -6.557  47.884 -26.373  1.00  0.00     0.018 C 
HETATM   20  C25 UNL     1      -7.829  48.759 -24.402  1.00  0.00     0.131 C 
HETATM   21  O4  UNL     1      -8.772  48.979 -25.161  1.00  0.00    -0.298 OA
HETATM   22  C26 UNL     1      -7.935  49.080 -22.933  1.00  0.00     0.079 C 
HETATM   23  C27 UNL     1      -6.712  49.866 -22.487  1.00  0.00     0.020 C 
HETATM   24  C28 UNL     1      -5.356  49.158 -22.794  1.00  0.00    -0.004 C 
HETATM   25  C29 UNL     1      -5.287  47.851 -21.961  1.00  0.00     0.019 C 
ENDROOT
BRANCH   1  26
HETATM   26  C7  UNL     1       0.267  52.916 -20.486  1.00  0.00    -0.014 C 
HETATM   27  C8  UNL     1       1.638  53.340 -21.020  1.00  0.00     0.010 C 
BRANCH  26  28
HETATM   28  C6  UNL     1       0.430  51.843 -19.371  1.00  0.00     0.008 C 
BRANCH  28  29
HETATM   29  C5  UNL     1       0.552  52.325 -17.915  1.00  0.00     0.028 C 
BRANCH  29  30
HETATM   30  C4  UNL     1       1.959  52.605 -17.473  1.00  0.00    -0.025 C 
HETATM   31  C2  UNL     1       2.552  52.269 -16.311  1.00  0.00    -0.091 C 
HETATM   32  C1  UNL     1       1.908  51.516 -15.181  1.00  0.00     0.042 C 
HETATM   33  C3  UNL     1       3.983  52.663 -16.045  1.00  0.00     0.042 C 
ENDBRANCH  29  30
ENDBRANCH  28  29
ENDBRANCH  26  28
ENDBRANCH   1  26
TORSDOF 4
ENDMDL
MODEL 2
REMARK minimizedAffinity -9.65883064
REMARK  4 active torsions:
REMARK  status: ('A' for Active; 'I' for Inactive)
REMARK    1  A    between atoms: C4_4  and  C5_5 
REMARK    2  A    between atoms: C5_5  and  C6_6 
REMARK    3  A    between atoms: C6_6  and  C7_7 
REMARK    4  A    between atoms: C7_7  and  C9_9 
ROOT
HETATM    1  C9  UNL     1      -5.445  49.061 -22.691  1.00  0.00    -0.001 C 
HETATM    2  C10 UNL     1      -5.278  49.898 -21.389  1.00  0.00     0.007 C 
HETATM    3  C11 UNL     1      -4.061  50.819 -21.572  1.00  0.00     0.024 C 
HETATM    4  C12 UNL     1      -3.636  50.602 -23.007  1.00  0.00     0.092 C 
HETATM    5  C13 UNL     1      -4.364  51.572 -23.972  1.00  0.00     0.272 C 
HETATM    6  O1  UNL     1      -5.444  52.113 -23.817  1.00  0.00    -0.264 OA
HETATM    7  O2  UNL     1      -3.566  51.751 -25.089  1.00  0.00    -0.305 OA
HETATM    8  C14 UNL     1      -2.357  50.970 -24.933  1.00  0.00     0.113 C 
HETATM    9  C15 UNL     1      -2.676  49.545 -25.484  1.00  0.00     0.043 C 
HETATM   10  C16 UNL     1      -3.951  48.911 -24.862  1.00  0.00     0.014 C 
HETATM   11  C17 UNL     1      -4.019  49.121 -23.327  1.00  0.00    -0.020 C 
HETATM   12  C18 UNL     1      -3.075  48.096 -22.647  1.00  0.00     0.017 C 
HETATM   13  C19 UNL     1      -2.257  50.906 -23.444  1.00  0.00     0.137 A 
HETATM   14  O3  UNL     1      -1.119  50.376 -22.796  1.00  0.00    -0.364 OA
HETATM   15  C20 UNL     1      -1.326  51.801 -22.672  1.00  0.00     0.162 A 
HETATM   16  C21 UNL     1      -0.323  52.643 -23.386  1.00  0.00     0.041 C 
HETATM   17  C22 UNL     1      -0.772  52.998 -24.821  1.00  0.00     0.010 C 
HETATM   18  C23 UNL     1       0.282  53.889 -25.535  1.00  0.00     0.056 C 
HETATM   19  C24 UNL     1       0.546  55.206 -24.798  1.00  0.00     0.018 C 
HETATM   20  C25 UNL     1      -0.164  54.177 -26.968  1.00  0.00     0.131 C 
HETATM   21  O4  UNL     1      -0.143  55.303 -27.461  1.00  0.00    -0.298 OA
HETATM   22  C26 UNL     1      -0.542  52.980 -27.802  1.00  0.00     0.079 C 
HETATM   23  C27 UNL     1      -1.586  52.150 -27.071  1.00  0.00     0.020 C 
HETATM   24  C28 UNL     1      -1.153  51.702 -25.640  1.00  0.00    -0.004 C 
HETATM   25  C29 UNL     1       0.061  50.746 -25.775  1.00  0.00     0.019 C 
ENDROOT
BRANCH   1  26
HETATM   26  C7  UNL     1      -6.107  47.681 -22.424  1.00  0.00    -0.014 C 
HETATM   27  C8  UNL     1      -5.147  46.671 -21.788  1.00  0.00     0.010 C 
BRANCH  26  28
HETATM   28  C6  UNL     1      -6.798  47.056 -23.670  1.00  0.00     0.008 C 
BRANCH  28  29
HETATM   29  C5  UNL     1      -6.976  47.940 -24.917  1.00  0.00     0.028 C 
BRANCH  29  30
HETATM   30  C4  UNL     1      -7.497  47.210 -26.121  1.00  0.00    -0.025 C 
HETATM   31  C2  UNL     1      -6.978  47.172 -27.364  1.00  0.00    -0.091 C 
HETATM   32  C1  UNL     1      -5.727  47.872 -27.816  1.00  0.00     0.042 C 
HETATM   33  C3  UNL     1      -7.669  46.389 -28.453  1.00  0.00     0.042 C 
ENDBRANCH  29  30
ENDBRANCH  28  29
ENDBRANCH  26  28
ENDBRANCH   1  26
TORSDOF 4
ENDMDL
MODEL 3
REMARK minimizedAffinity -9.48198318
REMARK  4 active torsions:
REMARK  status: ('A' for Active; 'I' for Inactive)
REMARK    1  A    between atoms: C4_4  and  C5_5 
REMARK    2  A    between atoms: C5_5  and  C6_6 
REMARK    3  A    between atoms: C6_6  and  C7_7 
REMARK    4  A    between atoms: C7_7  and  C9_9 
ROOT
HETATM    1  C9  UNL     1      -6.320  49.396 -23.493  1.00  0.00    -0.001 C 
HETATM    2  C10 UNL     1      -7.098  49.918 -22.250  1.00  0.00     0.007 C 
HETATM    3  C11 UNL     1      -6.068  50.418 -21.223  1.00  0.00     0.024 C 
HETATM    4  C12 UNL     1      -4.739  50.305 -21.936  1.00  0.00     0.092 C 
HETATM    5  C13 UNL     1      -4.401  51.597 -22.724  1.00  0.00     0.272 C 
HETATM    6  O1  UNL     1      -5.174  52.423 -23.174  1.00  0.00    -0.264 OA
HETATM    7  O2  UNL     1      -3.026  51.685 -22.842  1.00  0.00    -0.305 OA
HETATM    8  C14 UNL     1      -2.423  50.543 -22.185  1.00  0.00     0.113 C 
HETATM    9  C15 UNL     1      -2.365  49.401 -23.248  1.00  0.00     0.043 C 
HETATM   10  C16 UNL     1      -3.732  49.119 -23.931  1.00  0.00     0.014 C 
HETATM   11  C17 UNL     1      -4.901  49.094 -22.913  1.00  0.00    -0.020 C 
HETATM   12  C18 UNL     1      -4.888  47.728 -22.181  1.00  0.00     0.017 C 
HETATM   13  C19 UNL     1      -3.475  50.216 -21.176  1.00  0.00     0.137 A 
HETATM   14  O3  UNL     1      -3.262  49.254 -20.163  1.00  0.00    -0.364 OA
HETATM   15  C20 UNL     1      -3.349  50.633 -19.735  1.00  0.00     0.162 A 
HETATM   16  C21 UNL     1      -2.072  51.210 -19.226  1.00  0.00     0.041 C 
HETATM   17  C22 UNL     1      -1.261  51.912 -20.338  1.00  0.00     0.010 C 
HETATM   18  C23 UNL     1       0.054  52.519 -19.777  1.00  0.00     0.056 C 
HETATM   19  C24 UNL     1      -0.190  53.548 -18.668  1.00  0.00     0.018 C 
HETATM   20  C25 UNL     1       0.858  53.156 -20.909  1.00  0.00     0.131 C 
HETATM   21  O4  UNL     1       1.353  54.280 -20.827  1.00  0.00    -0.298 OA
HETATM   22  C26 UNL     1       1.112  52.291 -22.117  1.00  0.00     0.079 C 
HETATM   23  C27 UNL     1      -0.203  51.735 -22.639  1.00  0.00     0.020 C 
HETATM   24  C28 UNL     1      -1.030  50.953 -21.571  1.00  0.00    -0.004 C 
HETATM   25  C29 UNL     1      -0.226  49.691 -21.159  1.00  0.00     0.019 C 
ENDROOT
BRANCH   1  26
HETATM   26  C7  UNL     1      -7.093  48.276 -24.244  1.00  0.00    -0.014 C 
HETATM   27  C8  UNL     1      -7.454  47.091 -23.343  1.00  0.00     0.010 C 
BRANCH  26  28
HETATM   28  C6  UNL     1      -6.387  47.775 -25.536  1.00  0.00     0.008 C 
BRANCH  28  29
HETATM   29  C5  UNL     1      -7.258  47.162 -26.646  1.00  0.00     0.028 C 
BRANCH  29  30
HETATM   30  C4  UNL     1      -6.788  47.465 -28.039  1.00  0.00    -0.025 C 
HETATM   31  C2  UNL     1      -5.593  47.948 -28.431  1.00  0.00    -0.091 C 
HETATM   32  C1  UNL     1      -4.443  48.290 -27.525  1.00  0.00     0.042 C 
HETATM   33  C3  UNL     1      -5.318  48.206 -29.891  1.00  0.00     0.042 C 
ENDBRANCH  29  30
ENDBRANCH  28  29
ENDBRANCH  26  28
ENDBRANCH   1  26
TORSDOF 4
ENDMDL
MODEL 4
REMARK minimizedAffinity -9.36556149
REMARK  4 active torsions:
REMARK  status: ('A' for Active; 'I' for Inactive)
REMARK    1  A    between atoms: C4_4  and  C5_5 
REMARK    2  A    between atoms: C5_5  and  C6_6 
REMARK    3  A    between atoms: C6_6  and  C7_7 
REMARK    4  A    between atoms: C7_7  and  C9_9 
ROOT
HETATM    1  C9  UNL     1      -5.374  49.088 -22.551  1.00  0.00    -0.001 C 
HETATM    2  C10 UNL     1      -5.126  49.883 -21.236  1.00  0.00     0.007 C 
HETATM    3  C11 UNL     1      -3.903  50.789 -21.455  1.00  0.00     0.024 C 
HETATM    4  C12 UNL     1      -3.555  50.606 -22.915  1.00  0.00     0.092 C 
HETATM    5  C13 UNL     1      -4.313  51.616 -23.815  1.00  0.00     0.272 C 
HETATM    6  O1  UNL     1      -5.373  52.170 -23.589  1.00  0.00    -0.264 OA
HETATM    7  O2  UNL     1      -3.570  51.814 -24.965  1.00  0.00    -0.305 OA
HETATM    8  C14 UNL     1      -2.368  51.008 -24.893  1.00  0.00     0.113 C 
HETATM    9  C15 UNL     1      -2.741  49.605 -25.466  1.00  0.00     0.043 C 
HETATM   10  C16 UNL     1      -3.994  48.975 -24.799  1.00  0.00     0.014 C 
HETATM   11  C17 UNL     1      -3.981  49.141 -23.257  1.00  0.00    -0.020 C 
HETATM   12  C18 UNL     1      -3.023  48.082 -22.655  1.00  0.00     0.017 C 
HETATM   13  C19 UNL     1      -2.195  50.899 -23.413  1.00  0.00     0.137 A 
HETATM   14  O3  UNL     1      -1.035  50.332 -22.839  1.00  0.00    -0.364 OA
HETATM   15  C20 UNL     1      -1.210  51.756 -22.665  1.00  0.00     0.162 A 
HETATM   16  C21 UNL     1      -0.229  52.601 -23.406  1.00  0.00     0.041 C 
HETATM   17  C22 UNL     1      -0.743  53.005 -24.805  1.00  0.00     0.010 C 
HETATM   18  C23 UNL     1       0.290  53.898 -25.547  1.00  0.00     0.056 C 
HETATM   19  C24 UNL     1       0.615  55.189 -24.788  1.00  0.00     0.018 C 
HETATM   20  C25 UNL     1      -0.222  54.235 -26.946  1.00  0.00     0.131 C 
HETATM   21  O4  UNL     1      -0.205  55.375 -27.408  1.00  0.00    -0.298 OA
HETATM   22  C26 UNL     1      -0.664  53.069 -27.794  1.00  0.00     0.079 C 
HETATM   23  C27 UNL     1      -1.685  52.236 -27.034  1.00  0.00     0.020 C 
HETATM   24  C28 UNL     1      -1.188  51.740 -25.640  1.00  0.00    -0.004 C 
HETATM   25  C29 UNL     1      -0.000  50.767 -25.863  1.00  0.00     0.019 C 
ENDROOT
BRANCH   1  26
HETATM   26  C7  UNL     1      -6.047  47.711 -22.289  1.00  0.00    -0.014 C 
HETATM   27  C8  UNL     1      -6.800  47.173 -23.509  1.00  0.00     0.010 C 
BRANCH  26  28
HETATM   28  C6  UNL     1      -6.963  47.681 -21.033  1.00  0.00     0.008 C 
BRANCH  28  29
HETATM   29  C5  UNL     1      -8.339  48.363 -21.124  1.00  0.00     0.028 C 
BRANCH  29  30
HETATM   30  C4  UNL     1      -9.348  47.853 -20.137  1.00  0.00    -0.025 C 
HETATM   31  C2  UNL     1      -9.555  48.259 -18.869  1.00  0.00    -0.091 C 
HETATM   32  C1  UNL     1      -8.797  49.346 -18.159  1.00  0.00     0.042 C 
HETATM   33  C3  UNL     1     -10.617  47.601 -18.023  1.00  0.00     0.042 C 
ENDBRANCH  29  30
ENDBRANCH  28  29
ENDBRANCH  26  28
ENDBRANCH   1  26
TORSDOF 4
ENDMDL
MODEL 5
REMARK minimizedAffinity -9.34746933
REMARK  4 active torsions:
REMARK  status: ('A' for Active; 'I' for Inactive)
REMARK    1  A    between atoms: C4_4  and  C5_5 
REMARK    2  A    between atoms: C5_5  and  C6_6 
REMARK    3  A    between atoms: C6_6  and  C7_7 
REMARK    4  A    between atoms: C7_7  and  C9_9 
ROOT
HETATM    1  C9  UNL     1      -0.909  49.622 -18.526  1.00  0.00    -0.001 C 
HETATM    2  C10 UNL     1      -1.969  48.553 -18.130  1.00  0.00     0.007 C 
HETATM    3  C11 UNL     1      -2.961  48.415 -19.296  1.00  0.00     0.024 C 
HETATM    4  C12 UNL     1      -2.388  49.294 -20.385  1.00  0.00     0.092 C 
HETATM    5  C13 UNL     1      -1.401  48.512 -21.290  1.00  0.00     0.272 C 
HETATM    6  O1  UNL     1      -0.747  47.525 -21.007  1.00  0.00    -0.264 OA
HETATM    7  O2  UNL     1      -1.377  49.122 -22.532  1.00  0.00    -0.305 OA
HETATM    8  C14 UNL     1      -2.280  50.255 -22.517  1.00  0.00     0.113 C 
HETATM    9  C15 UNL     1      -1.457  51.470 -21.988  1.00  0.00     0.043 C 
HETATM   10  C16 UNL     1      -0.734  51.191 -20.641  1.00  0.00     0.014 C 
HETATM   11  C17 UNL     1      -1.644  50.445 -19.632  1.00  0.00    -0.020 C 
HETATM   12  C18 UNL     1      -2.617  51.471 -18.994  1.00  0.00     0.017 C 
HETATM   13  C19 UNL     1      -3.247  49.825 -21.463  1.00  0.00     0.137 A 
HETATM   14  O3  UNL     1      -4.436  50.545 -21.204  1.00  0.00    -0.364 OA
HETATM   15  C20 UNL     1      -4.590  49.241 -21.809  1.00  0.00     0.162 A 
HETATM   16  C21 UNL     1      -5.081  49.260 -23.218  1.00  0.00     0.041 C 
HETATM   17  C22 UNL     1      -3.924  49.274 -24.241  1.00  0.00     0.010 C 
HETATM   18  C23 UNL     1      -4.463  49.276 -25.698  1.00  0.00     0.056 C 
HETATM   19  C24 UNL     1      -5.338  48.058 -26.012  1.00  0.00     0.018 C 
HETATM   20  C25 UNL     1      -3.299  49.346 -26.684  1.00  0.00     0.131 C 
HETATM   21  O4  UNL     1      -3.208  48.609 -27.665  1.00  0.00    -0.298 OA
HETATM   22  C26 UNL     1      -2.297  50.449 -26.457  1.00  0.00     0.079 C 
HETATM   23  C27 UNL     1      -1.786  50.396 -25.026  1.00  0.00     0.020 C 
HETATM   24  C28 UNL     1      -2.913  50.452 -23.947  1.00  0.00    -0.004 C 
HETATM   25  C29 UNL     1      -3.615  51.832 -24.045  1.00  0.00     0.019 C 
ENDROOT
BRANCH   1  26
HETATM   26  C7  UNL     1      -0.322  50.357 -17.288  1.00  0.00    -0.014 C 
HETATM   27  C8  UNL     1      -1.338  50.524 -16.155  1.00  0.00     0.010 C 
BRANCH  26  28
HETATM   28  C6  UNL     1       0.346  51.722 -17.619  1.00  0.00     0.008 C 
BRANCH  28  29
HETATM   29  C5  UNL     1       1.080  52.461 -16.487  1.00  0.00     0.028 C 
BRANCH  29  30
HETATM   30  C4  UNL     1       2.566  52.559 -16.676  1.00  0.00    -0.025 C 
HETATM   31  C2  UNL     1       3.543  52.111 -15.863  1.00  0.00    -0.091 C 
HETATM   32  C1  UNL     1       3.340  51.392 -14.559  1.00  0.00     0.042 C 
HETATM   33  C3  UNL     1       4.992  52.326 -16.224  1.00  0.00     0.042 C 
ENDBRANCH  29  30
ENDBRANCH  28  29
ENDBRANCH  26  28
ENDBRANCH   1  26
TORSDOF 4
ENDMDL
MODEL 6
REMARK minimizedAffinity -9.10646915
REMARK  4 active torsions:
REMARK  status: ('A' for Active; 'I' for Inactive)
REMARK    1  A    between atoms: C4_4  and  C5_5 
REMARK    2  A    between atoms: C5_5  and  C6_6 
REMARK    3  A    between atoms: C6_6  and  C7_7 
REMARK    4  A    between atoms: C7_7  and  C9_9 
ROOT
HETATM    1  C9  UNL     1      -0.517  51.146 -20.912  1.00  0.00    -0.001 C 
HETATM    2  C10 UNL     1      -1.089  51.958 -19.714  1.00  0.00     0.007 C 
HETATM    3  C11 UNL     1      -2.468  51.375 -19.363  1.00  0.00     0.024 C 
HETATM    4  C12 UNL     1      -2.606  50.166 -20.260  1.00  0.00     0.092 C 
HETATM    5  C13 UNL     1      -2.030  48.890 -19.593  1.00  0.00     0.272 C 
HETATM    6  O1  UNL     1      -1.168  48.817 -18.736  1.00  0.00    -0.264 OA
HETATM    7  O2  UNL     1      -2.675  47.792 -20.133  1.00  0.00    -0.305 OA
HETATM    8  C14 UNL     1      -3.642  48.246 -21.111  1.00  0.00     0.113 C 
HETATM    9  C15 UNL     1      -2.877  48.368 -22.466  1.00  0.00     0.043 C 
HETATM   10  C16 UNL     1      -1.584  49.225 -22.374  1.00  0.00     0.014 C 
HETATM   11  C17 UNL     1      -1.799  50.521 -21.551  1.00  0.00    -0.020 C 
HETATM   12  C18 UNL     1      -2.524  51.559 -22.446  1.00  0.00     0.017 C 
HETATM   13  C19 UNL     1      -3.937  49.617 -20.593  1.00  0.00     0.137 A 
HETATM   14  O3  UNL     1      -4.974  50.409 -21.133  1.00  0.00    -0.364 OA
HETATM   15  C20 UNL     1      -5.175  49.912 -19.790  1.00  0.00     0.162 A 
HETATM   16  C21 UNL     1      -6.251  48.887 -19.658  1.00  0.00     0.041 C 
HETATM   17  C22 UNL     1      -5.709  47.448 -19.797  1.00  0.00     0.010 C 
HETATM   18  C23 UNL     1      -6.846  46.401 -19.638  1.00  0.00     0.056 C 
HETATM   19  C24 UNL     1      -7.557  46.495 -18.283  1.00  0.00     0.018 C 
HETATM   20  C25 UNL     1      -6.289  44.992 -19.834  1.00  0.00     0.131 C 
HETATM   21  O4  UNL     1      -6.538  44.062 -19.069  1.00  0.00    -0.298 OA
HETATM   22  C26 UNL     1      -5.488  44.760 -21.090  1.00  0.00     0.079 C 
HETATM   23  C27 UNL     1      -4.379  45.796 -21.193  1.00  0.00     0.020 C 
HETATM   24  C28 UNL     1      -4.881  47.272 -21.131  1.00  0.00    -0.004 C 
HETATM   25  C29 UNL     1      -5.763  47.541 -22.379  1.00  0.00     0.019 C 
ENDROOT
BRANCH   1  26
HETATM   26  C7  UNL     1       0.443  51.993 -21.794  1.00  0.00    -0.014 C 
HETATM   27  C8  UNL     1       0.905  53.281 -21.107  1.00  0.00     0.010 C 
BRANCH  26  28
HETATM   28  C6  UNL     1      -0.111  52.307 -23.213  1.00  0.00     0.008 C 
BRANCH  28  29
HETATM   29  C5  UNL     1       0.899  52.612 -24.333  1.00  0.00     0.028 C 
BRANCH  29  30
HETATM   30  C4  UNL     1       0.395  52.318 -25.716  1.00  0.00    -0.025 C 
HETATM   31  C2  UNL     1       1.087  51.860 -26.778  1.00  0.00    -0.091 C 
HETATM   32  C1  UNL     1       2.554  51.534 -26.796  1.00  0.00     0.042 C 
HETATM   33  C3  UNL     1       0.396  51.645 -28.101  1.00  0.00     0.042 C 
ENDBRANCH  29  30
ENDBRANCH  28  29
ENDBRANCH  26  28
ENDBRANCH   1  26
TORSDOF 4
ENDMDL
MODEL 7
REMARK minimizedAffinity -9.04106808
REMARK  4 active torsions:
REMARK  status: ('A' for Active; 'I' for Inactive)
REMARK    1  A    between atoms: C4_4  and  C5_5 
REMARK    2  A    between atoms: C5_5  and  C6_6 
REMARK    3  A    between atoms: C6_6  and  C7_7 
REMARK    4  A    between atoms: C7_7  and  C9_9 
ROOT
HETATM    1  C9  UNL     1      -5.250  48.848 -22.893  1.00  0.00    -0.001 C 
HETATM    2  C10 UNL     1      -5.124  49.650 -21.565  1.00  0.00     0.007 C 
HETATM    3  C11 UNL     1      -3.942  50.624 -21.712  1.00  0.00     0.024 C 
HETATM    4  C12 UNL     1      -3.501  50.468 -23.149  1.00  0.00     0.092 C 
HETATM    5  C13 UNL     1      -4.261  51.437 -24.090  1.00  0.00     0.272 C 
HETATM    6  O1  UNL     1      -5.363  51.930 -23.926  1.00  0.00    -0.264 OA
HETATM    7  O2  UNL     1      -3.465  51.682 -25.195  1.00  0.00    -0.305 OA
HETATM    8  C14 UNL     1      -2.226  50.944 -25.055  1.00  0.00     0.113 C 
HETATM    9  C15 UNL     1      -2.486  49.525 -25.650  1.00  0.00     0.043 C 
HETATM   10  C16 UNL     1      -3.738  48.823 -25.057  1.00  0.00     0.014 C 
HETATM   11  C17 UNL     1      -3.824  48.983 -23.517  1.00  0.00    -0.020 C 
HETATM   12  C18 UNL     1      -2.844  47.976 -22.862  1.00  0.00     0.017 C 
HETATM   13  C19 UNL     1      -2.133  50.839 -23.567  1.00  0.00     0.137 A 
HETATM   14  O3  UNL     1      -0.978  50.335 -22.927  1.00  0.00    -0.364 OA
HETATM   15  C20 UNL     1      -1.243  51.746 -22.762  1.00  0.00     0.162 A 
HETATM   16  C21 UNL     1      -0.270  52.648 -23.444  1.00  0.00     0.041 C 
HETATM   17  C22 UNL     1      -0.724  53.029 -24.870  1.00  0.00     0.010 C 
HETATM   18  C23 UNL     1       0.298  53.982 -25.550  1.00  0.00     0.056 C 
HETATM   19  C24 UNL     1       0.506  55.285 -24.772  1.00  0.00     0.018 C 
HETATM   20  C25 UNL     1      -0.151  54.295 -26.976  1.00  0.00     0.131 C 
HETATM   21  O4  UNL     1      -0.171  55.436 -27.435  1.00  0.00    -0.298 OA
HETATM   22  C26 UNL     1      -0.476  53.110 -27.849  1.00  0.00     0.079 C 
HETATM   23  C27 UNL     1      -1.491  52.218 -27.151  1.00  0.00     0.020 C 
HETATM   24  C28 UNL     1      -1.048  51.745 -25.731  1.00  0.00    -0.004 C 
HETATM   25  C29 UNL     1       0.204  50.841 -25.886  1.00  0.00     0.019 C 
ENDROOT
BRANCH   1  26
HETATM   26  C7  UNL     1      -5.858  47.435 -22.672  1.00  0.00    -0.014 C 
HETATM   27  C8  UNL     1      -6.997  47.116 -23.645  1.00  0.00     0.010 C 
BRANCH  26  28
HETATM   28  C6  UNL     1      -6.305  47.157 -21.209  1.00  0.00     0.008 C 
BRANCH  28  29
HETATM   29  C5  UNL     1      -5.537  46.092 -20.407  1.00  0.00     0.028 C 
BRANCH  29  30
HETATM   30  C4  UNL     1      -4.155  46.507 -19.994  1.00  0.00    -0.025 C 
HETATM   31  C2  UNL     1      -3.797  47.396 -19.047  1.00  0.00    -0.091 C 
HETATM   32  C1  UNL     1      -4.739  48.177 -18.175  1.00  0.00     0.042 C 
HETATM   33  C3  UNL     1      -2.340  47.692 -18.793  1.00  0.00     0.042 C 
ENDBRANCH  29  30
ENDBRANCH  28  29
ENDBRANCH  26  28
ENDBRANCH   1  26
TORSDOF 4
ENDMDL
MODEL 8
REMARK minimizedAffinity -8.93161201
REMARK  4 active torsions:
REMARK  status: ('A' for Active; 'I' for Inactive)
REMARK    1  A    between atoms: C4_4  and  C5_5 
REMARK    2  A    between atoms: C5_5  and  C6_6 
REMARK    3  A    between atoms: C6_6  and  C7_7 
REMARK    4  A    between atoms: C7_7  and  C9_9 
ROOT
HETATM    1  C9  UNL     1      -5.112  48.883 -22.766  1.00  0.00    -0.001 C 
HETATM    2  C10 UNL     1      -4.934  49.659 -21.429  1.00  0.00     0.007 C 
HETATM    3  C11 UNL     1      -3.759  50.635 -21.602  1.00  0.00     0.024 C 
HETATM    4  C12 UNL     1      -3.373  50.507 -23.058  1.00  0.00     0.092 C 
HETATM    5  C13 UNL     1      -4.168  51.495 -23.949  1.00  0.00     0.272 C 
HETATM    6  O1  UNL     1      -5.262  51.985 -23.733  1.00  0.00    -0.264 OA
HETATM    7  O2  UNL     1      -3.415  51.761 -25.079  1.00  0.00    -0.305 OA
HETATM    8  C14 UNL     1      -2.173  51.021 -25.002  1.00  0.00     0.113 C 
HETATM    9  C15 UNL     1      -2.456  49.614 -25.614  1.00  0.00     0.043 C 
HETATM   10  C16 UNL     1      -3.685  48.900 -24.987  1.00  0.00     0.014 C 
HETATM   11  C17 UNL     1      -3.711  49.029 -23.442  1.00  0.00    -0.020 C 
HETATM   12  C18 UNL     1      -2.707  48.010 -22.845  1.00  0.00     0.017 C 
HETATM   13  C19 UNL     1      -2.022  50.886 -23.521  1.00  0.00     0.137 A 
HETATM   14  O3  UNL     1      -0.844  50.370 -22.936  1.00  0.00    -0.364 OA
HETATM   15  C20 UNL     1      -1.101  51.778 -22.733  1.00  0.00     0.162 A 
HETATM   16  C21 UNL     1      -0.154  52.693 -23.434  1.00  0.00     0.041 C 
HETATM   17  C22 UNL     1      -0.663  53.101 -24.834  1.00  0.00     0.010 C 
HETATM   18  C23 UNL     1       0.333  54.068 -25.534  1.00  0.00     0.056 C 
HETATM   19  C24 UNL     1       0.572  55.355 -24.739  1.00  0.00     0.018 C 
HETATM   20  C25 UNL     1      -0.170  54.409 -26.935  1.00  0.00     0.131 C 
HETATM   21  O4  UNL     1      -0.207  55.559 -27.371  1.00  0.00    -0.298 OA
HETATM   22  C26 UNL     1      -0.530  53.242 -27.818  1.00  0.00     0.079 C 
HETATM   23  C27 UNL     1      -1.518  52.336 -27.099  1.00  0.00     0.020 C 
HETATM   24  C28 UNL     1      -1.021  51.834 -25.707  1.00  0.00    -0.004 C 
HETATM   25  C29 UNL     1       0.223  50.934 -25.927  1.00  0.00     0.019 C 
ENDROOT
BRANCH   1  26
HETATM   26  C7  UNL     1      -5.713  47.465 -22.550  1.00  0.00    -0.014 C 
HETATM   27  C8  UNL     1      -7.049  47.266 -23.270  1.00  0.00     0.010 C 
BRANCH  26  28
HETATM   28  C6  UNL     1      -5.838  47.050 -21.056  1.00  0.00     0.008 C 
BRANCH  28  29
HETATM   29  C5  UNL     1      -5.191  45.725 -20.617  1.00  0.00     0.028 C 
BRANCH  29  30
HETATM   30  C4  UNL     1      -6.168  44.685 -20.152  1.00  0.00    -0.025 C 
HETATM   31  C2  UNL     1      -6.790  43.738 -20.882  1.00  0.00    -0.091 C 
HETATM   32  C1  UNL     1      -6.626  43.519 -22.360  1.00  0.00     0.042 C 
HETATM   33  C3  UNL     1      -7.762  42.789 -20.226  1.00  0.00     0.042 C 
ENDBRANCH  29  30
ENDBRANCH  28  29
ENDBRANCH  26  28
ENDBRANCH   1  26
TORSDOF 4
ENDMDL
MODEL 9
REMARK minimizedAffinity -8.82175827
REMARK  4 active torsions:
REMARK  status: ('A' for Active; 'I' for Inactive)
REMARK    1  A    between atoms: C4_4  and  C5_5 
REMARK    2  A    between atoms: C5_5  and  C6_6 
REMARK    3  A    between atoms: C6_6  and  C7_7 
REMARK    4  A    between atoms: C7_7  and  C9_9 
ROOT
HETATM    1  C9  UNL     1      -1.307  51.496 -22.122  1.00  0.00    -0.001 C 
HETATM    2  C10 UNL     1      -1.239  50.688 -23.451  1.00  0.00     0.007 C 
HETATM    3  C11 UNL     1      -2.277  49.556 -23.370  1.00  0.00     0.024 C 
HETATM    4  C12 UNL     1      -3.012  49.811 -22.074  1.00  0.00     0.092 C 
HETATM    5  C13 UNL     1      -4.229  50.749 -22.280  1.00  0.00     0.272 C 
HETATM    6  O1  UNL     1      -4.391  51.583 -23.153  1.00  0.00    -0.264 OA
HETATM    7  O2  UNL     1      -5.154  50.485 -21.286  1.00  0.00    -0.305 OA
HETATM    8  C14 UNL     1      -4.640  49.434 -20.432  1.00  0.00     0.113 C 
HETATM    9  C15 UNL     1      -3.776  50.135 -19.338  1.00  0.00     0.043 C 
HETATM   10  C16 UNL     1      -2.701  51.095 -19.916  1.00  0.00     0.014 C 
HETATM   11  C17 UNL     1      -1.959  50.479 -21.131  1.00  0.00    -0.020 C 
HETATM   12  C18 UNL     1      -0.902  49.475 -20.605  1.00  0.00     0.017 C 
HETATM   13  C19 UNL     1      -3.735  48.721 -21.384  1.00  0.00     0.137 A 
HETATM   14  O3  UNL     1      -3.121  47.493 -21.050  1.00  0.00    -0.364 OA
HETATM   15  C20 UNL     1      -4.147  47.445 -22.067  1.00  0.00     0.162 A 
HETATM   16  C21 UNL     1      -5.398  46.741 -21.659  1.00  0.00     0.041 C 
HETATM   17  C22 UNL     1      -6.445  47.707 -21.062  1.00  0.00     0.010 C 
HETATM   18  C23 UNL     1      -7.742  46.951 -20.662  1.00  0.00     0.056 C 
HETATM   19  C24 UNL     1      -8.402  46.234 -21.844  1.00  0.00     0.018 C 
HETATM   20  C25 UNL     1      -8.735  47.921 -20.025  1.00  0.00     0.131 C 
HETATM   21  O4  UNL     1      -9.923  47.968 -20.343  1.00  0.00    -0.298 OA
HETATM   22  C26 UNL     1      -8.210  48.767 -18.893  1.00  0.00     0.079 C 
HETATM   23  C27 UNL     1      -6.953  49.499 -19.336  1.00  0.00     0.020 C 
HETATM   24  C28 UNL     1      -5.831  48.560 -19.882  1.00  0.00    -0.004 C 
HETATM   25  C29 UNL     1      -5.348  47.650 -18.722  1.00  0.00     0.019 C 
ENDROOT
BRANCH   1  26
HETATM   26  C7  UNL     1       0.054  52.152 -21.760  1.00  0.00    -0.014 C 
HETATM   27  C8  UNL     1       0.007  52.941 -20.449  1.00  0.00     0.010 C 
BRANCH  26  28
HETATM   28  C6  UNL     1       0.659  53.028 -22.895  1.00  0.00     0.008 C 
BRANCH  28  29
HETATM   29  C5  UNL     1       0.182  52.775 -24.336  1.00  0.00     0.028 C 
BRANCH  29  30
HETATM   30  C4  UNL     1       1.289  52.531 -25.319  1.00  0.00    -0.025 C 
HETATM   31  C2  UNL     1       1.277  51.743 -26.412  1.00  0.00    -0.091 C 
HETATM   32  C1  UNL     1       0.113  50.922 -26.891  1.00  0.00     0.042 C 
HETATM   33  C3  UNL     1       2.510  51.614 -27.271  1.00  0.00     0.042 C 
ENDBRANCH  29  30
ENDBRANCH  28  29
ENDBRANCH  26  28
ENDBRANCH   1  26
TORSDOF 4
ENDMDL
