MODEL 1
REMARK minimizedAffinity -6.26577187
REMARK CNNscore 0.564020753
REMARK CNNaffinity 6.32680368
REMARK  7 active torsions:
REMARK  status: ('A' for Active; 'I' for Inactive)
REMARK    1  A    between atoms: C2_2  and  C4_4 
REMARK    2  A    between atoms: C7_7  and  O1_9 
REMARK    3  A    between atoms: C9_10  and  C10_11 
REMARK    4  A    between atoms: C11_12  and  C12_13 
REMARK    5  A    between atoms: C14_15  and  C15_16 
REMARK    6  A    between atoms: C24_26  and  C26_28 
REMARK    7  A    between atoms: C29_32  and  O4_34 
ROOT
HETATM    1  C15 UNL     1      -2.635  15.949   1.229  1.00  0.00     0.149 C 
HETATM    2  C16 UNL     1      -1.669  16.040   2.413  1.00  0.00     0.054 C 
HETATM    3  C17 UNL     1      -0.471  15.109   2.072  1.00  0.00     0.050 C 
HETATM    4  C18 UNL     1      -0.748  14.806   0.587  1.00  0.00     0.272 C 
HETATM    5  O2  UNL     1      -0.167  15.811  -0.239  1.00  0.00    -0.360 OA
HETATM    6  C19 UNL     1       1.125  15.478  -0.738  1.00  0.00     0.171 C 
HETATM    7  C20 UNL     1       2.049  14.758   0.239  1.00  0.00     0.027 C 
HETATM    8  C21 UNL     1       2.156  15.373   1.633  1.00  0.00     0.012 C 
HETATM    9  C22 UNL     1       0.860  15.913   2.287  1.00  0.00     0.032 C 
HETATM   10  C23 UNL     1       1.110  16.185   3.785  1.00  0.00    -0.066 C 
HETATM   11  C24 UNL     1       1.288  17.437   4.286  1.00  0.00    -0.021 C 
HETATM   12  C25 UNL     1       1.291  18.717   3.486  1.00  0.00     0.052 C 
HETATM   13  C27 UNL     1       1.086  14.913   4.614  1.00  0.00     0.038 C 
HETATM   14  C28 UNL     1      -0.201  14.112   4.415  1.00  0.00     0.042 C 
HETATM   15  C29 UNL     1      -0.495  13.801   2.935  1.00  0.00     0.067 C 
HETATM   16  C30 UNL     1      -1.797  12.987   2.840  1.00  0.00     0.047 C 
HETATM   17  O5  UNL     1      -2.174  14.858   0.439  1.00  0.00    -0.351 OA
ENDROOT
BRANCH   1  18
HETATM   18  C14 UNL     1      -4.070  15.773   1.661  1.00  0.00     0.011 C 
HETATM   19  C12 UNL     1      -5.009  16.711   1.920  1.00  0.00    -0.064 C 
HETATM   20  C13 UNL     1      -4.738  18.194   1.879  1.00  0.00     0.048 C 
BRANCH  19  21
HETATM   21  C11 UNL     1      -6.348  16.259   2.293  1.00  0.00     0.003 C 
HETATM   22  C10 UNL     1      -7.146  16.797   3.233  1.00  0.00    -0.018 C 
BRANCH  22  23
HETATM   23  C9  UNL     1      -8.531  16.299   3.599  1.00  0.00     0.050 C 
HETATM   24  C4  UNL     1      -8.630  15.736   5.053  1.00  0.00     0.024 C 
HETATM   25  C5  UNL     1      -9.684  14.625   4.961  1.00  0.00     0.013 C 
HETATM   26  C6  UNL     1      -9.391  13.993   3.606  1.00  0.00     0.039 C 
HETATM   27  C7  UNL     1      -9.169  15.200   2.687  1.00  0.00     0.062 C 
HETATM   28  C8  UNL     1      -8.420  14.809   1.414  1.00  0.00     0.046 C 
BRANCH  24  29
HETATM   29  C2  UNL     1      -8.894  16.788   6.120  1.00  0.00    -0.088 C 
HETATM   30  C1  UNL     1      -7.886  17.507   6.649  1.00  0.00     0.014 C 
HETATM   31  C3  UNL     1     -10.312  17.021   6.568  1.00  0.00     0.043 C 
ENDBRANCH  24  29
BRANCH  27  32
HETATM   32  O1  UNL     1     -10.469  15.661   2.276  1.00  0.00    -0.390 OA
HETATM   33  H14 UNL     1     -10.338  16.415   1.675  1.00  0.00     0.210 HD
ENDBRANCH  27  32
ENDBRANCH  22  23
ENDBRANCH  19  21
ENDBRANCH   1  18
BRANCH  15  34
HETATM   34  O4  UNL     1       0.551  12.932   2.474  1.00  0.00    -0.389 OA
HETATM   35  H44 UNL     1       0.518  12.105   2.987  1.00  0.00     0.210 HD
ENDBRANCH  15  34
BRANCH  11  36
HETATM   36  C26 UNL     1       1.519  17.689   5.747  1.00  0.00     0.265 C 
HETATM   37  O3  UNL     1       2.638  17.692   6.247  1.00  0.00    -0.302 OA
ENDBRANCH  11  36
TORSDOF 7
ENDMDL
MODEL 2
REMARK minimizedAffinity -7.75781107
REMARK CNNscore 0.498185933
REMARK CNNaffinity 6.29572535
REMARK  7 active torsions:
REMARK  status: ('A' for Active; 'I' for Inactive)
REMARK    1  A    between atoms: C2_2  and  C4_4 
REMARK    2  A    between atoms: C7_7  and  O1_9 
REMARK    3  A    between atoms: C9_10  and  C10_11 
REMARK    4  A    between atoms: C11_12  and  C12_13 
REMARK    5  A    between atoms: C14_15  and  C15_16 
REMARK    6  A    between atoms: C24_26  and  C26_28 
REMARK    7  A    between atoms: C29_32  and  O4_34 
ROOT
HETATM    1  C15 UNL     1     -12.119 -12.326  26.169  1.00  0.00     0.149 C 
HETATM    2  C16 UNL     1     -11.155 -11.843  25.083  1.00  0.00     0.054 C 
HETATM    3  C17 UNL     1     -10.354 -13.094  24.621  1.00  0.00     0.050 C 
HETATM    4  C18 UNL     1     -11.156 -14.222  25.298  1.00  0.00     0.272 C 
HETATM    5  O2  UNL     1     -12.231 -14.635  24.459  1.00  0.00    -0.360 OA
HETATM    6  C19 UNL     1     -11.932 -15.765  23.645  1.00  0.00     0.171 C 
HETATM    7  C20 UNL     1     -10.528 -15.801  23.048  1.00  0.00     0.027 C 
HETATM    8  C21 UNL     1     -10.057 -14.514  22.372  1.00  0.00     0.012 C 
HETATM    9  C22 UNL     1     -10.408 -13.168  23.054  1.00  0.00     0.032 C 
HETATM   10  C23 UNL     1      -9.583 -12.033  22.414  1.00  0.00    -0.066 C 
HETATM   11  C24 UNL     1     -10.113 -11.148  21.528  1.00  0.00    -0.021 C 
HETATM   12  C25 UNL     1     -11.538 -11.143  21.028  1.00  0.00     0.052 C 
HETATM   13  C27 UNL     1      -8.152 -12.002  22.922  1.00  0.00     0.038 C 
HETATM   14  C28 UNL     1      -8.077 -11.934  24.448  1.00  0.00     0.042 C 
HETATM   15  C29 UNL     1      -8.875 -13.055  25.141  1.00  0.00     0.067 C 
HETATM   16  C30 UNL     1      -8.730 -12.908  26.666  1.00  0.00     0.047 C 
HETATM   17  O5  UNL     1     -11.701 -13.648  26.494  1.00  0.00    -0.351 OA
ENDROOT
BRANCH   1  18
HETATM   18  C14 UNL     1     -12.136 -11.421  27.375  1.00  0.00     0.011 C 
HETATM   19  C12 UNL     1     -12.849 -10.292  27.591  1.00  0.00    -0.064 C 
HETATM   20  C13 UNL     1     -13.759  -9.672  26.561  1.00  0.00     0.048 C 
BRANCH  19  21
HETATM   21  C11 UNL     1     -12.699  -9.620  28.881  1.00  0.00     0.003 C 
HETATM   22  C10 UNL     1     -13.080  -8.366  29.183  1.00  0.00    -0.018 C 
BRANCH  22  23
HETATM   23  C9  UNL     1     -12.906  -7.696  30.533  1.00  0.00     0.050 C 
HETATM   24  C4  UNL     1     -14.037  -8.040  31.554  1.00  0.00     0.024 C 
HETATM   25  C5  UNL     1     -14.176  -6.775  32.411  1.00  0.00     0.013 C 
HETATM   26  C6  UNL     1     -13.982  -5.657  31.394  1.00  0.00     0.039 C 
HETATM   27  C7  UNL     1     -12.791  -6.135  30.555  1.00  0.00     0.062 C 
HETATM   28  C8  UNL     1     -12.717  -5.408  29.213  1.00  0.00     0.046 C 
BRANCH  24  29
HETATM   29  C2  UNL     1     -13.810  -9.325  32.336  1.00  0.00    -0.088 C 
HETATM   30  C1  UNL     1     -13.042  -9.338  33.442  1.00  0.00     0.014 C 
HETATM   31  C3  UNL     1     -14.473 -10.588  31.856  1.00  0.00     0.043 C 
ENDBRANCH  24  29
BRANCH  27  32
HETATM   32  O1  UNL     1     -11.598  -5.786  31.280  1.00  0.00    -0.390 OA
HETATM   33  H14 UNL     1     -10.835  -6.069  30.746  1.00  0.00     0.210 HD
ENDBRANCH  27  32
ENDBRANCH  22  23
ENDBRANCH  19  21
ENDBRANCH   1  18
BRANCH  15  34
HETATM   34  O4  UNL     1      -8.239 -14.295  24.799  1.00  0.00    -0.389 OA
HETATM   35  H44 UNL     1      -7.330 -14.287  25.150  1.00  0.00     0.210 HD
ENDBRANCH  15  34
BRANCH  11  36
HETATM   36  C26 UNL     1      -9.303 -10.040  20.921  1.00  0.00     0.265 C 
HETATM   37  O3  UNL     1      -8.135 -10.188  20.580  1.00  0.00    -0.302 OA
ENDBRANCH  11  36
TORSDOF 7
ENDMDL
MODEL 3
REMARK minimizedAffinity -6.2802515
REMARK CNNscore 0.381473124
REMARK CNNaffinity 5.98793411
REMARK  7 active torsions:
REMARK  status: ('A' for Active; 'I' for Inactive)
REMARK    1  A    between atoms: C2_2  and  C4_4 
REMARK    2  A    between atoms: C7_7  and  O1_9 
REMARK    3  A    between atoms: C9_10  and  C10_11 
REMARK    4  A    between atoms: C11_12  and  C12_13 
REMARK    5  A    between atoms: C14_15  and  C15_16 
REMARK    6  A    between atoms: C24_26  and  C26_28 
REMARK    7  A    between atoms: C29_32  and  O4_34 
ROOT
HETATM    1  C15 UNL     1     -12.963 -11.980  26.292  1.00  0.00     0.149 C 
HETATM    2  C16 UNL     1     -11.588 -11.836  25.635  1.00  0.00     0.054 C 
HETATM    3  C17 UNL     1     -11.182 -13.258  25.154  1.00  0.00     0.050 C 
HETATM    4  C18 UNL     1     -12.509 -14.019  25.333  1.00  0.00     0.272 C 
HETATM    5  O2  UNL     1     -13.317 -13.884  24.166  1.00  0.00    -0.360 OA
HETATM    6  C19 UNL     1     -13.188 -14.962  23.244  1.00  0.00     0.171 C 
HETATM    7  C20 UNL     1     -11.777 -15.511  23.056  1.00  0.00     0.027 C 
HETATM    8  C21 UNL     1     -10.682 -14.472  22.822  1.00  0.00     0.012 C 
HETATM    9  C22 UNL     1     -10.735 -13.165  23.652  1.00  0.00     0.032 C 
HETATM   10  C23 UNL     1      -9.397 -12.410  23.514  1.00  0.00    -0.066 C 
HETATM   11  C24 UNL     1      -9.249 -11.312  22.726  1.00  0.00    -0.021 C 
HETATM   12  C25 UNL     1     -10.325 -10.686  21.872  1.00  0.00     0.052 C 
HETATM   13  C27 UNL     1      -8.305 -13.008  24.386  1.00  0.00     0.038 C 
HETATM   14  C28 UNL     1      -8.722 -13.111  25.854  1.00  0.00     0.042 C 
HETATM   15  C29 UNL     1     -10.050 -13.868  26.051  1.00  0.00     0.067 C 
HETATM   16  C30 UNL     1     -10.377 -13.927  27.553  1.00  0.00     0.047 C 
HETATM   17  O5  UNL     1     -13.178 -13.381  26.430  1.00  0.00    -0.351 OA
ENDROOT
BRANCH   1  18
HETATM   18  C14 UNL     1     -13.056 -11.256  27.611  1.00  0.00     0.011 C 
HETATM   19  C12 UNL     1     -13.432  -9.982  27.867  1.00  0.00    -0.064 C 
HETATM   20  C13 UNL     1     -13.781  -8.985  26.790  1.00  0.00     0.048 C 
BRANCH  19  21
HETATM   21  C11 UNL     1     -13.465  -9.541  29.260  1.00  0.00     0.003 C 
HETATM   22  C10 UNL     1     -14.560  -9.244  29.984  1.00  0.00    -0.018 C 
BRANCH  22  23
HETATM   23  C9  UNL     1     -14.559  -8.784  31.429  1.00  0.00     0.050 C 
HETATM   24  C4  UNL     1     -13.204  -8.152  31.885  1.00  0.00     0.024 C 
HETATM   25  C5  UNL     1     -13.093  -8.517  33.370  1.00  0.00     0.013 C 
HETATM   26  C6  UNL     1     -13.661  -9.930  33.413  1.00  0.00     0.039 C 
HETATM   27  C7  UNL     1     -14.908  -9.844  32.525  1.00  0.00     0.062 C 
HETATM   28  C8  UNL     1     -15.365 -11.226  32.059  1.00  0.00     0.046 C 
BRANCH  24  29
HETATM   29  C2  UNL     1     -13.065  -6.669  31.574  1.00  0.00    -0.088 C 
HETATM   30  C1  UNL     1     -13.857  -5.758  32.171  1.00  0.00     0.014 C 
HETATM   31  C3  UNL     1     -12.012  -6.233  30.591  1.00  0.00     0.043 C 
ENDBRANCH  24  29
BRANCH  27  32
HETATM   32  O1  UNL     1     -15.969  -9.312  33.339  1.00  0.00    -0.390 OA
HETATM   33  H14 UNL     1     -16.770  -9.272  32.789  1.00  0.00     0.210 HD
ENDBRANCH  27  32
ENDBRANCH  22  23
ENDBRANCH  19  21
ENDBRANCH   1  18
BRANCH  15  34
HETATM   34  O4  UNL     1      -9.824 -15.224  25.639  1.00  0.00    -0.389 OA
HETATM   35  H44 UNL     1      -9.143 -15.616  26.217  1.00  0.00     0.210 HD
ENDBRANCH  15  34
BRANCH  11  36
HETATM   36  C26 UNL     1      -7.944 -10.580  22.611  1.00  0.00     0.265 C 
HETATM   37  O3  UNL     1      -6.875 -11.157  22.455  1.00  0.00    -0.302 OA
ENDBRANCH  11  36
TORSDOF 7
ENDMDL
MODEL 4
REMARK minimizedAffinity -7.49086189
REMARK CNNscore 0.379886568
REMARK CNNaffinity 6.13910627
REMARK  7 active torsions:
REMARK  status: ('A' for Active; 'I' for Inactive)
REMARK    1  A    between atoms: C2_2  and  C4_4 
REMARK    2  A    between atoms: C7_7  and  O1_9 
REMARK    3  A    between atoms: C9_10  and  C10_11 
REMARK    4  A    between atoms: C11_12  and  C12_13 
REMARK    5  A    between atoms: C14_15  and  C15_16 
REMARK    6  A    between atoms: C24_26  and  C26_28 
REMARK    7  A    between atoms: C29_32  and  O4_34 
ROOT
HETATM    1  C15 UNL     1      -2.924   8.171  13.294  1.00  0.00     0.149 C 
HETATM    2  C16 UNL     1      -1.492   8.079  12.761  1.00  0.00     0.054 C 
HETATM    3  C17 UNL     1      -1.044   6.603  12.967  1.00  0.00     0.050 C 
HETATM    4  C18 UNL     1      -2.384   5.938  13.336  1.00  0.00     0.272 C 
HETATM    5  O2  UNL     1      -3.075   5.535  12.156  1.00  0.00    -0.360 OA
HETATM    6  C19 UNL     1      -2.860   4.174  11.794  1.00  0.00     0.171 C 
HETATM    7  C20 UNL     1      -1.439   3.653  11.983  1.00  0.00     0.027 C 
HETATM    8  C21 UNL     1      -0.324   4.537  11.426  1.00  0.00     0.012 C 
HETATM    9  C22 UNL     1      -0.455   6.069  11.614  1.00  0.00     0.032 C 
HETATM   10  C23 UNL     1       0.892   6.747  11.286  1.00  0.00    -0.066 C 
HETATM   11  C24 UNL     1       1.116   7.414  10.123  1.00  0.00    -0.021 C 
HETATM   12  C25 UNL     1       0.129   7.576   8.993  1.00  0.00     0.052 C 
HETATM   13  C27 UNL     1       1.894   6.618  12.421  1.00  0.00     0.038 C 
HETATM   14  C28 UNL     1       1.337   7.130  13.751  1.00  0.00     0.042 C 
HETATM   15  C29 UNL     1      -0.004   6.476  14.134  1.00  0.00     0.067 C 
HETATM   16  C30 UNL     1      -0.474   7.044  15.484  1.00  0.00     0.047 C 
HETATM   17  O5  UNL     1      -3.154   6.953  13.994  1.00  0.00    -0.351 OA
ENDROOT
BRANCH   1  18
HETATM   18  C14 UNL     1      -3.142   9.382  14.166  1.00  0.00     0.011 C 
HETATM   19  C12 UNL     1      -4.222   9.725  14.904  1.00  0.00    -0.064 C 
HETATM   20  C13 UNL     1      -5.504   8.931  14.923  1.00  0.00     0.048 C 
BRANCH  19  21
HETATM   21  C11 UNL     1      -4.153  10.952  15.695  1.00  0.00     0.003 C 
HETATM   22  C10 UNL     1      -3.378  12.024  15.451  1.00  0.00    -0.018 C 
BRANCH  22  23
HETATM   23  C9  UNL     1      -3.328  13.283  16.297  1.00  0.00     0.050 C 
HETATM   24  C4  UNL     1      -4.387  13.309  17.445  1.00  0.00     0.024 C 
HETATM   25  C5  UNL     1      -4.746  14.792  17.600  1.00  0.00     0.013 C 
HETATM   26  C6  UNL     1      -4.744  15.291  16.161  1.00  0.00     0.039 C 
HETATM   27  C7  UNL     1      -3.484  14.655  15.561  1.00  0.00     0.062 C 
HETATM   28  C8  UNL     1      -3.531  14.641  14.033  1.00  0.00     0.046 C 
BRANCH  24  29
HETATM   29  C2  UNL     1      -3.944  12.616  18.726  1.00  0.00    -0.088 C 
HETATM   30  C1  UNL     1      -2.776  11.950  18.786  1.00  0.00     0.014 C 
HETATM   31  C3  UNL     1      -4.835  12.700  19.936  1.00  0.00     0.043 C 
ENDBRANCH  24  29
BRANCH  27  32
HETATM   32  O1  UNL     1      -2.372  15.489  15.932  1.00  0.00    -0.390 OA
HETATM   33  H14 UNL     1      -1.570  15.104  15.539  1.00  0.00     0.210 HD
ENDBRANCH  27  32
ENDBRANCH  22  23
ENDBRANCH  19  21
ENDBRANCH   1  18
BRANCH  15  34
HETATM   34  O4  UNL     1       0.258   5.082  14.359  1.00  0.00    -0.389 OA
HETATM   35  H44 UNL     1       0.879   4.999  15.105  1.00  0.00     0.210 HD
ENDBRANCH  15  34
BRANCH  11  36
HETATM   36  C26 UNL     1       2.427   8.079   9.821  1.00  0.00     0.265 C 
HETATM   37  O3  UNL     1       3.180   7.684   8.940  1.00  0.00    -0.302 OA
ENDBRANCH  11  36
TORSDOF 7
ENDMDL
MODEL 5
REMARK minimizedAffinity -7.71121073
REMARK CNNscore 0.323362648
REMARK CNNaffinity 6.06047583
REMARK  7 active torsions:
REMARK  status: ('A' for Active; 'I' for Inactive)
REMARK    1  A    between atoms: C2_2  and  C4_4 
REMARK    2  A    between atoms: C7_7  and  O1_9 
REMARK    3  A    between atoms: C9_10  and  C10_11 
REMARK    4  A    between atoms: C11_12  and  C12_13 
REMARK    5  A    between atoms: C14_15  and  C15_16 
REMARK    6  A    between atoms: C24_26  and  C26_28 
REMARK    7  A    between atoms: C29_32  and  O4_34 
ROOT
HETATM    1  C15 UNL     1      -2.740   8.128  13.547  1.00  0.00     0.149 C 
HETATM    2  C16 UNL     1      -1.342   8.050  12.930  1.00  0.00     0.054 C 
HETATM    3  C17 UNL     1      -0.925   6.552  12.977  1.00  0.00     0.050 C 
HETATM    4  C18 UNL     1      -2.263   5.888  13.358  1.00  0.00     0.272 C 
HETATM    5  O2  UNL     1      -3.027   5.611  12.187  1.00  0.00    -0.360 OA
HETATM    6  C19 UNL     1      -2.870   4.284  11.693  1.00  0.00     0.171 C 
HETATM    7  C20 UNL     1      -1.456   3.714  11.754  1.00  0.00     0.027 C 
HETATM    8  C21 UNL     1      -0.348   4.619  11.219  1.00  0.00     0.012 C 
HETATM    9  C22 UNL     1      -0.424   6.130  11.551  1.00  0.00     0.032 C 
HETATM   10  C23 UNL     1       0.922   6.803  11.212  1.00  0.00    -0.066 C 
HETATM   11  C24 UNL     1       1.103   7.567  10.102  1.00  0.00    -0.021 C 
HETATM   12  C25 UNL     1       0.062   7.856   9.048  1.00  0.00     0.052 C 
HETATM   13  C27 UNL     1       1.978   6.547  12.273  1.00  0.00     0.038 C 
HETATM   14  C28 UNL     1       1.508   6.948  13.672  1.00  0.00     0.042 C 
HETATM   15  C29 UNL     1       0.170   6.294  14.068  1.00  0.00     0.067 C 
HETATM   16  C30 UNL     1      -0.211   6.747  15.488  1.00  0.00     0.047 C 
HETATM   17  O5  UNL     1      -2.967   6.856  14.147  1.00  0.00    -0.351 OA
ENDROOT
BRANCH   1  18
HETATM   18  C14 UNL     1      -2.877   9.258  14.536  1.00  0.00     0.011 C 
HETATM   19  C12 UNL     1      -3.965   9.667  15.227  1.00  0.00    -0.064 C 
HETATM   20  C13 UNL     1      -5.334   9.058  15.061  1.00  0.00     0.048 C 
BRANCH  19  21
HETATM   21  C11 UNL     1      -3.809  10.783  16.159  1.00  0.00     0.003 C 
HETATM   22  C10 UNL     1      -4.583  11.880  16.236  1.00  0.00    -0.018 C 
BRANCH  22  23
HETATM   23  C9  UNL     1      -4.391  13.024  17.213  1.00  0.00     0.050 C 
HETATM   24  C4  UNL     1      -3.852  12.573  18.609  1.00  0.00     0.024 C 
HETATM   25  C5  UNL     1      -4.478  13.562  19.599  1.00  0.00     0.013 C 
HETATM   26  C6  UNL     1      -5.876  13.770  19.029  1.00  0.00     0.039 C 
HETATM   27  C7  UNL     1      -5.631  13.927  17.523  1.00  0.00     0.062 C 
HETATM   28  C8  UNL     1      -6.906  13.685  16.716  1.00  0.00     0.046 C 
BRANCH  24  29
HETATM   29  C2  UNL     1      -2.337  12.453  18.690  1.00  0.00    -0.088 C 
HETATM   30  C1  UNL     1      -1.552  13.547  18.666  1.00  0.00     0.014 C 
HETATM   31  C3  UNL     1      -1.727  11.082  18.811  1.00  0.00     0.043 C 
ENDBRANCH  24  29
BRANCH  27  32
HETATM   32  O1  UNL     1      -5.253  15.297  17.298  1.00  0.00    -0.390 OA
HETATM   33  H14 UNL     1      -5.115  15.410  16.342  1.00  0.00     0.210 HD
ENDBRANCH  27  32
ENDBRANCH  22  23
ENDBRANCH  19  21
ENDBRANCH   1  18
BRANCH  15  34
HETATM   34  O4  UNL     1       0.404   4.880  14.152  1.00  0.00    -0.389 OA
HETATM   35  H44 UNL     1       1.061   4.714  14.853  1.00  0.00     0.210 HD
ENDBRANCH  15  34
BRANCH  11  36
HETATM   36  C26 UNL     1       2.415   8.227   9.790  1.00  0.00     0.265 C 
HETATM   37  O3  UNL     1       3.240   7.728   9.034  1.00  0.00    -0.302 OA
ENDBRANCH  11  36
TORSDOF 7
ENDMDL
MODEL 6
REMARK minimizedAffinity -7.4308033
REMARK CNNscore 0.29921931
REMARK CNNaffinity 6.04302454
REMARK  7 active torsions:
REMARK  status: ('A' for Active; 'I' for Inactive)
REMARK    1  A    between atoms: C2_2  and  C4_4 
REMARK    2  A    between atoms: C7_7  and  O1_9 
REMARK    3  A    between atoms: C9_10  and  C10_11 
REMARK    4  A    between atoms: C11_12  and  C12_13 
REMARK    5  A    between atoms: C14_15  and  C15_16 
REMARK    6  A    between atoms: C24_26  and  C26_28 
REMARK    7  A    between atoms: C29_32  and  O4_34 
ROOT
HETATM    1  C15 UNL     1      -2.076   8.167  12.965  1.00  0.00     0.149 C 
HETATM    2  C16 UNL     1      -0.697   8.223  12.303  1.00  0.00     0.054 C 
HETATM    3  C17 UNL     1      -0.028   6.844  12.569  1.00  0.00     0.050 C 
HETATM    4  C18 UNL     1      -1.224   6.038  13.113  1.00  0.00     0.272 C 
HETATM    5  O2  UNL     1      -1.951   5.448  12.038  1.00  0.00    -0.360 OA
HETATM    6  C19 UNL     1      -1.578   4.103  11.755  1.00  0.00     0.171 C 
HETATM    7  C20 UNL     1      -0.086   3.795  11.840  1.00  0.00     0.027 C 
HETATM    8  C21 UNL     1       0.840   4.771  11.115  1.00  0.00     0.012 C 
HETATM    9  C22 UNL     1       0.511   6.282  11.206  1.00  0.00     0.032 C 
HETATM   10  C23 UNL     1       1.714   7.105  10.701  1.00  0.00    -0.066 C 
HETATM   11  C24 UNL     1       1.740   7.696   9.477  1.00  0.00    -0.021 C 
HETATM   12  C25 UNL     1       0.645   7.629   8.440  1.00  0.00     0.052 C 
HETATM   13  C27 UNL     1       2.819   7.208  11.739  1.00  0.00     0.038 C 
HETATM   14  C28 UNL     1       2.313   7.749  13.077  1.00  0.00     0.042 C 
HETATM   15  C29 UNL     1       1.116   6.955  13.635  1.00  0.00     0.067 C 
HETATM   16  C30 UNL     1       0.689   7.567  14.980  1.00  0.00     0.047 C 
HETATM   17  O5  UNL     1      -2.069   6.992  13.770  1.00  0.00    -0.351 OA
ENDROOT
BRANCH   1  18
HETATM   18  C14 UNL     1      -2.386   9.406  13.767  1.00  0.00     0.011 C 
HETATM   19  C12 UNL     1      -3.515   9.737  14.434  1.00  0.00    -0.064 C 
HETATM   20  C13 UNL     1      -4.763   8.890  14.430  1.00  0.00     0.048 C 
BRANCH  19  21
HETATM   21  C11 UNL     1      -3.536  11.001  15.168  1.00  0.00     0.003 C 
HETATM   22  C10 UNL     1      -4.447  11.388  16.079  1.00  0.00    -0.018 C 
BRANCH  22  23
HETATM   23  C9  UNL     1      -4.441  12.712  16.820  1.00  0.00     0.050 C 
HETATM   24  C4  UNL     1      -3.612  13.826  16.104  1.00  0.00     0.024 C 
HETATM   25  C5  UNL     1      -3.050  14.679  17.250  1.00  0.00     0.013 C 
HETATM   26  C6  UNL     1      -2.717  13.638  18.312  1.00  0.00     0.039 C 
HETATM   27  C7  UNL     1      -3.937  12.709  18.301  1.00  0.00     0.062 C 
HETATM   28  C8  UNL     1      -3.623  11.358  18.943  1.00  0.00     0.046 C 
BRANCH  24  29
HETATM   29  C2  UNL     1      -4.380  14.600  15.043  1.00  0.00    -0.088 C 
HETATM   30  C1  UNL     1      -3.754  15.104  13.963  1.00  0.00     0.014 C 
HETATM   31  C3  UNL     1      -5.864  14.783  15.216  1.00  0.00     0.043 C 
ENDBRANCH  24  29
BRANCH  27  32
HETATM   32  O1  UNL     1      -4.946  13.329  19.117  1.00  0.00    -0.390 OA
HETATM   33  H14 UNL     1      -5.718  12.737  19.132  1.00  0.00     0.210 HD
ENDBRANCH  27  32
ENDBRANCH  22  23
ENDBRANCH  19  21
ENDBRANCH   1  18
BRANCH  15  34
HETATM   34  O4  UNL     1       1.591   5.633  13.931  1.00  0.00    -0.389 OA
HETATM   35  H44 UNL     1       2.281   5.697  14.618  1.00  0.00     0.210 HD
ENDBRANCH  15  34
BRANCH  11  36
HETATM   36  C26 UNL     1       2.912   8.504   9.002  1.00  0.00     0.265 C 
HETATM   37  O3  UNL     1       3.039   8.859   7.837  1.00  0.00    -0.302 OA
ENDBRANCH  11  36
TORSDOF 7
ENDMDL
MODEL 7
REMARK minimizedAffinity -6.41772938
REMARK CNNscore 0.295214832
REMARK CNNaffinity 6.03985214
REMARK  7 active torsions:
REMARK  status: ('A' for Active; 'I' for Inactive)
REMARK    1  A    between atoms: C2_2  and  C4_4 
REMARK    2  A    between atoms: C7_7  and  O1_9 
REMARK    3  A    between atoms: C9_10  and  C10_11 
REMARK    4  A    between atoms: C11_12  and  C12_13 
REMARK    5  A    between atoms: C14_15  and  C15_16 
REMARK    6  A    between atoms: C24_26  and  C26_28 
REMARK    7  A    between atoms: C29_32  and  O4_34 
ROOT
HETATM    1  C15 UNL     1     -12.951   8.290  22.201  1.00  0.00     0.149 C 
HETATM    2  C16 UNL     1     -13.524   9.497  22.948  1.00  0.00     0.054 C 
HETATM    3  C17 UNL     1     -12.355  10.513  23.100  1.00  0.00     0.050 C 
HETATM    4  C18 UNL     1     -11.303   9.892  22.161  1.00  0.00     0.272 C 
HETATM    5  O2  UNL     1     -11.497  10.356  20.827  1.00  0.00    -0.360 OA
HETATM    6  C19 UNL     1     -10.687  11.475  20.479  1.00  0.00     0.171 C 
HETATM    7  C20 UNL     1     -10.509  12.531  21.566  1.00  0.00     0.027 C 
HETATM    8  C21 UNL     1     -11.787  12.991  22.265  1.00  0.00     0.012 C 
HETATM    9  C22 UNL     1     -12.851  11.918  22.608  1.00  0.00     0.032 C 
HETATM   10  C23 UNL     1     -13.891  12.513  23.580  1.00  0.00    -0.066 C 
HETATM   11  C24 UNL     1     -15.133  12.898  23.183  1.00  0.00    -0.021 C 
HETATM   12  C25 UNL     1     -15.673  12.827  21.774  1.00  0.00     0.052 C 
HETATM   13  C27 UNL     1     -13.379  12.570  25.009  1.00  0.00     0.038 C 
HETATM   14  C28 UNL     1     -12.887  11.211  25.506  1.00  0.00     0.042 C 
HETATM   15  C29 UNL     1     -11.835  10.574  24.577  1.00  0.00     0.067 C 
HETATM   16  C30 UNL     1     -11.396   9.222  25.165  1.00  0.00     0.047 C 
HETATM   17  O5  UNL     1     -11.539   8.478  22.193  1.00  0.00    -0.351 OA
ENDROOT
BRANCH   1  18
HETATM   18  C14 UNL     1     -13.349   6.977  22.827  1.00  0.00     0.011 C 
HETATM   19  C12 UNL     1     -13.925   5.895  22.257  1.00  0.00    -0.064 C 
HETATM   20  C13 UNL     1     -14.355   5.843  20.813  1.00  0.00     0.048 C 
BRANCH  19  21
HETATM   21  C11 UNL     1     -14.175   4.726  23.099  1.00  0.00     0.003 C 
HETATM   22  C10 UNL     1     -13.533   4.400  24.235  1.00  0.00    -0.018 C 
BRANCH  22  23
HETATM   23  C9  UNL     1     -13.815   3.175  25.084  1.00  0.00     0.050 C 
HETATM   24  C4  UNL     1     -14.030   3.498  26.598  1.00  0.00     0.024 C 
HETATM   25  C5  UNL     1     -13.486   2.265  27.332  1.00  0.00     0.013 C 
HETATM   26  C6  UNL     1     -12.266   1.889  26.500  1.00  0.00     0.039 C 
HETATM   27  C7  UNL     1     -12.763   2.017  25.054  1.00  0.00     0.062 C 
HETATM   28  C8  UNL     1     -11.602   2.136  24.068  1.00  0.00     0.046 C 
BRANCH  24  29
HETATM   29  C2  UNL     1     -15.455   3.888  26.963  1.00  0.00    -0.088 C 
HETATM   30  C1  UNL     1     -15.754   5.146  27.338  1.00  0.00     0.014 C 
HETATM   31  C3  UNL     1     -16.532   2.840  26.884  1.00  0.00     0.043 C 
ENDBRANCH  24  29
BRANCH  27  32
HETATM   32  O1  UNL     1     -13.452   0.796  24.735  1.00  0.00    -0.390 OA
HETATM   33  H14 UNL     1     -13.754   0.860  23.812  1.00  0.00     0.210 HD
ENDBRANCH  27  32
ENDBRANCH  22  23
ENDBRANCH  19  21
ENDBRANCH   1  18
BRANCH  15  34
HETATM   34  O4  UNL     1     -10.675  11.419  24.617  1.00  0.00    -0.389 OA
HETATM   35  H44 UNL     1     -10.330  11.433  25.528  1.00  0.00     0.210 HD
ENDBRANCH  15  34
BRANCH  11  36
HETATM   36  C26 UNL     1     -16.140  13.464  24.140  1.00  0.00     0.265 C 
HETATM   37  O3  UNL     1     -16.107  14.628  24.520  1.00  0.00    -0.302 OA
ENDBRANCH  11  36
TORSDOF 7
ENDMDL
MODEL 8
REMARK minimizedAffinity -6.47480392
REMARK CNNscore 0.286192477
REMARK CNNaffinity 5.5894928
REMARK  7 active torsions:
REMARK  status: ('A' for Active; 'I' for Inactive)
REMARK    1  A    between atoms: C2_2  and  C4_4 
REMARK    2  A    between atoms: C7_7  and  O1_9 
REMARK    3  A    between atoms: C9_10  and  C10_11 
REMARK    4  A    between atoms: C11_12  and  C12_13 
REMARK    5  A    between atoms: C14_15  and  C15_16 
REMARK    6  A    between atoms: C24_26  and  C26_28 
REMARK    7  A    between atoms: C29_32  and  O4_34 
ROOT
HETATM    1  C15 UNL     1     -14.710   7.341  23.556  1.00  0.00     0.149 C 
HETATM    2  C16 UNL     1     -14.119   8.670  24.033  1.00  0.00     0.054 C 
HETATM    3  C17 UNL     1     -13.154   9.147  22.909  1.00  0.00     0.050 C 
HETATM    4  C18 UNL     1     -13.521   8.172  21.774  1.00  0.00     0.272 C 
HETATM    5  O2  UNL     1     -14.614   8.686  21.017  1.00  0.00    -0.360 OA
HETATM    6  C19 UNL     1     -14.224   9.403  19.849  1.00  0.00     0.171 C 
HETATM    7  C20 UNL     1     -12.996  10.296  19.996  1.00  0.00     0.027 C 
HETATM    8  C21 UNL     1     -12.981  11.214  21.218  1.00  0.00     0.012 C 
HETATM    9  C22 UNL     1     -13.497  10.639  22.561  1.00  0.00     0.032 C 
HETATM   10  C23 UNL     1     -13.103  11.584  23.714  1.00  0.00    -0.066 C 
HETATM   11  C24 UNL     1     -13.988  12.426  24.310  1.00  0.00    -0.021 C 
HETATM   12  C25 UNL     1     -15.444  12.583  23.942  1.00  0.00     0.052 C 
HETATM   13  C27 UNL     1     -11.647  11.426  24.119  1.00  0.00     0.038 C 
HETATM   14  C28 UNL     1     -11.292   9.978  24.459  1.00  0.00     0.042 C 
HETATM   15  C29 UNL     1     -11.654   8.988  23.334  1.00  0.00     0.067 C 
HETATM   16  C30 UNL     1     -11.250   7.568  23.764  1.00  0.00     0.047 C 
HETATM   17  O5  UNL     1     -13.940   6.962  22.420  1.00  0.00    -0.351 OA
ENDROOT
BRANCH   1  18
HETATM   18  C14 UNL     1     -14.702   6.283  24.631  1.00  0.00     0.011 C 
HETATM   19  C12 UNL     1     -15.304   5.072  24.648  1.00  0.00    -0.064 C 
HETATM   20  C13 UNL     1     -16.202   4.573  23.544  1.00  0.00     0.048 C 
BRANCH  19  21
HETATM   21  C11 UNL     1     -15.100   4.219  25.817  1.00  0.00     0.003 C 
HETATM   22  C10 UNL     1     -14.017   4.193  26.615  1.00  0.00    -0.018 C 
BRANCH  22  23
HETATM   23  C9  UNL     1     -13.835   3.290  27.821  1.00  0.00     0.050 C 
HETATM   24  C4  UNL     1     -13.197   4.010  29.052  1.00  0.00     0.024 C 
HETATM   25  C5  UNL     1     -12.380   2.917  29.752  1.00  0.00     0.013 C 
HETATM   26  C6  UNL     1     -11.806   2.125  28.584  1.00  0.00     0.039 C 
HETATM   27  C7  UNL     1     -12.995   1.984  27.626  1.00  0.00     0.062 C 
HETATM   28  C8  UNL     1     -12.540   1.636  26.209  1.00  0.00     0.046 C 
BRANCH  24  29
HETATM   29  C2  UNL     1     -14.194   4.739  29.942  1.00  0.00    -0.088 C 
HETATM   30  C1  UNL     1     -13.977   4.869  31.264  1.00  0.00     0.014 C 
HETATM   31  C3  UNL     1     -15.428   5.327  29.311  1.00  0.00     0.043 C 
ENDBRANCH  24  29
BRANCH  27  32
HETATM   32  O1  UNL     1     -13.783   0.874  28.091  1.00  0.00    -0.390 OA
HETATM   33  H14 UNL     1     -14.529   0.765  27.477  1.00  0.00     0.210 HD
ENDBRANCH  27  32
ENDBRANCH  22  23
ENDBRANCH  19  21
ENDBRANCH   1  18
BRANCH  15  34
HETATM   34  O4  UNL     1     -10.825   9.314  22.208  1.00  0.00    -0.389 OA
HETATM   35  H44 UNL     1      -9.893   9.184  22.459  1.00  0.00     0.210 HD
ENDBRANCH  15  34
BRANCH  11  36
HETATM   36  C26 UNL     1     -13.595  13.333  25.439  1.00  0.00     0.265 C 
HETATM   37  O3  UNL     1     -13.348  12.916  26.565  1.00  0.00    -0.302 OA
ENDBRANCH  11  36
TORSDOF 7
ENDMDL
MODEL 9
REMARK minimizedAffinity -7.78501415
REMARK CNNscore 0.284860432
REMARK CNNaffinity 6.43180275
REMARK  7 active torsions:
REMARK  status: ('A' for Active; 'I' for Inactive)
REMARK    1  A    between atoms: C2_2  and  C4_4 
REMARK    2  A    between atoms: C7_7  and  O1_9 
REMARK    3  A    between atoms: C9_10  and  C10_11 
REMARK    4  A    between atoms: C11_12  and  C12_13 
REMARK    5  A    between atoms: C14_15  and  C15_16 
REMARK    6  A    between atoms: C24_26  and  C26_28 
REMARK    7  A    between atoms: C29_32  and  O4_34 
ROOT
HETATM    1  C15 UNL     1     -10.914   6.933  14.668  1.00  0.00     0.149 C 
HETATM    2  C16 UNL     1     -11.514   8.297  15.016  1.00  0.00     0.054 C 
HETATM    3  C17 UNL     1     -12.860   8.393  14.242  1.00  0.00     0.050 C 
HETATM    4  C18 UNL     1     -13.024   6.940  13.757  1.00  0.00     0.272 C 
HETATM    5  O2  UNL     1     -13.682   6.159  14.751  1.00  0.00    -0.360 OA
HETATM    6  C19 UNL     1     -15.090   6.048  14.564  1.00  0.00     0.171 C 
HETATM    7  C20 UNL     1     -15.799   7.312  14.086  1.00  0.00     0.027 C 
HETATM    8  C21 UNL     1     -15.460   8.594  14.845  1.00  0.00     0.012 C 
HETATM    9  C22 UNL     1     -13.983   8.825  15.251  1.00  0.00     0.032 C 
HETATM   10  C23 UNL     1     -13.793  10.288  15.702  1.00  0.00    -0.066 C 
HETATM   11  C24 UNL     1     -13.686  10.647  17.009  1.00  0.00    -0.021 C 
HETATM   12  C25 UNL     1     -13.751   9.710  18.191  1.00  0.00     0.052 C 
HETATM   13  C27 UNL     1     -13.698  11.247  14.527  1.00  0.00     0.038 C 
HETATM   14  C28 UNL     1     -12.612  10.841  13.530  1.00  0.00     0.042 C 
HETATM   15  C29 UNL     1     -12.760   9.389  13.036  1.00  0.00     0.067 C 
HETATM   16  C30 UNL     1     -11.634   9.081  12.035  1.00  0.00     0.047 C 
HETATM   17  O5  UNL     1     -11.693   6.435  13.585  1.00  0.00    -0.351 OA
ENDROOT
BRANCH   1  18
HETATM   18  C14 UNL     1      -9.447   7.013  14.328  1.00  0.00     0.011 C 
HETATM   19  C12 UNL     1      -8.383   7.173  15.147  1.00  0.00    -0.064 C 
HETATM   20  C13 UNL     1      -8.502   7.379  16.636  1.00  0.00     0.048 C 
BRANCH  19  21
HETATM   21  C11 UNL     1      -7.049   7.182  14.548  1.00  0.00     0.003 C 
HETATM   22  C10 UNL     1      -6.455   6.169  13.893  1.00  0.00    -0.018 C 
BRANCH  22  23
HETATM   23  C9  UNL     1      -5.065   6.210  13.287  1.00  0.00     0.050 C 
HETATM   24  C4  UNL     1      -4.335   4.828  13.299  1.00  0.00     0.024 C 
HETATM   25  C5  UNL     1      -2.851   5.181  13.460  1.00  0.00     0.013 C 
HETATM   26  C6  UNL     1      -2.888   6.359  14.426  1.00  0.00     0.039 C 
HETATM   27  C7  UNL     1      -4.040   7.222  13.897  1.00  0.00     0.062 C 
HETATM   28  C8  UNL     1      -4.549   8.197  14.958  1.00  0.00     0.046 C 
BRANCH  24  29
HETATM   29  C2  UNL     1      -4.659   3.934  12.111  1.00  0.00    -0.088 C 
HETATM   30  C1  UNL     1      -3.778   3.771  11.105  1.00  0.00     0.014 C 
HETATM   31  C3  UNL     1      -5.984   3.220  12.085  1.00  0.00     0.043 C 
ENDBRANCH  24  29
BRANCH  27  32
HETATM   32  O1  UNL     1      -3.510   8.021  12.824  1.00  0.00    -0.390 OA
HETATM   33  H14 UNL     1      -4.229   8.587  12.494  1.00  0.00     0.210 HD
ENDBRANCH  27  32
ENDBRANCH  22  23
ENDBRANCH  19  21
ENDBRANCH   1  18
BRANCH  15  34
HETATM   34  O4  UNL     1     -13.985   9.323  12.289  1.00  0.00    -0.389 OA
HETATM   35  H44 UNL     1     -13.913   9.918  11.520  1.00  0.00     0.210 HD
ENDBRANCH  15  34
BRANCH  11  36
HETATM   36  C26 UNL     1     -13.489  12.072  17.434  1.00  0.00     0.265 C 
HETATM   37  O3  UNL     1     -12.404  12.637  17.366  1.00  0.00    -0.302 OA
ENDBRANCH  11  36
TORSDOF 7
ENDMDL
