MODEL 1
REMARK minimizedAffinity -6.50773048
REMARK CNNscore 0.364391595
REMARK CNNaffinity 6.60031652
REMARK  8 active torsions:
REMARK  status: ('A' for Active; 'I' for Inactive)
REMARK    1  A    between atoms: C3_3  and  C5_5 
REMARK       I    between atoms: C5_5  and  N1_7 
REMARK    2  A    between atoms: N1_7  and  C6_8 
REMARK    3  A    between atoms: C7_9  and  O2_10 
REMARK    4  A    between atoms: O2_10  and  C8_11 
REMARK    5  A    between atoms: C22_27  and  C23_28 
REMARK    6  A    between atoms: C23_28  and  N2_30 
REMARK    7  A    between atoms: C29_35  and  O5_36 
REMARK    8  A    between atoms: O5_36  and  C30_37 
ROOT
HETATM    1  C6  UNL     1       2.973  55.953  -9.461  1.00  0.00     0.144 C 
HETATM    2  C7  UNL     1       4.018  54.888  -9.047  1.00  0.00     0.162 C 
HETATM    3  C10 UNL     1       5.155  55.556  -8.244  1.00  0.00     0.026 C 
HETATM    4  C11 UNL     1       6.293  54.581  -7.909  1.00  0.00     0.008 C 
HETATM    5  C12 UNL     1       7.506  55.323  -7.351  1.00  0.00     0.006 C 
HETATM    6  C13 UNL     1       7.150  56.200  -6.144  1.00  0.00    -0.005 C 
HETATM    7  C14 UNL     1       5.957  57.161  -6.471  1.00  0.00    -0.001 C 
HETATM    8  C15 UNL     1       5.672  58.175  -5.326  1.00  0.00     0.007 C 
HETATM    9  C16 UNL     1       6.929  58.892  -4.787  1.00  0.00     0.013 C 
HETATM   10  C17 UNL     1       8.028  57.894  -4.416  1.00  0.00    -0.004 C 
HETATM   11  C18 UNL     1       7.578  57.019  -3.219  1.00  0.00     0.019 C 
HETATM   12  C19 UNL     1       8.332  57.063  -5.705  1.00  0.00     0.004 C 
HETATM   13  C20 UNL     1       9.709  56.440  -5.423  1.00  0.00     0.041 C 
HETATM   14  C21 UNL     1      10.419  57.550  -4.681  1.00  0.00     0.160 A 
HETATM   15  O4  UNL     1      10.227  58.857  -5.223  1.00  0.00    -0.366 OA
HETATM   16  C22 UNL     1       9.398  58.499  -4.095  1.00  0.00     0.125 A 
HETATM   17  C26 UNL     1       4.689  56.369  -6.987  1.00  0.00    -0.032 C 
HETATM   18  C27 UNL     1       4.134  55.476  -5.847  1.00  0.00     0.016 C 
HETATM   19  C28 UNL     1       3.582  57.371  -7.436  1.00  0.00     0.044 C 
HETATM   20  C29 UNL     1       2.434  56.772  -8.271  1.00  0.00     0.158 C 
ENDROOT
BRANCH   1  21
HETATM   21  N1  UNL     1       1.874  55.338 -10.208  1.00  0.00    -0.347 N 
HETATM   22  C5  UNL     1       0.992  54.479  -9.603  1.00  0.00     0.247 C 
HETATM   23  O1  UNL     1       1.165  54.030  -8.475  1.00  0.00    -0.268 OA
HETATM   24  H8  UNL     1       1.650  55.754 -11.100  1.00  0.00     0.163 HD
BRANCH  22  25
HETATM   25  C3  UNL     1      -0.213  54.132 -10.425  1.00  0.00     0.002 C 
HETATM   26  C2  UNL     1      -1.394  54.571  -9.948  1.00  0.00    -0.019 C 
HETATM   27  C1  UNL     1      -2.747  54.379 -10.552  1.00  0.00     0.036 C 
HETATM   28  C4  UNL     1      -0.010  53.410 -11.720  1.00  0.00     0.054 C 
ENDBRANCH  22  25
ENDBRANCH   1  21
BRANCH   2  29
HETATM   29  O2  UNL     1       3.368  53.855  -8.277  1.00  0.00    -0.314 OA
BRANCH  29  30
HETATM   30  C8  UNL     1       3.817  52.582  -8.426  1.00  0.00     0.255 C 
HETATM   31  C9  UNL     1       4.058  52.302  -9.877  1.00  0.00     0.126 C 
HETATM   32  O3  UNL     1       4.002  51.773  -7.530  1.00  0.00    -0.266 OA
ENDBRANCH  29  30
ENDBRANCH   2  29
BRANCH  20  33
HETATM   33  O5  UNL     1       1.575  55.935  -7.466  1.00  0.00    -0.314 OA
BRANCH  33  34
HETATM   34  C30 UNL     1       0.511  56.547  -6.880  1.00  0.00     0.255 C 
HETATM   35  C31 UNL     1       0.659  56.524  -5.389  1.00  0.00     0.126 C 
HETATM   36  O6  UNL     1      -0.419  57.078  -7.468  1.00  0.00    -0.266 OA
ENDBRANCH  33  34
ENDBRANCH  20  33
BRANCH  16  37
HETATM   37  C23 UNL     1       9.631  59.312  -2.835  1.00  0.00     0.253 C 
HETATM   38  C24 UNL     1       9.273  58.545  -1.557  1.00  0.00     0.046 C 
BRANCH  37  39
HETATM   39  N2  UNL     1       8.866  60.564  -2.950  1.00  0.00     0.086 N 
HETATM   40  C25 UNL     1       9.704  61.716  -3.248  1.00  0.00     0.307 C 
HETATM   41  H36 UNL     1       8.361  60.730  -2.080  1.00  0.00     0.316 HD
ENDBRANCH  37  39
ENDBRANCH  16  37
TORSDOF 8
ENDMDL
MODEL 2
REMARK minimizedAffinity -7.51966333
REMARK CNNscore 0.305992842
REMARK CNNaffinity 6.21198893
REMARK  8 active torsions:
REMARK  status: ('A' for Active; 'I' for Inactive)
REMARK    1  A    between atoms: C3_3  and  C5_5 
REMARK       I    between atoms: C5_5  and  N1_7 
REMARK    2  A    between atoms: N1_7  and  C6_8 
REMARK    3  A    between atoms: C7_9  and  O2_10 
REMARK    4  A    between atoms: O2_10  and  C8_11 
REMARK    5  A    between atoms: C22_27  and  C23_28 
REMARK    6  A    between atoms: C23_28  and  N2_30 
REMARK    7  A    between atoms: C29_35  and  O5_36 
REMARK    8  A    between atoms: O5_36  and  C30_37 
ROOT
HETATM    1  C6  UNL     1      -7.274  47.506 -30.554  1.00  0.00     0.144 C 
HETATM    2  C7  UNL     1      -8.504  46.567 -30.595  1.00  0.00     0.162 C 
HETATM    3  C10 UNL     1      -9.209  46.690 -31.963  1.00  0.00     0.026 C 
HETATM    4  C11 UNL     1     -10.513  45.881 -32.029  1.00  0.00     0.008 C 
HETATM    5  C12 UNL     1     -11.311  46.227 -33.286  1.00  0.00     0.006 C 
HETATM    6  C13 UNL     1     -10.485  46.060 -34.568  1.00  0.00    -0.005 C 
HETATM    7  C14 UNL     1      -9.132  46.846 -34.479  1.00  0.00    -0.001 C 
HETATM    8  C15 UNL     1      -8.341  46.830 -35.819  1.00  0.00     0.007 C 
HETATM    9  C16 UNL     1      -9.191  47.175 -37.061  1.00  0.00     0.013 C 
HETATM   10  C17 UNL     1     -10.459  46.322 -37.128  1.00  0.00    -0.004 C 
HETATM   11  C18 UNL     1     -10.094  44.832 -37.351  1.00  0.00     0.019 C 
HETATM   12  C19 UNL     1     -11.237  46.570 -35.795  1.00  0.00     0.004 C 
HETATM   13  C20 UNL     1     -12.664  46.090 -36.109  1.00  0.00     0.041 C 
HETATM   14  C21 UNL     1     -12.844  46.531 -37.544  1.00  0.00     0.160 A 
HETATM   15  O4  UNL     1     -12.357  47.841 -37.838  1.00  0.00    -0.366 OA
HETATM   16  C22 UNL     1     -11.489  46.737 -38.182  1.00  0.00     0.125 A 
HETATM   17  C26 UNL     1      -8.292  46.427 -33.207  1.00  0.00    -0.032 C 
HETATM   18  C27 UNL     1      -7.844  44.950 -33.342  1.00  0.00     0.016 C 
HETATM   19  C28 UNL     1      -7.029  47.335 -33.082  1.00  0.00     0.044 C 
HETATM   20  C29 UNL     1      -6.298  47.284 -31.727  1.00  0.00     0.158 C 
ENDROOT
BRANCH   1  21
HETATM   21  N1  UNL     1      -6.577  47.392 -29.271  1.00  0.00    -0.347 N 
HETATM   22  C5  UNL     1      -5.465  48.145 -28.992  1.00  0.00     0.247 C 
HETATM   23  O1  UNL     1      -4.879  48.809 -29.840  1.00  0.00    -0.268 OA
HETATM   24  H8  UNL     1      -7.081  46.932 -28.526  1.00  0.00     0.163 HD
BRANCH  22  25
HETATM   25  C3  UNL     1      -5.017  48.101 -27.562  1.00  0.00     0.002 C 
HETATM   26  C2  UNL     1      -3.735  48.448 -27.338  1.00  0.00    -0.019 C 
HETATM   27  C1  UNL     1      -3.023  48.500 -26.026  1.00  0.00     0.036 C 
HETATM   28  C4  UNL     1      -6.025  47.760 -26.508  1.00  0.00     0.054 C 
ENDBRANCH  22  25
ENDBRANCH   1  21
BRANCH   2  29
HETATM   29  O2  UNL     1      -8.079  45.212 -30.343  1.00  0.00    -0.314 OA
BRANCH  29  30
HETATM   30  C8  UNL     1      -8.119  44.768 -29.060  1.00  0.00     0.255 C 
HETATM   31  C9  UNL     1      -9.529  44.817 -28.556  1.00  0.00     0.126 C 
HETATM   32  O3  UNL     1      -7.167  44.384 -28.400  1.00  0.00    -0.266 OA
ENDBRANCH  29  30
ENDBRANCH   2  29
BRANCH  20  33
HETATM   33  O5  UNL     1      -5.611  46.026 -31.544  1.00  0.00    -0.314 OA
BRANCH  33  34
HETATM   34  C30 UNL     1      -4.408  45.898 -32.166  1.00  0.00     0.255 C 
HETATM   35  C31 UNL     1      -4.200  44.478 -32.598  1.00  0.00     0.126 C 
HETATM   36  O6  UNL     1      -3.619  46.804 -32.386  1.00  0.00    -0.266 OA
ENDBRANCH  33  34
ENDBRANCH  20  33
BRANCH  16  37
HETATM   37  C23 UNL     1     -11.223  46.560 -39.665  1.00  0.00     0.253 C 
HETATM   38  C24 UNL     1     -11.139  47.893 -40.418  1.00  0.00     0.046 C 
BRANCH  37  39
HETATM   39  N2  UNL     1     -12.272  45.689 -40.218  1.00  0.00     0.086 N 
HETATM   40  C25 UNL     1     -13.060  46.337 -41.256  1.00  0.00     0.307 C 
HETATM   41  H36 UNL     1     -12.890  45.388 -39.465  1.00  0.00     0.316 HD
ENDBRANCH  37  39
ENDBRANCH  16  37
TORSDOF 8
ENDMDL
MODEL 3
REMARK minimizedAffinity -6.71089554
REMARK CNNscore 0.276948422
REMARK CNNaffinity 5.98332977
REMARK  8 active torsions:
REMARK  status: ('A' for Active; 'I' for Inactive)
REMARK    1  A    between atoms: C3_3  and  C5_5 
REMARK       I    between atoms: C5_5  and  N1_7 
REMARK    2  A    between atoms: N1_7  and  C6_8 
REMARK    3  A    between atoms: C7_9  and  O2_10 
REMARK    4  A    between atoms: O2_10  and  C8_11 
REMARK    5  A    between atoms: C22_27  and  C23_28 
REMARK    6  A    between atoms: C23_28  and  N2_30 
REMARK    7  A    between atoms: C29_35  and  O5_36 
REMARK    8  A    between atoms: O5_36  and  C30_37 
ROOT
HETATM    1  C6  UNL     1      -9.787  47.937 -28.141  1.00  0.00     0.144 C 
HETATM    2  C7  UNL     1     -10.188  47.588 -26.686  1.00  0.00     0.162 C 
HETATM    3  C10 UNL     1     -11.670  47.156 -26.641  1.00  0.00     0.026 C 
HETATM    4  C11 UNL     1     -12.171  46.917 -25.210  1.00  0.00     0.008 C 
HETATM    5  C12 UNL     1     -13.690  46.750 -25.181  1.00  0.00     0.006 C 
HETATM    6  C13 UNL     1     -14.175  45.649 -26.133  1.00  0.00    -0.005 C 
HETATM    7  C14 UNL     1     -13.622  45.867 -27.583  1.00  0.00    -0.001 C 
HETATM    8  C15 UNL     1     -14.220  44.862 -28.609  1.00  0.00     0.007 C 
HETATM    9  C16 UNL     1     -15.756  44.719 -28.535  1.00  0.00     0.013 C 
HETATM   10  C17 UNL     1     -16.224  44.434 -27.107  1.00  0.00    -0.004 C 
HETATM   11  C18 UNL     1     -15.715  43.045 -26.641  1.00  0.00     0.019 C 
HETATM   12  C19 UNL     1     -15.699  45.609 -26.220  1.00  0.00     0.004 C 
HETATM   13  C20 UNL     1     -16.566  45.527 -24.952  1.00  0.00     0.041 C 
HETATM   14  C21 UNL     1     -17.916  45.135 -25.510  1.00  0.00     0.160 A 
HETATM   15  O4  UNL     1     -18.301  45.825 -26.699  1.00  0.00    -0.366 OA
HETATM   16  C22 UNL     1     -17.735  44.506 -26.873  1.00  0.00     0.125 A 
HETATM   17  C26 UNL     1     -12.044  45.974 -27.600  1.00  0.00    -0.032 C 
HETATM   18  C27 UNL     1     -11.426  44.617 -27.176  1.00  0.00     0.016 C 
HETATM   19  C28 UNL     1     -11.552  46.334 -29.035  1.00  0.00     0.044 C 
HETATM   20  C29 UNL     1     -10.089  46.805 -29.143  1.00  0.00     0.158 C 
ENDROOT
BRANCH   1  21
HETATM   21  N1  UNL     1      -8.379  48.330 -28.210  1.00  0.00    -0.347 N 
HETATM   22  C5  UNL     1      -7.372  47.430 -27.968  1.00  0.00     0.247 C 
HETATM   23  O1  UNL     1      -7.574  46.312 -27.506  1.00  0.00    -0.268 OA
HETATM   24  H8  UNL     1      -8.179  49.204 -28.675  1.00  0.00     0.163 HD
BRANCH  22  25
HETATM   25  C3  UNL     1      -5.998  47.912 -28.320  1.00  0.00     0.002 C 
HETATM   26  C2  UNL     1      -5.149  48.073 -27.285  1.00  0.00    -0.019 C 
HETATM   27  C1  UNL     1      -3.729  48.534 -27.336  1.00  0.00     0.036 C 
HETATM   28  C4  UNL     1      -5.654  48.099 -29.765  1.00  0.00     0.054 C 
ENDBRANCH  22  25
ENDBRANCH   1  21
BRANCH   2  29
HETATM   29  O2  UNL     1      -9.322  46.545 -26.190  1.00  0.00    -0.314 OA
BRANCH  29  30
HETATM   30  C8  UNL     1      -9.010  46.563 -24.868  1.00  0.00     0.255 C 
HETATM   31  C9  UNL     1      -8.638  47.955 -24.460  1.00  0.00     0.126 C 
HETATM   32  O3  UNL     1      -9.022  45.606 -24.111  1.00  0.00    -0.266 OA
ENDBRANCH  29  30
ENDBRANCH   2  29
BRANCH  20  33
HETATM   33  O5  UNL     1      -9.165  45.716 -28.926  1.00  0.00    -0.314 OA
BRANCH  33  34
HETATM   34  C30 UNL     1      -8.779  45.020 -30.029  1.00  0.00     0.255 C 
HETATM   35  C31 UNL     1      -9.202  43.587 -29.909  1.00  0.00     0.126 C 
HETATM   36  O6  UNL     1      -8.206  45.486 -31.002  1.00  0.00    -0.266 OA
ENDBRANCH  33  34
ENDBRANCH  20  33
BRANCH  16  37
HETATM   37  C23 UNL     1     -18.679  43.467 -27.451  1.00  0.00     0.253 C 
HETATM   38  C24 UNL     1     -19.514  42.759 -26.378  1.00  0.00     0.046 C 
BRANCH  37  39
HETATM   39  N2  UNL     1     -17.881  42.511 -28.237  1.00  0.00     0.086 N 
HETATM   40  C25 UNL     1     -18.519  42.136 -29.490  1.00  0.00     0.307 C 
HETATM   41  H36 UNL     1     -17.715  41.674 -27.679  1.00  0.00     0.316 HD
ENDBRANCH  37  39
ENDBRANCH  16  37
TORSDOF 8
ENDMDL
MODEL 4
REMARK minimizedAffinity -6.47856379
REMARK CNNscore 0.256098956
REMARK CNNaffinity 6.4702034
REMARK  8 active torsions:
REMARK  status: ('A' for Active; 'I' for Inactive)
REMARK    1  A    between atoms: C3_3  and  C5_5 
REMARK       I    between atoms: C5_5  and  N1_7 
REMARK    2  A    between atoms: N1_7  and  C6_8 
REMARK    3  A    between atoms: C7_9  and  O2_10 
REMARK    4  A    between atoms: O2_10  and  C8_11 
REMARK    5  A    between atoms: C22_27  and  C23_28 
REMARK    6  A    between atoms: C23_28  and  N2_30 
REMARK    7  A    between atoms: C29_35  and  O5_36 
REMARK    8  A    between atoms: O5_36  and  C30_37 
ROOT
HETATM    1  C6  UNL     1       0.164  52.361 -13.383  1.00  0.00     0.144 C 
HETATM    2  C7  UNL     1       1.509  52.008 -12.702  1.00  0.00     0.162 C 
HETATM    3  C10 UNL     1       1.851  53.073 -11.638  1.00  0.00     0.026 C 
HETATM    4  C11 UNL     1       3.236  52.856 -11.011  1.00  0.00     0.008 C 
HETATM    5  C12 UNL     1       3.649  54.059 -10.163  1.00  0.00     0.006 C 
HETATM    6  C13 UNL     1       2.603  54.410  -9.098  1.00  0.00    -0.005 C 
HETATM    7  C14 UNL     1       1.181  54.583  -9.733  1.00  0.00    -0.001 C 
HETATM    8  C15 UNL     1       0.126  55.095  -8.709  1.00  0.00     0.007 C 
HETATM    9  C16 UNL     1       0.592  56.303  -7.870  1.00  0.00     0.013 C 
HETATM   10  C17 UNL     1       1.952  56.042  -7.217  1.00  0.00    -0.004 C 
HETATM   11  C18 UNL     1       1.836  54.905  -6.169  1.00  0.00     0.019 C 
HETATM   12  C19 UNL     1       2.948  55.711  -8.375  1.00  0.00     0.004 C 
HETATM   13  C20 UNL     1       4.332  55.924  -7.740  1.00  0.00     0.041 C 
HETATM   14  C21 UNL     1       4.097  57.123  -6.849  1.00  0.00     0.160 A 
HETATM   15  O4  UNL     1       3.315  58.165  -7.434  1.00  0.00    -0.366 OA
HETATM   16  C22 UNL     1       2.619  57.252  -6.557  1.00  0.00     0.125 A 
HETATM   17  C26 UNL     1       0.744  53.303 -10.552  1.00  0.00    -0.032 C 
HETATM   18  C27 UNL     1       0.568  52.102  -9.588  1.00  0.00     0.016 C 
HETATM   19  C28 UNL     1      -0.607  53.575 -11.283  1.00  0.00     0.044 C 
HETATM   20  C29 UNL     1      -0.990  52.565 -12.381  1.00  0.00     0.158 C 
ENDROOT
BRANCH   1  21
HETATM   21  N1  UNL     1      -0.191  51.353 -14.384  1.00  0.00    -0.347 N 
HETATM   22  C5  UNL     1       0.349  51.377 -15.645  1.00  0.00     0.247 C 
HETATM   23  O1  UNL     1       1.001  52.322 -16.074  1.00  0.00    -0.268 OA
HETATM   24  H8  UNL     1      -0.644  50.519 -14.040  1.00  0.00     0.163 HD
BRANCH  22  25
HETATM   25  C3  UNL     1       0.087  50.150 -16.466  1.00  0.00     0.002 C 
HETATM   26  C2  UNL     1      -0.358  50.367 -17.720  1.00  0.00    -0.019 C 
HETATM   27  C1  UNL     1      -0.695  49.344 -18.754  1.00  0.00     0.036 C 
HETATM   28  C4  UNL     1       0.404  48.813 -15.873  1.00  0.00     0.054 C 
ENDBRANCH  22  25
ENDBRANCH   1  21
BRANCH   2  29
HETATM   29  O2  UNL     1       1.418  50.692 -12.118  1.00  0.00    -0.314 OA
BRANCH  29  30
HETATM   30  C8  UNL     1       2.440  49.828 -12.350  1.00  0.00     0.255 C 
HETATM   31  C9  UNL     1       3.143  50.212 -13.616  1.00  0.00     0.126 C 
HETATM   32  O3  UNL     1       2.755  48.879 -11.651  1.00  0.00    -0.266 OA
ENDBRANCH  29  30
ENDBRANCH   2  29
BRANCH  20  33
HETATM   33  O5  UNL     1      -1.366  51.289 -11.819  1.00  0.00    -0.314 OA
BRANCH  33  34
HETATM   34  C30 UNL     1      -2.699  51.024 -11.758  1.00  0.00     0.255 C 
HETATM   35  C31 UNL     1      -3.033  49.855 -12.634  1.00  0.00     0.126 C 
HETATM   36  O6  UNL     1      -3.512  51.616 -11.065  1.00  0.00    -0.266 OA
ENDBRANCH  33  34
ENDBRANCH  20  33
BRANCH  16  37
HETATM   37  C23 UNL     1       2.063  57.870  -5.287  1.00  0.00     0.253 C 
HETATM   38  C24 UNL     1       3.121  58.639  -4.487  1.00  0.00     0.046 C 
BRANCH  37  39
HETATM   39  N2  UNL     1       1.450  56.797  -4.486  1.00  0.00     0.086 N 
HETATM   40  C25 UNL     1       0.283  57.243  -3.741  1.00  0.00     0.307 C 
HETATM   41  H36 UNL     1       2.143  56.426  -3.837  1.00  0.00     0.316 HD
ENDBRANCH  37  39
ENDBRANCH  16  37
TORSDOF 8
ENDMDL
MODEL 5
REMARK minimizedAffinity -8.02333069
REMARK CNNscore 0.237797961
REMARK CNNaffinity 6.93371344
REMARK  8 active torsions:
REMARK  status: ('A' for Active; 'I' for Inactive)
REMARK    1  A    between atoms: C3_3  and  C5_5 
REMARK       I    between atoms: C5_5  and  N1_7 
REMARK    2  A    between atoms: N1_7  and  C6_8 
REMARK    3  A    between atoms: C7_9  and  O2_10 
REMARK    4  A    between atoms: O2_10  and  C8_11 
REMARK    5  A    between atoms: C22_27  and  C23_28 
REMARK    6  A    between atoms: C23_28  and  N2_30 
REMARK    7  A    between atoms: C29_35  and  O5_36 
REMARK    8  A    between atoms: O5_36  and  C30_37 
ROOT
HETATM    1  C6  UNL     1      -5.395  49.420 -19.887  1.00  0.00     0.144 C 
HETATM    2  C7  UNL     1      -5.083  48.417 -21.026  1.00  0.00     0.162 C 
HETATM    3  C10 UNL     1      -4.529  49.175 -22.252  1.00  0.00     0.026 C 
HETATM    4  C11 UNL     1      -4.317  48.258 -23.465  1.00  0.00     0.008 C 
HETATM    5  C12 UNL     1      -4.021  49.073 -24.724  1.00  0.00     0.006 C 
HETATM    6  C13 UNL     1      -2.839  50.031 -24.535  1.00  0.00    -0.005 C 
HETATM    7  C14 UNL     1      -3.034  50.933 -23.269  1.00  0.00    -0.001 C 
HETATM    8  C15 UNL     1      -1.933  52.024 -23.135  1.00  0.00     0.007 C 
HETATM    9  C16 UNL     1      -1.663  52.813 -24.435  1.00  0.00     0.013 C 
HETATM   10  C17 UNL     1      -1.407  51.876 -25.617  1.00  0.00    -0.004 C 
HETATM   11  C18 UNL     1      -0.091  51.085 -25.401  1.00  0.00     0.019 C 
HETATM   12  C19 UNL     1      -2.664  50.955 -25.739  1.00  0.00     0.004 C 
HETATM   13  C20 UNL     1      -2.569  50.392 -27.166  1.00  0.00     0.041 C 
HETATM   14  C21 UNL     1      -2.037  51.575 -27.944  1.00  0.00     0.160 A 
HETATM   15  O4  UNL     1      -2.633  52.830 -27.617  1.00  0.00    -0.366 OA
HETATM   16  C22 UNL     1      -1.360  52.539 -26.996  1.00  0.00     0.125 A 
HETATM   17  C26 UNL     1      -3.274  50.070 -21.965  1.00  0.00    -0.032 C 
HETATM   18  C27 UNL     1      -1.998  49.254 -21.637  1.00  0.00     0.016 C 
HETATM   19  C28 UNL     1      -3.606  51.005 -20.762  1.00  0.00     0.044 C 
HETATM   20  C29 UNL     1      -4.195  50.314 -19.518  1.00  0.00     0.158 C 
ENDROOT
BRANCH   1  21
HETATM   21  N1  UNL     1      -5.904  48.720 -18.706  1.00  0.00    -0.347 N 
HETATM   22  C5  UNL     1      -7.243  48.466 -18.547  1.00  0.00     0.247 C 
HETATM   23  O1  UNL     1      -8.105  48.956 -19.268  1.00  0.00    -0.268 OA
HETATM   24  H8  UNL     1      -5.222  48.226 -18.148  1.00  0.00     0.163 HD
BRANCH  22  25
HETATM   25  C3  UNL     1      -7.578  47.532 -17.424  1.00  0.00     0.002 C 
HETATM   26  C2  UNL     1      -6.539  46.859 -16.890  1.00  0.00    -0.019 C 
HETATM   27  C1  UNL     1      -6.573  45.873 -15.768  1.00  0.00     0.036 C 
HETATM   28  C4  UNL     1      -8.993  47.475 -16.939  1.00  0.00     0.054 C 
ENDBRANCH  22  25
ENDBRANCH   1  21
BRANCH   2  29
HETATM   29  O2  UNL     1      -4.144  47.431 -20.549  1.00  0.00    -0.314 OA
BRANCH  29  30
HETATM   30  C8  UNL     1      -4.469  46.122 -20.710  1.00  0.00     0.255 C 
HETATM   31  C9  UNL     1      -5.925  46.005 -21.043  1.00  0.00     0.126 C 
HETATM   32  O3  UNL     1      -3.711  45.172 -20.604  1.00  0.00    -0.266 OA
ENDBRANCH  29  30
ENDBRANCH   2  29
BRANCH  20  33
HETATM   33  O5  UNL     1      -3.201  49.520 -18.833  1.00  0.00    -0.314 OA
BRANCH  33  34
HETATM   34  C30 UNL     1      -2.463  50.160 -17.887  1.00  0.00     0.255 C 
HETATM   35  C31 UNL     1      -1.186  49.416 -17.639  1.00  0.00     0.126 C 
HETATM   36  O6  UNL     1      -2.763  51.209 -17.337  1.00  0.00    -0.266 OA
ENDBRANCH  33  34
ENDBRANCH  20  33
BRANCH  16  37
HETATM   37  C23 UNL     1      -0.218  53.453 -27.400  1.00  0.00     0.253 C 
HETATM   38  C24 UNL     1       0.979  52.690 -27.977  1.00  0.00     0.046 C 
BRANCH  37  39
HETATM   39  N2  UNL     1       0.163  54.255 -26.226  1.00  0.00     0.086 N 
HETATM   40  C25 UNL     1       0.111  55.687 -26.476  1.00  0.00     0.307 C 
HETATM   41  H36 UNL     1       1.106  53.998 -25.935  1.00  0.00     0.316 HD
ENDBRANCH  37  39
ENDBRANCH  16  37
TORSDOF 8
ENDMDL
MODEL 6
REMARK minimizedAffinity -6.52627182
REMARK CNNscore 0.206042066
REMARK CNNaffinity 5.59836721
REMARK  8 active torsions:
REMARK  status: ('A' for Active; 'I' for Inactive)
REMARK    1  A    between atoms: C3_3  and  C5_5 
REMARK       I    between atoms: C5_5  and  N1_7 
REMARK    2  A    between atoms: N1_7  and  C6_8 
REMARK    3  A    between atoms: C7_9  and  O2_10 
REMARK    4  A    between atoms: O2_10  and  C8_11 
REMARK    5  A    between atoms: C22_27  and  C23_28 
REMARK    6  A    between atoms: C23_28  and  N2_30 
REMARK    7  A    between atoms: C29_35  and  O5_36 
REMARK    8  A    between atoms: O5_36  and  C30_37 
ROOT
HETATM    1  C6  UNL     1     -10.150  46.880 -29.335  1.00  0.00     0.144 C 
HETATM    2  C7  UNL     1     -10.120  46.792 -27.789  1.00  0.00     0.162 C 
HETATM    3  C10 UNL     1     -11.562  46.728 -27.241  1.00  0.00     0.026 C 
HETATM    4  C11 UNL     1     -11.612  46.768 -25.707  1.00  0.00     0.008 C 
HETATM    5  C12 UNL     1     -13.044  46.966 -25.209  1.00  0.00     0.006 C 
HETATM    6  C13 UNL     1     -14.008  45.915 -25.772  1.00  0.00    -0.005 C 
HETATM    7  C14 UNL     1     -13.921  45.841 -27.334  1.00  0.00    -0.001 C 
HETATM    8  C15 UNL     1     -14.996  44.900 -27.951  1.00  0.00     0.007 C 
HETATM    9  C16 UNL     1     -16.424  45.130 -27.409  1.00  0.00     0.013 C 
HETATM   10  C17 UNL     1     -16.453  45.118 -25.880  1.00  0.00    -0.004 C 
HETATM   11  C18 UNL     1     -16.094  43.706 -25.347  1.00  0.00     0.019 C 
HETATM   12  C19 UNL     1     -15.458  46.225 -25.403  1.00  0.00     0.004 C 
HETATM   13  C20 UNL     1     -15.869  46.485 -23.945  1.00  0.00     0.041 C 
HETATM   14  C21 UNL     1     -17.375  46.364 -24.008  1.00  0.00     0.160 A 
HETATM   15  O4  UNL     1     -17.984  46.993 -25.136  1.00  0.00    -0.366 OA
HETATM   16  C22 UNL     1     -17.766  45.567 -25.233  1.00  0.00     0.125 A 
HETATM   17  C26 UNL     1     -12.442  45.571 -27.827  1.00  0.00    -0.032 C 
HETATM   18  C27 UNL     1     -11.990  44.161 -27.371  1.00  0.00     0.016 C 
HETATM   19  C28 UNL     1     -12.379  45.650 -29.384  1.00  0.00     0.044 C 
HETATM   20  C29 UNL     1     -10.967  45.750 -29.993  1.00  0.00     0.158 C 
ENDROOT
BRANCH   1  21
HETATM   21  N1  UNL     1      -8.791  46.921 -29.879  1.00  0.00    -0.347 N 
HETATM   22  C5  UNL     1      -8.138  48.111 -30.078  1.00  0.00     0.247 C 
HETATM   23  O1  UNL     1      -8.694  49.200 -29.996  1.00  0.00    -0.268 OA
HETATM   24  H8  UNL     1      -8.277  46.053 -29.867  1.00  0.00     0.163 HD
BRANCH  22  25
HETATM   25  C3  UNL     1      -6.679  47.982 -30.399  1.00  0.00     0.002 C 
HETATM   26  C2  UNL     1      -6.372  47.891 -31.708  1.00  0.00    -0.019 C 
HETATM   27  C1  UNL     1      -5.014  47.758 -32.316  1.00  0.00     0.036 C 
HETATM   28  C4  UNL     1      -5.692  48.040 -29.274  1.00  0.00     0.054 C 
ENDBRANCH  22  25
ENDBRANCH   1  21
BRANCH   2  29
HETATM   29  O2  UNL     1      -9.355  45.635 -27.391  1.00  0.00    -0.314 OA
BRANCH  29  30
HETATM   30  C8  UNL     1      -8.335  45.826 -26.515  1.00  0.00     0.255 C 
HETATM   31  C9  UNL     1      -8.389  44.776 -25.448  1.00  0.00     0.126 C 
HETATM   32  O3  UNL     1      -7.494  46.709 -26.567  1.00  0.00    -0.266 OA
ENDBRANCH  29  30
ENDBRANCH   2  29
BRANCH  20  33
HETATM   33  O5  UNL     1     -10.247  44.504 -29.866  1.00  0.00    -0.314 OA
BRANCH  33  34
HETATM   34  C30 UNL     1      -9.871  43.901 -31.026  1.00  0.00     0.255 C 
HETATM   35  C31 UNL     1     -10.793  42.761 -31.337  1.00  0.00     0.126 C 
HETATM   36  O6  UNL     1      -8.945  44.249 -31.743  1.00  0.00    -0.266 OA
ENDBRANCH  33  34
ENDBRANCH  20  33
BRANCH  16  37
HETATM   37  C23 UNL     1     -19.024  44.723 -25.321  1.00  0.00     0.253 C 
HETATM   38  C24 UNL     1     -19.570  44.615 -26.750  1.00  0.00     0.046 C 
BRANCH  37  39
HETATM   39  N2  UNL     1     -20.021  45.291 -24.399  1.00  0.00     0.086 N 
HETATM   40  C25 UNL     1     -20.427  44.359 -23.358  1.00  0.00     0.307 C 
HETATM   41  H36 UNL     1     -20.842  45.581 -24.930  1.00  0.00     0.316 HD
ENDBRANCH  37  39
ENDBRANCH  16  37
TORSDOF 8
ENDMDL
MODEL 7
REMARK minimizedAffinity -6.98091412
REMARK CNNscore 0.201767549
REMARK CNNaffinity 5.47822571
REMARK  8 active torsions:
REMARK  status: ('A' for Active; 'I' for Inactive)
REMARK    1  A    between atoms: C3_3  and  C5_5 
REMARK       I    between atoms: C5_5  and  N1_7 
REMARK    2  A    between atoms: N1_7  and  C6_8 
REMARK    3  A    between atoms: C7_9  and  O2_10 
REMARK    4  A    between atoms: O2_10  and  C8_11 
REMARK    5  A    between atoms: C22_27  and  C23_28 
REMARK    6  A    between atoms: C23_28  and  N2_30 
REMARK    7  A    between atoms: C29_35  and  O5_36 
REMARK    8  A    between atoms: O5_36  and  C30_37 
ROOT
HETATM    1  C6  UNL     1     -15.416  46.625 -24.730  1.00  0.00     0.144 C 
HETATM    2  C7  UNL     1     -15.432  45.961 -26.128  1.00  0.00     0.162 C 
HETATM    3  C10 UNL     1     -14.227  46.457 -26.956  1.00  0.00     0.026 C 
HETATM    4  C11 UNL     1     -14.249  45.936 -28.400  1.00  0.00     0.008 C 
HETATM    5  C12 UNL     1     -13.200  46.646 -29.256  1.00  0.00     0.006 C 
HETATM    6  C13 UNL     1     -11.793  46.555 -28.651  1.00  0.00    -0.005 C 
HETATM    7  C14 UNL     1     -11.782  47.040 -27.162  1.00  0.00    -0.001 C 
HETATM    8  C15 UNL     1     -10.346  47.111 -26.566  1.00  0.00     0.007 C 
HETATM    9  C16 UNL     1      -9.320  47.828 -27.471  1.00  0.00     0.013 C 
HETATM   10  C17 UNL     1      -9.329  47.258 -28.891  1.00  0.00    -0.004 C 
HETATM   11  C18 UNL     1      -8.832  45.789 -28.884  1.00  0.00     0.019 C 
HETATM   12  C19 UNL     1     -10.790  47.408 -29.425  1.00  0.00     0.004 C 
HETATM   13  C20 UNL     1     -10.639  47.273 -30.949  1.00  0.00     0.041 C 
HETATM   14  C21 UNL     1      -9.332  47.989 -31.208  1.00  0.00     0.160 A 
HETATM   15  O4  UNL     1      -9.162  49.212 -30.492  1.00  0.00    -0.366 OA
HETATM   16  C22 UNL     1      -8.525  48.042 -29.931  1.00  0.00     0.125 A 
HETATM   17  C26 UNL     1     -12.828  46.249 -26.278  1.00  0.00    -0.032 C 
HETATM   18  C27 UNL     1     -12.406  44.761 -26.179  1.00  0.00     0.016 C 
HETATM   19  C28 UNL     1     -12.884  46.862 -24.845  1.00  0.00     0.044 C 
HETATM   20  C29 UNL     1     -14.084  46.432 -23.979  1.00  0.00     0.158 C 
ENDROOT
BRANCH   1  21
HETATM   21  N1  UNL     1     -16.541  46.154 -23.919  1.00  0.00    -0.347 N 
HETATM   22  C5  UNL     1     -17.825  46.567 -24.170  1.00  0.00     0.247 C 
HETATM   23  O1  UNL     1     -18.094  47.477 -24.947  1.00  0.00    -0.268 OA
HETATM   24  H8  UNL     1     -16.370  45.343 -23.343  1.00  0.00     0.163 HD
BRANCH  22  25
HETATM   25  C3  UNL     1     -18.886  45.812 -23.427  1.00  0.00     0.002 C 
HETATM   26  C2  UNL     1     -18.613  45.535 -22.136  1.00  0.00    -0.019 C 
HETATM   27  C1  UNL     1     -19.479  44.806 -21.160  1.00  0.00     0.036 C 
HETATM   28  C4  UNL     1     -20.168  45.499 -24.133  1.00  0.00     0.054 C 
ENDBRANCH  22  25
ENDBRANCH   1  21
BRANCH   2  29
HETATM   29  O2  UNL     1     -15.410  44.526 -25.976  1.00  0.00    -0.314 OA
BRANCH  29  30
HETATM   30  C8  UNL     1     -16.559  43.848 -26.228  1.00  0.00     0.255 C 
HETATM   31  C9  UNL     1     -17.369  44.596 -27.243  1.00  0.00     0.126 C 
HETATM   32  O3  UNL     1     -16.901  42.793 -25.719  1.00  0.00    -0.266 OA
ENDBRANCH  29  30
ENDBRANCH   2  29
BRANCH  20  33
HETATM   33  O5  UNL     1     -13.967  45.055 -23.560  1.00  0.00    -0.314 OA
BRANCH  33  34
HETATM   34  C30 UNL     1     -13.683  44.844 -22.246  1.00  0.00     0.255 C 
HETATM   35  C31 UNL     1     -13.785  46.131 -21.484  1.00  0.00     0.126 C 
HETATM   36  O6  UNL     1     -13.422  43.765 -21.737  1.00  0.00    -0.266 OA
ENDBRANCH  33  34
ENDBRANCH  20  33
BRANCH  16  37
HETATM   37  C23 UNL     1      -7.009  48.084 -29.896  1.00  0.00     0.253 C 
HETATM   38  C24 UNL     1      -6.366  46.784 -30.391  1.00  0.00     0.046 C 
BRANCH  37  39
HETATM   39  N2  UNL     1      -6.591  48.409 -28.522  1.00  0.00     0.086 N 
HETATM   40  C25 UNL     1      -5.222  48.009 -28.236  1.00  0.00     0.307 C 
HETATM   41  H36 UNL     1      -7.220  47.951 -27.863  1.00  0.00     0.316 HD
ENDBRANCH  37  39
ENDBRANCH  16  37
TORSDOF 8
ENDMDL
MODEL 8
REMARK minimizedAffinity -7.99122715
REMARK CNNscore 0.198566824
REMARK CNNaffinity 6.20857382
REMARK  8 active torsions:
REMARK  status: ('A' for Active; 'I' for Inactive)
REMARK    1  A    between atoms: C3_3  and  C5_5 
REMARK       I    between atoms: C5_5  and  N1_7 
REMARK    2  A    between atoms: N1_7  and  C6_8 
REMARK    3  A    between atoms: C7_9  and  O2_10 
REMARK    4  A    between atoms: O2_10  and  C8_11 
REMARK    5  A    between atoms: C22_27  and  C23_28 
REMARK    6  A    between atoms: C23_28  and  N2_30 
REMARK    7  A    between atoms: C29_35  and  O5_36 
REMARK    8  A    between atoms: O5_36  and  C30_37 
ROOT
HETATM    1  C6  UNL     1      -0.767  48.783 -16.985  1.00  0.00     0.144 C 
HETATM    2  C7  UNL     1      -0.506  50.305 -17.095  1.00  0.00     0.162 C 
HETATM    3  C10 UNL     1      -0.298  50.695 -18.574  1.00  0.00     0.026 C 
HETATM    4  C11 UNL     1       0.093  52.169 -18.746  1.00  0.00     0.008 C 
HETATM    5  C12 UNL     1       0.542  52.455 -20.179  1.00  0.00     0.006 C 
HETATM    6  C13 UNL     1      -0.507  52.031 -21.215  1.00  0.00    -0.005 C 
HETATM    7  C14 UNL     1      -0.941  50.540 -21.008  1.00  0.00    -0.001 C 
HETATM    8  C15 UNL     1      -1.883  50.027 -22.135  1.00  0.00     0.007 C 
HETATM    9  C16 UNL     1      -1.393  50.348 -23.564  1.00  0.00     0.013 C 
HETATM   10  C17 UNL     1      -1.057  51.833 -23.722  1.00  0.00    -0.004 C 
HETATM   11  C18 UNL     1      -2.340  52.692 -23.585  1.00  0.00     0.019 C 
HETATM   12  C19 UNL     1       0.023  52.164 -22.642  1.00  0.00     0.004 C 
HETATM   13  C20 UNL     1       0.646  53.479 -23.138  1.00  0.00     0.041 C 
HETATM   14  C21 UNL     1       0.667  53.280 -24.637  1.00  0.00     0.160 A 
HETATM   15  O4  UNL     1       1.082  51.984 -25.068  1.00  0.00    -0.366 OA
HETATM   16  C22 UNL     1      -0.343  52.221 -25.019  1.00  0.00     0.125 A 
HETATM   17  C26 UNL     1      -1.463  50.279 -19.538  1.00  0.00    -0.032 C 
HETATM   18  C27 UNL     1      -2.772  51.075 -19.301  1.00  0.00     0.016 C 
HETATM   19  C28 UNL     1      -1.745  48.759 -19.336  1.00  0.00     0.044 C 
HETATM   20  C29 UNL     1      -1.928  48.299 -17.877  1.00  0.00     0.158 C 
ENDROOT
BRANCH   1  21
HETATM   21  N1  UNL     1      -0.987  48.394 -15.591  1.00  0.00    -0.347 N 
HETATM   22  C5  UNL     1       0.047  47.969 -14.796  1.00  0.00     0.247 C 
HETATM   23  O1  UNL     1       1.163  47.712 -15.234  1.00  0.00    -0.268 OA
HETATM   24  H8  UNL     1      -1.863  48.680 -15.177  1.00  0.00     0.163 HD
BRANCH  22  25
HETATM   25  C3  UNL     1      -0.286  47.848 -13.340  1.00  0.00     0.002 C 
HETATM   26  C2  UNL     1       0.440  48.617 -12.505  1.00  0.00    -0.019 C 
HETATM   27  C1  UNL     1       0.326  48.706 -11.018  1.00  0.00     0.036 C 
HETATM   28  C4  UNL     1      -1.425  46.962 -12.938  1.00  0.00     0.054 C 
ENDBRANCH  22  25
ENDBRANCH   1  21
BRANCH   2  29
HETATM   29  O2  UNL     1      -1.614  51.023 -16.513  1.00  0.00    -0.314 OA
BRANCH  29  30
HETATM   30  C8  UNL     1      -1.601  51.221 -15.169  1.00  0.00     0.255 C 
HETATM   31  C9  UNL     1      -3.002  51.178 -14.643  1.00  0.00     0.126 C 
HETATM   32  O3  UNL     1      -0.612  51.409 -14.478  1.00  0.00    -0.266 OA
ENDBRANCH  29  30
ENDBRANCH   2  29
BRANCH  20  33
HETATM   33  O5  UNL     1      -3.180  48.768 -17.328  1.00  0.00    -0.314 OA
BRANCH  33  34
HETATM   34  C30 UNL     1      -4.220  47.892 -17.357  1.00  0.00     0.255 C 
HETATM   35  C31 UNL     1      -5.325  48.433 -18.214  1.00  0.00     0.126 C 
HETATM   36  O6  UNL     1      -4.251  46.804 -16.805  1.00  0.00    -0.266 OA
ENDBRANCH  33  34
ENDBRANCH  20  33
BRANCH  16  37
HETATM   37  C23 UNL     1      -1.053  52.181 -26.359  1.00  0.00     0.253 C 
HETATM   38  C24 UNL     1      -0.368  51.253 -27.369  1.00  0.00     0.046 C 
BRANCH  37  39
HETATM   39  N2  UNL     1      -1.151  53.559 -26.867  1.00  0.00     0.086 N 
HETATM   40  C25 UNL     1      -0.434  53.755 -28.118  1.00  0.00     0.307 C 
HETATM   41  H36 UNL     1      -0.785  54.202 -26.165  1.00  0.00     0.316 HD
ENDBRANCH  37  39
ENDBRANCH  16  37
TORSDOF 8
ENDMDL
MODEL 9
REMARK minimizedAffinity -7.22444963
REMARK CNNscore 0.196548074
REMARK CNNaffinity 6.23485565
REMARK  8 active torsions:
REMARK  status: ('A' for Active; 'I' for Inactive)
REMARK    1  A    between atoms: C3_3  and  C5_5 
REMARK       I    between atoms: C5_5  and  N1_7 
REMARK    2  A    between atoms: N1_7  and  C6_8 
REMARK    3  A    between atoms: C7_9  and  O2_10 
REMARK    4  A    between atoms: O2_10  and  C8_11 
REMARK    5  A    between atoms: C22_27  and  C23_28 
REMARK    6  A    between atoms: C23_28  and  N2_30 
REMARK    7  A    between atoms: C29_35  and  O5_36 
REMARK    8  A    between atoms: O5_36  and  C30_37 
ROOT
HETATM    1  C6  UNL     1       0.691  52.269 -14.031  1.00  0.00     0.144 C 
HETATM    2  C7  UNL     1      -0.453  51.226 -13.993  1.00  0.00     0.162 C 
HETATM    3  C10 UNL     1      -1.118  51.129 -15.383  1.00  0.00     0.026 C 
HETATM    4  C11 UNL     1      -2.344  50.205 -15.387  1.00  0.00     0.008 C 
HETATM    5  C12 UNL     1      -3.125  50.334 -16.695  1.00  0.00     0.006 C 
HETATM    6  C13 UNL     1      -2.243  50.096 -17.927  1.00  0.00    -0.005 C 
HETATM    7  C14 UNL     1      -0.967  51.005 -17.898  1.00  0.00    -0.001 C 
HETATM    8  C15 UNL     1      -0.131  50.907 -19.206  1.00  0.00     0.007 C 
HETATM    9  C16 UNL     1      -0.964  51.032 -20.501  1.00  0.00     0.013 C 
HETATM   10  C17 UNL     1      -2.151  50.066 -20.499  1.00  0.00    -0.004 C 
HETATM   11  C18 UNL     1      -1.651  48.599 -20.539  1.00  0.00     0.019 C 
HETATM   12  C19 UNL     1      -2.994  50.394 -19.224  1.00  0.00     0.004 C 
HETATM   13  C20 UNL     1      -4.362  49.756 -19.515  1.00  0.00     0.041 C 
HETATM   14  C21 UNL     1      -4.529  50.014 -20.995  1.00  0.00     0.160 A 
HETATM   15  O4  UNL     1      -4.147  51.319 -21.428  1.00  0.00    -0.366 OA
HETATM   16  C22 UNL     1      -3.175  50.266 -21.620  1.00  0.00     0.125 A 
HETATM   17  C26 UNL     1      -0.138  50.810 -16.565  1.00  0.00    -0.032 C 
HETATM   18  C27 UNL     1       0.439  49.372 -16.516  1.00  0.00     0.016 C 
HETATM   19  C28 UNL     1       1.037  51.834 -16.515  1.00  0.00     0.044 C 
HETATM   20  C29 UNL     1       1.722  52.003 -15.145  1.00  0.00     0.158 C 
ENDROOT
BRANCH   1  21
HETATM   21  N1  UNL     1       1.349  52.364 -12.726  1.00  0.00    -0.347 N 
HETATM   22  C5  UNL     1       0.735  52.965 -11.658  1.00  0.00     0.247 C 
HETATM   23  O1  UNL     1      -0.301  53.613 -11.761  1.00  0.00    -0.268 OA
HETATM   24  H8  UNL     1       2.150  51.765 -12.584  1.00  0.00     0.163 HD
BRANCH  22  25
HETATM   25  C3  UNL     1       1.422  52.764 -10.341  1.00  0.00     0.002 C 
HETATM   26  C2  UNL     1       2.768  52.719 -10.383  1.00  0.00    -0.019 C 
HETATM   27  C1  UNL     1       3.708  52.535  -9.236  1.00  0.00     0.036 C 
HETATM   28  C4  UNL     1       0.586  52.705  -9.100  1.00  0.00     0.054 C 
ENDBRANCH  22  25
ENDBRANCH   1  21
BRANCH   2  29
HETATM   29  O2  UNL     1       0.078  49.951 -13.575  1.00  0.00    -0.314 OA
BRANCH  29  30
HETATM   30  C8  UNL     1      -0.514  49.340 -12.516  1.00  0.00     0.255 C 
HETATM   31  C9  UNL     1      -0.644  47.873 -12.793  1.00  0.00     0.126 C 
HETATM   32  O3  UNL     1      -0.890  49.881 -11.488  1.00  0.00    -0.266 OA
ENDBRANCH  29  30
ENDBRANCH   2  29
BRANCH  20  33
HETATM   33  O5  UNL     1       2.508  50.841 -14.801  1.00  0.00    -0.314 OA
BRANCH  33  34
HETATM   34  C30 UNL     1       3.859  50.996 -14.824  1.00  0.00     0.255 C 
HETATM   35  C31 UNL     1       4.231  52.150 -15.704  1.00  0.00     0.126 C 
HETATM   36  O6  UNL     1       4.664  50.327 -14.194  1.00  0.00    -0.266 OA
ENDBRANCH  33  34
ENDBRANCH  20  33
BRANCH  16  37
HETATM   37  C23 UNL     1      -2.843  49.946 -23.065  1.00  0.00     0.253 C 
HETATM   38  C24 UNL     1      -2.993  48.456 -23.395  1.00  0.00     0.046 C 
BRANCH  37  39
HETATM   39  N2  UNL     1      -1.480  50.430 -23.340  1.00  0.00     0.086 N 
HETATM   40  C25 UNL     1      -1.379  51.160 -24.594  1.00  0.00     0.307 C 
HETATM   41  H36 UNL     1      -0.841  49.636 -23.359  1.00  0.00     0.316 HD
ENDBRANCH  37  39
ENDBRANCH  16  37
TORSDOF 8
ENDMDL
