MODEL 1
REMARK minimizedAffinity -8.95064926
REMARK CNNscore 0.749090552
REMARK CNNaffinity 5.82250214
REMARK  14 active torsions:
REMARK  status: ('A' for Active; 'I' for Inactive)
REMARK    1  A    between atoms: C2_2  and  O1_3 
REMARK    2  A    between atoms: O1_3  and  C3_4 
REMARK    3  A    between atoms: C4_6  and  C5_7 
REMARK    4  A    between atoms: C5_7  and  O3_8 
REMARK    5  A    between atoms: C5_7  and  C6_9 
REMARK    6  A    between atoms: C6_9  and  O4_10 
REMARK    7  A    between atoms: O4_10  and  C7_11 
REMARK    8  A    between atoms: C12_16  and  C13_17 
REMARK    9  A    between atoms: C13_17  and  O5_19 
REMARK   10  A    between atoms: C13_17  and  C15_20 
REMARK   11  A    between atoms: C15_20  and  O6_21 
REMARK   12  A    between atoms: C18_24  and  O7_26 
REMARK   13  A    between atoms: C22_29  and  O8_30 
REMARK   14  A    between atoms: C23_31  and  O9_32 
ROOT
HETATM    1  C7  UNL     1      -2.236   5.526  12.877  1.00  0.00     0.126 C 
HETATM    2  C8  UNL     1      -2.225   6.153  14.260  1.00  0.00     0.040 C 
HETATM    3  C9  UNL     1      -3.712   6.389  14.599  1.00  0.00     0.026 C 
HETATM    4  C10 UNL     1      -4.467   5.252  13.856  1.00  0.00    -0.001 C 
HETATM    5  C11 UNL     1      -5.791   5.561  13.150  1.00  0.00     0.013 C 
HETATM    6  C12 UNL     1      -6.903   6.129  14.065  1.00  0.00     0.022 C 
HETATM    7  C16 UNL     1      -6.744   7.661  14.160  1.00  0.00     0.010 C 
HETATM    8  C17 UNL     1      -5.550   8.133  14.980  1.00  0.00     0.038 C 
HETATM    9  C18 UNL     1      -4.141   7.868  14.427  1.00  0.00     0.058 C 
HETATM   10  C19 UNL     1      -3.933   8.458  13.029  1.00  0.00     0.046 C 
HETATM   11  C20 UNL     1      -3.397   4.537  12.978  1.00  0.00     0.015 C 
HETATM   12  C21 UNL     1      -3.824   4.032  11.602  1.00  0.00     0.013 C 
ENDROOT
BRANCH   1  13
HETATM   13  O4  UNL     1      -1.029   4.827  12.591  1.00  0.00    -0.383 OA
BRANCH  13  14
HETATM   14  C6  UNL     1      -0.296   5.406  11.501  1.00  0.00     0.202 C 
BRANCH  14  15
HETATM   15  C5  UNL     1       0.953   6.069  12.091  1.00  0.00     0.173 C 
BRANCH  15  16
HETATM   16  C4  UNL     1       2.237   5.643  11.365  1.00  0.00     0.187 C 
HETATM   17  O2  UNL     1       1.940   5.387   9.967  1.00  0.00    -0.348 OA
HETATM   18  C3  UNL     1       2.771   6.243   9.165  1.00  0.00     0.291 C 
HETATM   19  C23 UNL     1       4.025   6.467  10.016  1.00  0.00     0.204 C 
HETATM   20  C22 UNL     1       3.420   6.628  11.404  1.00  0.00     0.183 C 
BRANCH  18  21
HETATM   21  O1  UNL     1       2.133   7.488   8.902  1.00  0.00    -0.359 OA
BRANCH  21  22
HETATM   22  C2  UNL     1       2.501   8.019   7.632  1.00  0.00     0.166 C 
HETATM   23  C1  UNL     1       1.806   7.202   6.560  1.00  0.00     0.033 C 
ENDBRANCH  21  22
ENDBRANCH  18  21
BRANCH  19  24
HETATM   24  O9  UNL     1       4.885   5.317   9.986  1.00  0.00    -0.388 OA
HETATM   25  H42 UNL     1       4.320   4.522   9.954  1.00  0.00     0.210 HD
ENDBRANCH  19  24
BRANCH  20  26
HETATM   26  O8  UNL     1       3.036   7.984  11.632  1.00  0.00    -0.390 OA
HETATM   27  H40 UNL     1       2.188   8.124  11.149  1.00  0.00     0.210 HD
ENDBRANCH  20  26
ENDBRANCH  15  16
BRANCH  15  28
HETATM   28  O3  UNL     1       1.022   5.754  13.494  1.00  0.00    -0.391 OA
HETATM   29  H9  UNL     1       0.119   5.928  13.831  1.00  0.00     0.210 HD
ENDBRANCH  15  28
ENDBRANCH  14  15
ENDBRANCH  13  14
ENDBRANCH   1  13
BRANCH   9  30
HETATM   30  O7  UNL     1      -3.257   8.618  15.297  1.00  0.00    -0.390 OA
HETATM   31  H34 UNL     1      -3.483   9.561  15.219  1.00  0.00     0.210 HD
ENDBRANCH   9  30
BRANCH   6  32
HETATM   32  C13 UNL     1      -8.338   5.726  13.547  1.00  0.00     0.079 C 
HETATM   33  C14 UNL     1      -8.441   5.814  12.013  1.00  0.00     0.048 C 
BRANCH  32  34
HETATM   34  O5  UNL     1      -8.585   4.361  13.915  1.00  0.00    -0.388 OA
HETATM   35  H23 UNL     1      -9.461   4.107  13.574  1.00  0.00     0.210 HD
ENDBRANCH  32  34
BRANCH  32  36
HETATM   36  C15 UNL     1      -9.464   6.617  14.148  1.00  0.00     0.201 C 
BRANCH  36  37
HETATM   37  O6  UNL     1      -9.728   6.329  15.514  1.00  0.00    -0.398 OA
HETATM   38  H26 UNL     1      -8.969   6.639  16.040  1.00  0.00     0.209 HD
ENDBRANCH  36  37
ENDBRANCH  32  36
ENDBRANCH   6  32
TORSDOF 14
ENDMDL
MODEL 2
REMARK minimizedAffinity -9.3692379
REMARK CNNscore 0.748409271
REMARK CNNaffinity 6.2407937
REMARK  14 active torsions:
REMARK  status: ('A' for Active; 'I' for Inactive)
REMARK    1  A    between atoms: C2_2  and  O1_3 
REMARK    2  A    between atoms: O1_3  and  C3_4 
REMARK    3  A    between atoms: C4_6  and  C5_7 
REMARK    4  A    between atoms: C5_7  and  O3_8 
REMARK    5  A    between atoms: C5_7  and  C6_9 
REMARK    6  A    between atoms: C6_9  and  O4_10 
REMARK    7  A    between atoms: O4_10  and  C7_11 
REMARK    8  A    between atoms: C12_16  and  C13_17 
REMARK    9  A    between atoms: C13_17  and  O5_19 
REMARK   10  A    between atoms: C13_17  and  C15_20 
REMARK   11  A    between atoms: C15_20  and  O6_21 
REMARK   12  A    between atoms: C18_24  and  O7_26 
REMARK   13  A    between atoms: C22_29  and  O8_30 
REMARK   14  A    between atoms: C23_31  and  O9_32 
ROOT
HETATM    1  C7  UNL     1      -1.233   6.165  13.447  1.00  0.00     0.126 C 
HETATM    2  C8  UNL     1      -1.682   6.390  14.881  1.00  0.00     0.040 C 
HETATM    3  C9  UNL     1      -3.180   6.019  14.888  1.00  0.00     0.026 C 
HETATM    4  C10 UNL     1      -3.315   4.920  13.798  1.00  0.00    -0.001 C 
HETATM    5  C11 UNL     1      -4.526   4.933  12.860  1.00  0.00     0.013 C 
HETATM    6  C12 UNL     1      -5.901   4.844  13.565  1.00  0.00     0.022 C 
HETATM    7  C16 UNL     1      -6.356   6.264  13.963  1.00  0.00     0.010 C 
HETATM    8  C17 UNL     1      -5.580   6.888  15.116  1.00  0.00     0.038 C 
HETATM    9  C18 UNL     1      -4.107   7.260  14.880  1.00  0.00     0.058 C 
HETATM   10  C19 UNL     1      -3.921   8.217  13.698  1.00  0.00     0.046 C 
HETATM   11  C20 UNL     1      -1.929   4.851  13.091  1.00  0.00     0.015 C 
HETATM   12  C21 UNL     1      -1.906   4.596  11.586  1.00  0.00     0.013 C 
ENDROOT
BRANCH   1  13
HETATM   13  O4  UNL     1       0.178   6.008  13.342  1.00  0.00    -0.383 OA
BRANCH  13  14
HETATM   14  C6  UNL     1       0.844   7.217  12.946  1.00  0.00     0.202 C 
BRANCH  14  15
HETATM   15  C5  UNL     1       0.847   7.255  11.414  1.00  0.00     0.173 C 
BRANCH  15  16
HETATM   16  C4  UNL     1       1.577   6.050  10.802  1.00  0.00     0.187 C 
HETATM   17  O2  UNL     1       1.379   6.045   9.363  1.00  0.00    -0.348 OA
HETATM   18  C3  UNL     1       2.669   6.080   8.732  1.00  0.00     0.291 C 
HETATM   19  C23 UNL     1       3.606   5.395   9.732  1.00  0.00     0.204 C 
HETATM   20  C22 UNL     1       3.093   5.952  11.052  1.00  0.00     0.183 C 
BRANCH  18  21
HETATM   21  O1  UNL     1       3.099   7.418   8.502  1.00  0.00    -0.359 OA
BRANCH  21  22
HETATM   22  C2  UNL     1       2.261   8.096   7.570  1.00  0.00     0.166 C 
HETATM   23  C1  UNL     1       1.884   7.118   6.475  1.00  0.00     0.033 C 
ENDBRANCH  21  22
ENDBRANCH  18  21
BRANCH  19  24
HETATM   24  O9  UNL     1       3.440   3.968   9.703  1.00  0.00    -0.388 OA
HETATM   25  H42 UNL     1       2.496   3.780   9.544  1.00  0.00     0.210 HD
ENDBRANCH  19  24
BRANCH  20  26
HETATM   26  O8  UNL     1       3.713   7.203  11.346  1.00  0.00    -0.390 OA
HETATM   27  H40 UNL     1       3.266   7.880  10.786  1.00  0.00     0.210 HD
ENDBRANCH  20  26
ENDBRANCH  15  16
BRANCH  15  28
HETATM   28  O3  UNL     1       1.442   8.494  10.986  1.00  0.00    -0.391 OA
HETATM   29  H9  UNL     1       1.007   9.179  11.533  1.00  0.00     0.210 HD
ENDBRANCH  15  28
ENDBRANCH  14  15
ENDBRANCH  13  14
ENDBRANCH   1  13
BRANCH   9  30
HETATM   30  O7  UNL     1      -3.728   8.020  16.055  1.00  0.00    -0.390 OA
HETATM   31  H34 UNL     1      -4.281   8.819  16.091  1.00  0.00     0.210 HD
ENDBRANCH   9  30
BRANCH   6  32
HETATM   32  C13 UNL     1      -6.972   4.125  12.655  1.00  0.00     0.079 C 
HETATM   33  C14 UNL     1      -8.007   5.119  12.094  1.00  0.00     0.048 C 
BRANCH  32  34
HETATM   34  O5  UNL     1      -6.294   3.536  11.537  1.00  0.00    -0.388 OA
HETATM   35  H23 UNL     1      -6.958   3.114  10.964  1.00  0.00     0.210 HD
ENDBRANCH  32  34
BRANCH  32  36
HETATM   36  C15 UNL     1      -7.751   3.010  13.412  1.00  0.00     0.201 C 
BRANCH  36  37
HETATM   37  O6  UNL     1      -7.843   1.801  12.672  1.00  0.00    -0.398 OA
HETATM   38  H26 UNL     1      -6.958   1.397  12.641  1.00  0.00     0.209 HD
ENDBRANCH  36  37
ENDBRANCH  32  36
ENDBRANCH   6  32
TORSDOF 14
ENDMDL
MODEL 3
REMARK minimizedAffinity -9.60999775
REMARK CNNscore 0.739283919
REMARK CNNaffinity 5.84870338
REMARK  14 active torsions:
REMARK  status: ('A' for Active; 'I' for Inactive)
REMARK    1  A    between atoms: C2_2  and  O1_3 
REMARK    2  A    between atoms: O1_3  and  C3_4 
REMARK    3  A    between atoms: C4_6  and  C5_7 
REMARK    4  A    between atoms: C5_7  and  O3_8 
REMARK    5  A    between atoms: C5_7  and  C6_9 
REMARK    6  A    between atoms: C6_9  and  O4_10 
REMARK    7  A    between atoms: O4_10  and  C7_11 
REMARK    8  A    between atoms: C12_16  and  C13_17 
REMARK    9  A    between atoms: C13_17  and  O5_19 
REMARK   10  A    between atoms: C13_17  and  C15_20 
REMARK   11  A    between atoms: C15_20  and  O6_21 
REMARK   12  A    between atoms: C18_24  and  O7_26 
REMARK   13  A    between atoms: C22_29  and  O8_30 
REMARK   14  A    between atoms: C23_31  and  O9_32 
ROOT
HETATM    1  C7  UNL     1      -1.560   4.854  13.160  1.00  0.00     0.126 C 
HETATM    2  C8  UNL     1      -1.790   4.853  11.658  1.00  0.00     0.040 C 
HETATM    3  C9  UNL     1      -3.316   4.698  11.493  1.00  0.00     0.026 C 
HETATM    4  C10 UNL     1      -3.917   5.388  12.749  1.00  0.00    -0.001 C 
HETATM    5  C11 UNL     1      -5.110   4.746  13.465  1.00  0.00     0.013 C 
HETATM    6  C12 UNL     1      -6.369   4.547  12.587  1.00  0.00     0.022 C 
HETATM    7  C16 UNL     1      -6.255   3.199  11.842  1.00  0.00     0.010 C 
HETATM    8  C17 UNL     1      -5.224   3.170  10.722  1.00  0.00     0.038 C 
HETATM    9  C18 UNL     1      -3.738   3.259  11.104  1.00  0.00     0.058 C 
HETATM   10  C19 UNL     1      -3.311   2.158  12.080  1.00  0.00     0.046 C 
HETATM   11  C20 UNL     1      -2.704   5.735  13.663  1.00  0.00     0.015 C 
HETATM   12  C21 UNL     1      -2.886   5.606  15.173  1.00  0.00     0.013 C 
ENDROOT
BRANCH   1  13
HETATM   13  O4  UNL     1      -0.309   5.437  13.513  1.00  0.00    -0.383 OA
BRANCH  13  14
HETATM   14  C6  UNL     1       0.020   6.577  12.705  1.00  0.00     0.202 C 
BRANCH  14  15
HETATM   15  C5  UNL     1       1.529   6.807  12.832  1.00  0.00     0.173 C 
BRANCH  15  16
HETATM   16  C4  UNL     1       2.324   6.077  11.739  1.00  0.00     0.187 C 
HETATM   17  O2  UNL     1       1.484   5.899  10.568  1.00  0.00    -0.348 OA
HETATM   18  C3  UNL     1       2.136   6.522   9.449  1.00  0.00     0.291 C 
HETATM   19  C23 UNL     1       3.630   6.433   9.775  1.00  0.00     0.204 C 
HETATM   20  C22 UNL     1       3.630   6.741  11.265  1.00  0.00     0.183 C 
BRANCH  18  21
HETATM   21  O1  UNL     1       1.749   7.885   9.315  1.00  0.00    -0.359 OA
BRANCH  21  22
HETATM   22  C2  UNL     1       1.061   8.129   8.091  1.00  0.00     0.166 C 
HETATM   23  C1  UNL     1       1.784   7.382   6.987  1.00  0.00     0.033 C 
ENDBRANCH  21  22
ENDBRANCH  18  21
BRANCH  19  24
HETATM   24  O9  UNL     1       4.132   5.106   9.547  1.00  0.00    -0.388 OA
HETATM   25  H42 UNL     1       3.430   4.475   9.791  1.00  0.00     0.210 HD
ENDBRANCH  19  24
BRANCH  20  26
HETATM   26  O8  UNL     1       3.677   8.149  11.489  1.00  0.00    -0.390 OA
HETATM   27  H40 UNL     1       2.767   8.493  11.328  1.00  0.00     0.210 HD
ENDBRANCH  20  26
ENDBRANCH  15  16
BRANCH  15  28
HETATM   28  O3  UNL     1       1.950   6.391  14.145  1.00  0.00    -0.391 OA
HETATM   29  H9  UNL     1       1.297   6.796  14.752  1.00  0.00     0.210 HD
ENDBRANCH  15  28
ENDBRANCH  14  15
ENDBRANCH  13  14
ENDBRANCH   1  13
BRANCH   9  30
HETATM   30  O7  UNL     1      -3.025   2.980   9.872  1.00  0.00    -0.390 OA
HETATM   31  H34 UNL     1      -3.251   2.078   9.589  1.00  0.00     0.210 HD
ENDBRANCH   9  30
BRANCH   6  32
HETATM   32  C13 UNL     1      -7.691   4.625  13.445  1.00  0.00     0.079 C 
HETATM   33  C14 UNL     1      -8.723   5.585  12.824  1.00  0.00     0.048 C 
BRANCH  32  34
HETATM   34  O5  UNL     1      -8.286   3.320  13.479  1.00  0.00    -0.388 OA
HETATM   35  H23 UNL     1      -9.114   3.375  13.989  1.00  0.00     0.210 HD
ENDBRANCH  32  34
BRANCH  32  36
HETATM   36  C15 UNL     1      -7.430   5.094  14.907  1.00  0.00     0.201 C 
BRANCH  36  37
HETATM   37  O6  UNL     1      -7.939   4.189  15.877  1.00  0.00    -0.398 OA
HETATM   38  H26 UNL     1      -7.390   3.385  15.857  1.00  0.00     0.209 HD
ENDBRANCH  36  37
ENDBRANCH  32  36
ENDBRANCH   6  32
TORSDOF 14
ENDMDL
MODEL 4
REMARK minimizedAffinity -8.4550066
REMARK CNNscore 0.727434874
REMARK CNNaffinity 5.93547106
REMARK  14 active torsions:
REMARK  status: ('A' for Active; 'I' for Inactive)
REMARK    1  A    between atoms: C2_2  and  O1_3 
REMARK    2  A    between atoms: O1_3  and  C3_4 
REMARK    3  A    between atoms: C4_6  and  C5_7 
REMARK    4  A    between atoms: C5_7  and  O3_8 
REMARK    5  A    between atoms: C5_7  and  C6_9 
REMARK    6  A    between atoms: C6_9  and  O4_10 
REMARK    7  A    between atoms: O4_10  and  C7_11 
REMARK    8  A    between atoms: C12_16  and  C13_17 
REMARK    9  A    between atoms: C13_17  and  O5_19 
REMARK   10  A    between atoms: C13_17  and  C15_20 
REMARK   11  A    between atoms: C15_20  and  O6_21 
REMARK   12  A    between atoms: C18_24  and  O7_26 
REMARK   13  A    between atoms: C22_29  and  O8_30 
REMARK   14  A    between atoms: C23_31  and  O9_32 
ROOT
HETATM    1  C7  UNL     1      -1.407   6.971  13.635  1.00  0.00     0.126 C 
HETATM    2  C8  UNL     1      -2.193   6.831  14.927  1.00  0.00     0.040 C 
HETATM    3  C9  UNL     1      -3.329   5.842  14.594  1.00  0.00     0.026 C 
HETATM    4  C10 UNL     1      -2.727   4.910  13.505  1.00  0.00    -0.001 C 
HETATM    5  C11 UNL     1      -3.592   4.483  12.315  1.00  0.00     0.013 C 
HETATM    6  C12 UNL     1      -4.892   3.729  12.688  1.00  0.00     0.022 C 
HETATM    7  C16 UNL     1      -6.009   4.758  12.966  1.00  0.00     0.010 C 
HETATM    8  C17 UNL     1      -5.852   5.541  14.264  1.00  0.00     0.038 C 
HETATM    9  C18 UNL     1      -4.692   6.543  14.370  1.00  0.00     0.058 C 
HETATM   10  C19 UNL     1      -4.718   7.597  13.258  1.00  0.00     0.046 C 
HETATM   11  C20 UNL     1      -1.346   5.528  13.134  1.00  0.00     0.015 C 
HETATM   12  C21 UNL     1      -0.903   5.461  11.675  1.00  0.00     0.013 C 
ENDROOT
BRANCH   1  13
HETATM   13  O4  UNL     1      -0.088   7.461  13.855  1.00  0.00    -0.383 OA
BRANCH  13  14
HETATM   14  C6  UNL     1       0.391   8.273  12.772  1.00  0.00     0.202 C 
BRANCH  14  15
HETATM   15  C5  UNL     1       1.911   8.388  12.925  1.00  0.00     0.173 C 
BRANCH  15  16
HETATM   16  C4  UNL     1       2.659   7.278  12.172  1.00  0.00     0.187 C 
HETATM   17  O2  UNL     1       1.847   6.817  11.060  1.00  0.00    -0.348 OA
HETATM   18  C3  UNL     1       2.604   6.989   9.849  1.00  0.00     0.291 C 
HETATM   19  C23 UNL     1       4.066   6.868  10.289  1.00  0.00     0.204 C 
HETATM   20  C22 UNL     1       4.047   7.631  11.606  1.00  0.00     0.183 C 
BRANCH  18  21
HETATM   21  O1  UNL     1       2.375   8.270   9.271  1.00  0.00    -0.359 OA
BRANCH  21  22
HETATM   22  C2  UNL     1       2.796   8.326   7.911  1.00  0.00     0.166 C 
HETATM   23  C1  UNL     1       1.956   7.346   7.115  1.00  0.00     0.033 C 
ENDBRANCH  21  22
ENDBRANCH  18  21
BRANCH  19  24
HETATM   24  O9  UNL     1       4.425   5.496  10.521  1.00  0.00    -0.388 OA
HETATM   25  H42 UNL     1       3.649   5.044  10.901  1.00  0.00     0.210 HD
ENDBRANCH  19  24
BRANCH  20  26
HETATM   26  O8  UNL     1       4.241   9.027  11.382  1.00  0.00    -0.390 OA
HETATM   27  H40 UNL     1       3.381   9.386  11.060  1.00  0.00     0.210 HD
ENDBRANCH  20  26
ENDBRANCH  15  16
BRANCH  15  28
HETATM   28  O3  UNL     1       2.236   8.372  14.328  1.00  0.00    -0.391 OA
HETATM   29  H9  UNL     1       1.611   9.009  14.732  1.00  0.00     0.210 HD
ENDBRANCH  15  28
ENDBRANCH  14  15
ENDBRANCH  13  14
ENDBRANCH   1  13
BRANCH   9  30
HETATM   30  O7  UNL     1      -4.946   7.271  15.598  1.00  0.00    -0.390 OA
HETATM   31  H34 UNL     1      -5.793   7.738  15.504  1.00  0.00     0.210 HD
ENDBRANCH   9  30
BRANCH   6  32
HETATM   32  C13 UNL     1      -5.312   2.709  11.560  1.00  0.00     0.079 C 
HETATM   33  C14 UNL     1      -5.292   3.357  10.163  1.00  0.00     0.048 C 
BRANCH  32  34
HETATM   34  O5  UNL     1      -4.362   1.633  11.546  1.00  0.00    -0.388 OA
HETATM   35  H23 UNL     1      -4.609   1.017  10.835  1.00  0.00     0.210 HD
ENDBRANCH  32  34
BRANCH  32  36
HETATM   36  C15 UNL     1      -6.734   2.117  11.786  1.00  0.00     0.201 C 
BRANCH  36  37
HETATM   37  O6  UNL     1      -6.761   0.698  11.709  1.00  0.00    -0.398 OA
HETATM   38  H26 UNL     1      -6.305   0.345  12.493  1.00  0.00     0.209 HD
ENDBRANCH  36  37
ENDBRANCH  32  36
ENDBRANCH   6  32
TORSDOF 14
ENDMDL
MODEL 5
REMARK minimizedAffinity -7.58897638
REMARK CNNscore 0.660553455
REMARK CNNaffinity 5.91443014
REMARK  14 active torsions:
REMARK  status: ('A' for Active; 'I' for Inactive)
REMARK    1  A    between atoms: C2_2  and  O1_3 
REMARK    2  A    between atoms: O1_3  and  C3_4 
REMARK    3  A    between atoms: C4_6  and  C5_7 
REMARK    4  A    between atoms: C5_7  and  O3_8 
REMARK    5  A    between atoms: C5_7  and  C6_9 
REMARK    6  A    between atoms: C6_9  and  O4_10 
REMARK    7  A    between atoms: O4_10  and  C7_11 
REMARK    8  A    between atoms: C12_16  and  C13_17 
REMARK    9  A    between atoms: C13_17  and  O5_19 
REMARK   10  A    between atoms: C13_17  and  C15_20 
REMARK   11  A    between atoms: C15_20  and  O6_21 
REMARK   12  A    between atoms: C18_24  and  O7_26 
REMARK   13  A    between atoms: C22_29  and  O8_30 
REMARK   14  A    between atoms: C23_31  and  O9_32 
ROOT
HETATM    1  C7  UNL     1      -5.203   7.648  14.829  1.00  0.00     0.126 C 
HETATM    2  C8  UNL     1      -5.974   6.699  15.730  1.00  0.00     0.040 C 
HETATM    3  C9  UNL     1      -6.014   5.365  14.957  1.00  0.00     0.026 C 
HETATM    4  C10 UNL     1      -4.698   5.353  14.131  1.00  0.00    -0.001 C 
HETATM    5  C11 UNL     1      -4.718   4.840  12.687  1.00  0.00     0.013 C 
HETATM    6  C12 UNL     1      -5.205   3.381  12.519  1.00  0.00     0.022 C 
HETATM    7  C16 UNL     1      -6.745   3.373  12.407  1.00  0.00     0.010 C 
HETATM    8  C17 UNL     1      -7.485   3.683  13.702  1.00  0.00     0.038 C 
HETATM    9  C18 UNL     1      -7.380   5.106  14.273  1.00  0.00     0.058 C 
HETATM   10  C19 UNL     1      -7.835   6.178  13.278  1.00  0.00     0.046 C 
HETATM   11  C20 UNL     1      -4.063   6.762  14.325  1.00  0.00     0.015 C 
HETATM   12  C21 UNL     1      -3.348   7.395  13.134  1.00  0.00     0.013 C 
ENDROOT
BRANCH   1  13
HETATM   13  O4  UNL     1      -4.671   8.759  15.544  1.00  0.00    -0.383 OA
BRANCH  13  14
HETATM   14  C6  UNL     1      -4.249   9.825  14.680  1.00  0.00     0.202 C 
BRANCH  14  15
HETATM   15  C5  UNL     1      -3.230  10.666  15.456  1.00  0.00     0.173 C 
BRANCH  15  16
HETATM   16  C4  UNL     1      -3.749  11.082  16.840  1.00  0.00     0.187 C 
HETATM   17  O2  UNL     1      -3.237  10.167  17.844  1.00  0.00    -0.348 OA
HETATM   18  C3  UNL     1      -2.506  10.930  18.818  1.00  0.00     0.291 C 
HETATM   19  C23 UNL     1      -3.170  12.311  18.801  1.00  0.00     0.204 C 
HETATM   20  C22 UNL     1      -3.412  12.509  17.311  1.00  0.00     0.183 C 
BRANCH  18  21
HETATM   21  O1  UNL     1      -1.133  11.047  18.462  1.00  0.00    -0.359 OA
BRANCH  21  22
HETATM   22  C2  UNL     1      -0.414  11.880  19.368  1.00  0.00     0.166 C 
HETATM   23  C1  UNL     1       0.484  10.996  20.211  1.00  0.00     0.033 C 
ENDBRANCH  21  22
ENDBRANCH  18  21
BRANCH  19  24
HETATM   24  O9  UNL     1      -4.423  12.292  19.505  1.00  0.00    -0.388 OA
HETATM   25  H42 UNL     1      -4.843  11.427  19.344  1.00  0.00     0.210 HD
ENDBRANCH  19  24
BRANCH  20  26
HETATM   26  O8  UNL     1      -2.259  13.068  16.684  1.00  0.00    -0.390 OA
HETATM   27  H40 UNL     1      -1.612  12.332  16.571  1.00  0.00     0.210 HD
ENDBRANCH  20  26
ENDBRANCH  15  16
BRANCH  15  28
HETATM   28  O3  UNL     1      -2.884  11.817  14.664  1.00  0.00    -0.391 OA
HETATM   29  H9  UNL     1      -2.706  11.457  13.770  1.00  0.00     0.210 HD
ENDBRANCH  15  28
ENDBRANCH  14  15
ENDBRANCH  13  14
ENDBRANCH   1  13
BRANCH   9  30
HETATM   30  O7  UNL     1      -8.351   5.142  15.349  1.00  0.00    -0.390 OA
HETATM   31  H34 UNL     1      -9.232   4.991  14.967  1.00  0.00     0.210 HD
ENDBRANCH   9  30
BRANCH   6  32
HETATM   32  C13 UNL     1      -4.530   2.686  11.273  1.00  0.00     0.079 C 
HETATM   33  C14 UNL     1      -3.649   1.493  11.689  1.00  0.00     0.048 C 
BRANCH  32  34
HETATM   34  O5  UNL     1      -5.567   2.175  10.423  1.00  0.00    -0.388 OA
HETATM   35  H23 UNL     1      -5.149   1.726   9.667  1.00  0.00     0.210 HD
ENDBRANCH  32  34
BRANCH  32  36
HETATM   36  C15 UNL     1      -3.643   3.663  10.449  1.00  0.00     0.201 C 
BRANCH  36  37
HETATM   37  O6  UNL     1      -2.264   3.319  10.480  1.00  0.00    -0.398 OA
HETATM   38  H26 UNL     1      -2.145   2.504   9.960  1.00  0.00     0.209 HD
ENDBRANCH  36  37
ENDBRANCH  32  36
ENDBRANCH   6  32
TORSDOF 14
ENDMDL
MODEL 6
REMARK minimizedAffinity -8.4597311
REMARK CNNscore 0.647684753
REMARK CNNaffinity 5.91649628
REMARK  14 active torsions:
REMARK  status: ('A' for Active; 'I' for Inactive)
REMARK    1  A    between atoms: C2_2  and  O1_3 
REMARK    2  A    between atoms: O1_3  and  C3_4 
REMARK    3  A    between atoms: C4_6  and  C5_7 
REMARK    4  A    between atoms: C5_7  and  O3_8 
REMARK    5  A    between atoms: C5_7  and  C6_9 
REMARK    6  A    between atoms: C6_9  and  O4_10 
REMARK    7  A    between atoms: O4_10  and  C7_11 
REMARK    8  A    between atoms: C12_16  and  C13_17 
REMARK    9  A    between atoms: C13_17  and  O5_19 
REMARK   10  A    between atoms: C13_17  and  C15_20 
REMARK   11  A    between atoms: C15_20  and  O6_21 
REMARK   12  A    between atoms: C18_24  and  O7_26 
REMARK   13  A    between atoms: C22_29  and  O8_30 
REMARK   14  A    between atoms: C23_31  and  O9_32 
ROOT
HETATM    1  C7  UNL     1      -1.479   4.758  13.135  1.00  0.00     0.126 C 
HETATM    2  C8  UNL     1      -1.713   4.808  11.635  1.00  0.00     0.040 C 
HETATM    3  C9  UNL     1      -3.241   4.672  11.469  1.00  0.00     0.026 C 
HETATM    4  C10 UNL     1      -3.833   5.326  12.749  1.00  0.00    -0.001 C 
HETATM    5  C11 UNL     1      -5.029   4.671  13.446  1.00  0.00     0.013 C 
HETATM    6  C12 UNL     1      -6.292   4.511  12.565  1.00  0.00     0.022 C 
HETATM    7  C16 UNL     1      -6.192   3.187  11.777  1.00  0.00     0.010 C 
HETATM    8  C17 UNL     1      -5.163   3.186  10.654  1.00  0.00     0.038 C 
HETATM    9  C18 UNL     1      -3.675   3.250  11.034  1.00  0.00     0.058 C 
HETATM   10  C19 UNL     1      -3.256   2.114  11.973  1.00  0.00     0.046 C 
HETATM   11  C20 UNL     1      -2.614   5.632  13.670  1.00  0.00     0.015 C 
HETATM   12  C21 UNL     1      -2.794   5.456  15.175  1.00  0.00     0.013 C 
ENDROOT
BRANCH   1  13
HETATM   13  O4  UNL     1      -0.223   5.319  13.504  1.00  0.00    -0.383 OA
BRANCH  13  14
HETATM   14  C6  UNL     1      -0.008   6.621  12.938  1.00  0.00     0.202 C 
BRANCH  14  15
HETATM   15  C5  UNL     1       0.423   7.550  14.078  1.00  0.00     0.173 C 
BRANCH  15  16
HETATM   16  C4  UNL     1      -0.015   9.003  13.844  1.00  0.00     0.187 C 
HETATM   17  O2  UNL     1      -1.067   9.036  12.844  1.00  0.00    -0.348 OA
HETATM   18  C3  UNL     1      -2.220   9.667  13.426  1.00  0.00     0.291 C 
HETATM   19  C23 UNL     1      -1.647  10.626  14.474  1.00  0.00     0.204 C 
HETATM   20  C22 UNL     1      -0.527   9.783  15.069  1.00  0.00     0.183 C 
BRANCH  18  21
HETATM   21  O1  UNL     1      -3.073   8.715  14.053  1.00  0.00    -0.359 OA
BRANCH  21  22
HETATM   22  C2  UNL     1      -4.295   9.299  14.495  1.00  0.00     0.166 C 
HETATM   23  C1  UNL     1      -5.423   8.343  14.163  1.00  0.00     0.033 C 
ENDBRANCH  21  22
ENDBRANCH  18  21
BRANCH  19  24
HETATM   24  O9  UNL     1      -1.101  11.803  13.856  1.00  0.00    -0.388 OA
HETATM   25  H42 UNL     1      -0.699  11.536  13.008  1.00  0.00     0.210 HD
ENDBRANCH  19  24
BRANCH  20  26
HETATM   26  O8  UNL     1      -1.024   8.952  16.117  1.00  0.00    -0.390 OA
HETATM   27  H40 UNL     1      -1.484   8.194  15.685  1.00  0.00     0.210 HD
ENDBRANCH  20  26
ENDBRANCH  15  16
BRANCH  15  28
HETATM   28  O3  UNL     1       1.851   7.457  14.232  1.00  0.00    -0.391 OA
HETATM   29  H9  UNL     1       2.037   6.495  14.231  1.00  0.00     0.210 HD
ENDBRANCH  15  28
ENDBRANCH  14  15
ENDBRANCH  13  14
ENDBRANCH   1  13
BRANCH   9  30
HETATM   30  O7  UNL     1      -2.968   3.005   9.793  1.00  0.00    -0.390 OA
HETATM   31  H34 UNL     1      -3.203   2.114   9.480  1.00  0.00     0.210 HD
ENDBRANCH   9  30
BRANCH   6  32
HETATM   32  C13 UNL     1      -7.611   4.572  13.430  1.00  0.00     0.079 C 
HETATM   33  C14 UNL     1      -8.656   5.524  12.816  1.00  0.00     0.048 C 
BRANCH  32  34
HETATM   34  O5  UNL     1      -8.194   3.261  13.460  1.00  0.00    -0.388 OA
HETATM   35  H23 UNL     1      -9.019   3.305  13.974  1.00  0.00     0.210 HD
ENDBRANCH  32  34
BRANCH  32  36
HETATM   36  C15 UNL     1      -7.350   5.038  14.892  1.00  0.00     0.201 C 
BRANCH  36  37
HETATM   37  O6  UNL     1      -7.926   4.171  15.859  1.00  0.00    -0.398 OA
HETATM   38  H26 UNL     1      -7.424   3.338  15.855  1.00  0.00     0.209 HD
ENDBRANCH  36  37
ENDBRANCH  32  36
ENDBRANCH   6  32
TORSDOF 14
ENDMDL
MODEL 7
REMARK minimizedAffinity -8.31455803
REMARK CNNscore 0.63642174
REMARK CNNaffinity 6.49551535
REMARK  14 active torsions:
REMARK  status: ('A' for Active; 'I' for Inactive)
REMARK    1  A    between atoms: C2_2  and  O1_3 
REMARK    2  A    between atoms: O1_3  and  C3_4 
REMARK    3  A    between atoms: C4_6  and  C5_7 
REMARK    4  A    between atoms: C5_7  and  O3_8 
REMARK    5  A    between atoms: C5_7  and  C6_9 
REMARK    6  A    between atoms: C6_9  and  O4_10 
REMARK    7  A    between atoms: O4_10  and  C7_11 
REMARK    8  A    between atoms: C12_16  and  C13_17 
REMARK    9  A    between atoms: C13_17  and  O5_19 
REMARK   10  A    between atoms: C13_17  and  C15_20 
REMARK   11  A    between atoms: C15_20  and  O6_21 
REMARK   12  A    between atoms: C18_24  and  O7_26 
REMARK   13  A    between atoms: C22_29  and  O8_30 
REMARK   14  A    between atoms: C23_31  and  O9_32 
ROOT
HETATM    1  C7  UNL     1      -7.030   6.745  14.320  1.00  0.00     0.126 C 
HETATM    2  C8  UNL     1      -7.541   5.386  14.766  1.00  0.00     0.040 C 
HETATM    3  C9  UNL     1      -6.684   4.366  13.987  1.00  0.00     0.026 C 
HETATM    4  C10 UNL     1      -5.314   5.075  13.794  1.00  0.00    -0.001 C 
HETATM    5  C11 UNL     1      -4.580   4.947  12.455  1.00  0.00     0.013 C 
HETATM    6  C12 UNL     1      -4.245   3.497  12.030  1.00  0.00     0.022 C 
HETATM    7  C16 UNL     1      -5.453   2.901  11.277  1.00  0.00     0.010 C 
HETATM    8  C17 UNL     1      -6.658   2.578  12.151  1.00  0.00     0.038 C 
HETATM    9  C18 UNL     1      -7.432   3.749  12.779  1.00  0.00     0.058 C 
HETATM   10  C19 UNL     1      -7.941   4.748  11.735  1.00  0.00     0.046 C 
HETATM   11  C20 UNL     1      -5.516   6.533  14.304  1.00  0.00     0.015 C 
HETATM   12  C21 UNL     1      -4.802   7.656  13.556  1.00  0.00     0.013 C 
ENDROOT
BRANCH   1  13
HETATM   13  O4  UNL     1      -7.363   7.777  15.243  1.00  0.00    -0.383 OA
BRANCH  13  14
HETATM   14  C6  UNL     1      -8.658   7.593  15.837  1.00  0.00     0.202 C 
BRANCH  14  15
HETATM   15  C5  UNL     1      -9.687   7.609  14.703  1.00  0.00     0.173 C 
BRANCH  15  16
HETATM   16  C4  UNL     1     -10.215   9.023  14.414  1.00  0.00     0.187 C 
HETATM   17  O2  UNL     1     -11.078   8.987  13.247  1.00  0.00    -0.348 OA
HETATM   18  C3  UNL     1     -12.369   9.493  13.626  1.00  0.00     0.291 C 
HETATM   19  C23 UNL     1     -12.078  10.470  14.770  1.00  0.00     0.204 C 
HETATM   20  C22 UNL     1     -11.003   9.717  15.541  1.00  0.00     0.183 C 
BRANCH  18  21
HETATM   21  O1  UNL     1     -13.222   8.449  14.083  1.00  0.00    -0.359 OA
BRANCH  21  22
HETATM   22  C2  UNL     1     -14.063   7.952  13.046  1.00  0.00     0.166 C 
HETATM   23  C1  UNL     1     -14.663   6.639  13.512  1.00  0.00     0.033 C 
ENDBRANCH  21  22
ENDBRANCH  18  21
BRANCH  19  24
HETATM   24  O9  UNL     1     -11.549  11.709  14.271  1.00  0.00    -0.388 OA
HETATM   25  H42 UNL     1     -10.984  11.505  13.503  1.00  0.00     0.210 HD
ENDBRANCH  19  24
BRANCH  20  26
HETATM   26  O8  UNL     1     -11.592   8.814  16.475  1.00  0.00    -0.390 OA
HETATM   27  H40 UNL     1     -11.896   8.030  15.961  1.00  0.00     0.210 HD
ENDBRANCH  20  26
ENDBRANCH  15  16
BRANCH  15  28
HETATM   28  O3  UNL     1     -10.762   6.714  15.043  1.00  0.00    -0.391 OA
HETATM   29  H9  UNL     1     -10.316   5.896  15.343  1.00  0.00     0.210 HD
ENDBRANCH  15  28
ENDBRANCH  14  15
ENDBRANCH  13  14
ENDBRANCH   1  13
BRANCH   9  30
HETATM   30  O7  UNL     1      -8.621   3.142  13.345  1.00  0.00    -0.390 OA
HETATM   31  H34 UNL     1      -9.132   2.744  12.620  1.00  0.00     0.210 HD
ENDBRANCH   9  30
BRANCH   6  32
HETATM   32  C13 UNL     1      -2.932   3.441  11.155  1.00  0.00     0.079 C 
HETATM   33  C14 UNL     1      -2.198   2.095  11.307  1.00  0.00     0.048 C 
BRANCH  32  34
HETATM   34  O5  UNL     1      -3.302   3.573   9.774  1.00  0.00    -0.388 OA
HETATM   35  H23 UNL     1      -2.494   3.514   9.235  1.00  0.00     0.210 HD
ENDBRANCH  32  34
BRANCH  32  36
HETATM   36  C15 UNL     1      -1.924   4.572  11.512  1.00  0.00     0.201 C 
BRANCH  36  37
HETATM   37  O6  UNL     1      -0.644   4.376  10.927  1.00  0.00    -0.398 OA
HETATM   38  H26 UNL     1      -0.725   4.520   9.968  1.00  0.00     0.209 HD
ENDBRANCH  36  37
ENDBRANCH  32  36
ENDBRANCH   6  32
TORSDOF 14
ENDMDL
MODEL 8
REMARK minimizedAffinity -7.39361143
REMARK CNNscore 0.618192971
REMARK CNNaffinity 5.71523523
REMARK  14 active torsions:
REMARK  status: ('A' for Active; 'I' for Inactive)
REMARK    1  A    between atoms: C2_2  and  O1_3 
REMARK    2  A    between atoms: O1_3  and  C3_4 
REMARK    3  A    between atoms: C4_6  and  C5_7 
REMARK    4  A    between atoms: C5_7  and  O3_8 
REMARK    5  A    between atoms: C5_7  and  C6_9 
REMARK    6  A    between atoms: C6_9  and  O4_10 
REMARK    7  A    between atoms: O4_10  and  C7_11 
REMARK    8  A    between atoms: C12_16  and  C13_17 
REMARK    9  A    between atoms: C13_17  and  O5_19 
REMARK   10  A    between atoms: C13_17  and  C15_20 
REMARK   11  A    between atoms: C15_20  and  O6_21 
REMARK   12  A    between atoms: C18_24  and  O7_26 
REMARK   13  A    between atoms: C22_29  and  O8_30 
REMARK   14  A    between atoms: C23_31  and  O9_32 
ROOT
HETATM    1  C7  UNL     1      -3.196   4.785  13.558  1.00  0.00     0.126 C 
HETATM    2  C8  UNL     1      -3.719   4.714  12.134  1.00  0.00     0.040 C 
HETATM    3  C9  UNL     1      -5.193   5.160  12.232  1.00  0.00     0.026 C 
HETATM    4  C10 UNL     1      -5.219   6.163  13.419  1.00  0.00    -0.001 C 
HETATM    5  C11 UNL     1      -6.386   6.128  14.411  1.00  0.00     0.013 C 
HETATM    6  C12 UNL     1      -7.783   6.351  13.784  1.00  0.00     0.022 C 
HETATM    7  C16 UNL     1      -8.334   4.997  13.286  1.00  0.00     0.010 C 
HETATM    8  C17 UNL     1      -7.645   4.440  12.046  1.00  0.00     0.038 C 
HETATM    9  C18 UNL     1      -6.187   3.973  12.176  1.00  0.00     0.058 C 
HETATM   10  C19 UNL     1      -6.002   2.906  13.259  1.00  0.00     0.046 C 
HETATM   11  C20 UNL     1      -3.801   6.096  14.061  1.00  0.00     0.015 C 
HETATM   12  C21 UNL     1      -3.697   6.213  15.579  1.00  0.00     0.013 C 
ENDROOT
BRANCH   1  13
HETATM   13  O4  UNL     1      -1.774   4.859  13.607  1.00  0.00    -0.383 OA
BRANCH  13  14
HETATM   14  C6  UNL     1      -1.185   5.079  12.317  1.00  0.00     0.202 C 
BRANCH  14  15
HETATM   15  C5  UNL     1       0.325   4.861  12.461  1.00  0.00     0.173 C 
BRANCH  15  16
HETATM   16  C4  UNL     1       1.096   6.184  12.585  1.00  0.00     0.187 C 
HETATM   17  O2  UNL     1       2.122   6.243  11.558  1.00  0.00    -0.348 OA
HETATM   18  C3  UNL     1       1.897   7.421  10.765  1.00  0.00     0.291 C 
HETATM   19  C23 UNL     1       1.219   8.405  11.723  1.00  0.00     0.204 C 
HETATM   20  C22 UNL     1       0.276   7.482  12.483  1.00  0.00     0.183 C 
BRANCH  18  21
HETATM   21  O1  UNL     1       1.040   7.148   9.662  1.00  0.00    -0.359 OA
BRANCH  21  22
HETATM   22  C2  UNL     1       1.005   8.228   8.732  1.00  0.00     0.166 C 
HETATM   23  C1  UNL     1       2.272   8.177   7.901  1.00  0.00     0.033 C 
ENDBRANCH  21  22
ENDBRANCH  18  21
BRANCH  19  24
HETATM   24  O9  UNL     1       2.171   8.987  12.628  1.00  0.00    -0.388 OA
HETATM   25  H42 UNL     1       2.833   8.305  12.845  1.00  0.00     0.210 HD
ENDBRANCH  19  24
BRANCH  20  26
HETATM   26  O8  UNL     1      -0.957   7.333  11.780  1.00  0.00    -0.390 OA
HETATM   27  H40 UNL     1      -0.790   6.700  11.043  1.00  0.00     0.210 HD
ENDBRANCH  20  26
ENDBRANCH  15  16
BRANCH  15  28
HETATM   28  O3  UNL     1       0.790   4.093  11.336  1.00  0.00    -0.391 OA
HETATM   29  H9  UNL     1       0.151   3.354  11.261  1.00  0.00     0.210 HD
ENDBRANCH  15  28
ENDBRANCH  14  15
ENDBRANCH  13  14
ENDBRANCH   1  13
BRANCH   9  30
HETATM   30  O7  UNL     1      -5.902   3.304  10.922  1.00  0.00    -0.390 OA
HETATM   31  H34 UNL     1      -6.500   2.541  10.844  1.00  0.00     0.210 HD
ENDBRANCH   9  30
BRANCH   6  32
HETATM   32  C13 UNL     1      -8.772   7.038  14.804  1.00  0.00     0.079 C 
HETATM   33  C14 UNL     1     -10.163   7.273  14.185  1.00  0.00     0.048 C 
BRANCH  32  34
HETATM   34  O5  UNL     1      -8.945   6.162  15.927  1.00  0.00    -0.388 OA
HETATM   35  H23 UNL     1      -9.573   6.577  16.544  1.00  0.00     0.210 HD
ENDBRANCH  32  34
BRANCH  32  36
HETATM   36  C15 UNL     1      -8.245   8.411  15.317  1.00  0.00     0.201 C 
BRANCH  36  37
HETATM   37  O6  UNL     1      -9.282   9.363  15.510  1.00  0.00    -0.398 OA
HETATM   38  H26 UNL     1      -9.807   9.085  16.281  1.00  0.00     0.209 HD
ENDBRANCH  36  37
ENDBRANCH  32  36
ENDBRANCH   6  32
TORSDOF 14
ENDMDL
MODEL 9
REMARK minimizedAffinity -7.48541355
REMARK CNNscore 0.615293324
REMARK CNNaffinity 6.43317461
REMARK  14 active torsions:
REMARK  status: ('A' for Active; 'I' for Inactive)
REMARK    1  A    between atoms: C2_2  and  O1_3 
REMARK    2  A    between atoms: O1_3  and  C3_4 
REMARK    3  A    between atoms: C4_6  and  C5_7 
REMARK    4  A    between atoms: C5_7  and  O3_8 
REMARK    5  A    between atoms: C5_7  and  C6_9 
REMARK    6  A    between atoms: C6_9  and  O4_10 
REMARK    7  A    between atoms: O4_10  and  C7_11 
REMARK    8  A    between atoms: C12_16  and  C13_17 
REMARK    9  A    between atoms: C13_17  and  O5_19 
REMARK   10  A    between atoms: C13_17  and  C15_20 
REMARK   11  A    between atoms: C15_20  and  O6_21 
REMARK   12  A    between atoms: C18_24  and  O7_26 
REMARK   13  A    between atoms: C22_29  and  O8_30 
REMARK   14  A    between atoms: C23_31  and  O9_32 
ROOT
HETATM    1  C7  UNL     1      -6.769   5.093  12.855  1.00  0.00     0.126 C 
HETATM    2  C8  UNL     1      -6.790   4.790  14.343  1.00  0.00     0.040 C 
HETATM    3  C9  UNL     1      -7.996   5.581  14.890  1.00  0.00     0.026 C 
HETATM    4  C10 UNL     1      -9.005   5.620  13.709  1.00  0.00    -0.001 C 
HETATM    5  C11 UNL     1      -9.783   6.909  13.423  1.00  0.00     0.013 C 
HETATM    6  C12 UNL     1     -10.655   7.420  14.596  1.00  0.00     0.022 C 
HETATM    7  C16 UNL     1      -9.789   8.300  15.522  1.00  0.00     0.010 C 
HETATM    8  C17 UNL     1      -8.762   7.542  16.353  1.00  0.00     0.038 C 
HETATM    9  C18 UNL     1      -7.582   6.883  15.620  1.00  0.00     0.058 C 
HETATM   10  C19 UNL     1      -6.774   7.881  14.784  1.00  0.00     0.046 C 
HETATM   11  C20 UNL     1      -8.251   5.017  12.487  1.00  0.00     0.015 C 
HETATM   12  C21 UNL     1      -8.518   5.622  11.112  1.00  0.00     0.013 C 
ENDROOT
BRANCH   1  13
HETATM   13  O4  UNL     1      -6.038   4.119  12.116  1.00  0.00    -0.383 OA
BRANCH  13  14
HETATM   14  C6  UNL     1      -4.768   3.810  12.711  1.00  0.00     0.202 C 
BRANCH  14  15
HETATM   15  C5  UNL     1      -3.841   3.334  11.587  1.00  0.00     0.173 C 
BRANCH  15  16
HETATM   16  C4  UNL     1      -2.818   4.405  11.181  1.00  0.00     0.187 C 
HETATM   17  O2  UNL     1      -2.983   5.575  12.025  1.00  0.00    -0.348 OA
HETATM   18  C3  UNL     1      -1.732   5.833  12.685  1.00  0.00     0.291 C 
HETATM   19  C23 UNL     1      -0.670   5.291  11.723  1.00  0.00     0.204 C 
HETATM   20  C22 UNL     1      -1.332   4.008  11.238  1.00  0.00     0.183 C 
BRANCH  18  21
HETATM   21  O1  UNL     1      -1.652   5.149  13.931  1.00  0.00    -0.359 OA
BRANCH  21  22
HETATM   22  C2  UNL     1      -1.825   6.030  15.038  1.00  0.00     0.166 C 
HETATM   23  C1  UNL     1      -3.307   6.113  15.349  1.00  0.00     0.033 C 
ENDBRANCH  21  22
ENDBRANCH  18  21
BRANCH  19  24
HETATM   24  O9  UNL     1      -0.467   6.187  10.618  1.00  0.00    -0.388 OA
HETATM   25  H42 UNL     1      -1.329   6.584  10.392  1.00  0.00     0.210 HD
ENDBRANCH  19  24
BRANCH  20  26
HETATM   26  O8  UNL     1      -1.056   2.931  12.132  1.00  0.00    -0.390 OA
HETATM   27  H40 UNL     1      -1.650   3.047  12.910  1.00  0.00     0.210 HD
ENDBRANCH  20  26
ENDBRANCH  15  16
BRANCH  15  28
HETATM   28  O3  UNL     1      -4.647   2.934  10.463  1.00  0.00    -0.391 OA
HETATM   29  H9  UNL     1      -5.347   2.369  10.851  1.00  0.00     0.210 HD
ENDBRANCH  15  28
ENDBRANCH  14  15
ENDBRANCH  13  14
ENDBRANCH   1  13
BRANCH   9  30
HETATM   30  O7  UNL     1      -6.687   6.452  16.677  1.00  0.00    -0.390 OA
HETATM   31  H34 UNL     1      -6.391   7.240  17.163  1.00  0.00     0.210 HD
ENDBRANCH   9  30
BRANCH   6  32
HETATM   32  C13 UNL     1     -11.925   8.200  14.076  1.00  0.00     0.079 C 
HETATM   33  C14 UNL     1     -12.778   7.338  13.126  1.00  0.00     0.048 C 
BRANCH  32  34
HETATM   34  O5  UNL     1     -12.745   8.533  15.205  1.00  0.00    -0.388 OA
HETATM   35  H23 UNL     1     -13.539   8.994  14.880  1.00  0.00     0.210 HD
ENDBRANCH  32  34
BRANCH  32  36
HETATM   36  C15 UNL     1     -11.555   9.510  13.321  1.00  0.00     0.201 C 
BRANCH  36  37
HETATM   37  O6  UNL     1     -11.956   9.494  11.958  1.00  0.00    -0.398 OA
HETATM   38  H26 UNL     1     -12.927   9.550  11.927  1.00  0.00     0.209 HD
ENDBRANCH  36  37
ENDBRANCH  32  36
ENDBRANCH   6  32
TORSDOF 14
ENDMDL
