MODEL 1
REMARK minimizedAffinity -7.52331114
REMARK CNNscore 0.815965593
REMARK CNNaffinity 6.99127626
REMARK  8 active torsions:
REMARK  status: ('A' for Active; 'I' for Inactive)
REMARK    1  A    between atoms: C2_2  and  C3_3 
REMARK    2  A    between atoms: C2_2  and  C27_30 
REMARK    3  A    between atoms: C3_3  and  C4_4 
REMARK    4  A    between atoms: C4_4  and  C5_5 
REMARK    5  A    between atoms: C5_5  and  C7_7 
REMARK    6  A    between atoms: C26_28  and  O3_29 
REMARK    7  A    between atoms: C27_30  and  C29_32 
REMARK    8  A    between atoms: C29_32  and  O5_34 
ROOT
HETATM    1  C7  UNL     1       2.976  56.507  -8.844  1.00  0.00    -0.002 C 
HETATM    2  C8  UNL     1       3.807  56.295 -10.136  1.00  0.00     0.006 C 
HETATM    3  C9  UNL     1       3.060  55.243 -10.965  1.00  0.00     0.010 C 
HETATM    4  C10 UNL     1       1.670  55.180 -10.330  1.00  0.00     0.027 C 
HETATM    5  C11 UNL     1       0.666  54.091 -10.656  1.00  0.00    -0.036 C 
HETATM    6  C12 UNL     1      -0.368  53.842  -9.811  1.00  0.00     0.002 C 
HETATM    7  C13 UNL     1      -0.397  54.542  -8.462  1.00  0.00     0.157 C 
HETATM    8  O1  UNL     1      -1.287  54.302  -7.646  1.00  0.00    -0.293 OA
HETATM    9  C14 UNL     1       0.659  55.577  -8.117  1.00  0.00     0.093 C 
HETATM   10  C15 UNL     1       1.988  55.299  -8.819  1.00  0.00    -0.026 C 
HETATM   11  C16 UNL     1       2.619  54.015  -8.238  1.00  0.00     0.016 C 
HETATM   12  C17 UNL     1      -1.526  52.874 -10.147  1.00  0.00    -0.008 C 
HETATM   13  C18 UNL     1      -1.261  51.570  -9.350  1.00  0.00     0.021 C 
HETATM   14  C19 UNL     1      -2.923  53.452  -9.737  1.00  0.00     0.022 C 
HETATM   15  C20 UNL     1      -4.102  53.064 -10.627  1.00  0.00     0.080 C 
HETATM   16  C21 UNL     1      -3.903  51.720 -11.274  1.00  0.00     0.131 C 
HETATM   17  O2  UNL     1      -4.767  50.846 -11.223  1.00  0.00    -0.298 OA
HETATM   18  C22 UNL     1      -2.623  51.527 -12.072  1.00  0.00     0.056 C 
HETATM   19  C23 UNL     1      -2.975  51.541 -13.559  1.00  0.00     0.018 C 
HETATM   20  C24 UNL     1      -1.582  52.611 -11.694  1.00  0.00     0.012 C 
HETATM   21  C25 UNL     1      -0.197  52.269 -12.240  1.00  0.00     0.042 C 
HETATM   22  C26 UNL     1       0.801  53.400 -11.992  1.00  0.00     0.148 C 
ENDROOT
BRANCH   1  23
HETATM   23  C5  UNL     1       3.829  56.918  -7.607  1.00  0.00    -0.014 C 
HETATM   24  C6  UNL     1       5.254  56.357  -7.569  1.00  0.00     0.010 C 
BRANCH  23  25
HETATM   25  C4  UNL     1       3.070  56.645  -6.286  1.00  0.00     0.009 C 
BRANCH  25  26
HETATM   26  C3  UNL     1       2.083  57.750  -5.855  1.00  0.00     0.034 C 
BRANCH  26  27
HETATM   27  C2  UNL     1       2.029  58.173  -4.396  1.00  0.00    -0.075 C 
HETATM   28  C1  UNL     1       3.039  58.831  -3.796  1.00  0.00     0.015 C 
BRANCH  27  29
HETATM   29  C27 UNL     1       0.791  57.778  -3.588  1.00  0.00     0.107 C 
HETATM   30  C28 UNL     1       0.454  58.782  -2.486  1.00  0.00     0.026 C 
BRANCH  29  31
HETATM   31  C29 UNL     1      -0.437  57.539  -4.467  1.00  0.00     0.147 C 
HETATM   32  O4  UNL     1      -0.477  57.154  -5.623  1.00  0.00    -0.650 OA
BRANCH  31  33
HETATM   33  O5  UNL     1      -1.589  57.828  -3.821  1.00  0.00    -0.776 OA
HETATM   34  H42 UNL     1      -2.282  57.633  -4.486  1.00  0.00     0.167 HD
ENDBRANCH  31  33
ENDBRANCH  29  31
ENDBRANCH  27  29
ENDBRANCH  26  27
ENDBRANCH  25  26
ENDBRANCH  23  25
ENDBRANCH   1  23
BRANCH  22  35
HETATM   35  O3  UNL     1       2.097  52.825 -12.095  1.00  0.00    -0.391 OA
HETATM   36  H37 UNL     1       2.183  52.451 -12.989  1.00  0.00     0.210 HD
ENDBRANCH  22  35
TORSDOF 8
ENDMDL
MODEL 2
REMARK minimizedAffinity -7.45944929
REMARK CNNscore 0.750617325
REMARK CNNaffinity 6.74756479
REMARK  8 active torsions:
REMARK  status: ('A' for Active; 'I' for Inactive)
REMARK    1  A    between atoms: C2_2  and  C3_3 
REMARK    2  A    between atoms: C2_2  and  C27_30 
REMARK    3  A    between atoms: C3_3  and  C4_4 
REMARK    4  A    between atoms: C4_4  and  C5_5 
REMARK    5  A    between atoms: C5_5  and  C7_7 
REMARK    6  A    between atoms: C26_28  and  O3_29 
REMARK    7  A    between atoms: C27_30  and  C29_32 
REMARK    8  A    between atoms: C29_32  and  O5_34 
ROOT
HETATM    1  C7  UNL     1       2.907  56.726  -8.266  1.00  0.00    -0.002 C 
HETATM    2  C8  UNL     1       3.804  56.623  -9.528  1.00  0.00     0.006 C 
HETATM    3  C9  UNL     1       3.141  55.589 -10.448  1.00  0.00     0.010 C 
HETATM    4  C10 UNL     1       1.728  55.433  -9.882  1.00  0.00     0.027 C 
HETATM    5  C11 UNL     1       0.788  54.324 -10.314  1.00  0.00    -0.036 C 
HETATM    6  C12 UNL     1      -0.270  53.983  -9.533  1.00  0.00     0.002 C 
HETATM    7  C13 UNL     1      -0.389  54.603  -8.150  1.00  0.00     0.157 C 
HETATM    8  O1  UNL     1      -1.302  54.280  -7.390  1.00  0.00    -0.293 OA
HETATM    9  C14 UNL     1       0.605  55.660  -7.700  1.00  0.00     0.093 C 
HETATM   10  C15 UNL     1       1.974  55.478  -8.353  1.00  0.00    -0.026 C 
HETATM   11  C16 UNL     1       2.635  54.191  -7.816  1.00  0.00     0.016 C 
HETATM   12  C17 UNL     1      -1.368  52.989  -9.974  1.00  0.00    -0.008 C 
HETATM   13  C18 UNL     1      -1.080  51.654  -9.239  1.00  0.00     0.021 C 
HETATM   14  C19 UNL     1      -2.805  53.484  -9.599  1.00  0.00     0.022 C 
HETATM   15  C20 UNL     1      -3.926  53.098 -10.562  1.00  0.00     0.080 C 
HETATM   16  C21 UNL     1      -3.640  51.803 -11.272  1.00  0.00     0.131 C 
HETATM   17  O2  UNL     1      -4.466  50.892 -11.310  1.00  0.00    -0.298 OA
HETATM   18  C22 UNL     1      -2.319  51.710 -12.019  1.00  0.00     0.056 C 
HETATM   19  C23 UNL     1      -2.606  51.794 -13.518  1.00  0.00     0.018 C 
HETATM   20  C24 UNL     1      -1.345  52.813 -11.534  1.00  0.00     0.012 C 
HETATM   21  C25 UNL     1       0.077  52.561 -12.034  1.00  0.00     0.042 C 
HETATM   22  C26 UNL     1       1.012  53.716 -11.678  1.00  0.00     0.148 C 
ENDROOT
BRANCH   1  23
HETATM   23  C5  UNL     1       3.687  57.101  -6.971  1.00  0.00    -0.014 C 
HETATM   24  C6  UNL     1       3.025  58.159  -6.082  1.00  0.00     0.010 C 
BRANCH  23  25
HETATM   25  C4  UNL     1       5.160  57.457  -7.285  1.00  0.00     0.009 C 
BRANCH  25  26
HETATM   26  C3  UNL     1       6.208  56.762  -6.393  1.00  0.00     0.034 C 
BRANCH  26  27
HETATM   27  C2  UNL     1       6.958  57.577  -5.351  1.00  0.00    -0.075 C 
HETATM   28  C1  UNL     1       6.529  58.782  -4.929  1.00  0.00     0.015 C 
BRANCH  27  29
HETATM   29  C27 UNL     1       8.274  57.007  -4.816  1.00  0.00     0.107 C 
HETATM   30  C28 UNL     1       8.868  55.930  -5.724  1.00  0.00     0.026 C 
BRANCH  29  31
HETATM   31  C29 UNL     1       9.317  58.089  -4.540  1.00  0.00     0.147 C 
HETATM   32  O4  UNL     1      10.084  58.620  -5.326  1.00  0.00    -0.650 OA
BRANCH  31  33
HETATM   33  O5  UNL     1       9.351  58.442  -3.235  1.00  0.00    -0.776 OA
HETATM   34  H42 UNL     1      10.049  59.130  -3.200  1.00  0.00     0.167 HD
ENDBRANCH  31  33
ENDBRANCH  29  31
ENDBRANCH  27  29
ENDBRANCH  26  27
ENDBRANCH  25  26
ENDBRANCH  23  25
ENDBRANCH   1  23
BRANCH  22  35
HETATM   35  O3  UNL     1       2.336  53.202 -11.753  1.00  0.00    -0.391 OA
HETATM   36  H37 UNL     1       2.478  52.884 -12.661  1.00  0.00     0.210 HD
ENDBRANCH  22  35
TORSDOF 8
ENDMDL
MODEL 3
REMARK minimizedAffinity -9.93024921
REMARK CNNscore 0.701723158
REMARK CNNaffinity 7.1517005
REMARK  8 active torsions:
REMARK  status: ('A' for Active; 'I' for Inactive)
REMARK    1  A    between atoms: C2_2  and  C3_3 
REMARK    2  A    between atoms: C2_2  and  C27_30 
REMARK    3  A    between atoms: C3_3  and  C4_4 
REMARK    4  A    between atoms: C4_4  and  C5_5 
REMARK    5  A    between atoms: C5_5  and  C7_7 
REMARK    6  A    between atoms: C26_28  and  O3_29 
REMARK    7  A    between atoms: C27_30  and  C29_32 
REMARK    8  A    between atoms: C29_32  and  O5_34 
ROOT
HETATM    1  C7  UNL     1      -0.103  50.455 -18.881  1.00  0.00    -0.002 C 
HETATM    2  C8  UNL     1      -0.807  49.129 -18.491  1.00  0.00     0.006 C 
HETATM    3  C9  UNL     1      -1.661  48.721 -19.699  1.00  0.00     0.010 C 
HETATM    4  C10 UNL     1      -1.129  49.582 -20.845  1.00  0.00     0.027 C 
HETATM    5  C11 UNL     1      -1.842  49.707 -22.178  1.00  0.00    -0.036 C 
HETATM    6  C12 UNL     1      -1.570  50.753 -23.002  1.00  0.00     0.002 C 
HETATM    7  C13 UNL     1      -0.684  51.877 -22.490  1.00  0.00     0.157 C 
HETATM    8  O1  UNL     1      -0.458  52.867 -23.185  1.00  0.00    -0.293 OA
HETATM    9  C14 UNL     1      -0.035  51.774 -21.120  1.00  0.00     0.093 C 
HETATM   10  C15 UNL     1      -0.871  50.942 -20.149  1.00  0.00    -0.026 C 
HETATM   11  C16 UNL     1      -2.175  51.698 -19.812  1.00  0.00     0.016 C 
HETATM   12  C17 UNL     1      -2.120  50.866 -24.442  1.00  0.00    -0.008 C 
HETATM   13  C18 UNL     1      -3.278  51.896 -24.396  1.00  0.00     0.021 C 
HETATM   14  C19 UNL     1      -1.034  51.358 -25.457  1.00  0.00     0.022 C 
HETATM   15  C20 UNL     1      -1.136  50.806 -26.877  1.00  0.00     0.080 C 
HETATM   16  C21 UNL     1      -2.554  50.479 -27.255  1.00  0.00     0.131 C 
HETATM   17  O2  UNL     1      -3.054  50.887 -28.302  1.00  0.00    -0.298 OA
HETATM   18  C22 UNL     1      -3.312  49.543 -26.326  1.00  0.00     0.056 C 
HETATM   19  C23 UNL     1      -3.431  48.180 -27.008  1.00  0.00     0.018 C 
HETATM   20  C24 UNL     1      -2.607  49.462 -24.949  1.00  0.00     0.012 C 
HETATM   21  C25 UNL     1      -3.495  48.784 -23.907  1.00  0.00     0.042 C 
HETATM   22  C26 UNL     1      -2.755  48.575 -22.586  1.00  0.00     0.148 C 
ENDROOT
BRANCH   1  23
HETATM   23  C5  UNL     1       0.193  51.390 -17.670  1.00  0.00    -0.014 C 
HETATM   24  C6  UNL     1       0.900  52.707 -18.006  1.00  0.00     0.010 C 
BRANCH  23  25
HETATM   25  C4  UNL     1       0.916  50.625 -16.535  1.00  0.00     0.009 C 
BRANCH  25  26
HETATM   26  C3  UNL     1       1.285  51.475 -15.302  1.00  0.00     0.034 C 
BRANCH  26  27
HETATM   27  C2  UNL     1       2.749  51.658 -14.935  1.00  0.00    -0.075 C 
HETATM   28  C1  UNL     1       3.636  52.236 -15.766  1.00  0.00     0.015 C 
BRANCH  27  29
HETATM   29  C27 UNL     1       3.216  51.108 -13.585  1.00  0.00     0.107 C 
HETATM   30  C28 UNL     1       2.173  51.277 -12.481  1.00  0.00     0.026 C 
BRANCH  29  31
HETATM   31  C29 UNL     1       3.659  49.648 -13.664  1.00  0.00     0.147 C 
HETATM   32  O4  UNL     1       2.971  48.643 -13.608  1.00  0.00    -0.650 OA
BRANCH  31  33
HETATM   33  O5  UNL     1       5.000  49.530 -13.793  1.00  0.00    -0.776 OA
HETATM   34  H42 UNL     1       5.144  48.561 -13.832  1.00  0.00     0.167 HD
ENDBRANCH  31  33
ENDBRANCH  29  31
ENDBRANCH  27  29
ENDBRANCH  26  27
ENDBRANCH  25  26
ENDBRANCH  23  25
ENDBRANCH   1  23
BRANCH  22  35
HETATM   35  O3  UNL     1      -3.752  48.392 -21.589  1.00  0.00    -0.391 OA
HETATM   36  H37 UNL     1      -4.279  47.614 -21.838  1.00  0.00     0.210 HD
ENDBRANCH  22  35
TORSDOF 8
ENDMDL
MODEL 4
REMARK minimizedAffinity -7.30117702
REMARK CNNscore 0.601876915
REMARK CNNaffinity 6.63964796
REMARK  8 active torsions:
REMARK  status: ('A' for Active; 'I' for Inactive)
REMARK    1  A    between atoms: C2_2  and  C3_3 
REMARK    2  A    between atoms: C2_2  and  C27_30 
REMARK    3  A    between atoms: C3_3  and  C4_4 
REMARK    4  A    between atoms: C4_4  and  C5_5 
REMARK    5  A    between atoms: C5_5  and  C7_7 
REMARK    6  A    between atoms: C26_28  and  O3_29 
REMARK    7  A    between atoms: C27_30  and  C29_32 
REMARK    8  A    between atoms: C29_32  and  O5_34 
ROOT
HETATM    1  C7  UNL     1       2.447  56.485  -8.656  1.00  0.00    -0.002 C 
HETATM    2  C8  UNL     1       3.314  56.444  -9.941  1.00  0.00     0.006 C 
HETATM    3  C9  UNL     1       2.702  55.365 -10.844  1.00  0.00     0.010 C 
HETATM    4  C10 UNL     1       1.320  55.110 -10.241  1.00  0.00     0.027 C 
HETATM    5  C11 UNL     1       0.449  53.936 -10.648  1.00  0.00    -0.036 C 
HETATM    6  C12 UNL     1      -0.561  53.523  -9.840  1.00  0.00     0.002 C 
HETATM    7  C13 UNL     1      -0.687  54.135  -8.454  1.00  0.00     0.157 C 
HETATM    8  O1  UNL     1      -1.555  53.749  -7.671  1.00  0.00    -0.293 OA
HETATM    9  C14 UNL     1       0.241  55.260  -8.030  1.00  0.00     0.093 C 
HETATM   10  C15 UNL     1       1.601  55.174  -8.719  1.00  0.00    -0.026 C 
HETATM   11  C16 UNL     1       2.366  53.937  -8.200  1.00  0.00     0.016 C 
HETATM   12  C17 UNL     1      -1.598  52.453 -10.253  1.00  0.00    -0.008 C 
HETATM   13  C18 UNL     1      -1.198  51.143  -9.527  1.00  0.00     0.021 C 
HETATM   14  C19 UNL     1      -3.056  52.846  -9.840  1.00  0.00     0.022 C 
HETATM   15  C20 UNL     1      -4.172  52.381 -10.773  1.00  0.00     0.080 C 
HETATM   16  C21 UNL     1      -3.814  51.109 -11.491  1.00  0.00     0.131 C 
HETATM   17  O2  UNL     1      -4.574  50.142 -11.508  1.00  0.00    -0.298 OA
HETATM   18  C22 UNL     1      -2.510  51.108 -12.273  1.00  0.00     0.056 C 
HETATM   19  C23 UNL     1      -2.842  51.170 -13.764  1.00  0.00     0.018 C 
HETATM   20  C24 UNL     1      -1.603  52.277 -11.813  1.00  0.00     0.012 C 
HETATM   21  C25 UNL     1      -0.181  52.126 -12.350  1.00  0.00     0.042 C 
HETATM   22  C26 UNL     1       0.679  53.344 -12.019  1.00  0.00     0.148 C 
ENDROOT
BRANCH   1  23
HETATM   23  C5  UNL     1       3.232  56.915  -7.381  1.00  0.00    -0.014 C 
HETATM   24  C6  UNL     1       2.763  58.217  -6.722  1.00  0.00     0.010 C 
BRANCH  23  25
HETATM   25  C4  UNL     1       4.758  56.920  -7.637  1.00  0.00     0.009 C 
BRANCH  25  26
HETATM   26  C3  UNL     1       5.504  55.649  -7.179  1.00  0.00     0.034 C 
BRANCH  26  27
HETATM   27  C2  UNL     1       6.088  54.711  -8.224  1.00  0.00    -0.075 C 
HETATM   28  C1  UNL     1       6.686  55.158  -9.344  1.00  0.00     0.015 C 
BRANCH  27  29
HETATM   29  C27 UNL     1       5.928  53.206  -7.994  1.00  0.00     0.107 C 
HETATM   30  C28 UNL     1       6.686  52.364  -9.021  1.00  0.00     0.026 C 
BRANCH  29  31
HETATM   31  C29 UNL     1       6.322  52.780  -6.580  1.00  0.00     0.147 C 
HETATM   32  O4  UNL     1       5.758  51.989  -5.843  1.00  0.00    -0.650 OA
BRANCH  31  33
HETATM   33  O5  UNL     1       7.436  53.413  -6.150  1.00  0.00    -0.776 OA
HETATM   34  H42 UNL     1       7.573  53.053  -5.248  1.00  0.00     0.167 HD
ENDBRANCH  31  33
ENDBRANCH  29  31
ENDBRANCH  27  29
ENDBRANCH  26  27
ENDBRANCH  25  26
ENDBRANCH  23  25
ENDBRANCH   1  23
BRANCH  22  35
HETATM   35  O3  UNL     1       2.033  52.925 -12.129  1.00  0.00    -0.391 OA
HETATM   36  H37 UNL     1       2.173  52.616 -13.040  1.00  0.00     0.210 HD
ENDBRANCH  22  35
TORSDOF 8
ENDMDL
MODEL 5
REMARK minimizedAffinity -7.56165695
REMARK CNNscore 0.596333742
REMARK CNNaffinity 7.07874918
REMARK  8 active torsions:
REMARK  status: ('A' for Active; 'I' for Inactive)
REMARK    1  A    between atoms: C2_2  and  C3_3 
REMARK    2  A    between atoms: C2_2  and  C27_30 
REMARK    3  A    between atoms: C3_3  and  C4_4 
REMARK    4  A    between atoms: C4_4  and  C5_5 
REMARK    5  A    between atoms: C5_5  and  C7_7 
REMARK    6  A    between atoms: C26_28  and  O3_29 
REMARK    7  A    between atoms: C27_30  and  C29_32 
REMARK    8  A    between atoms: C29_32  and  O5_34 
ROOT
HETATM    1  C7  UNL     1      -2.713  52.810 -11.835  1.00  0.00    -0.002 C 
HETATM    2  C8  UNL     1      -3.576  53.736 -10.939  1.00  0.00     0.006 C 
HETATM    3  C9  UNL     1      -2.604  54.447  -9.988  1.00  0.00     0.010 C 
HETATM    4  C10 UNL     1      -1.227  54.213 -10.612  1.00  0.00     0.027 C 
HETATM    5  C11 UNL     1       0.067  54.514  -9.882  1.00  0.00    -0.036 C 
HETATM    6  C12 UNL     1       1.231  53.943 -10.290  1.00  0.00     0.002 C 
HETATM    7  C13 UNL     1       1.181  52.870 -11.365  1.00  0.00     0.157 C 
HETATM    8  O1  UNL     1       2.205  52.289 -11.725  1.00  0.00    -0.293 OA
HETATM    9  C14 UNL     1      -0.137  52.523 -12.037  1.00  0.00     0.093 C 
HETATM   10  C15 UNL     1      -1.331  52.750 -11.112  1.00  0.00    -0.026 C 
HETATM   11  C16 UNL     1      -1.296  51.721  -9.961  1.00  0.00     0.016 C 
HETATM   12  C17 UNL     1       2.614  54.325  -9.716  1.00  0.00    -0.008 C 
HETATM   13  C18 UNL     1       3.020  53.188  -8.743  1.00  0.00     0.021 C 
HETATM   14  C19 UNL     1       3.704  54.462 -10.831  1.00  0.00     0.022 C 
HETATM   15  C20 UNL     1       4.789  55.510 -10.590  1.00  0.00     0.080 C 
HETATM   16  C21 UNL     1       5.052  55.724  -9.125  1.00  0.00     0.131 C 
HETATM   17  O2  UNL     1       6.191  55.692  -8.662  1.00  0.00    -0.298 OA
HETATM   18  C22 UNL     1       3.852  56.076  -8.258  1.00  0.00     0.056 C 
HETATM   19  C23 UNL     1       3.938  57.558  -7.895  1.00  0.00     0.018 C 
HETATM   20  C24 UNL     1       2.535  55.715  -8.989  1.00  0.00     0.012 C 
HETATM   21  C25 UNL     1       1.338  55.767  -8.041  1.00  0.00     0.042 C 
HETATM   22  C26 UNL     1       0.020  55.550  -8.783  1.00  0.00     0.148 C 
ENDROOT
BRANCH   1  23
HETATM   23  C5  UNL     1      -3.460  51.532 -12.322  1.00  0.00    -0.014 C 
HETATM   24  C6  UNL     1      -4.117  50.690 -11.223  1.00  0.00     0.010 C 
BRANCH  23  25
HETATM   25  C4  UNL     1      -2.560  50.672 -13.242  1.00  0.00     0.009 C 
BRANCH  25  26
HETATM   26  C3  UNL     1      -2.858  50.794 -14.751  1.00  0.00     0.034 C 
BRANCH  26  27
HETATM   27  C2  UNL     1      -2.007  50.018 -15.744  1.00  0.00    -0.075 C 
HETATM   28  C1  UNL     1      -1.922  48.675 -15.727  1.00  0.00     0.015 C 
BRANCH  27  29
HETATM   29  C27 UNL     1      -1.187  50.822 -16.756  1.00  0.00     0.107 C 
HETATM   30  C28 UNL     1       0.193  50.217 -17.016  1.00  0.00     0.026 C 
BRANCH  29  31
HETATM   31  C29 UNL     1      -1.922  51.031 -18.079  1.00  0.00     0.147 C 
HETATM   32  O4  UNL     1      -2.806  51.830 -18.337  1.00  0.00    -0.650 OA
BRANCH  31  33
HETATM   33  O5  UNL     1      -1.499  50.173 -19.036  1.00  0.00    -0.776 OA
HETATM   34  H42 UNL     1      -2.042  50.413 -19.816  1.00  0.00     0.167 HD
ENDBRANCH  31  33
ENDBRANCH  29  31
ENDBRANCH  27  29
ENDBRANCH  26  27
ENDBRANCH  25  26
ENDBRANCH  23  25
ENDBRANCH   1  23
BRANCH  22  35
HETATM   35  O3  UNL     1      -0.934  55.155  -7.806  1.00  0.00    -0.391 OA
HETATM   36  H37 UNL     1      -0.998  55.871  -7.150  1.00  0.00     0.210 HD
ENDBRANCH  22  35
TORSDOF 8
ENDMDL
MODEL 6
REMARK minimizedAffinity -7.51046085
REMARK CNNscore 0.566992462
REMARK CNNaffinity 6.45274687
REMARK  8 active torsions:
REMARK  status: ('A' for Active; 'I' for Inactive)
REMARK    1  A    between atoms: C2_2  and  C3_3 
REMARK    2  A    between atoms: C2_2  and  C27_30 
REMARK    3  A    between atoms: C3_3  and  C4_4 
REMARK    4  A    between atoms: C4_4  and  C5_5 
REMARK    5  A    between atoms: C5_5  and  C7_7 
REMARK    6  A    between atoms: C26_28  and  O3_29 
REMARK    7  A    between atoms: C27_30  and  C29_32 
REMARK    8  A    between atoms: C29_32  and  O5_34 
ROOT
HETATM    1  C7  UNL     1      -8.881  46.323 -33.721  1.00  0.00    -0.002 C 
HETATM    2  C8  UNL     1      -8.287  47.756 -33.749  1.00  0.00     0.006 C 
HETATM    3  C9  UNL     1      -8.184  48.211 -32.287  1.00  0.00     0.010 C 
HETATM    4  C10 UNL     1      -8.343  46.922 -31.479  1.00  0.00     0.027 C 
HETATM    5  C11 UNL     1      -8.564  46.916 -29.979  1.00  0.00    -0.036 C 
HETATM    6  C12 UNL     1      -9.083  45.818 -29.370  1.00  0.00     0.002 C 
HETATM    7  C13 UNL     1      -9.600  44.678 -30.233  1.00  0.00     0.157 C 
HETATM    8  O1  UNL     1     -10.127  43.690 -29.723  1.00  0.00    -0.293 OA
HETATM    9  C14 UNL     1      -9.440  44.731 -31.743  1.00  0.00     0.093 C 
HETATM   10  C15 UNL     1      -9.437  46.164 -32.271  1.00  0.00    -0.026 C 
HETATM   11  C16 UNL     1     -10.841  46.783 -32.092  1.00  0.00     0.016 C 
HETATM   12  C17 UNL     1      -9.182  45.662 -27.835  1.00  0.00    -0.008 C 
HETATM   13  C18 UNL     1     -10.665  45.913 -27.458  1.00  0.00     0.021 C 
HETATM   14  C19 UNL     1      -8.763  44.233 -27.354  1.00  0.00     0.022 C 
HETATM   15  C20 UNL     1      -8.081  44.152 -25.989  1.00  0.00     0.080 C 
HETATM   16  C21 UNL     1      -8.530  45.253 -25.068  1.00  0.00     0.131 C 
HETATM   17  O2  UNL     1      -8.919  45.020 -23.925  1.00  0.00    -0.298 OA
HETATM   18  C22 UNL     1      -8.391  46.677 -25.584  1.00  0.00     0.056 C 
HETATM   19  C23 UNL     1      -7.219  47.340 -24.860  1.00  0.00     0.018 C 
HETATM   20  C24 UNL     1      -8.219  46.678 -27.124  1.00  0.00     0.012 C 
HETATM   21  C25 UNL     1      -8.384  48.082 -27.703  1.00  0.00     0.042 C 
HETATM   22  C26 UNL     1      -8.078  48.115 -29.200  1.00  0.00     0.148 C 
ENDROOT
BRANCH   1  23
HETATM   23  C5  UNL     1      -9.719  45.965 -34.984  1.00  0.00    -0.014 C 
HETATM   24  C6  UNL     1      -9.717  44.485 -35.383  1.00  0.00     0.010 C 
BRANCH  23  25
HETATM   25  C4  UNL     1      -9.354  46.881 -36.177  1.00  0.00     0.009 C 
BRANCH  25  26
HETATM   26  C3  UNL     1     -10.498  47.141 -37.179  1.00  0.00     0.034 C 
BRANCH  26  27
HETATM   27  C2  UNL     1     -10.531  48.452 -37.948  1.00  0.00    -0.075 C 
HETATM   28  C1  UNL     1      -9.692  49.470 -37.678  1.00  0.00     0.015 C 
BRANCH  27  29
HETATM   29  C27 UNL     1     -11.604  48.615 -39.028  1.00  0.00     0.107 C 
HETATM   30  C28 UNL     1     -12.097  47.278 -39.582  1.00  0.00     0.026 C 
BRANCH  29  31
HETATM   31  C29 UNL     1     -12.792  49.453 -38.558  1.00  0.00     0.147 C 
HETATM   32  O4  UNL     1     -13.331  50.388 -39.126  1.00  0.00    -0.650 OA
BRANCH  31  33
HETATM   33  O5  UNL     1     -13.240  49.064 -37.343  1.00  0.00    -0.776 OA
HETATM   34  H42 UNL     1     -13.988  49.673 -37.167  1.00  0.00     0.167 HD
ENDBRANCH  31  33
ENDBRANCH  29  31
ENDBRANCH  27  29
ENDBRANCH  26  27
ENDBRANCH  25  26
ENDBRANCH  23  25
ENDBRANCH   1  23
BRANCH  22  35
HETATM   35  O3  UNL     1      -8.691  49.290 -29.713  1.00  0.00    -0.391 OA
HETATM   36  H37 UNL     1      -8.308  50.051 -29.245  1.00  0.00     0.210 HD
ENDBRANCH  22  35
TORSDOF 8
ENDMDL
MODEL 7
REMARK minimizedAffinity -10.5040464
REMARK CNNscore 0.423386037
REMARK CNNaffinity 6.91503143
REMARK  8 active torsions:
REMARK  status: ('A' for Active; 'I' for Inactive)
REMARK    1  A    between atoms: C2_2  and  C3_3 
REMARK    2  A    between atoms: C2_2  and  C27_30 
REMARK    3  A    between atoms: C3_3  and  C4_4 
REMARK    4  A    between atoms: C4_4  and  C5_5 
REMARK    5  A    between atoms: C5_5  and  C7_7 
REMARK    6  A    between atoms: C26_28  and  O3_29 
REMARK    7  A    between atoms: C27_30  and  C29_32 
REMARK    8  A    between atoms: C29_32  and  O5_34 
ROOT
HETATM    1  C7  UNL     1      -0.721  51.083 -25.098  1.00  0.00    -0.002 C 
HETATM    2  C8  UNL     1       0.315  52.199 -25.396  1.00  0.00     0.006 C 
HETATM    3  C9  UNL     1       0.737  52.773 -24.038  1.00  0.00     0.010 C 
HETATM    4  C10 UNL     1       0.247  51.739 -23.023  1.00  0.00     0.027 C 
HETATM    5  C11 UNL     1       0.214  52.004 -21.530  1.00  0.00    -0.036 C 
HETATM    6  C12 UNL     1      -0.570  51.247 -20.720  1.00  0.00     0.002 C 
HETATM    7  C13 UNL     1      -1.539  50.261 -21.351  1.00  0.00     0.157 C 
HETATM    8  O1  UNL     1      -2.306  49.596 -20.655  1.00  0.00    -0.293 OA
HETATM    9  C14 UNL     1      -1.549  50.059 -22.857  1.00  0.00     0.093 C 
HETATM   10  C15 UNL     1      -1.124  51.319 -23.609  1.00  0.00    -0.026 C 
HETATM   11  C16 UNL     1      -2.205  52.409 -23.441  1.00  0.00     0.016 C 
HETATM   12  C17 UNL     1      -0.534  51.336 -19.177  1.00  0.00    -0.008 C 
HETATM   13  C18 UNL     1      -1.790  52.139 -18.749  1.00  0.00     0.021 C 
HETATM   14  C19 UNL     1      -0.570  49.925 -18.498  1.00  0.00     0.022 C 
HETATM   15  C20 UNL     1       0.200  49.787 -17.186  1.00  0.00     0.080 C 
HETATM   16  C21 UNL     1       0.261  51.085 -16.428  1.00  0.00     0.131 C 
HETATM   17  O2  UNL     1      -0.047  51.153 -15.239  1.00  0.00    -0.298 OA
HETATM   18  C22 UNL     1       0.812  52.289 -17.176  1.00  0.00     0.056 C 
HETATM   19  C23 UNL     1       2.215  52.585 -16.646  1.00  0.00     0.018 C 
HETATM   20  C24 UNL     1       0.792  52.031 -18.704  1.00  0.00     0.012 C 
HETATM   21  C25 UNL     1       1.045  53.316 -19.490  1.00  0.00     0.042 C 
HETATM   22  C26 UNL     1       1.166  53.045 -20.989  1.00  0.00     0.148 C 
ENDROOT
BRANCH   1  23
HETATM   23  C5  UNL     1      -1.773  50.883 -26.230  1.00  0.00    -0.014 C 
HETATM   24  C6  UNL     1      -3.002  51.795 -26.162  1.00  0.00     0.010 C 
BRANCH  23  25
HETATM   25  C4  UNL     1      -2.172  49.393 -26.367  1.00  0.00     0.009 C 
BRANCH  25  26
HETATM   26  C3  UNL     1      -3.351  49.115 -27.323  1.00  0.00     0.034 C 
BRANCH  26  27
HETATM   27  C2  UNL     1      -4.587  48.405 -26.794  1.00  0.00    -0.075 C 
HETATM   28  C1  UNL     1      -4.902  48.379 -25.486  1.00  0.00     0.015 C 
BRANCH  27  29
HETATM   29  C27 UNL     1      -5.459  47.654 -27.803  1.00  0.00     0.107 C 
HETATM   30  C28 UNL     1      -6.847  47.320 -27.256  1.00  0.00     0.026 C 
BRANCH  29  31
HETATM   31  C29 UNL     1      -5.589  48.391 -29.136  1.00  0.00     0.147 C 
HETATM   32  O4  UNL     1      -4.714  48.654 -29.944  1.00  0.00    -0.650 OA
BRANCH  31  33
HETATM   33  O5  UNL     1      -6.859  48.788 -29.376  1.00  0.00    -0.776 OA
HETATM   34  H42 UNL     1      -6.799  49.238 -30.245  1.00  0.00     0.167 HD
ENDBRANCH  31  33
ENDBRANCH  29  31
ENDBRANCH  27  29
ENDBRANCH  26  27
ENDBRANCH  25  26
ENDBRANCH  23  25
ENDBRANCH   1  23
BRANCH  22  35
HETATM   35  O3  UNL     1       0.930  54.285 -21.644  1.00  0.00    -0.391 OA
HETATM   36  H37 UNL     1       1.600  54.916 -21.332  1.00  0.00     0.210 HD
ENDBRANCH  22  35
TORSDOF 8
ENDMDL
MODEL 8
REMARK minimizedAffinity -7.69045115
REMARK CNNscore 0.383743852
REMARK CNNaffinity 6.36955833
REMARK  8 active torsions:
REMARK  status: ('A' for Active; 'I' for Inactive)
REMARK    1  A    between atoms: C2_2  and  C3_3 
REMARK    2  A    between atoms: C2_2  and  C27_30 
REMARK    3  A    between atoms: C3_3  and  C4_4 
REMARK    4  A    between atoms: C4_4  and  C5_5 
REMARK    5  A    between atoms: C5_5  and  C7_7 
REMARK    6  A    between atoms: C26_28  and  O3_29 
REMARK    7  A    between atoms: C27_30  and  C29_32 
REMARK    8  A    between atoms: C29_32  and  O5_34 
ROOT
HETATM    1  C7  UNL     1       1.364  50.677 -15.062  1.00  0.00    -0.002 C 
HETATM    2  C8  UNL     1       1.043  49.202 -14.705  1.00  0.00     0.006 C 
HETATM    3  C9  UNL     1       0.147  48.668 -15.830  1.00  0.00     0.010 C 
HETATM    4  C10 UNL     1       0.304  49.693 -16.955  1.00  0.00     0.027 C 
HETATM    5  C11 UNL     1      -0.595  49.717 -18.176  1.00  0.00    -0.036 C 
HETATM    6  C12 UNL     1      -0.686  50.841 -18.934  1.00  0.00     0.002 C 
HETATM    7  C13 UNL     1      -0.018  52.114 -18.440  1.00  0.00     0.157 C 
HETATM    8  O1  UNL     1      -0.122  53.166 -19.070  1.00  0.00    -0.293 OA
HETATM    9  C14 UNL     1       0.819  52.093 -17.173  1.00  0.00     0.093 C 
HETATM   10  C15 UNL     1       0.338  51.035 -16.182  1.00  0.00    -0.026 C 
HETATM   11  C16 UNL     1      -1.045  51.439 -15.626  1.00  0.00     0.016 C 
HETATM   12  C17 UNL     1      -1.439  50.899 -20.283  1.00  0.00    -0.008 C 
HETATM   13  C18 UNL     1      -2.785  51.619 -20.009  1.00  0.00     0.021 C 
HETATM   14  C19 UNL     1      -0.645  51.690 -21.375  1.00  0.00     0.022 C 
HETATM   15  C20 UNL     1      -0.813  51.207 -22.815  1.00  0.00     0.080 C 
HETATM   16  C21 UNL     1      -2.157  50.573 -23.045  1.00  0.00     0.131 C 
HETATM   17  O2  UNL     1      -2.876  50.907 -23.985  1.00  0.00    -0.298 OA
HETATM   18  C22 UNL     1      -2.545  49.434 -22.114  1.00  0.00     0.056 C 
HETATM   19  C23 UNL     1      -2.442  48.121 -22.890  1.00  0.00     0.018 C 
HETATM   20  C24 UNL     1      -1.658  49.449 -20.844  1.00  0.00     0.012 C 
HETATM   21  C25 UNL     1      -2.215  48.523 -19.764  1.00  0.00     0.042 C 
HETATM   22  C26 UNL     1      -1.272  48.425 -18.565  1.00  0.00     0.148 C 
ENDROOT
BRANCH   1  23
HETATM   23  C5  UNL     1       1.602  51.587 -13.821  1.00  0.00    -0.014 C 
HETATM   24  C6  UNL     1       3.033  51.598 -13.271  1.00  0.00     0.010 C 
BRANCH  23  25
HETATM   25  C4  UNL     1       0.564  51.302 -12.709  1.00  0.00     0.009 C 
BRANCH  25  26
HETATM   26  C3  UNL     1      -0.233  52.531 -12.225  1.00  0.00     0.034 C 
BRANCH  26  27
HETATM   27  C2  UNL     1      -1.697  52.369 -11.847  1.00  0.00    -0.075 C 
HETATM   28  C1  UNL     1      -2.480  51.414 -12.383  1.00  0.00     0.015 C 
BRANCH  27  29
HETATM   29  C27 UNL     1      -2.291  53.376 -10.859  1.00  0.00     0.107 C 
HETATM   30  C28 UNL     1      -3.804  53.537 -11.011  1.00  0.00     0.026 C 
BRANCH  29  31
HETATM   31  C29 UNL     1      -1.946  53.051  -9.406  1.00  0.00     0.147 C 
HETATM   32  O4  UNL     1      -1.174  53.632  -8.663  1.00  0.00    -0.650 OA
BRANCH  31  33
HETATM   33  O5  UNL     1      -2.604  51.957  -8.960  1.00  0.00    -0.776 OA
HETATM   34  H42 UNL     1      -2.297  51.864  -8.034  1.00  0.00     0.167 HD
ENDBRANCH  31  33
ENDBRANCH  29  31
ENDBRANCH  27  29
ENDBRANCH  26  27
ENDBRANCH  25  26
ENDBRANCH  23  25
ENDBRANCH   1  23
BRANCH  22  35
HETATM   35  O3  UNL     1      -2.053  47.955 -17.474  1.00  0.00    -0.391 OA
HETATM   36  H37 UNL     1      -2.418  47.089 -17.723  1.00  0.00     0.210 HD
ENDBRANCH  22  35
TORSDOF 8
ENDMDL
MODEL 9
REMARK minimizedAffinity -8.52093315
REMARK CNNscore 0.352821112
REMARK CNNaffinity 6.20485115
REMARK  8 active torsions:
REMARK  status: ('A' for Active; 'I' for Inactive)
REMARK    1  A    between atoms: C2_2  and  C3_3 
REMARK    2  A    between atoms: C2_2  and  C27_30 
REMARK    3  A    between atoms: C3_3  and  C4_4 
REMARK    4  A    between atoms: C4_4  and  C5_5 
REMARK    5  A    between atoms: C5_5  and  C7_7 
REMARK    6  A    between atoms: C26_28  and  O3_29 
REMARK    7  A    between atoms: C27_30  and  C29_32 
REMARK    8  A    between atoms: C29_32  and  O5_34 
ROOT
HETATM    1  C7  UNL     1      -6.836  49.154 -23.418  1.00  0.00    -0.002 C 
HETATM    2  C8  UNL     1      -7.549  49.435 -22.069  1.00  0.00     0.006 C 
HETATM    3  C9  UNL     1      -6.467  49.935 -21.103  1.00  0.00     0.010 C 
HETATM    4  C10 UNL     1      -5.287  50.290 -22.010  1.00  0.00     0.027 C 
HETATM    5  C11 UNL     1      -3.899  50.586 -21.475  1.00  0.00    -0.036 C 
HETATM    6  C12 UNL     1      -2.820  50.507 -22.296  1.00  0.00     0.002 C 
HETATM    7  C13 UNL     1      -3.005  49.948 -23.697  1.00  0.00     0.157 C 
HETATM    8  O1  UNL     1      -2.044  49.809 -24.453  1.00  0.00    -0.293 OA
HETATM    9  C14 UNL     1      -4.393  49.583 -24.195  1.00  0.00     0.093 C 
HETATM   10  C15 UNL     1      -5.317  49.151 -23.059  1.00  0.00    -0.026 C 
HETATM   11  C16 UNL     1      -4.835  47.799 -22.487  1.00  0.00     0.016 C 
HETATM   12  C17 UNL     1      -1.400  50.956 -21.880  1.00  0.00    -0.008 C 
HETATM   13  C18 UNL     1      -0.596  49.664 -21.581  1.00  0.00     0.021 C 
HETATM   14  C19 UNL     1      -0.676  51.762 -23.010  1.00  0.00     0.022 C 
HETATM   15  C20 UNL     1       0.278  52.863 -22.549  1.00  0.00     0.080 C 
HETATM   16  C21 UNL     1       0.889  52.555 -21.209  1.00  0.00     0.131 C 
HETATM   17  O2  UNL     1       2.104  52.618 -21.024  1.00  0.00    -0.298 OA
HETATM   18  C22 UNL     1      -0.073  52.255 -20.071  1.00  0.00     0.056 C 
HETATM   19  C23 UNL     1      -0.099  53.460 -19.131  1.00  0.00     0.018 C 
HETATM   20  C24 UNL     1      -1.474  51.900 -20.628  1.00  0.00     0.012 C 
HETATM   21  C25 UNL     1      -2.370  51.301 -19.545  1.00  0.00     0.042 C 
HETATM   22  C26 UNL     1      -3.795  51.080 -20.051  1.00  0.00     0.148 C 
ENDROOT
BRANCH   1  23
HETATM   23  C5  UNL     1      -7.502  48.022 -24.257  1.00  0.00    -0.014 C 
HETATM   24  C6  UNL     1      -8.152  46.894 -23.449  1.00  0.00     0.010 C 
BRANCH  23  25
HETATM   25  C4  UNL     1      -6.530  47.473 -25.329  1.00  0.00     0.009 C 
BRANCH  25  26
HETATM   26  C3  UNL     1      -7.029  47.581 -26.784  1.00  0.00     0.034 C 
BRANCH  26  27
HETATM   27  C2  UNL     1      -8.440  47.129 -27.123  1.00  0.00    -0.075 C 
HETATM   28  C1  UNL     1      -8.828  45.843 -27.039  1.00  0.00     0.015 C 
BRANCH  27  29
HETATM   29  C27 UNL     1      -9.422  48.189 -27.629  1.00  0.00     0.107 C 
HETATM   30  C28 UNL     1     -10.383  47.652 -28.689  1.00  0.00     0.026 C 
BRANCH  29  31
HETATM   31  C29 UNL     1     -10.211  48.850 -26.498  1.00  0.00     0.147 C 
HETATM   32  O4  UNL     1     -11.232  48.459 -25.958  1.00  0.00    -0.650 OA
BRANCH  31  33
HETATM   33  O5  UNL     1      -9.658  50.021 -26.110  1.00  0.00    -0.776 OA
HETATM   34  H42 UNL     1     -10.252  50.331 -25.394  1.00  0.00     0.167 HD
ENDBRANCH  31  33
ENDBRANCH  29  31
ENDBRANCH  27  29
ENDBRANCH  26  27
ENDBRANCH  25  26
ENDBRANCH  23  25
ENDBRANCH   1  23
BRANCH  22  35
HETATM   35  O3  UNL     1      -4.391  50.128 -19.178  1.00  0.00    -0.391 OA
HETATM   36  H37 UNL     1      -4.376  50.501 -18.281  1.00  0.00     0.210 HD
ENDBRANCH  22  35
TORSDOF 8
ENDMDL
