MODEL 1
REMARK minimizedAffinity -10.7115574
REMARK CNNscore 0.384162962
REMARK CNNaffinity 6.9260354
REMARK  9 active torsions:
REMARK  status: ('A' for Active; 'I' for Inactive)
REMARK    1  A    between atoms: C3_3  and  O1_4 
REMARK    2  A    between atoms: N1_14  and  O2_16 
REMARK    3  A    between atoms: O2_16  and  C13_17 
REMARK    4  A    between atoms: C13_17  and  C14_18 
REMARK       I    between atoms: C14_18  and  N2_20 
REMARK    5  A    between atoms: N2_20  and  C15_21 
REMARK    6  A    between atoms: C15_21  and  C16_22 
REMARK    7  A    between atoms: C15_21  and  C18_26 
REMARK    8  A    between atoms: C16_22  and  C17_23 
REMARK    9  A    between atoms: C17_23  and  O5_25 
ROOT
HETATM    1  C1  UNL     1      -2.452  49.773 -26.949  1.00  0.00     0.015 C 
HETATM    2  C2  UNL     1      -1.893  50.628 -26.317  1.00  0.00    -0.078 C 
HETATM    3  C3  UNL     1      -1.214  51.700 -25.573  1.00  0.00     0.128 C 
HETATM    4  C4  UNL     1       0.289  51.463 -25.449  1.00  0.00     0.052 C 
HETATM    5  C5  UNL     1       0.718  52.484 -24.403  1.00  0.00     0.010 C 
HETATM    6  C6  UNL     1      -0.461  52.591 -23.408  1.00  0.00     0.002 C 
HETATM    7  C7  UNL     1      -0.058  52.041 -22.005  1.00  0.00    -0.004 C 
HETATM    8  C8  UNL     1       0.886  53.045 -21.296  1.00  0.00     0.010 C 
HETATM    9  C9  UNL     1       0.338  53.576 -19.971  1.00  0.00     0.035 C 
HETATM   10  C10 UNL     1      -0.001  52.407 -19.094  1.00  0.00    -0.069 C 
HETATM   11  C11 UNL     1       0.663  52.197 -17.943  1.00  0.00     0.030 C 
HETATM   12  C12 UNL     1       0.435  50.949 -17.167  1.00  0.00     0.032 C 
HETATM   13  N1  UNL     1       0.699  50.784 -15.907  1.00  0.00    -0.271 N 
ATOM     14  H1  UNL     1       0.549  49.911 -15.403  1.00  0.00     0.194 HD
HETATM   15  C25 UNL     1      -0.167  49.760 -17.896  1.00  0.00     0.060 C 
HETATM   16  C26 UNL     1      -0.454  50.012 -19.377  1.00  0.00     0.020 C 
HETATM   17  C27 UNL     1      -1.035  51.421 -19.645  1.00  0.00    -0.016 C 
HETATM   18  C28 UNL     1      -2.375  51.600 -18.883  1.00  0.00     0.020 C 
HETATM   19  C29 UNL     1      -1.315  51.710 -21.170  1.00  0.00     0.002 C 
HETATM   20  C30 UNL     1      -2.193  50.647 -21.872  1.00  0.00     0.007 C 
HETATM   21  C31 UNL     1      -1.938  50.521 -23.377  1.00  0.00     0.014 C 
HETATM   22  C32 UNL     1      -1.678  51.871 -24.087  1.00  0.00     0.003 C 
HETATM   23  C33 UNL     1      -2.954  52.740 -24.003  1.00  0.00     0.020 C 
ENDROOT
BRANCH   3  24
HETATM   24  O1  UNL     1      -1.393  52.923 -26.294  1.00  0.00    -0.377 OA
HETATM   25  H2  UNL     1      -1.193  52.733 -27.227  1.00  0.00     0.211 HD
ENDBRANCH   3  24
BRANCH  13  26
HETATM   26  O2  UNL     1       1.216  51.950 -15.320  1.00  0.00    -0.271 OA
BRANCH  26  27
HETATM   27  C13 UNL     1       0.404  52.289 -14.201  1.00  0.00     0.303 C 
BRANCH  27  28
HETATM   28  C14 UNL     1       1.126  51.938 -12.910  1.00  0.00     0.244 C 
HETATM   29  O3  UNL     1       0.572  51.378 -11.970  1.00  0.00    -0.271 OA
HETATM   30  N2  UNL     1       2.472  52.252 -12.922  1.00  0.00    -0.354 N 
HETATM   31  H16 UNL     1       2.857  52.645 -13.781  1.00  0.00     0.162 HD
BRANCH  30  32
HETATM   32  C15 UNL     1       3.397  51.809 -11.882  1.00  0.00     0.098 C 
BRANCH  32  33
HETATM   33  C16 UNL     1       3.274  50.302 -11.634  1.00  0.00     0.135 C 
BRANCH  33  34
HETATM   34  C17 UNL     1       3.931  49.445 -12.674  1.00  0.00     0.141 C 
HETATM   35  O4  UNL     1       4.809  49.795 -13.445  1.00  0.00    -0.650 OA
BRANCH  34  36
HETATM   36  O5  UNL     1       3.450  48.185 -12.700  1.00  0.00    -0.776 OA
HETATM   37  H20 UNL     1       3.930  47.761 -13.445  1.00  0.00     0.167 HD
ENDBRANCH  34  36
ENDBRANCH  33  34
ENDBRANCH  32  33
BRANCH  32  38
HETATM   38  C18 UNL     1       3.335  52.731 -10.631  1.00  0.00     0.014 C 
HETATM   39  C19 UNL     1       4.425  52.468  -9.574  1.00  0.00     0.033 C 
HETATM   40  C20 UNL     1       4.693  53.692  -8.704  1.00  0.00     0.169 C 
HETATM   41  O6  UNL     1       3.498  54.437  -8.506  1.00  0.00    -0.381 OA
HETATM   42  C21 UNL     1       2.994  55.067  -9.695  1.00  0.00     0.054 C 
HETATM   43  C22 UNL     1       1.480  55.209  -9.488  1.00  0.00     0.045 C 
HETATM   44  C23 UNL     1       3.616  56.465  -9.815  1.00  0.00     0.045 C 
HETATM   45  C24 UNL     1       3.285  54.230 -10.964  1.00  0.00     0.044 C 
ENDBRANCH  32  38
ENDBRANCH  30  32
ENDBRANCH  27  28
ENDBRANCH  26  27
ENDBRANCH  13  26
TORSDOF 9
ENDMDL
MODEL 2
REMARK minimizedAffinity -8.69777966
REMARK CNNscore 0.380064398
REMARK CNNaffinity 6.1359992
REMARK  9 active torsions:
REMARK  status: ('A' for Active; 'I' for Inactive)
REMARK    1  A    between atoms: C3_3  and  O1_4 
REMARK    2  A    between atoms: N1_14  and  O2_16 
REMARK    3  A    between atoms: O2_16  and  C13_17 
REMARK    4  A    between atoms: C13_17  and  C14_18 
REMARK       I    between atoms: C14_18  and  N2_20 
REMARK    5  A    between atoms: N2_20  and  C15_21 
REMARK    6  A    between atoms: C15_21  and  C16_22 
REMARK    7  A    between atoms: C15_21  and  C18_26 
REMARK    8  A    between atoms: C16_22  and  C17_23 
REMARK    9  A    between atoms: C17_23  and  O5_25 
ROOT
HETATM    1  C1  UNL     1      -4.204  45.828 -31.985  1.00  0.00     0.015 C 
HETATM    2  C2  UNL     1      -5.333  46.220 -32.103  1.00  0.00    -0.078 C 
HETATM    3  C3  UNL     1      -6.712  46.698 -32.285  1.00  0.00     0.128 C 
HETATM    4  C4  UNL     1      -6.876  48.167 -31.899  1.00  0.00     0.052 C 
HETATM    5  C5  UNL     1      -8.388  48.348 -31.857  1.00  0.00     0.010 C 
HETATM    6  C6  UNL     1      -8.962  47.008 -31.341  1.00  0.00     0.002 C 
HETATM    7  C7  UNL     1      -9.615  47.185 -29.935  1.00  0.00    -0.004 C 
HETATM    8  C8  UNL     1     -10.965  47.934 -30.071  1.00  0.00     0.010 C 
HETATM    9  C9  UNL     1     -12.167  47.133 -29.571  1.00  0.00     0.035 C 
HETATM   10  C10 UNL     1     -11.899  46.706 -28.157  1.00  0.00    -0.069 C 
HETATM   11  C11 UNL     1     -12.659  47.167 -27.147  1.00  0.00     0.030 C 
HETATM   12  C12 UNL     1     -12.285  46.872 -25.738  1.00  0.00     0.032 C 
HETATM   13  N1  UNL     1     -13.086  46.917 -24.718  1.00  0.00    -0.271 N 
ATOM     14  H1  UNL     1     -12.798  46.726 -23.759  1.00  0.00     0.194 HD
HETATM   15  C25 UNL     1     -10.846  46.472 -25.455  1.00  0.00     0.060 C 
HETATM   16  C26 UNL     1      -9.949  46.439 -26.693  1.00  0.00     0.020 C 
HETATM   17  C27 UNL     1     -10.657  45.840 -27.933  1.00  0.00    -0.016 C 
HETATM   18  C28 UNL     1     -11.093  44.379 -27.644  1.00  0.00     0.020 C 
HETATM   19  C29 UNL     1      -9.756  45.819 -29.227  1.00  0.00     0.002 C 
HETATM   20  C30 UNL     1      -8.381  45.138 -29.038  1.00  0.00     0.007 C 
HETATM   21  C31 UNL     1      -7.290  45.661 -29.978  1.00  0.00     0.014 C 
HETATM   22  C32 UNL     1      -7.787  45.971 -31.410  1.00  0.00     0.003 C 
HETATM   23  C33 UNL     1      -8.247  44.656 -32.080  1.00  0.00     0.020 C 
ENDROOT
BRANCH   3  24
HETATM   24  O1  UNL     1      -7.041  46.585 -33.673  1.00  0.00    -0.377 OA
HETATM   25  H2  UNL     1      -6.293  46.957 -34.172  1.00  0.00     0.211 HD
ENDBRANCH   3  24
BRANCH  13  26
HETATM   26  O2  UNL     1     -14.395  47.259 -25.092  1.00  0.00    -0.271 OA
BRANCH  26  27
HETATM   27  C13 UNL     1     -14.999  46.123 -25.703  1.00  0.00     0.303 C 
BRANCH  27  28
HETATM   28  C14 UNL     1     -15.879  45.400 -24.696  1.00  0.00     0.244 C 
HETATM   29  O3  UNL     1     -15.697  44.229 -24.377  1.00  0.00    -0.271 OA
HETATM   30  N2  UNL     1     -16.857  46.198 -24.134  1.00  0.00    -0.354 N 
HETATM   31  H16 UNL     1     -16.877  47.180 -24.407  1.00  0.00     0.162 HD
BRANCH  30  32
HETATM   32  C15 UNL     1     -17.666  45.774 -22.995  1.00  0.00     0.098 C 
BRANCH  32  33
HETATM   33  C16 UNL     1     -19.160  45.790 -23.337  1.00  0.00     0.135 C 
BRANCH  33  34
HETATM   34  C17 UNL     1     -19.480  46.330 -24.699  1.00  0.00     0.141 C 
HETATM   35  O4  UNL     1     -19.929  45.695 -25.638  1.00  0.00    -0.650 OA
BRANCH  34  36
HETATM   36  O5  UNL     1     -19.214  47.647 -24.819  1.00  0.00    -0.776 OA
HETATM   37  H20 UNL     1     -19.424  47.849 -25.757  1.00  0.00     0.167 HD
ENDBRANCH  34  36
ENDBRANCH  33  34
ENDBRANCH  32  33
BRANCH  32  38
HETATM   38  C18 UNL     1     -17.240  46.502 -21.688  1.00  0.00     0.014 C 
HETATM   39  C19 UNL     1     -18.384  46.782 -20.696  1.00  0.00     0.033 C 
HETATM   40  C20 UNL     1     -17.883  46.942 -19.265  1.00  0.00     0.169 C 
HETATM   41  O6  UNL     1     -16.595  47.547 -19.250  1.00  0.00    -0.381 OA
HETATM   42  C21 UNL     1     -15.553  46.726 -19.802  1.00  0.00     0.054 C 
HETATM   43  C22 UNL     1     -14.483  47.696 -20.322  1.00  0.00     0.045 C 
HETATM   44  C23 UNL     1     -14.951  45.870 -18.680  1.00  0.00     0.045 C 
HETATM   45  C24 UNL     1     -16.069  45.830 -20.954  1.00  0.00     0.044 C 
ENDBRANCH  32  38
ENDBRANCH  30  32
ENDBRANCH  27  28
ENDBRANCH  26  27
ENDBRANCH  13  26
TORSDOF 9
ENDMDL
MODEL 3
REMARK minimizedAffinity -11.1538591
REMARK CNNscore 0.319958597
REMARK CNNaffinity 6.9764657
REMARK  9 active torsions:
REMARK  status: ('A' for Active; 'I' for Inactive)
REMARK    1  A    between atoms: C3_3  and  O1_4 
REMARK    2  A    between atoms: N1_14  and  O2_16 
REMARK    3  A    between atoms: O2_16  and  C13_17 
REMARK    4  A    between atoms: C13_17  and  C14_18 
REMARK       I    between atoms: C14_18  and  N2_20 
REMARK    5  A    between atoms: N2_20  and  C15_21 
REMARK    6  A    between atoms: C15_21  and  C16_22 
REMARK    7  A    between atoms: C15_21  and  C18_26 
REMARK    8  A    between atoms: C16_22  and  C17_23 
REMARK    9  A    between atoms: C17_23  and  O5_25 
ROOT
HETATM    1  C1  UNL     1      -2.546  49.561 -26.856  1.00  0.00     0.015 C 
HETATM    2  C2  UNL     1      -1.967  50.434 -26.266  1.00  0.00    -0.078 C 
HETATM    3  C3  UNL     1      -1.265  51.525 -25.574  1.00  0.00     0.128 C 
HETATM    4  C4  UNL     1       0.236  51.271 -25.457  1.00  0.00     0.052 C 
HETATM    5  C5  UNL     1       0.691  52.329 -24.459  1.00  0.00     0.010 C 
HETATM    6  C6  UNL     1      -0.475  52.495 -23.456  1.00  0.00     0.002 C 
HETATM    7  C7  UNL     1      -0.064  51.997 -22.036  1.00  0.00    -0.004 C 
HETATM    8  C8  UNL     1       0.902  53.016 -21.380  1.00  0.00     0.010 C 
HETATM    9  C9  UNL     1       0.377  53.610 -20.072  1.00  0.00     0.035 C 
HETATM   10  C10 UNL     1       0.031  52.483 -19.144  1.00  0.00    -0.069 C 
HETATM   11  C11 UNL     1       0.705  52.312 -17.992  1.00  0.00     0.030 C 
HETATM   12  C12 UNL     1       0.468  51.100 -17.162  1.00  0.00     0.032 C 
HETATM   13  N1  UNL     1       0.744  50.984 -15.899  1.00  0.00    -0.271 N 
ATOM     14  H1  UNL     1       0.586  50.135 -15.358  1.00  0.00     0.194 HD
HETATM   15  C25 UNL     1      -0.159  49.891 -17.835  1.00  0.00     0.060 C 
HETATM   16  C26 UNL     1      -0.459  50.085 -19.322  1.00  0.00     0.020 C 
HETATM   17  C27 UNL     1      -1.023  51.491 -19.643  1.00  0.00    -0.016 C 
HETATM   18  C28 UNL     1      -2.351  51.720 -18.875  1.00  0.00     0.020 C 
HETATM   19  C29 UNL     1      -1.316  51.719 -21.175  1.00  0.00     0.002 C 
HETATM   20  C30 UNL     1      -2.217  50.641 -21.823  1.00  0.00     0.007 C 
HETATM   21  C31 UNL     1      -1.981  50.450 -23.324  1.00  0.00     0.014 C 
HETATM   22  C32 UNL     1      -1.709  51.765 -24.092  1.00  0.00     0.003 C 
HETATM   23  C33 UNL     1      -2.972  52.655 -24.031  1.00  0.00     0.020 C 
ENDROOT
BRANCH   3  24
HETATM   24  O1  UNL     1      -1.435  52.720 -26.344  1.00  0.00    -0.377 OA
HETATM   25  H2  UNL     1      -1.248  52.488 -27.270  1.00  0.00     0.211 HD
ENDBRANCH   3  24
BRANCH  13  26
HETATM   26  O2  UNL     1       1.284  52.166 -15.368  1.00  0.00    -0.271 OA
BRANCH  26  27
HETATM   27  C13 UNL     1       2.267  51.815 -14.399  1.00  0.00     0.303 C 
BRANCH  27  28
HETATM   28  C14 UNL     1       1.626  51.710 -13.024  1.00  0.00     0.244 C 
HETATM   29  O3  UNL     1       1.622  50.670 -12.372  1.00  0.00    -0.271 OA
HETATM   30  N2  UNL     1       1.110  52.903 -12.557  1.00  0.00    -0.354 N 
HETATM   31  H16 UNL     1       1.233  53.731 -13.140  1.00  0.00     0.162 HD
BRANCH  30  32
HETATM   32  C15 UNL     1       0.648  53.081 -11.183  1.00  0.00     0.098 C 
BRANCH  32  33
HETATM   33  C16 UNL     1      -0.872  53.261 -11.126  1.00  0.00     0.135 C 
BRANCH  33  34
HETATM   34  C17 UNL     1      -1.341  54.281 -10.131  1.00  0.00     0.141 C 
HETATM   35  O4  UNL     1      -1.632  54.069  -8.966  1.00  0.00    -0.650 OA
BRANCH  34  36
HETATM   36  O5  UNL     1      -1.426  55.523 -10.649  1.00  0.00    -0.776 OA
HETATM   37  H20 UNL     1      -1.783  56.066  -9.912  1.00  0.00     0.167 HD
ENDBRANCH  34  36
ENDBRANCH  33  34
ENDBRANCH  32  33
BRANCH  32  38
HETATM   38  C18 UNL     1       1.507  54.133 -10.424  1.00  0.00     0.014 C 
HETATM   39  C19 UNL     1       1.421  54.056  -8.887  1.00  0.00     0.033 C 
HETATM   40  C20 UNL     1       2.648  54.658  -8.210  1.00  0.00     0.169 C 
HETATM   41  O6  UNL     1       3.151  55.753  -8.967  1.00  0.00    -0.381 OA
HETATM   42  C21 UNL     1       3.710  55.383 -10.237  1.00  0.00     0.054 C 
HETATM   43  C22 UNL     1       3.560  56.615 -11.139  1.00  0.00     0.045 C 
HETATM   44  C23 UNL     1       5.202  55.077 -10.051  1.00  0.00     0.045 C 
HETATM   45  C24 UNL     1       2.979  54.170 -10.862  1.00  0.00     0.044 C 
ENDBRANCH  32  38
ENDBRANCH  30  32
ENDBRANCH  27  28
ENDBRANCH  26  27
ENDBRANCH  13  26
TORSDOF 9
ENDMDL
MODEL 4
REMARK minimizedAffinity -8.35343742
REMARK CNNscore 0.315675616
REMARK CNNaffinity 6.47837067
REMARK  9 active torsions:
REMARK  status: ('A' for Active; 'I' for Inactive)
REMARK    1  A    between atoms: C3_3  and  O1_4 
REMARK    2  A    between atoms: N1_14  and  O2_16 
REMARK    3  A    between atoms: O2_16  and  C13_17 
REMARK    4  A    between atoms: C13_17  and  C14_18 
REMARK       I    between atoms: C14_18  and  N2_20 
REMARK    5  A    between atoms: N2_20  and  C15_21 
REMARK    6  A    between atoms: C15_21  and  C16_22 
REMARK    7  A    between atoms: C15_21  and  C18_26 
REMARK    8  A    between atoms: C16_22  and  C17_23 
REMARK    9  A    between atoms: C17_23  and  O5_25 
ROOT
HETATM    1  C1  UNL     1       1.717  51.565 -28.103  1.00  0.00     0.015 C 
HETATM    2  C2  UNL     1       0.969  52.090 -27.323  1.00  0.00    -0.078 C 
HETATM    3  C3  UNL     1       0.059  52.767 -26.387  1.00  0.00     0.128 C 
HETATM    4  C4  UNL     1       0.643  52.876 -24.981  1.00  0.00     0.052 C 
HETATM    5  C5  UNL     1      -0.554  53.297 -24.138  1.00  0.00     0.010 C 
HETATM    6  C6  UNL     1      -1.781  52.596 -24.764  1.00  0.00     0.002 C 
HETATM    7  C7  UNL     1      -2.372  51.530 -23.790  1.00  0.00    -0.004 C 
HETATM    8  C8  UNL     1      -3.122  52.234 -22.631  1.00  0.00     0.010 C 
HETATM    9  C9  UNL     1      -4.604  51.871 -22.545  1.00  0.00     0.035 C 
HETATM   10  C10 UNL     1      -4.724  50.376 -22.469  1.00  0.00    -0.069 C 
HETATM   11  C11 UNL     1      -5.224  49.784 -21.369  1.00  0.00     0.030 C 
HETATM   12  C12 UNL     1      -5.184  48.303 -21.237  1.00  0.00     0.032 C 
HETATM   13  N1  UNL     1      -5.935  47.594 -20.450  1.00  0.00    -0.271 N 
ATOM     14  H1  UNL     1      -5.875  46.580 -20.366  1.00  0.00     0.194 HD
HETATM   15  C25 UNL     1      -4.192  47.540 -22.098  1.00  0.00     0.060 C 
HETATM   16  C26 UNL     1      -3.334  48.426 -23.001  1.00  0.00     0.020 C 
HETATM   17  C27 UNL     1      -4.135  49.587 -23.641  1.00  0.00    -0.016 C 
HETATM   18  C28 UNL     1      -5.287  49.023 -24.514  1.00  0.00     0.020 C 
HETATM   19  C29 UNL     1      -3.262  50.527 -24.558  1.00  0.00     0.002 C 
HETATM   20  C30 UNL     1      -2.460  49.788 -25.654  1.00  0.00     0.007 C 
HETATM   21  C31 UNL     1      -1.177  50.506 -26.082  1.00  0.00     0.014 C 
HETATM   22  C32 UNL     1      -1.311  52.046 -26.156  1.00  0.00     0.003 C 
HETATM   23  C33 UNL     1      -2.323  52.411 -27.267  1.00  0.00     0.020 C 
ENDROOT
BRANCH   3  24
HETATM   24  O1  UNL     1      -0.155  54.100 -26.862  1.00  0.00    -0.377 OA
HETATM   25  H2  UNL     1       0.719  54.463 -27.089  1.00  0.00     0.211 HD
ENDBRANCH   3  24
BRANCH  13  26
HETATM   26  O2  UNL     1      -6.839  48.390 -19.728  1.00  0.00    -0.271 OA
BRANCH  26  27
HETATM   27  C13 UNL     1      -7.582  47.546 -18.855  1.00  0.00     0.303 C 
BRANCH  27  28
HETATM   28  C14 UNL     1      -8.905  47.167 -19.501  1.00  0.00     0.244 C 
HETATM   29  O3  UNL     1      -8.974  46.514 -20.537  1.00  0.00    -0.271 OA
HETATM   30  N2  UNL     1     -10.014  47.572 -18.782  1.00  0.00    -0.354 N 
HETATM   31  H16 UNL     1      -9.851  48.042 -17.891  1.00  0.00     0.162 HD
BRANCH  30  32
HETATM   32  C15 UNL     1     -11.368  47.130 -19.101  1.00  0.00     0.098 C 
BRANCH  32  33
HETATM   33  C16 UNL     1     -12.186  48.258 -19.740  1.00  0.00     0.135 C 
BRANCH  33  34
HETATM   34  C17 UNL     1     -13.144  47.806 -20.800  1.00  0.00     0.141 C 
HETATM   35  O4  UNL     1     -14.266  48.245 -20.991  1.00  0.00    -0.650 OA
BRANCH  34  36
HETATM   36  O5  UNL     1     -12.648  46.817 -21.572  1.00  0.00    -0.776 OA
HETATM   37  H20 UNL     1     -13.388  46.595 -22.181  1.00  0.00     0.167 HD
ENDBRANCH  34  36
ENDBRANCH  33  34
ENDBRANCH  32  33
BRANCH  32  38
HETATM   38  C18 UNL     1     -12.022  46.383 -17.903  1.00  0.00     0.014 C 
HETATM   39  C19 UNL     1     -13.084  47.192 -17.133  1.00  0.00     0.033 C 
HETATM   40  C20 UNL     1     -14.071  46.294 -16.395  1.00  0.00     0.169 C 
HETATM   41  O6  UNL     1     -13.426  45.111 -15.938  1.00  0.00    -0.381 OA
HETATM   42  C21 UNL     1     -13.005  44.227 -16.989  1.00  0.00     0.054 C 
HETATM   43  C22 UNL     1     -11.814  43.439 -16.427  1.00  0.00     0.045 C 
HETATM   44  C23 UNL     1     -14.147  43.251 -17.302  1.00  0.00     0.045 C 
HETATM   45  C24 UNL     1     -12.583  44.999 -18.263  1.00  0.00     0.044 C 
ENDBRANCH  32  38
ENDBRANCH  30  32
ENDBRANCH  27  28
ENDBRANCH  26  27
ENDBRANCH  13  26
TORSDOF 9
ENDMDL
MODEL 5
REMARK minimizedAffinity -8.51294994
REMARK CNNscore 0.307976604
REMARK CNNaffinity 6.78236771
REMARK  9 active torsions:
REMARK  status: ('A' for Active; 'I' for Inactive)
REMARK    1  A    between atoms: C3_3  and  O1_4 
REMARK    2  A    between atoms: N1_14  and  O2_16 
REMARK    3  A    between atoms: O2_16  and  C13_17 
REMARK    4  A    between atoms: C13_17  and  C14_18 
REMARK       I    between atoms: C14_18  and  N2_20 
REMARK    5  A    between atoms: N2_20  and  C15_21 
REMARK    6  A    between atoms: C15_21  and  C16_22 
REMARK    7  A    between atoms: C15_21  and  C18_26 
REMARK    8  A    between atoms: C16_22  and  C17_23 
REMARK    9  A    between atoms: C17_23  and  O5_25 
ROOT
HETATM    1  C1  UNL     1       0.674  52.737 -21.042  1.00  0.00     0.015 C 
HETATM    2  C2  UNL     1       0.046  51.794 -20.643  1.00  0.00    -0.078 C 
HETATM    3  C3  UNL     1      -0.709  50.646 -20.118  1.00  0.00     0.128 C 
HETATM    4  C4  UNL     1      -0.174  49.312 -20.634  1.00  0.00     0.052 C 
HETATM    5  C5  UNL     1      -1.266  48.324 -20.241  1.00  0.00     0.010 C 
HETATM    6  C6  UNL     1      -2.600  49.094 -20.369  1.00  0.00     0.002 C 
HETATM    7  C7  UNL     1      -3.474  48.508 -21.522  1.00  0.00    -0.004 C 
HETATM    8  C8  UNL     1      -4.076  47.148 -21.087  1.00  0.00     0.010 C 
HETATM    9  C9  UNL     1      -5.604  47.123 -21.084  1.00  0.00     0.035 C 
HETATM   10  C10 UNL     1      -6.089  47.546 -22.440  1.00  0.00    -0.069 C 
HETATM   11  C11 UNL     1      -6.763  46.687 -23.225  1.00  0.00     0.030 C 
HETATM   12  C12 UNL     1      -7.093  47.060 -24.627  1.00  0.00     0.032 C 
HETATM   13  N1  UNL     1      -8.026  46.524 -25.353  1.00  0.00    -0.271 N 
ATOM     14  H1  UNL     1      -8.219  46.787 -26.318  1.00  0.00     0.194 HD
HETATM   15  C25 UNL     1      -6.283  48.170 -25.275  1.00  0.00     0.060 C 
HETATM   16  C26 UNL     1      -5.197  48.762 -24.375  1.00  0.00     0.020 C 
HETATM   17  C27 UNL     1      -5.663  48.940 -22.910  1.00  0.00    -0.016 C 
HETATM   18  C28 UNL     1      -6.880  49.899 -22.849  1.00  0.00     0.020 C 
HETATM   19  C29 UNL     1      -4.550  49.526 -21.959  1.00  0.00     0.002 C 
HETATM   20  C30 UNL     1      -3.908  50.842 -22.460  1.00  0.00     0.007 C 
HETATM   21  C31 UNL     1      -2.471  51.061 -21.977  1.00  0.00     0.014 C 
HETATM   22  C32 UNL     1      -2.222  50.609 -20.518  1.00  0.00     0.003 C 
HETATM   23  C33 UNL     1      -3.066  51.487 -19.566  1.00  0.00     0.020 C 
ENDROOT
BRANCH   3  24
HETATM   24  O1  UNL     1      -0.570  50.636 -18.694  1.00  0.00    -0.377 OA
HETATM   25  H2  UNL     1       0.374  50.768 -18.501  1.00  0.00     0.211 HD
ENDBRANCH   3  24
BRANCH  13  26
HETATM   26  O2  UNL     1      -8.737  45.538 -24.650  1.00  0.00    -0.271 OA
BRANCH  26  27
HETATM   27  C13 UNL     1     -10.114  45.645 -24.995  1.00  0.00     0.303 C 
BRANCH  27  28
HETATM   28  C14 UNL     1     -10.259  45.852 -26.494  1.00  0.00     0.244 C 
HETATM   29  O3  UNL     1     -10.181  44.932 -27.302  1.00  0.00    -0.271 OA
HETATM   30  N2  UNL     1     -10.547  47.156 -26.852  1.00  0.00    -0.354 N 
HETATM   31  H16 UNL     1     -10.670  47.834 -26.100  1.00  0.00     0.162 HD
BRANCH  30  32
HETATM   32  C15 UNL     1     -10.940  47.536 -28.205  1.00  0.00     0.098 C 
BRANCH  32  33
HETATM   33  C16 UNL     1     -12.239  46.839 -28.625  1.00  0.00     0.135 C 
BRANCH  33  34
HETATM   34  C17 UNL     1     -13.397  47.075 -27.703  1.00  0.00     0.141 C 
HETATM   35  O4  UNL     1     -14.409  46.399 -27.631  1.00  0.00    -0.650 OA
BRANCH  34  36
HETATM   36  O5  UNL     1     -13.231  48.157 -26.914  1.00  0.00    -0.776 OA
HETATM   37  H20 UNL     1     -14.070  48.214 -26.407  1.00  0.00     0.167 HD
ENDBRANCH  34  36
ENDBRANCH  33  34
ENDBRANCH  32  33
BRANCH  32  38
HETATM   38  C18 UNL     1      -9.744  47.443 -29.195  1.00  0.00     0.014 C 
HETATM   39  C19 UNL     1      -9.854  48.348 -30.437  1.00  0.00     0.033 C 
HETATM   40  C20 UNL     1      -8.491  48.666 -31.043  1.00  0.00     0.169 C 
HETATM   41  O6  UNL     1      -7.604  47.564 -30.886  1.00  0.00    -0.381 OA
HETATM   42  C21 UNL     1      -7.230  47.300 -29.525  1.00  0.00     0.054 C 
HETATM   43  C22 UNL     1      -6.892  45.804 -29.463  1.00  0.00     0.045 C 
HETATM   44  C23 UNL     1      -5.970  48.111 -29.192  1.00  0.00     0.045 C 
HETATM   45  C24 UNL     1      -8.371  47.633 -28.533  1.00  0.00     0.044 C 
ENDBRANCH  32  38
ENDBRANCH  30  32
ENDBRANCH  27  28
ENDBRANCH  26  27
ENDBRANCH  13  26
TORSDOF 9
ENDMDL
MODEL 6
REMARK minimizedAffinity -8.51306248
REMARK CNNscore 0.284476161
REMARK CNNaffinity 5.94003677
REMARK  9 active torsions:
REMARK  status: ('A' for Active; 'I' for Inactive)
REMARK    1  A    between atoms: C3_3  and  O1_4 
REMARK    2  A    between atoms: N1_14  and  O2_16 
REMARK    3  A    between atoms: O2_16  and  C13_17 
REMARK    4  A    between atoms: C13_17  and  C14_18 
REMARK       I    between atoms: C14_18  and  N2_20 
REMARK    5  A    between atoms: N2_20  and  C15_21 
REMARK    6  A    between atoms: C15_21  and  C16_22 
REMARK    7  A    between atoms: C15_21  and  C18_26 
REMARK    8  A    between atoms: C16_22  and  C17_23 
REMARK    9  A    between atoms: C17_23  and  O5_25 
ROOT
HETATM    1  C1  UNL     1       0.326  50.718 -26.408  1.00  0.00     0.015 C 
HETATM    2  C2  UNL     1      -0.860  50.814 -26.243  1.00  0.00    -0.078 C 
HETATM    3  C3  UNL     1      -2.317  50.936 -26.079  1.00  0.00     0.128 C 
HETATM    4  C4  UNL     1      -2.718  52.231 -25.376  1.00  0.00     0.052 C 
HETATM    5  C5  UNL     1      -4.185  52.001 -25.033  1.00  0.00     0.010 C 
HETATM    6  C6  UNL     1      -4.313  50.494 -24.711  1.00  0.00     0.002 C 
HETATM    7  C7  UNL     1      -4.662  50.272 -23.207  1.00  0.00    -0.004 C 
HETATM    8  C8  UNL     1      -6.142  50.653 -22.948  1.00  0.00     0.010 C 
HETATM    9  C9  UNL     1      -6.992  49.497 -22.420  1.00  0.00     0.035 C 
HETATM   10  C10 UNL     1      -6.330  48.941 -21.193  1.00  0.00    -0.069 C 
HETATM   11  C11 UNL     1      -6.931  49.023 -19.993  1.00  0.00     0.030 C 
HETATM   12  C12 UNL     1      -6.198  48.621 -18.763  1.00  0.00     0.032 C 
HETATM   13  N1  UNL     1      -6.743  48.295 -17.630  1.00  0.00    -0.271 N 
ATOM     14  H1  UNL     1      -6.215  48.040 -16.796  1.00  0.00     0.194 HD
HETATM   15  C25 UNL     1      -4.681  48.574 -18.824  1.00  0.00     0.060 C 
HETATM   16  C26 UNL     1      -4.096  48.970 -20.180  1.00  0.00     0.020 C 
HETATM   17  C27 UNL     1      -4.906  48.407 -21.373  1.00  0.00    -0.016 C 
HETATM   18  C28 UNL     1      -4.927  46.857 -21.319  1.00  0.00     0.020 C 
HETATM   19  C29 UNL     1      -4.332  48.824 -22.781  1.00  0.00     0.002 C 
HETATM   20  C30 UNL     1      -2.832  48.507 -22.981  1.00  0.00     0.007 C 
HETATM   21  C31 UNL     1      -2.122  49.438 -23.969  1.00  0.00     0.014 C 
HETATM   22  C32 UNL     1      -2.980  49.825 -25.197  1.00  0.00     0.003 C 
HETATM   23  C33 UNL     1      -3.269  48.556 -26.031  1.00  0.00     0.020 C 
ENDROOT
BRANCH   3  24
HETATM   24  O1  UNL     1      -2.910  50.958 -27.381  1.00  0.00    -0.377 OA
HETATM   25  H2  UNL     1      -2.394  51.585 -27.916  1.00  0.00     0.211 HD
ENDBRANCH   3  24
BRANCH  13  26
HETATM   26  O2  UNL     1      -8.145  48.336 -17.691  1.00  0.00    -0.271 OA
BRANCH  26  27
HETATM   27  C13 UNL     1      -8.654  47.115 -17.162  1.00  0.00     0.303 C 
BRANCH  27  28
HETATM   28  C14 UNL     1     -10.138  47.257 -16.866  1.00  0.00     0.244 C 
HETATM   29  O3  UNL     1     -10.587  48.127 -16.127  1.00  0.00    -0.271 OA
HETATM   30  N2  UNL     1     -10.932  46.358 -17.553  1.00  0.00    -0.354 N 
HETATM   31  H16 UNL     1     -10.470  45.724 -18.205  1.00  0.00     0.162 HD
BRANCH  30  32
HETATM   32  C15 UNL     1     -12.389  46.455 -17.587  1.00  0.00     0.098 C 
BRANCH  32  33
HETATM   33  C16 UNL     1     -13.043  45.253 -16.896  1.00  0.00     0.135 C 
BRANCH  33  34
HETATM   34  C17 UNL     1     -13.778  45.587 -15.633  1.00  0.00     0.141 C 
HETATM   35  O4  UNL     1     -14.310  46.653 -15.370  1.00  0.00    -0.650 OA
BRANCH  34  36
HETATM   36  O5  UNL     1     -13.806  44.565 -14.754  1.00  0.00    -0.776 OA
HETATM   37  H20 UNL     1     -14.270  44.936 -13.970  1.00  0.00     0.167 HD
ENDBRANCH  34  36
ENDBRANCH  33  34
ENDBRANCH  32  33
BRANCH  32  38
HETATM   38  C18 UNL     1     -12.904  46.809 -19.011  1.00  0.00     0.014 C 
HETATM   39  C19 UNL     1     -11.808  47.197 -20.022  1.00  0.00     0.033 C 
HETATM   40  C20 UNL     1     -12.246  46.971 -21.465  1.00  0.00     0.169 C 
HETATM   41  O6  UNL     1     -13.641  47.212 -21.608  1.00  0.00    -0.381 OA
HETATM   42  C21 UNL     1     -14.476  46.261 -20.929  1.00  0.00     0.054 C 
HETATM   43  C22 UNL     1     -15.784  46.998 -20.612  1.00  0.00     0.045 C 
HETATM   44  C23 UNL     1     -14.776  45.097 -21.883  1.00  0.00     0.045 C 
HETATM   45  C24 UNL     1     -13.823  45.742 -19.625  1.00  0.00     0.044 C 
ENDBRANCH  32  38
ENDBRANCH  30  32
ENDBRANCH  27  28
ENDBRANCH  26  27
ENDBRANCH  13  26
TORSDOF 9
ENDMDL
MODEL 7
REMARK minimizedAffinity -9.77433395
REMARK CNNscore 0.265588254
REMARK CNNaffinity 6.9024353
REMARK  9 active torsions:
REMARK  status: ('A' for Active; 'I' for Inactive)
REMARK    1  A    between atoms: C3_3  and  O1_4 
REMARK    2  A    between atoms: N1_14  and  O2_16 
REMARK    3  A    between atoms: O2_16  and  C13_17 
REMARK    4  A    between atoms: C13_17  and  C14_18 
REMARK       I    between atoms: C14_18  and  N2_20 
REMARK    5  A    between atoms: N2_20  and  C15_21 
REMARK    6  A    between atoms: C15_21  and  C16_22 
REMARK    7  A    between atoms: C15_21  and  C18_26 
REMARK    8  A    between atoms: C16_22  and  C17_23 
REMARK    9  A    between atoms: C17_23  and  O5_25 
ROOT
HETATM    1  C1  UNL     1       1.082  51.651 -28.568  1.00  0.00     0.015 C 
HETATM    2  C2  UNL     1       0.499  52.101 -27.619  1.00  0.00    -0.078 C 
HETATM    3  C3  UNL     1      -0.217  52.685 -26.475  1.00  0.00     0.128 C 
HETATM    4  C4  UNL     1       0.669  52.818 -25.238  1.00  0.00     0.052 C 
HETATM    5  C5  UNL     1      -0.327  53.126 -24.127  1.00  0.00     0.010 C 
HETATM    6  C6  UNL     1      -1.610  52.337 -24.477  1.00  0.00     0.002 C 
HETATM    7  C7  UNL     1      -1.875  51.210 -23.431  1.00  0.00    -0.004 C 
HETATM    8  C8  UNL     1      -2.385  51.831 -22.106  1.00  0.00     0.010 C 
HETATM    9  C9  UNL     1      -3.775  51.346 -21.693  1.00  0.00     0.035 C 
HETATM   10  C10 UNL     1      -3.760  49.846 -21.644  1.00  0.00    -0.069 C 
HETATM   11  C11 UNL     1      -3.943  49.197 -20.480  1.00  0.00     0.030 C 
HETATM   12  C12 UNL     1      -3.761  47.722 -20.412  1.00  0.00     0.032 C 
HETATM   13  N1  UNL     1      -4.251  46.941 -19.499  1.00  0.00    -0.271 N 
ATOM     14  H1  UNL     1      -4.097  45.934 -19.466  1.00  0.00     0.194 HD
HETATM   15  C25 UNL     1      -2.942  47.057 -21.505  1.00  0.00     0.060 C 
HETATM   16  C26 UNL     1      -2.388  48.025 -22.551  1.00  0.00     0.020 C 
HETATM   17  C27 UNL     1      -3.401  49.127 -22.947  1.00  0.00    -0.016 C 
HETATM   18  C28 UNL     1      -4.678  48.484 -23.549  1.00  0.00     0.020 C 
HETATM   19  C29 UNL     1      -2.840  50.150 -24.007  1.00  0.00     0.002 C 
HETATM   20  C30 UNL     1      -2.262  49.497 -25.284  1.00  0.00     0.007 C 
HETATM   21  C31 UNL     1      -1.172  50.325 -25.972  1.00  0.00     0.014 C 
HETATM   22  C32 UNL     1      -1.437  51.850 -25.959  1.00  0.00     0.003 C 
HETATM   23  C33 UNL     1      -2.704  52.149 -26.792  1.00  0.00     0.020 C 
ENDROOT
BRANCH   3  24
HETATM   24  O1  UNL     1      -0.636  54.004 -26.840  1.00  0.00    -0.377 OA
HETATM   25  H2  UNL     1       0.130  54.441 -27.250  1.00  0.00     0.211 HD
ENDBRANCH   3  24
BRANCH  13  26
HETATM   26  O2  UNL     1      -5.020  47.648 -18.560  1.00  0.00    -0.271 OA
BRANCH  26  27
HETATM   27  C13 UNL     1      -4.508  47.372 -17.260  1.00  0.00     0.303 C 
BRANCH  27  28
HETATM   28  C14 UNL     1      -3.317  48.272 -16.970  1.00  0.00     0.244 C 
HETATM   29  O3  UNL     1      -2.167  47.969 -17.274  1.00  0.00    -0.271 OA
HETATM   30  N2  UNL     1      -3.658  49.480 -16.392  1.00  0.00    -0.354 N 
HETATM   31  H16 UNL     1      -4.650  49.671 -16.250  1.00  0.00     0.162 HD
BRANCH  30  32
HETATM   32  C15 UNL     1      -2.707  50.576 -16.229  1.00  0.00     0.098 C 
BRANCH  32  33
HETATM   33  C16 UNL     1      -1.555  50.466 -17.234  1.00  0.00     0.135 C 
BRANCH  33  34
HETATM   34  C17 UNL     1      -1.635  51.432 -18.378  1.00  0.00     0.141 C 
HETATM   35  O4  UNL     1      -0.730  51.718 -19.143  1.00  0.00    -0.650 OA
BRANCH  34  36
HETATM   36  O5  UNL     1      -2.852  52.000 -18.505  1.00  0.00    -0.776 OA
HETATM   37  H20 UNL     1      -2.745  52.631 -19.251  1.00  0.00     0.167 HD
ENDBRANCH  34  36
ENDBRANCH  33  34
ENDBRANCH  32  33
BRANCH  32  38
HETATM   38  C18 UNL     1      -2.317  50.777 -14.737  1.00  0.00     0.014 C 
HETATM   39  C19 UNL     1      -0.873  51.259 -14.501  1.00  0.00     0.033 C 
HETATM   40  C20 UNL     1      -0.715  51.977 -13.165  1.00  0.00     0.169 C 
HETATM   41  O6  UNL     1      -1.579  51.410 -12.187  1.00  0.00    -0.381 OA
HETATM   42  C21 UNL     1      -2.976  51.630 -12.437  1.00  0.00     0.054 C 
HETATM   43  C22 UNL     1      -3.714  50.466 -11.763  1.00  0.00     0.045 C 
HETATM   44  C23 UNL     1      -3.398  52.945 -11.767  1.00  0.00     0.045 C 
HETATM   45  C24 UNL     1      -3.297  51.663 -13.952  1.00  0.00     0.044 C 
ENDBRANCH  32  38
ENDBRANCH  30  32
ENDBRANCH  27  28
ENDBRANCH  26  27
ENDBRANCH  13  26
TORSDOF 9
ENDMDL
MODEL 8
REMARK minimizedAffinity -9.82245922
REMARK CNNscore 0.249390125
REMARK CNNaffinity 7.00133371
REMARK  9 active torsions:
REMARK  status: ('A' for Active; 'I' for Inactive)
REMARK    1  A    between atoms: C3_3  and  O1_4 
REMARK    2  A    between atoms: N1_14  and  O2_16 
REMARK    3  A    between atoms: O2_16  and  C13_17 
REMARK    4  A    between atoms: C13_17  and  C14_18 
REMARK       I    between atoms: C14_18  and  N2_20 
REMARK    5  A    between atoms: N2_20  and  C15_21 
REMARK    6  A    between atoms: C15_21  and  C16_22 
REMARK    7  A    between atoms: C15_21  and  C18_26 
REMARK    8  A    between atoms: C16_22  and  C17_23 
REMARK    9  A    between atoms: C17_23  and  O5_25 
ROOT
HETATM    1  C1  UNL     1      -3.215  48.645 -26.966  1.00  0.00     0.015 C 
HETATM    2  C2  UNL     1      -2.595  49.564 -26.505  1.00  0.00    -0.078 C 
HETATM    3  C3  UNL     1      -1.843  50.710 -25.972  1.00  0.00     0.128 C 
HETATM    4  C4  UNL     1      -0.340  50.446 -25.914  1.00  0.00     0.052 C 
HETATM    5  C5  UNL     1       0.183  51.593 -25.059  1.00  0.00     0.010 C 
HETATM    6  C6  UNL     1      -0.921  51.881 -24.015  1.00  0.00     0.002 C 
HETATM    7  C7  UNL     1      -0.433  51.526 -22.576  1.00  0.00    -0.004 C 
HETATM    8  C8  UNL     1       0.580  52.592 -22.085  1.00  0.00     0.010 C 
HETATM    9  C9  UNL     1       0.138  53.326 -20.819  1.00  0.00     0.035 C 
HETATM   10  C10 UNL     1      -0.165  52.307 -19.760  1.00  0.00    -0.069 C 
HETATM   11  C11 UNL     1       0.574  52.245 -18.637  1.00  0.00     0.030 C 
HETATM   12  C12 UNL     1       0.374  51.130 -17.674  1.00  0.00     0.032 C 
HETATM   13  N1  UNL     1       0.721  51.140 -16.423  1.00  0.00    -0.271 N 
ATOM     14  H1  UNL     1       0.588  50.354 -15.788  1.00  0.00     0.194 HD
HETATM   15  C25 UNL     1      -0.304  49.868 -18.180  1.00  0.00     0.060 C 
HETATM   16  C26 UNL     1      -0.687  49.912 -19.659  1.00  0.00     0.020 C 
HETATM   17  C27 UNL     1      -1.256  51.285 -20.092  1.00  0.00    -0.016 C 
HETATM   18  C28 UNL     1      -2.535  51.614 -19.277  1.00  0.00     0.020 C 
HETATM   19  C29 UNL     1      -1.636  51.359 -21.620  1.00  0.00     0.002 C 
HETATM   20  C30 UNL     1      -2.583  50.234 -22.100  1.00  0.00     0.007 C 
HETATM   21  C31 UNL     1      -2.437  49.884 -23.584  1.00  0.00     0.014 C 
HETATM   22  C32 UNL     1      -2.197  51.109 -24.499  1.00  0.00     0.003 C 
HETATM   23  C33 UNL     1      -3.445  52.020 -24.459  1.00  0.00     0.020 C 
ENDROOT
BRANCH   3  24
HETATM   24  O1  UNL     1      -2.045  51.821 -26.850  1.00  0.00    -0.377 OA
HETATM   25  H2  UNL     1      -1.915  51.492 -27.756  1.00  0.00     0.211 HD
ENDBRANCH   3  24
BRANCH  13  26
HETATM   26  O2  UNL     1       1.303  52.362 -16.049  1.00  0.00    -0.271 OA
BRANCH  26  27
HETATM   27  C13 UNL     1       2.432  52.089 -15.225  1.00  0.00     0.303 C 
BRANCH  27  28
HETATM   28  C14 UNL     1       1.974  51.718 -13.824  1.00  0.00     0.244 C 
HETATM   29  O3  UNL     1       2.280  50.659 -13.284  1.00  0.00    -0.271 OA
HETATM   30  N2  UNL     1       1.237  52.706 -13.197  1.00  0.00    -0.354 N 
HETATM   31  H16 UNL     1       1.103  53.583 -13.700  1.00  0.00     0.162 HD
BRANCH  30  32
HETATM   32  C15 UNL     1       0.885  52.652 -11.781  1.00  0.00     0.098 C 
BRANCH  32  33
HETATM   33  C16 UNL     1      -0.621  52.851 -11.575  1.00  0.00     0.135 C 
BRANCH  33  34
HETATM   34  C17 UNL     1      -1.475  51.753 -12.135  1.00  0.00     0.141 C 
HETATM   35  O4  UNL     1      -2.158  50.974 -11.493  1.00  0.00    -0.650 OA
BRANCH  34  36
HETATM   36  O5  UNL     1      -1.426  51.683 -13.481  1.00  0.00    -0.776 OA
HETATM   37  H20 UNL     1      -1.985  50.905 -13.701  1.00  0.00     0.167 HD
ENDBRANCH  34  36
ENDBRANCH  33  34
ENDBRANCH  32  33
BRANCH  32  38
HETATM   38  C18 UNL     1       1.832  53.539 -10.923  1.00  0.00     0.014 C 
HETATM   39  C19 UNL     1       1.288  54.941 -10.592  1.00  0.00     0.033 C 
HETATM   40  C20 UNL     1       1.925  55.527  -9.336  1.00  0.00     0.169 C 
HETATM   41  O6  UNL     1       3.278  55.105  -9.218  1.00  0.00    -0.381 OA
HETATM   42  C21 UNL     1       3.436  53.701  -8.961  1.00  0.00     0.054 C 
HETATM   43  C22 UNL     1       4.812  53.321  -9.524  1.00  0.00     0.045 C 
HETATM   44  C23 UNL     1       3.436  53.473  -7.443  1.00  0.00     0.045 C 
HETATM   45  C24 UNL     1       2.329  52.857  -9.639  1.00  0.00     0.044 C 
ENDBRANCH  32  38
ENDBRANCH  30  32
ENDBRANCH  27  28
ENDBRANCH  26  27
ENDBRANCH  13  26
TORSDOF 9
ENDMDL
MODEL 9
REMARK minimizedAffinity -8.58415508
REMARK CNNscore 0.241110176
REMARK CNNaffinity 6.44698477
REMARK  9 active torsions:
REMARK  status: ('A' for Active; 'I' for Inactive)
REMARK    1  A    between atoms: C3_3  and  O1_4 
REMARK    2  A    between atoms: N1_14  and  O2_16 
REMARK    3  A    between atoms: O2_16  and  C13_17 
REMARK    4  A    between atoms: C13_17  and  C14_18 
REMARK       I    between atoms: C14_18  and  N2_20 
REMARK    5  A    between atoms: N2_20  and  C15_21 
REMARK    6  A    between atoms: C15_21  and  C16_22 
REMARK    7  A    between atoms: C15_21  and  C18_26 
REMARK    8  A    between atoms: C16_22  and  C17_23 
REMARK    9  A    between atoms: C17_23  and  O5_25 
ROOT
HETATM    1  C1  UNL     1       2.432  51.471 -27.663  1.00  0.00     0.015 C 
HETATM    2  C2  UNL     1       1.589  52.020 -27.007  1.00  0.00    -0.078 C 
HETATM    3  C3  UNL     1       0.563  52.725 -26.223  1.00  0.00     0.128 C 
HETATM    4  C4  UNL     1       0.970  52.908 -24.762  1.00  0.00     0.052 C 
HETATM    5  C5  UNL     1      -0.326  53.349 -24.093  1.00  0.00     0.010 C 
HETATM    6  C6  UNL     1      -1.460  52.599 -24.829  1.00  0.00     0.002 C 
HETATM    7  C7  UNL     1      -2.154  51.571 -23.884  1.00  0.00    -0.004 C 
HETATM    8  C8  UNL     1      -3.048  52.316 -22.860  1.00  0.00     0.010 C 
HETATM    9  C9  UNL     1      -4.526  51.933 -22.938  1.00  0.00     0.035 C 
HETATM   10  C10 UNL     1      -4.638  50.442 -22.805  1.00  0.00    -0.069 C 
HETATM   11  C11 UNL     1      -5.262  49.894 -21.747  1.00  0.00     0.030 C 
HETATM   12  C12 UNL     1      -5.224  48.422 -21.539  1.00  0.00     0.032 C 
HETATM   13  N1  UNL     1      -6.057  47.738 -20.816  1.00  0.00    -0.271 N 
ATOM     14  H1  UNL     1      -5.997  46.730 -20.676  1.00  0.00     0.194 HD
HETATM   15  C25 UNL     1      -4.125  47.635 -22.235  1.00  0.00     0.060 C 
HETATM   16  C26 UNL     1      -3.173  48.492 -23.069  1.00  0.00     0.020 C 
HETATM   17  C27 UNL     1      -3.901  49.608 -23.856  1.00  0.00    -0.016 C 
HETATM   18  C28 UNL     1      -4.932  48.985 -24.835  1.00  0.00     0.020 C 
HETATM   19  C29 UNL     1      -2.933  50.519 -24.705  1.00  0.00     0.002 C 
HETATM   20  C30 UNL     1      -1.995  49.742 -25.658  1.00  0.00     0.007 C 
HETATM   21  C31 UNL     1      -0.676  50.460 -25.961  1.00  0.00     0.014 C 
HETATM   22  C32 UNL     1      -0.817  51.992 -26.125  1.00  0.00     0.003 C 
HETATM   23  C33 UNL     1      -1.689  52.289 -27.367  1.00  0.00     0.020 C 
ENDROOT
BRANCH   3  24
HETATM   24  O1  UNL     1       0.395  54.031 -26.784  1.00  0.00    -0.377 OA
HETATM   25  H2  UNL     1       1.286  54.396 -26.920  1.00  0.00     0.211 HD
ENDBRANCH   3  24
BRANCH  13  26
HETATM   26  O2  UNL     1      -7.051  48.552 -20.249  1.00  0.00    -0.271 OA
BRANCH  26  27
HETATM   27  C13 UNL     1      -8.005  47.714 -19.605  1.00  0.00     0.303 C 
BRANCH  27  28
HETATM   28  C14 UNL     1      -9.080  47.293 -20.595  1.00  0.00     0.244 C 
HETATM   29  O3  UNL     1      -9.079  47.655 -21.768  1.00  0.00    -0.271 OA
HETATM   30  N2  UNL     1     -10.014  46.423 -20.068  1.00  0.00    -0.354 N 
HETATM   31  H16 UNL     1      -9.884  46.119 -19.103  1.00  0.00     0.162 HD
BRANCH  30  32
HETATM   32  C15 UNL     1     -10.999  45.726 -20.891  1.00  0.00     0.098 C 
BRANCH  32  33
HETATM   33  C16 UNL     1     -10.334  45.021 -22.078  1.00  0.00     0.135 C 
BRANCH  33  34
HETATM   34  C17 UNL     1      -9.720  43.694 -21.748  1.00  0.00     0.141 C 
HETATM   35  O4  UNL     1      -9.641  42.732 -22.493  1.00  0.00    -0.650 OA
BRANCH  34  36
HETATM   36  O5  UNL     1      -9.236  43.636 -20.490  1.00  0.00    -0.776 OA
HETATM   37  H20 UNL     1      -8.912  42.712 -20.401  1.00  0.00     0.167 HD
ENDBRANCH  34  36
ENDBRANCH  33  34
ENDBRANCH  32  33
BRANCH  32  38
HETATM   38  C18 UNL     1     -12.221  46.634 -21.211  1.00  0.00     0.014 C 
HETATM   39  C19 UNL     1     -12.723  46.561 -22.666  1.00  0.00     0.033 C 
HETATM   40  C20 UNL     1     -14.186  46.970 -22.794  1.00  0.00     0.169 C 
HETATM   41  O6  UNL     1     -14.507  47.983 -21.847  1.00  0.00    -0.381 OA
HETATM   42  C21 UNL     1     -14.478  47.542 -20.481  1.00  0.00     0.054 C 
HETATM   43  C22 UNL     1     -14.167  48.788 -19.641  1.00  0.00     0.045 C 
HETATM   44  C23 UNL     1     -15.869  47.016 -20.100  1.00  0.00     0.045 C 
HETATM   45  C24 UNL     1     -13.401  46.454 -20.244  1.00  0.00     0.044 C 
ENDBRANCH  32  38
ENDBRANCH  30  32
ENDBRANCH  27  28
ENDBRANCH  26  27
ENDBRANCH  13  26
TORSDOF 9
ENDMDL
