MODEL 1
REMARK minimizedAffinity -9.88199329
REMARK  7 active torsions:
REMARK  status: ('A' for Active; 'I' for Inactive)
REMARK    1  A    between atoms: C2_2  and  C3_3 
REMARK    2  A    between atoms: C2_2  and  C9_11 
REMARK    3  A    between atoms: C3_3  and  C4_4 
REMARK    4  A    between atoms: C5_5  and  C6_6 
REMARK    5  A    between atoms: C6_6  and  O1_9 
REMARK    6  A    between atoms: O1_9  and  O2_10 
REMARK    7  A    between atoms: C10_12  and  O3_13 
ROOT
HETATM    1  C9  UNL     1      -5.608   6.725  14.972  1.00  0.00     0.028 C 
HETATM    2  C10 UNL     1      -6.126   7.985  14.202  1.00  0.00     0.124 C 
HETATM    3  C11 UNL     1      -4.966   8.505  13.327  1.00  0.00     0.046 C 
HETATM    4  C12 UNL     1      -3.713   7.804  13.888  1.00  0.00    -0.010 C 
HETATM    5  C13 UNL     1      -3.260   8.620  15.141  1.00  0.00     0.021 C 
HETATM    6  C14 UNL     1      -2.482   7.717  12.985  1.00  0.00    -0.070 C 
HETATM    7  C15 UNL     1      -2.155   8.711  12.133  1.00  0.00    -0.022 C 
HETATM    8  C16 UNL     1      -0.910   8.739  11.289  1.00  0.00     0.034 C 
HETATM    9  C17 UNL     1      -0.174   7.389  11.299  1.00  0.00     0.013 C 
HETATM   10  C18 UNL     1       1.128   7.314  10.442  1.00  0.00     0.018 C 
HETATM   11  C19 UNL     1       0.833   7.736   8.986  1.00  0.00     0.023 C 
HETATM   12  C20 UNL     1       2.296   8.162  10.960  1.00  0.00     0.023 C 
HETATM   13  C21 UNL     1       1.592   5.846  10.409  1.00  0.00     0.135 C 
HETATM   14  O4  UNL     1       2.444   5.447   9.613  1.00  0.00    -0.297 OA
HETATM   15  C22 UNL     1       0.951   4.883  11.388  1.00  0.00     0.080 C 
HETATM   16  C23 UNL     1       0.833   5.541  12.755  1.00  0.00     0.017 C 
HETATM   17  C24 UNL     1      -0.074   6.807  12.764  1.00  0.00    -0.031 C 
HETATM   18  C25 UNL     1       0.531   7.799  13.794  1.00  0.00     0.016 C 
HETATM   19  C26 UNL     1      -1.572   6.484  13.173  1.00  0.00     0.024 C 
HETATM   20  C27 UNL     1      -1.759   5.831  14.564  1.00  0.00     0.010 C 
HETATM   21  C28 UNL     1      -3.226   5.579  14.992  1.00  0.00     0.011 C 
HETATM   22  C29 UNL     1      -4.284   6.376  14.197  1.00  0.00    -0.026 C 
HETATM   23  C30 UNL     1      -4.672   5.572  12.913  1.00  0.00     0.016 C 
ENDROOT
BRANCH   1  24
HETATM   24  C2  UNL     1      -6.700   5.612  15.129  1.00  0.00    -0.008 C 
HETATM   25  C1  UNL     1      -7.825   6.055  16.077  1.00  0.00     0.011 C 
BRANCH  24  26
HETATM   26  C3  UNL     1      -7.300   5.210  13.755  1.00  0.00     0.031 C 
BRANCH  26  27
HETATM   27  C4  UNL     1      -8.577   5.927  13.415  1.00  0.00    -0.027 C 
HETATM   28  C5  UNL     1      -9.324   6.606  14.304  1.00  0.00     0.009 C 
BRANCH  28  29
HETATM   29  C6  UNL     1     -10.618   7.352  14.023  1.00  0.00     0.106 C 
HETATM   30  C7  UNL     1     -10.863   7.339  12.508  1.00  0.00     0.053 C 
HETATM   31  C8  UNL     1     -10.527   8.809  14.498  1.00  0.00     0.053 C 
BRANCH  29  32
HETATM   32  O1  UNL     1     -11.767   6.696  14.602  1.00  0.00    -0.229 OA
BRANCH  32  33
HETATM   33  O2  UNL     1     -12.425   7.634  15.509  1.00  0.00    -0.249 OA
HETATM   34  H15 UNL     1     -13.287   7.632  15.057  1.00  0.00     0.253 HD
ENDBRANCH  32  33
ENDBRANCH  29  32
ENDBRANCH  28  29
ENDBRANCH  26  27
ENDBRANCH  24  26
ENDBRANCH   1  24
BRANCH   2  35
HETATM   35  O3  UNL     1      -6.488   9.020  15.112  1.00  0.00    -0.395 OA
HETATM   36  H18 UNL     1      -7.197   8.694  15.689  1.00  0.00     0.210 HD
ENDBRANCH   2  35
TORSDOF 7
ENDMDL
MODEL 2
REMARK minimizedAffinity -9.83540154
REMARK  7 active torsions:
REMARK  status: ('A' for Active; 'I' for Inactive)
REMARK    1  A    between atoms: C2_2  and  C3_3 
REMARK    2  A    between atoms: C2_2  and  C9_11 
REMARK    3  A    between atoms: C3_3  and  C4_4 
REMARK    4  A    between atoms: C5_5  and  C6_6 
REMARK    5  A    between atoms: C6_6  and  O1_9 
REMARK    6  A    between atoms: O1_9  and  O2_10 
REMARK    7  A    between atoms: C10_12  and  O3_13 
ROOT
HETATM    1  C9  UNL     1      -5.277   6.806  14.938  1.00  0.00     0.028 C 
HETATM    2  C10 UNL     1      -5.908   7.880  13.991  1.00  0.00     0.124 C 
HETATM    3  C11 UNL     1      -4.781   8.428  13.093  1.00  0.00     0.046 C 
HETATM    4  C12 UNL     1      -3.479   7.972  13.782  1.00  0.00    -0.010 C 
HETATM    5  C13 UNL     1      -3.192   8.993  14.930  1.00  0.00     0.021 C 
HETATM    6  C14 UNL     1      -2.204   7.930  12.939  1.00  0.00    -0.070 C 
HETATM    7  C15 UNL     1      -1.961   8.841  11.974  1.00  0.00    -0.022 C 
HETATM    8  C16 UNL     1      -0.690   8.921  11.174  1.00  0.00     0.034 C 
HETATM    9  C17 UNL     1       0.206   7.690  11.388  1.00  0.00     0.013 C 
HETATM   10  C18 UNL     1       1.549   7.673  10.590  1.00  0.00     0.018 C 
HETATM   11  C19 UNL     1       1.275   7.865   9.083  1.00  0.00     0.023 C 
HETATM   12  C20 UNL     1       2.575   8.724  11.029  1.00  0.00     0.023 C 
HETATM   13  C21 UNL     1       2.191   6.286  10.768  1.00  0.00     0.135 C 
HETATM   14  O4  UNL     1       3.123   5.901  10.060  1.00  0.00    -0.297 OA
HETATM   15  C22 UNL     1       1.626   5.381  11.845  1.00  0.00     0.080 C 
HETATM   16  C23 UNL     1       1.362   6.187  13.108  1.00  0.00     0.017 C 
HETATM   17  C24 UNL     1       0.306   7.317  12.919  1.00  0.00    -0.031 C 
HETATM   18  C25 UNL     1       0.732   8.501  13.828  1.00  0.00     0.016 C 
HETATM   19  C26 UNL     1      -1.160   6.858  13.319  1.00  0.00     0.024 C 
HETATM   20  C27 UNL     1      -1.333   6.369  14.778  1.00  0.00     0.010 C 
HETATM   21  C28 UNL     1      -2.776   5.987  15.187  1.00  0.00     0.011 C 
HETATM   22  C29 UNL     1      -3.884   6.534  14.259  1.00  0.00    -0.026 C 
HETATM   23  C30 UNL     1      -4.106   5.529  13.082  1.00  0.00     0.016 C 
ENDROOT
BRANCH   1  24
HETATM   24  C2  UNL     1      -6.231   5.590  15.205  1.00  0.00    -0.008 C 
HETATM   25  C1  UNL     1      -7.305   5.935  16.248  1.00  0.00     0.011 C 
BRANCH  24  26
HETATM   26  C3  UNL     1      -6.907   5.102  13.896  1.00  0.00     0.031 C 
BRANCH  26  27
HETATM   27  C4  UNL     1      -6.081   4.117  13.117  1.00  0.00    -0.027 C 
HETATM   28  C5  UNL     1      -6.488   3.516  11.984  1.00  0.00     0.009 C 
BRANCH  28  29
HETATM   29  C6  UNL     1      -5.701   2.517  11.152  1.00  0.00     0.106 C 
HETATM   30  C7  UNL     1      -6.429   1.167  11.203  1.00  0.00     0.053 C 
HETATM   31  C8  UNL     1      -4.281   2.335  11.708  1.00  0.00     0.053 C 
BRANCH  29  32
HETATM   32  O1  UNL     1      -5.661   2.877   9.754  1.00  0.00    -0.229 OA
BRANCH  32  33
HETATM   33  O2  UNL     1      -4.323   3.380   9.446  1.00  0.00    -0.249 OA
HETATM   34  H15 UNL     1      -4.117   2.720   8.760  1.00  0.00     0.253 HD
ENDBRANCH  32  33
ENDBRANCH  29  32
ENDBRANCH  28  29
ENDBRANCH  26  27
ENDBRANCH  24  26
ENDBRANCH   1  24
BRANCH   2  35
HETATM   35  O3  UNL     1      -6.439   8.967  14.743  1.00  0.00    -0.395 OA
HETATM   36  H18 UNL     1      -7.130   8.629  15.335  1.00  0.00     0.210 HD
ENDBRANCH   2  35
TORSDOF 7
ENDMDL
MODEL 3
REMARK minimizedAffinity -9.41599751
REMARK  7 active torsions:
REMARK  status: ('A' for Active; 'I' for Inactive)
REMARK    1  A    between atoms: C2_2  and  C3_3 
REMARK    2  A    between atoms: C2_2  and  C9_11 
REMARK    3  A    between atoms: C3_3  and  C4_4 
REMARK    4  A    between atoms: C5_5  and  C6_6 
REMARK    5  A    between atoms: C6_6  and  O1_9 
REMARK    6  A    between atoms: O1_9  and  O2_10 
REMARK    7  A    between atoms: C10_12  and  O3_13 
ROOT
HETATM    1  C9  UNL     1       0.948   7.123  11.705  1.00  0.00     0.028 C 
HETATM    2  C10 UNL     1       0.638   5.919  10.756  1.00  0.00     0.124 C 
HETATM    3  C11 UNL     1      -0.763   5.386  11.123  1.00  0.00     0.046 C 
HETATM    4  C12 UNL     1      -1.067   6.010  12.499  1.00  0.00    -0.010 C 
HETATM    5  C13 UNL     1      -0.346   5.126  13.567  1.00  0.00     0.021 C 
HETATM    6  C14 UNL     1      -2.529   6.081  12.942  1.00  0.00    -0.070 C 
HETATM    7  C15 UNL     1      -3.412   5.109  12.632  1.00  0.00    -0.022 C 
HETATM    8  C16 UNL     1      -4.836   5.061  13.114  1.00  0.00     0.034 C 
HETATM    9  C17 UNL     1      -5.263   6.377  13.785  1.00  0.00     0.013 C 
HETATM   10  C18 UNL     1      -6.732   6.432  14.311  1.00  0.00     0.018 C 
HETATM   11  C19 UNL     1      -7.718   6.081  13.175  1.00  0.00     0.023 C 
HETATM   12  C20 UNL     1      -7.028   5.515  15.503  1.00  0.00     0.023 C 
HETATM   13  C21 UNL     1      -7.028   7.879  14.746  1.00  0.00     0.135 C 
HETATM   14  O4  UNL     1      -8.175   8.273  14.968  1.00  0.00    -0.297 OA
HETATM   15  C22 UNL     1      -5.855   8.829  14.880  1.00  0.00     0.080 C 
HETATM   16  C23 UNL     1      -4.698   8.122  15.570  1.00  0.00     0.017 C 
HETATM   17  C24 UNL     1      -4.151   6.896  14.780  1.00  0.00    -0.031 C 
HETATM   18  C25 UNL     1      -3.701   5.839  15.824  1.00  0.00     0.016 C 
HETATM   19  C26 UNL     1      -2.919   7.266  13.851  1.00  0.00     0.024 C 
HETATM   20  C27 UNL     1      -1.692   7.870  14.577  1.00  0.00     0.010 C 
HETATM   21  C28 UNL     1      -0.465   8.166  13.680  1.00  0.00     0.011 C 
HETATM   22  C29 UNL     1      -0.467   7.447  12.313  1.00  0.00    -0.026 C 
HETATM   23  C30 UNL     1      -1.252   8.318  11.279  1.00  0.00     0.016 C 
ENDROOT
BRANCH   1  24
HETATM   24  C2  UNL     1       1.739   8.275  10.993  1.00  0.00    -0.008 C 
HETATM   25  C1  UNL     1       2.703   8.978  11.961  1.00  0.00     0.011 C 
BRANCH  24  26
HETATM   26  C3  UNL     1       2.523   7.746   9.763  1.00  0.00     0.031 C 
BRANCH  26  27
HETATM   27  C4  UNL     1       4.017   7.790   9.929  1.00  0.00    -0.027 C 
HETATM   28  C5  UNL     1       4.678   7.257  10.972  1.00  0.00     0.009 C 
BRANCH  28  29
HETATM   29  C6  UNL     1       6.182   7.266  11.195  1.00  0.00     0.106 C 
HETATM   30  C7  UNL     1       6.460   6.787  12.626  1.00  0.00     0.053 C 
HETATM   31  C8  UNL     1       6.754   8.681  11.026  1.00  0.00     0.053 C 
BRANCH  29  32
HETATM   32  O1  UNL     1       6.870   6.331  10.338  1.00  0.00    -0.229 OA
BRANCH  32  33
HETATM   33  O2  UNL     1       6.258   5.014  10.506  1.00  0.00    -0.249 OA
HETATM   34  H15 UNL     1       5.999   4.897   9.575  1.00  0.00     0.253 HD
ENDBRANCH  32  33
ENDBRANCH  29  32
ENDBRANCH  28  29
ENDBRANCH  26  27
ENDBRANCH  24  26
ENDBRANCH   1  24
BRANCH   2  35
HETATM   35  O3  UNL     1       1.575   4.864  10.955  1.00  0.00    -0.395 OA
HETATM   36  H18 UNL     1       2.465   5.196  10.757  1.00  0.00     0.210 HD
ENDBRANCH   2  35
TORSDOF 7
ENDMDL
MODEL 4
REMARK minimizedAffinity -9.06086349
REMARK  7 active torsions:
REMARK  status: ('A' for Active; 'I' for Inactive)
REMARK    1  A    between atoms: C2_2  and  C3_3 
REMARK    2  A    between atoms: C2_2  and  C9_11 
REMARK    3  A    between atoms: C3_3  and  C4_4 
REMARK    4  A    between atoms: C5_5  and  C6_6 
REMARK    5  A    between atoms: C6_6  and  O1_9 
REMARK    6  A    between atoms: O1_9  and  O2_10 
REMARK    7  A    between atoms: C10_12  and  O3_13 
ROOT
HETATM    1  C9  UNL     1      -4.562   8.293  15.782  1.00  0.00     0.028 C 
HETATM    2  C10 UNL     1      -4.397   9.816  15.465  1.00  0.00     0.124 C 
HETATM    3  C11 UNL     1      -3.090   9.986  14.664  1.00  0.00     0.046 C 
HETATM    4  C12 UNL     1      -2.334   8.657  14.868  1.00  0.00    -0.010 C 
HETATM    5  C13 UNL     1      -1.613   8.755  16.251  1.00  0.00     0.021 C 
HETATM    6  C14 UNL     1      -1.245   8.295  13.859  1.00  0.00    -0.070 C 
HETATM    7  C15 UNL     1      -0.453   9.235  13.301  1.00  0.00    -0.022 C 
HETATM    8  C16 UNL     1       0.699   8.945  12.379  1.00  0.00     0.034 C 
HETATM    9  C17 UNL     1       0.721   7.476  11.926  1.00  0.00     0.013 C 
HETATM   10  C18 UNL     1       1.877   7.076  10.955  1.00  0.00     0.018 C 
HETATM   11  C19 UNL     1       1.881   8.004   9.721  1.00  0.00     0.023 C 
HETATM   12  C20 UNL     1       3.280   7.097  11.575  1.00  0.00     0.023 C 
HETATM   13  C21 UNL     1       1.606   5.646  10.454  1.00  0.00     0.135 C 
HETATM   14  O4  UNL     1       2.210   5.164   9.495  1.00  0.00    -0.297 OA
HETATM   15  C22 UNL     1       0.545   4.837  11.174  1.00  0.00     0.080 C 
HETATM   16  C23 UNL     1       0.683   5.029  12.677  1.00  0.00     0.017 C 
HETATM   17  C24 UNL     1       0.470   6.500  13.142  1.00  0.00    -0.031 C 
HETATM   18  C25 UNL     1       1.418   6.743  14.348  1.00  0.00     0.016 C 
HETATM   19  C26 UNL     1      -1.024   6.791  13.591  1.00  0.00     0.024 C 
HETATM   20  C27 UNL     1      -1.558   5.910  14.746  1.00  0.00     0.010 C 
HETATM   21  C28 UNL     1      -2.992   6.240  15.229  1.00  0.00     0.011 C 
HETATM   22  C29 UNL     1      -3.518   7.630  14.809  1.00  0.00    -0.026 C 
HETATM   23  C30 UNL     1      -4.175   7.521  13.395  1.00  0.00     0.016 C 
ENDROOT
BRANCH   1  24
HETATM   24  C2  UNL     1      -6.053   7.813  15.722  1.00  0.00    -0.008 C 
HETATM   25  C1  UNL     1      -6.794   8.424  14.523  1.00  0.00     0.011 C 
BRANCH  24  26
HETATM   26  C3  UNL     1      -6.147   6.265  15.662  1.00  0.00     0.031 C 
BRANCH  26  27
HETATM   27  C4  UNL     1      -6.925   5.747  14.484  1.00  0.00    -0.027 C 
HETATM   28  C5  UNL     1      -6.730   4.544  13.917  1.00  0.00     0.009 C 
BRANCH  28  29
HETATM   29  C6  UNL     1      -7.484   3.965  12.731  1.00  0.00     0.106 C 
HETATM   30  C7  UNL     1      -6.466   3.317  11.782  1.00  0.00     0.053 C 
HETATM   31  C8  UNL     1      -8.240   5.064  11.970  1.00  0.00     0.053 C 
BRANCH  29  32
HETATM   32  O1  UNL     1      -8.380   2.901  13.115  1.00  0.00    -0.229 OA
BRANCH  32  33
HETATM   33  O2  UNL     1      -7.819   1.634  12.648  1.00  0.00    -0.249 OA
HETATM   34  H15 UNL     1      -7.760   1.214  13.525  1.00  0.00     0.253 HD
ENDBRANCH  32  33
ENDBRANCH  29  32
ENDBRANCH  28  29
ENDBRANCH  26  27
ENDBRANCH  24  26
ENDBRANCH   1  24
BRANCH   2  35
HETATM   35  O3  UNL     1      -4.278  10.573  16.666  1.00  0.00    -0.395 OA
HETATM   36  H18 UNL     1      -5.083  10.450  17.194  1.00  0.00     0.210 HD
ENDBRANCH   2  35
TORSDOF 7
ENDMDL
MODEL 5
REMARK minimizedAffinity -8.94951344
REMARK  7 active torsions:
REMARK  status: ('A' for Active; 'I' for Inactive)
REMARK    1  A    between atoms: C2_2  and  C3_3 
REMARK    2  A    between atoms: C2_2  and  C9_11 
REMARK    3  A    between atoms: C3_3  and  C4_4 
REMARK    4  A    between atoms: C5_5  and  C6_6 
REMARK    5  A    between atoms: C6_6  and  O1_9 
REMARK    6  A    between atoms: O1_9  and  O2_10 
REMARK    7  A    between atoms: C10_12  and  O3_13 
ROOT
HETATM    1  C9  UNL     1      -3.196   8.067  15.301  1.00  0.00     0.028 C 
HETATM    2  C10 UNL     1      -2.221   8.442  16.466  1.00  0.00     0.124 C 
HETATM    3  C11 UNL     1      -0.781   8.298  15.932  1.00  0.00     0.046 C 
HETATM    4  C12 UNL     1      -0.929   7.482  14.632  1.00  0.00    -0.010 C 
HETATM    5  C13 UNL     1      -1.026   5.979  15.050  1.00  0.00     0.021 C 
HETATM    6  C14 UNL     1       0.208   7.554  13.613  1.00  0.00    -0.070 C 
HETATM    7  C15 UNL     1       1.499   7.649  13.994  1.00  0.00    -0.022 C 
HETATM    8  C16 UNL     1       2.673   7.625  13.054  1.00  0.00     0.034 C 
HETATM    9  C17 UNL     1       2.238   7.746  11.584  1.00  0.00     0.013 C 
HETATM   10  C18 UNL     1       3.389   7.742  10.528  1.00  0.00     0.018 C 
HETATM   11  C19 UNL     1       4.420   8.842  10.860  1.00  0.00     0.023 C 
HETATM   12  C20 UNL     1       4.135   6.410  10.389  1.00  0.00     0.023 C 
HETATM   13  C21 UNL     1       2.777   8.085   9.157  1.00  0.00     0.135 C 
HETATM   14  O4  UNL     1       3.475   8.395   8.190  1.00  0.00    -0.297 OA
HETATM   15  C22 UNL     1       1.268   8.047   9.030  1.00  0.00     0.080 C 
HETATM   16  C23 UNL     1       0.722   6.818   9.743  1.00  0.00     0.017 C 
HETATM   17  C24 UNL     1       1.010   6.804  11.274  1.00  0.00    -0.031 C 
HETATM   18  C25 UNL     1       1.234   5.324  11.685  1.00  0.00     0.016 C 
HETATM   19  C26 UNL     1      -0.186   7.404  12.127  1.00  0.00     0.024 C 
HETATM   20  C27 UNL     1      -1.551   6.695  11.956  1.00  0.00     0.010 C 
HETATM   21  C28 UNL     1      -2.700   7.239  12.841  1.00  0.00     0.011 C 
HETATM   22  C29 UNL     1      -2.249   8.093  14.045  1.00  0.00    -0.026 C 
HETATM   23  C30 UNL     1      -2.093   9.580  13.587  1.00  0.00     0.016 C 
ENDROOT
BRANCH   1  24
HETATM   24  C2  UNL     1      -4.493   8.948  15.281  1.00  0.00    -0.008 C 
HETATM   25  C1  UNL     1      -4.157  10.443  15.173  1.00  0.00     0.011 C 
BRANCH  24  26
HETATM   26  C3  UNL     1      -5.437   8.537  14.120  1.00  0.00     0.031 C 
BRANCH  26  27
HETATM   27  C4  UNL     1      -6.079   7.190  14.307  1.00  0.00    -0.027 C 
HETATM   28  C5  UNL     1      -6.314   6.318  13.310  1.00  0.00     0.009 C 
BRANCH  28  29
HETATM   29  C6  UNL     1      -6.954   4.945  13.435  1.00  0.00     0.106 C 
HETATM   30  C7  UNL     1      -7.344   4.726  14.903  1.00  0.00     0.053 C 
HETATM   31  C8  UNL     1      -5.974   3.841  13.011  1.00  0.00     0.053 C 
BRANCH  29  32
HETATM   32  O1  UNL     1      -8.189   4.845  12.693  1.00  0.00    -0.229 OA
BRANCH  32  33
HETATM   33  O2  UNL     1      -8.823   3.570  13.023  1.00  0.00    -0.249 OA
HETATM   34  H15 UNL     1      -9.652   3.950  13.366  1.00  0.00     0.253 HD
ENDBRANCH  32  33
ENDBRANCH  29  32
ENDBRANCH  28  29
ENDBRANCH  26  27
ENDBRANCH  24  26
ENDBRANCH   1  24
BRANCH   2  35
HETATM   35  O3  UNL     1      -2.375   7.545  17.562  1.00  0.00    -0.395 OA
HETATM   36  H18 UNL     1      -3.286   7.603  17.888  1.00  0.00     0.210 HD
ENDBRANCH   2  35
TORSDOF 7
ENDMDL
MODEL 6
REMARK minimizedAffinity -8.78689003
REMARK  7 active torsions:
REMARK  status: ('A' for Active; 'I' for Inactive)
REMARK    1  A    between atoms: C2_2  and  C3_3 
REMARK    2  A    between atoms: C2_2  and  C9_11 
REMARK    3  A    between atoms: C3_3  and  C4_4 
REMARK    4  A    between atoms: C5_5  and  C6_6 
REMARK    5  A    between atoms: C6_6  and  O1_9 
REMARK    6  A    between atoms: O1_9  and  O2_10 
REMARK    7  A    between atoms: C10_12  and  O3_13 
ROOT
HETATM    1  C9  UNL     1      -0.809   7.091  13.121  1.00  0.00     0.028 C 
HETATM    2  C10 UNL     1      -1.010   5.925  12.098  1.00  0.00     0.124 C 
HETATM    3  C11 UNL     1      -2.479   5.464  12.199  1.00  0.00     0.046 C 
HETATM    4  C12 UNL     1      -2.988   6.078  13.519  1.00  0.00    -0.010 C 
HETATM    5  C13 UNL     1      -2.512   5.134  14.670  1.00  0.00     0.021 C 
HETATM    6  C14 UNL     1      -4.498   6.222  13.702  1.00  0.00    -0.070 C 
HETATM    7  C15 UNL     1      -5.363   5.308  13.215  1.00  0.00    -0.022 C 
HETATM    8  C16 UNL     1      -6.850   5.331  13.440  1.00  0.00     0.034 C 
HETATM    9  C17 UNL     1      -7.319   6.656  14.064  1.00  0.00     0.013 C 
HETATM   10  C18 UNL     1      -8.853   6.783  14.327  1.00  0.00     0.018 C 
HETATM   11  C19 UNL     1      -9.640   6.511  13.027  1.00  0.00     0.023 C 
HETATM   12  C20 UNL     1      -9.401   5.861  15.423  1.00  0.00     0.023 C 
HETATM   13  C21 UNL     1      -9.145   8.236  14.746  1.00  0.00     0.135 C 
HETATM   14  O4  UNL     1     -10.290   8.689  14.776  1.00  0.00    -0.297 OA
HETATM   15  C22 UNL     1      -7.965   9.115  15.110  1.00  0.00     0.080 C 
HETATM   16  C23 UNL     1      -6.986   8.331  15.971  1.00  0.00     0.017 C 
HETATM   17  C24 UNL     1      -6.374   7.092  15.252  1.00  0.00    -0.031 C 
HETATM   18  C25 UNL     1      -6.169   5.991  16.327  1.00  0.00     0.016 C 
HETATM   19  C26 UNL     1      -4.980   7.409  14.564  1.00  0.00     0.024 C 
HETATM   20  C27 UNL     1      -3.870   7.929  15.510  1.00  0.00     0.010 C 
HETATM   21  C28 UNL     1      -2.491   8.173  14.849  1.00  0.00     0.011 C 
HETATM   22  C29 UNL     1      -2.289   7.482  13.483  1.00  0.00    -0.026 C 
HETATM   23  C30 UNL     1      -2.834   8.416  12.353  1.00  0.00     0.016 C 
ENDROOT
BRANCH   1  24
HETATM   24  C2  UNL     1       0.153   8.210  12.592  1.00  0.00    -0.008 C 
HETATM   25  C1  UNL     1       1.624   7.874  12.886  1.00  0.00     0.011 C 
BRANCH  24  26
HETATM   26  C3  UNL     1      -0.037   8.447  11.070  1.00  0.00     0.031 C 
BRANCH  26  27
HETATM   27  C4  UNL     1       1.189   8.152  10.251  1.00  0.00    -0.027 C 
HETATM   28  C5  UNL     1       1.168   7.829   8.946  1.00  0.00     0.009 C 
BRANCH  28  29
HETATM   29  C6  UNL     1       2.369   7.523   8.066  1.00  0.00     0.106 C 
HETATM   30  C7  UNL     1       3.220   8.796   7.952  1.00  0.00     0.053 C 
HETATM   31  C8  UNL     1       1.926   7.096   6.659  1.00  0.00     0.053 C 
BRANCH  29  32
HETATM   32  O1  UNL     1       3.241   6.532   8.650  1.00  0.00    -0.229 OA
BRANCH  32  33
HETATM   33  O2  UNL     1       2.906   5.229   8.076  1.00  0.00    -0.249 OA
HETATM   34  H15 UNL     1       3.787   5.047   7.704  1.00  0.00     0.253 HD
ENDBRANCH  32  33
ENDBRANCH  29  32
ENDBRANCH  28  29
ENDBRANCH  26  27
ENDBRANCH  24  26
ENDBRANCH   1  24
BRANCH   2  35
HETATM   35  O3  UNL     1      -0.178   4.815  12.427  1.00  0.00    -0.395 OA
HETATM   36  H18 UNL     1       0.749   5.100  12.396  1.00  0.00     0.210 HD
ENDBRANCH   2  35
TORSDOF 7
ENDMDL
MODEL 7
REMARK minimizedAffinity -8.66026211
REMARK  7 active torsions:
REMARK  status: ('A' for Active; 'I' for Inactive)
REMARK    1  A    between atoms: C2_2  and  C3_3 
REMARK    2  A    between atoms: C2_2  and  C9_11 
REMARK    3  A    between atoms: C3_3  and  C4_4 
REMARK    4  A    between atoms: C5_5  and  C6_6 
REMARK    5  A    between atoms: C6_6  and  O1_9 
REMARK    6  A    between atoms: O1_9  and  O2_10 
REMARK    7  A    between atoms: C10_12  and  O3_13 
ROOT
HETATM    1  C9  UNL     1       2.542   7.182  10.141  1.00  0.00     0.028 C 
HETATM    2  C10 UNL     1       2.665   5.623  10.107  1.00  0.00     0.124 C 
HETATM    3  C11 UNL     1       1.496   5.046  10.932  1.00  0.00     0.046 C 
HETATM    4  C12 UNL     1       0.962   6.246  11.740  1.00  0.00    -0.010 C 
HETATM    5  C13 UNL     1       1.891   6.402  12.986  1.00  0.00     0.021 C 
HETATM    6  C14 UNL     1      -0.460   6.154  12.294  1.00  0.00    -0.070 C 
HETATM    7  C15 UNL     1      -0.975   4.989  12.737  1.00  0.00    -0.022 C 
HETATM    8  C16 UNL     1      -2.325   4.842  13.384  1.00  0.00     0.034 C 
HETATM    9  C17 UNL     1      -3.172   6.118  13.250  1.00  0.00     0.013 C 
HETATM   10  C18 UNL     1      -4.599   6.062  13.882  1.00  0.00     0.018 C 
HETATM   11  C19 UNL     1      -5.382   4.854  13.322  1.00  0.00     0.023 C 
HETATM   12  C20 UNL     1      -4.627   5.985  15.413  1.00  0.00     0.023 C 
HETATM   13  C21 UNL     1      -5.356   7.335  13.462  1.00  0.00     0.135 C 
HETATM   14  O4  UNL     1      -6.575   7.447  13.603  1.00  0.00    -0.297 OA
HETATM   15  C22 UNL     1      -4.553   8.460  12.842  1.00  0.00     0.080 C 
HETATM   16  C23 UNL     1      -3.255   8.650  13.613  1.00  0.00     0.017 C 
HETATM   17  C24 UNL     1      -2.319   7.405  13.580  1.00  0.00    -0.031 C 
HETATM   18  C25 UNL     1      -1.590   7.342  14.949  1.00  0.00     0.016 C 
HETATM   19  C26 UNL     1      -1.239   7.482  12.420  1.00  0.00     0.024 C 
HETATM   20  C27 UNL     1      -0.294   8.707  12.466  1.00  0.00     0.010 C 
HETATM   21  C28 UNL     1       0.803   8.745  11.375  1.00  0.00     0.011 C 
HETATM   22  C29 UNL     1       1.078   7.394  10.678  1.00  0.00    -0.026 C 
HETATM   23  C30 UNL     1       0.092   7.230   9.476  1.00  0.00     0.016 C 
ENDROOT
BRANCH   1  24
HETATM   24  C2  UNL     1       2.947   7.858   8.785  1.00  0.00    -0.008 C 
HETATM   25  C1  UNL     1       1.755   8.575   8.133  1.00  0.00     0.011 C 
BRANCH  24  26
HETATM   26  C3  UNL     1       4.119   8.858   8.980  1.00  0.00     0.031 C 
BRANCH  26  27
HETATM   27  C4  UNL     1       4.731   8.817  10.352  1.00  0.00    -0.027 C 
HETATM   28  C5  UNL     1       6.002   8.457  10.604  1.00  0.00     0.009 C 
BRANCH  28  29
HETATM   29  C6  UNL     1       6.678   8.399  11.965  1.00  0.00     0.106 C 
HETATM   30  C7  UNL     1       5.617   8.047  13.016  1.00  0.00     0.053 C 
HETATM   31  C8  UNL     1       7.305   9.753  12.326  1.00  0.00     0.053 C 
BRANCH  29  32
HETATM   32  O1  UNL     1       7.661   7.344  12.045  1.00  0.00    -0.229 OA
BRANCH  32  33
HETATM   33  O2  UNL     1       8.675   7.732  13.024  1.00  0.00    -0.249 OA
HETATM   34  H15 UNL     1       8.550   6.969  13.615  1.00  0.00     0.253 HD
ENDBRANCH  32  33
ENDBRANCH  29  32
ENDBRANCH  28  29
ENDBRANCH  26  27
ENDBRANCH  24  26
ENDBRANCH   1  24
BRANCH   2  35
HETATM   35  O3  UNL     1       3.883   5.199  10.713  1.00  0.00    -0.395 OA
HETATM   36  H18 UNL     1       4.626   5.581  10.221  1.00  0.00     0.210 HD
ENDBRANCH   2  35
TORSDOF 7
ENDMDL
MODEL 8
REMARK minimizedAffinity -8.60133171
REMARK  7 active torsions:
REMARK  status: ('A' for Active; 'I' for Inactive)
REMARK    1  A    between atoms: C2_2  and  C3_3 
REMARK    2  A    between atoms: C2_2  and  C9_11 
REMARK    3  A    between atoms: C3_3  and  C4_4 
REMARK    4  A    between atoms: C5_5  and  C6_6 
REMARK    5  A    between atoms: C6_6  and  O1_9 
REMARK    6  A    between atoms: O1_9  and  O2_10 
REMARK    7  A    between atoms: C10_12  and  O3_13 
ROOT
HETATM    1  C9  UNL     1      -2.267   7.171  14.130  1.00  0.00     0.028 C 
HETATM    2  C10 UNL     1      -2.640   8.465  14.926  1.00  0.00     0.124 C 
HETATM    3  C11 UNL     1      -1.370   9.335  15.020  1.00  0.00     0.046 C 
HETATM    4  C12 UNL     1      -0.218   8.384  14.640  1.00  0.00    -0.010 C 
HETATM    5  C13 UNL     1       0.133   7.563  15.923  1.00  0.00     0.021 C 
HETATM    6  C14 UNL     1       1.098   9.009  14.177  1.00  0.00    -0.070 C 
HETATM    7  C15 UNL     1       1.561  10.162  14.704  1.00  0.00    -0.022 C 
HETATM    8  C16 UNL     1       2.890  10.782  14.370  1.00  0.00     0.034 C 
HETATM    9  C17 UNL     1       3.558  10.102  13.164  1.00  0.00     0.013 C 
HETATM   10  C18 UNL     1       4.941  10.683  12.730  1.00  0.00     0.018 C 
HETATM   11  C19 UNL     1       4.825  12.202  12.475  1.00  0.00     0.023 C 
HETATM   12  C20 UNL     1       6.083  10.450  13.727  1.00  0.00     0.023 C 
HETATM   13  C21 UNL     1       5.338  10.023  11.397  1.00  0.00     0.135 C 
HETATM   14  O4  UNL     1       6.252  10.462  10.697  1.00  0.00    -0.297 OA
HETATM   15  C22 UNL     1       4.551   8.807  10.952  1.00  0.00     0.080 C 
HETATM   16  C23 UNL     1       4.316   7.883  12.138  1.00  0.00     0.017 C 
HETATM   17  C24 UNL     1       3.472   8.529  13.276  1.00  0.00    -0.031 C 
HETATM   18  C25 UNL     1       4.006   7.966  14.621  1.00  0.00     0.016 C 
HETATM   19  C26 UNL     1       1.925   8.200  13.154  1.00  0.00     0.024 C 
HETATM   20  C27 UNL     1       1.558   6.696  13.170  1.00  0.00     0.010 C 
HETATM   21  C28 UNL     1       0.044   6.377  13.120  1.00  0.00     0.011 C 
HETATM   22  C29 UNL     1      -0.884   7.557  13.486  1.00  0.00    -0.026 C 
HETATM   23  C30 UNL     1      -1.166   8.402  12.201  1.00  0.00     0.016 C 
ENDROOT
BRANCH   1  24
HETATM   24  C2  UNL     1      -3.419   6.677  13.188  1.00  0.00    -0.008 C 
HETATM   25  C1  UNL     1      -3.960   5.308  13.629  1.00  0.00     0.011 C 
BRANCH  24  26
HETATM   26  C3  UNL     1      -4.580   7.706  13.129  1.00  0.00     0.031 C 
BRANCH  26  27
HETATM   27  C4  UNL     1      -5.906   7.151  13.572  1.00  0.00    -0.027 C 
HETATM   28  C5  UNL     1      -6.278   5.868  13.423  1.00  0.00     0.009 C 
BRANCH  28  29
HETATM   29  C6  UNL     1      -7.599   5.248  13.851  1.00  0.00     0.106 C 
HETATM   30  C7  UNL     1      -7.490   3.725  13.698  1.00  0.00     0.053 C 
HETATM   31  C8  UNL     1      -8.753   5.754  12.974  1.00  0.00     0.053 C 
BRANCH  29  32
HETATM   32  O1  UNL     1      -7.884   5.473  15.249  1.00  0.00    -0.229 OA
BRANCH  32  33
HETATM   33  O2  UNL     1      -7.929   4.176  15.924  1.00  0.00    -0.249 OA
HETATM   34  H15 UNL     1      -7.218   4.363  16.561  1.00  0.00     0.253 HD
ENDBRANCH  32  33
ENDBRANCH  29  32
ENDBRANCH  28  29
ENDBRANCH  26  27
ENDBRANCH  24  26
ENDBRANCH   1  24
BRANCH   2  35
HETATM   35  O3  UNL     1      -3.051   8.141  16.251  1.00  0.00    -0.395 OA
HETATM   36  H18 UNL     1      -3.832   7.568  16.205  1.00  0.00     0.210 HD
ENDBRANCH   2  35
TORSDOF 7
ENDMDL
MODEL 9
REMARK minimizedAffinity -8.58188343
REMARK  7 active torsions:
REMARK  status: ('A' for Active; 'I' for Inactive)
REMARK    1  A    between atoms: C2_2  and  C3_3 
REMARK    2  A    between atoms: C2_2  and  C9_11 
REMARK    3  A    between atoms: C3_3  and  C4_4 
REMARK    4  A    between atoms: C5_5  and  C6_6 
REMARK    5  A    between atoms: C6_6  and  O1_9 
REMARK    6  A    between atoms: O1_9  and  O2_10 
REMARK    7  A    between atoms: C10_12  and  O3_13 
ROOT
HETATM    1  C9  UNL     1      -6.442   6.366  14.442  1.00  0.00     0.028 C 
HETATM    2  C10 UNL     1      -6.310   7.387  15.620  1.00  0.00     0.124 C 
HETATM    3  C11 UNL     1      -4.830   7.811  15.704  1.00  0.00     0.046 C 
HETATM    4  C12 UNL     1      -4.076   6.761  14.863  1.00  0.00    -0.010 C 
HETATM    5  C13 UNL     1      -3.870   5.511  15.777  1.00  0.00     0.021 C 
HETATM    6  C14 UNL     1      -2.686   7.129  14.345  1.00  0.00    -0.070 C 
HETATM    7  C15 UNL     1      -1.836   7.886  15.070  1.00  0.00    -0.022 C 
HETATM    8  C16 UNL     1      -0.421   8.204  14.670  1.00  0.00     0.034 C 
HETATM    9  C17 UNL     1      -0.125   7.795  13.218  1.00  0.00     0.013 C 
HETATM   10  C18 UNL     1       1.319   8.095  12.704  1.00  0.00     0.018 C 
HETATM   11  C19 UNL     1       1.656   9.588  12.904  1.00  0.00     0.023 C 
HETATM   12  C20 UNL     1       2.426   7.260  13.359  1.00  0.00     0.023 C 
HETATM   13  C21 UNL     1       1.353   7.815  11.190  1.00  0.00     0.135 C 
HETATM   14  O4  UNL     1       2.281   8.197  10.476  1.00  0.00    -0.297 OA
HETATM   15  C22 UNL     1       0.185   7.061  10.587  1.00  0.00     0.080 C 
HETATM   16  C23 UNL     1      -0.204   5.904  11.495  1.00  0.00     0.017 C 
HETATM   17  C24 UNL     1      -0.684   6.351  12.908  1.00  0.00    -0.031 C 
HETATM   18  C25 UNL     1      -0.218   5.267  13.916  1.00  0.00     0.016 C 
HETATM   19  C26 UNL     1      -2.261   6.501  13.000  1.00  0.00     0.024 C 
HETATM   20  C27 UNL     1      -3.074   5.225  12.671  1.00  0.00     0.010 C 
HETATM   21  C28 UNL     1      -4.610   5.354  12.828  1.00  0.00     0.011 C 
HETATM   22  C29 UNL     1      -5.081   6.556  13.676  1.00  0.00    -0.026 C 
HETATM   23  C30 UNL     1      -5.215   7.811  12.753  1.00  0.00     0.016 C 
ENDROOT
BRANCH   1  24
HETATM   24  C2  UNL     1      -7.781   6.524  13.641  1.00  0.00    -0.008 C 
HETATM   25  C1  UNL     1      -8.133   5.243  12.871  1.00  0.00     0.011 C 
BRANCH  24  26
HETATM   26  C3  UNL     1      -8.957   6.914  14.577  1.00  0.00     0.031 C 
BRANCH  26  27
HETATM   27  C4  UNL     1     -10.230   7.244  13.848  1.00  0.00    -0.027 C 
HETATM   28  C5  UNL     1     -10.964   8.349  14.068  1.00  0.00     0.009 C 
BRANCH  28  29
HETATM   29  C6  UNL     1     -12.254   8.738  13.364  1.00  0.00     0.106 C 
HETATM   30  C7  UNL     1     -12.662  10.138  13.845  1.00  0.00     0.053 C 
HETATM   31  C8  UNL     1     -13.382   7.751  13.697  1.00  0.00     0.053 C 
BRANCH  29  32
HETATM   32  O1  UNL     1     -12.085   8.859  11.935  1.00  0.00    -0.229 OA
BRANCH  32  33
HETATM   33  O2  UNL     1     -12.567  10.177  11.524  1.00  0.00    -0.249 OA
HETATM   34  H15 UNL     1     -11.727  10.481  11.137  1.00  0.00     0.253 HD
ENDBRANCH  32  33
ENDBRANCH  29  32
ENDBRANCH  28  29
ENDBRANCH  26  27
ENDBRANCH  24  26
ENDBRANCH   1  24
BRANCH   2  35
HETATM   35  O3  UNL     1      -6.664   6.777  16.858  1.00  0.00    -0.395 OA
HETATM   36  H18 UNL     1      -7.586   6.478  16.807  1.00  0.00     0.210 HD
ENDBRANCH   2  35
TORSDOF 7
ENDMDL
