MODEL 1
REMARK minimizedAffinity -7.21533012
REMARK CNNscore 0.719997466
REMARK CNNaffinity 6.58998871
REMARK  4 active torsions:
REMARK  status: ('A' for Active; 'I' for Inactive)
REMARK    1  A    between atoms: C2_2  and  C4_4 
REMARK    2  A    between atoms: C7_7  and  C8_8 
REMARK    3  A    between atoms: C8_8  and  O1_9 
REMARK    4  A    between atoms: C10_11  and  O2_12 
ROOT
HETATM    1  C4  UNL     1      -0.040   6.996  11.954  1.00  0.00     0.018 C 
HETATM    2  C5  UNL     1      -0.459   5.656  11.288  1.00  0.00     0.010 C 
HETATM    3  C6  UNL     1      -1.772   5.222  11.960  1.00  0.00     0.013 C 
HETATM    4  C7  UNL     1      -1.775   5.969  13.303  1.00  0.00    -0.012 C 
HETATM    5  C9  UNL     1      -3.172   6.154  13.907  1.00  0.00     0.044 C 
HETATM    6  C10 UNL     1      -3.149   7.136  15.101  1.00  0.00     0.128 C 
HETATM    7  C11 UNL     1      -2.494   8.543  14.781  1.00  0.00    -0.006 C 
HETATM    8  C12 UNL     1      -3.484   9.281  13.812  1.00  0.00     0.019 C 
HETATM    9  C13 UNL     1      -1.099   8.312  14.047  1.00  0.00     0.002 C 
HETATM   10  C14 UNL     1      -0.408   9.634  13.698  1.00  0.00     0.006 C 
HETATM   11  C15 UNL     1      -0.224  10.544  14.914  1.00  0.00     0.006 C 
HETATM   12  C16 UNL     1      -1.538  10.805  15.685  1.00  0.00     0.003 C 
HETATM   13  C17 UNL     1      -1.422  11.971  16.755  1.00  0.00    -0.035 C 
HETATM   14  C18 UNL     1      -0.261  11.738  17.765  1.00  0.00     0.016 C 
HETATM   15  C19 UNL     1      -1.062  13.295  16.002  1.00  0.00     0.017 C 
HETATM   16  C20 UNL     1      -1.511  14.544  16.738  1.00  0.00     0.080 C 
HETATM   17  C21 UNL     1      -3.017  14.578  16.815  1.00  0.00     0.135 C 
HETATM   18  O3  UNL     1      -3.610  15.656  16.726  1.00  0.00    -0.297 OA
HETATM   19  C22 UNL     1      -3.761  13.246  17.023  1.00  0.00     0.017 C 
HETATM   20  C23 UNL     1      -4.873  13.528  18.064  1.00  0.00     0.023 C 
HETATM   21  C24 UNL     1      -4.446  12.896  15.696  1.00  0.00     0.023 C 
HETATM   22  C25 UNL     1      -2.752  12.169  17.581  1.00  0.00     0.009 C 
HETATM   23  C26 UNL     1      -3.376  10.821  17.996  1.00  0.00     0.007 C 
HETATM   24  C27 UNL     1      -3.529   9.790  16.881  1.00  0.00     0.011 C 
HETATM   25  C28 UNL     1      -2.220   9.450  16.124  1.00  0.00    -0.030 C 
HETATM   26  C29 UNL     1      -1.324   8.648  17.116  1.00  0.00     0.016 C 
HETATM   27  C30 UNL     1      -1.255   7.355  12.844  1.00  0.00     0.009 C 
ENDROOT
BRANCH   1  28
HETATM   28  C2  UNL     1       0.392   8.025  10.924  1.00  0.00    -0.089 C 
HETATM   29  C1  UNL     1      -0.510   8.625  10.127  1.00  0.00     0.014 C 
HETATM   30  C3  UNL     1       1.852   8.384  10.826  1.00  0.00     0.043 C 
ENDBRANCH   1  28
BRANCH   4  31
HETATM   31  C8  UNL     1      -0.845   5.218  14.303  1.00  0.00     0.174 C 
BRANCH  31  32
HETATM   32  O1  UNL     1      -0.650   6.006  15.472  1.00  0.00    -0.400 OA
HETATM   33  H13 UNL     1      -0.135   5.469  16.099  1.00  0.00     0.209 HD
ENDBRANCH  31  32
ENDBRANCH   4  31
BRANCH   6  34
HETATM   34  O2  UNL     1      -4.493   7.295  15.554  1.00  0.00    -0.395 OA
HETATM   35  H17 UNL     1      -4.848   6.408  15.738  1.00  0.00     0.210 HD
ENDBRANCH   6  34
TORSDOF 4
ENDMDL
MODEL 2
REMARK minimizedAffinity -8.21331501
REMARK CNNscore 0.71187973
REMARK CNNaffinity 7.08709002
REMARK  4 active torsions:
REMARK  status: ('A' for Active; 'I' for Inactive)
REMARK    1  A    between atoms: C2_2  and  C4_4 
REMARK    2  A    between atoms: C7_7  and  C8_8 
REMARK    3  A    between atoms: C8_8  and  O1_9 
REMARK    4  A    between atoms: C10_11  and  O2_12 
ROOT
HETATM    1  C4  UNL     1       2.423   8.485   9.434  1.00  0.00     0.018 C 
HETATM    2  C5  UNL     1       3.906   8.089   9.195  1.00  0.00     0.010 C 
HETATM    3  C6  UNL     1       4.375   7.354  10.461  1.00  0.00     0.013 C 
HETATM    4  C7  UNL     1       3.398   7.819  11.553  1.00  0.00    -0.012 C 
HETATM    5  C9  UNL     1       3.287   6.853  12.738  1.00  0.00     0.044 C 
HETATM    6  C10 UNL     1       2.106   7.223  13.664  1.00  0.00     0.128 C 
HETATM    7  C11 UNL     1       0.710   7.354  12.926  1.00  0.00    -0.006 C 
HETATM    8  C12 UNL     1       0.301   5.901  12.493  1.00  0.00     0.019 C 
HETATM    9  C13 UNL     1       0.889   8.267  11.632  1.00  0.00     0.002 C 
HETATM   10  C14 UNL     1      -0.424   8.432  10.860  1.00  0.00     0.006 C 
HETATM   11  C15 UNL     1      -1.561   8.966  11.734  1.00  0.00     0.006 C 
HETATM   12  C16 UNL     1      -1.786   8.134  13.016  1.00  0.00     0.003 C 
HETATM   13  C17 UNL     1      -3.137   8.490  13.771  1.00  0.00    -0.035 C 
HETATM   14  C18 UNL     1      -3.250  10.004  14.105  1.00  0.00     0.016 C 
HETATM   15  C19 UNL     1      -4.332   8.182  12.809  1.00  0.00     0.017 C 
HETATM   16  C20 UNL     1      -5.628   7.878  13.541  1.00  0.00     0.080 C 
HETATM   17  C21 UNL     1      -5.478   6.607  14.337  1.00  0.00     0.135 C 
HETATM   18  O3  UNL     1      -6.433   5.834  14.441  1.00  0.00    -0.297 OA
HETATM   19  C22 UNL     1      -4.122   6.332  15.014  1.00  0.00     0.017 C 
HETATM   20  C23 UNL     1      -4.446   5.795  16.431  1.00  0.00     0.023 C 
HETATM   21  C24 UNL     1      -3.445   5.200  14.232  1.00  0.00     0.023 C 
HETATM   22  C25 UNL     1      -3.309   7.681  15.115  1.00  0.00     0.009 C 
HETATM   23  C26 UNL     1      -1.993   7.609  15.915  1.00  0.00     0.007 C 
HETATM   24  C27 UNL     1      -0.760   7.173  15.126  1.00  0.00     0.011 C 
HETATM   25  C28 UNL     1      -0.460   8.024  13.866  1.00  0.00    -0.030 C 
HETATM   26  C29 UNL     1       0.019   9.419  14.371  1.00  0.00     0.016 C 
HETATM   27  C30 UNL     1       2.066   7.773  10.762  1.00  0.00     0.009 C 
ENDROOT
BRANCH   1  28
HETATM   28  C2  UNL     1       1.556   8.173   8.226  1.00  0.00    -0.089 C 
HETATM   29  C1  UNL     1       2.075   7.573   7.140  1.00  0.00     0.014 C 
HETATM   30  C3  UNL     1       0.091   8.525   8.275  1.00  0.00     0.043 C 
ENDBRANCH   1  28
BRANCH   4  31
HETATM   31  C8  UNL     1       3.821   9.236  12.043  1.00  0.00     0.174 C 
BRANCH  31  32
HETATM   32  O1  UNL     1       2.666  10.010  12.351  1.00  0.00    -0.400 OA
HETATM   33  H13 UNL     1       2.976  10.851  12.728  1.00  0.00     0.209 HD
ENDBRANCH  31  32
ENDBRANCH   4  31
BRANCH   6  34
HETATM   34  O2  UNL     1       2.042   6.239  14.696  1.00  0.00    -0.395 OA
HETATM   35  H17 UNL     1       2.918   6.199  15.117  1.00  0.00     0.210 HD
ENDBRANCH   6  34
TORSDOF 4
ENDMDL
MODEL 3
REMARK minimizedAffinity -10.2926073
REMARK CNNscore 0.669339478
REMARK CNNaffinity 7.3048377
REMARK  4 active torsions:
REMARK  status: ('A' for Active; 'I' for Inactive)
REMARK    1  A    between atoms: C2_2  and  C4_4 
REMARK    2  A    between atoms: C7_7  and  C8_8 
REMARK    3  A    between atoms: C8_8  and  O1_9 
REMARK    4  A    between atoms: C10_11  and  O2_12 
ROOT
HETATM    1  C4  UNL     1      -8.124   5.694  14.068  1.00  0.00     0.018 C 
HETATM    2  C5  UNL     1      -9.412   6.421  14.542  1.00  0.00     0.010 C 
HETATM    3  C6  UNL     1      -8.982   7.828  14.992  1.00  0.00     0.013 C 
HETATM    4  C7  UNL     1      -7.480   7.688  15.289  1.00  0.00    -0.012 C 
HETATM    5  C9  UNL     1      -6.709   9.011  15.216  1.00  0.00     0.044 C 
HETATM    6  C10 UNL     1      -5.181   8.780  15.250  1.00  0.00     0.128 C 
HETATM    7  C11 UNL     1      -4.646   7.767  14.155  1.00  0.00    -0.006 C 
HETATM    8  C12 UNL     1      -4.803   8.491  12.770  1.00  0.00     0.019 C 
HETATM    9  C13 UNL     1      -5.546   6.453  14.178  1.00  0.00     0.002 C 
HETATM   10  C14 UNL     1      -5.091   5.427  13.134  1.00  0.00     0.006 C 
HETATM   11  C15 UNL     1      -3.612   5.060  13.272  1.00  0.00     0.006 C 
HETATM   12  C16 UNL     1      -2.676   6.289  13.269  1.00  0.00     0.003 C 
HETATM   13  C17 UNL     1      -1.142   5.915  13.110  1.00  0.00    -0.035 C 
HETATM   14  C18 UNL     1      -0.663   4.897  14.184  1.00  0.00     0.016 C 
HETATM   15  C19 UNL     1      -0.953   5.192  11.734  1.00  0.00     0.017 C 
HETATM   16  C20 UNL     1       0.451   5.328  11.173  1.00  0.00     0.080 C 
HETATM   17  C21 UNL     1       0.736   6.774  10.856  1.00  0.00     0.135 C 
HETATM   18  O3  UNL     1       1.416   7.061   9.867  1.00  0.00    -0.297 OA
HETATM   19  C22 UNL     1       0.173   7.849  11.805  1.00  0.00     0.017 C 
HETATM   20  C23 UNL     1       1.305   8.889  12.003  1.00  0.00     0.023 C 
HETATM   21  C24 UNL     1      -0.976   8.548  11.069  1.00  0.00     0.023 C 
HETATM   22  C25 UNL     1      -0.200   7.180  13.184  1.00  0.00     0.009 C 
HETATM   23  C26 UNL     1      -0.629   8.150  14.303  1.00  0.00     0.007 C 
HETATM   24  C27 UNL     1      -2.109   8.523  14.326  1.00  0.00     0.011 C 
HETATM   25  C28 UNL     1      -3.083   7.319  14.395  1.00  0.00    -0.030 C 
HETATM   26  C29 UNL     1      -2.934   6.704  15.820  1.00  0.00     0.016 C 
HETATM   27  C30 UNL     1      -7.048   6.806  14.090  1.00  0.00     0.009 C 
ENDROOT
BRANCH   1  28
HETATM   28  C2  UNL     1      -8.341   4.967  12.751  1.00  0.00    -0.089 C 
HETATM   29  C1  UNL     1      -8.204   3.631  12.669  1.00  0.00     0.014 C 
HETATM   30  C3  UNL     1      -8.740   5.767  11.539  1.00  0.00     0.043 C 
ENDBRANCH   1  28
BRANCH   4  31
HETATM   31  C8  UNL     1      -7.299   7.028  16.688  1.00  0.00     0.174 C 
BRANCH  31  32
HETATM   32  O1  UNL     1      -6.409   5.920  16.592  1.00  0.00    -0.400 OA
HETATM   33  H13 UNL     1      -6.261   5.591  17.495  1.00  0.00     0.209 HD
ENDBRANCH  31  32
ENDBRANCH   4  31
BRANCH   6  34
HETATM   34  O2  UNL     1      -4.548  10.053  15.115  1.00  0.00    -0.395 OA
HETATM   35  H17 UNL     1      -4.907  10.633  15.807  1.00  0.00     0.210 HD
ENDBRANCH   6  34
TORSDOF 4
ENDMDL
MODEL 4
REMARK minimizedAffinity -7.45291805
REMARK CNNscore 0.60118413
REMARK CNNaffinity 6.51629591
REMARK  4 active torsions:
REMARK  status: ('A' for Active; 'I' for Inactive)
REMARK    1  A    between atoms: C2_2  and  C4_4 
REMARK    2  A    between atoms: C7_7  and  C8_8 
REMARK    3  A    between atoms: C8_8  and  O1_9 
REMARK    4  A    between atoms: C10_11  and  O2_12 
ROOT
HETATM    1  C4  UNL     1      -2.740  12.575  16.654  1.00  0.00     0.018 C 
HETATM    2  C5  UNL     1      -2.625  13.286  18.030  1.00  0.00     0.010 C 
HETATM    3  C6  UNL     1      -1.395  12.688  18.733  1.00  0.00     0.013 C 
HETATM    4  C7  UNL     1      -1.185  11.332  18.041  1.00  0.00    -0.012 C 
HETATM    5  C9  UNL     1       0.247  10.795  18.151  1.00  0.00     0.044 C 
HETATM    6  C10 UNL     1       0.471   9.583  17.219  1.00  0.00     0.128 C 
HETATM    7  C11 UNL     1       0.094   9.843  15.702  1.00  0.00    -0.006 C 
HETATM    8  C12 UNL     1       1.167  10.845  15.145  1.00  0.00     0.019 C 
HETATM    9  C13 UNL     1      -1.350  10.512  15.632  1.00  0.00     0.002 C 
HETATM   10  C14 UNL     1      -1.780  10.801  14.190  1.00  0.00     0.006 C 
HETATM   11  C15 UNL     1      -1.726   9.560  13.297  1.00  0.00     0.006 C 
HETATM   12  C16 UNL     1      -0.354   8.850  13.322  1.00  0.00     0.003 C 
HETATM   13  C17 UNL     1      -0.189   7.753  12.187  1.00  0.00    -0.035 C 
HETATM   14  C18 UNL     1      -1.326   6.692  12.215  1.00  0.00     0.016 C 
HETATM   15  C19 UNL     1      -0.313   8.462  10.797  1.00  0.00     0.017 C 
HETATM   16  C20 UNL     1       0.408   7.726   9.682  1.00  0.00     0.080 C 
HETATM   17  C21 UNL     1       1.892   7.722   9.948  1.00  0.00     0.135 C 
HETATM   18  O3  UNL     1       2.682   7.819   9.006  1.00  0.00    -0.297 OA
HETATM   19  C22 UNL     1       2.366   7.576  11.406  1.00  0.00     0.017 C 
HETATM   20  C23 UNL     1       3.557   6.586  11.378  1.00  0.00     0.023 C 
HETATM   21  C24 UNL     1       2.909   8.942  11.845  1.00  0.00     0.023 C 
HETATM   22  C25 UNL     1       1.190   6.990  12.278  1.00  0.00     0.009 C 
HETATM   23  C26 UNL     1       1.552   6.632  13.733  1.00  0.00     0.007 C 
HETATM   24  C27 UNL     1       1.448   7.773  14.743  1.00  0.00     0.011 C 
HETATM   25  C28 UNL     1       0.065   8.471  14.796  1.00  0.00    -0.030 C 
HETATM   26  C29 UNL     1      -0.927   7.452  15.434  1.00  0.00     0.016 C 
HETATM   27  C30 UNL     1      -1.440  11.739  16.567  1.00  0.00     0.009 C 
ENDROOT
BRANCH   1  28
HETATM   28  C2  UNL     1      -3.005  13.562  15.531  1.00  0.00    -0.089 C 
HETATM   29  C1  UNL     1      -4.241  13.714  15.022  1.00  0.00     0.014 C 
HETATM   30  C3  UNL     1      -1.860  14.391  15.009  1.00  0.00     0.043 C 
ENDBRANCH   1  28
BRANCH   4  31
HETATM   31  C8  UNL     1      -2.200  10.303  18.622  1.00  0.00     0.174 C 
BRANCH  31  32
HETATM   32  O1  UNL     1      -2.909   9.667  17.563  1.00  0.00    -0.400 OA
HETATM   33  H13 UNL     1      -3.468   8.978  17.964  1.00  0.00     0.209 HD
ENDBRANCH  31  32
ENDBRANCH   4  31
BRANCH   6  34
HETATM   34  O2  UNL     1       1.839   9.193  17.340  1.00  0.00    -0.395 OA
HETATM   35  H17 UNL     1       2.019   9.044  18.284  1.00  0.00     0.210 HD
ENDBRANCH   6  34
TORSDOF 4
ENDMDL
MODEL 5
REMARK minimizedAffinity -6.1061635
REMARK CNNscore 0.572306156
REMARK CNNaffinity 6.33885527
REMARK  4 active torsions:
REMARK  status: ('A' for Active; 'I' for Inactive)
REMARK    1  A    between atoms: C2_2  and  C4_4 
REMARK    2  A    between atoms: C7_7  and  C8_8 
REMARK    3  A    between atoms: C8_8  and  O1_9 
REMARK    4  A    between atoms: C10_11  and  O2_12 
ROOT
HETATM    1  C4  UNL     1     -13.370  10.278  22.442  1.00  0.00     0.018 C 
HETATM    2  C5  UNL     1     -13.952  11.712  22.569  1.00  0.00     0.010 C 
HETATM    3  C6  UNL     1     -15.117  11.627  23.569  1.00  0.00     0.013 C 
HETATM    4  C7  UNL     1     -15.521  10.144  23.556  1.00  0.00    -0.012 C 
HETATM    5  C9  UNL     1     -16.252   9.689  24.824  1.00  0.00     0.044 C 
HETATM    6  C10 UNL     1     -16.390   8.151  24.879  1.00  0.00     0.128 C 
HETATM    7  C11 UNL     1     -15.025   7.363  24.716  1.00  0.00    -0.006 C 
HETATM    8  C12 UNL     1     -14.201   7.632  26.026  1.00  0.00     0.019 C 
HETATM    9  C13 UNL     1     -14.236   7.944  23.459  1.00  0.00     0.002 C 
HETATM   10  C14 UNL     1     -12.895   7.233  23.244  1.00  0.00     0.006 C 
HETATM   11  C15 UNL     1     -13.044   5.715  23.123  1.00  0.00     0.006 C 
HETATM   12  C16 UNL     1     -13.811   5.081  24.305  1.00  0.00     0.003 C 
HETATM   13  C17 UNL     1     -13.713   3.498  24.346  1.00  0.00    -0.035 C 
HETATM   14  C18 UNL     1     -14.170   2.839  23.014  1.00  0.00     0.016 C 
HETATM   15  C19 UNL     1     -12.207   3.103  24.512  1.00  0.00     0.017 C 
HETATM   16  C20 UNL     1     -12.012   1.747  25.168  1.00  0.00     0.080 C 
HETATM   17  C21 UNL     1     -12.527   1.786  26.584  1.00  0.00     0.135 C 
HETATM   18  O3  UNL     1     -11.939   1.154  27.466  1.00  0.00    -0.297 OA
HETATM   19  C22 UNL     1     -13.796   2.609  26.871  1.00  0.00     0.017 C 
HETATM   20  C23 UNL     1     -14.665   1.749  27.823  1.00  0.00     0.023 C 
HETATM   21  C24 UNL     1     -13.361   3.860  27.643  1.00  0.00     0.023 C 
HETATM   22  C25 UNL     1     -14.564   2.869  25.517  1.00  0.00     0.009 C 
HETATM   23  C26 UNL     1     -15.943   3.544  25.651  1.00  0.00     0.007 C 
HETATM   24  C27 UNL     1     -15.935   5.070  25.691  1.00  0.00     0.011 C 
HETATM   25  C28 UNL     1     -15.230   5.748  24.488  1.00  0.00    -0.030 C 
HETATM   26  C29 UNL     1     -16.142   5.514  23.245  1.00  0.00     0.016 C 
HETATM   27  C30 UNL     1     -14.119   9.482  23.539  1.00  0.00     0.009 C 
ENDROOT
BRANCH   1  28
HETATM   28  C2  UNL     1     -11.852  10.280  22.503  1.00  0.00    -0.089 C 
HETATM   29  C1  UNL     1     -11.115  10.117  21.390  1.00  0.00     0.014 C 
HETATM   30  C3  UNL     1     -11.180  10.493  23.836  1.00  0.00     0.043 C 
ENDBRANCH   1  28
BRANCH   4  31
HETATM   31  C8  UNL     1     -16.392   9.867  22.295  1.00  0.00     0.174 C 
BRANCH  31  32
HETATM   32  O1  UNL     1     -15.836   8.791  21.546  1.00  0.00    -0.400 OA
HETATM   33  H13 UNL     1     -16.452   8.598  20.817  1.00  0.00     0.209 HD
ENDBRANCH  31  32
ENDBRANCH   4  31
BRANCH   6  34
HETATM   34  O2  UNL     1     -17.022   7.818  26.115  1.00  0.00    -0.395 OA
HETATM   35  H17 UNL     1     -17.852   8.322  26.165  1.00  0.00     0.210 HD
ENDBRANCH   6  34
TORSDOF 4
ENDMDL
MODEL 6
REMARK minimizedAffinity -5.86116123
REMARK CNNscore 0.525346875
REMARK CNNaffinity 6.39775085
REMARK  4 active torsions:
REMARK  status: ('A' for Active; 'I' for Inactive)
REMARK    1  A    between atoms: C2_2  and  C4_4 
REMARK    2  A    between atoms: C7_7  and  C8_8 
REMARK    3  A    between atoms: C8_8  and  O1_9 
REMARK    4  A    between atoms: C10_11  and  O2_12 
ROOT
HETATM    1  C4  UNL     1      -0.724  14.298   4.177  1.00  0.00     0.018 C 
HETATM    2  C5  UNL     1      -1.584  14.846   5.348  1.00  0.00     0.010 C 
HETATM    3  C6  UNL     1      -1.046  16.249   5.671  1.00  0.00     0.013 C 
HETATM    4  C7  UNL     1       0.383  16.246   5.105  1.00  0.00    -0.012 C 
HETATM    5  C9  UNL     1       0.931  17.645   4.798  1.00  0.00     0.044 C 
HETATM    6  C10 UNL     1       2.245  17.574   3.987  1.00  0.00     0.128 C 
HETATM    7  C11 UNL     1       2.151  16.713   2.660  1.00  0.00    -0.006 C 
HETATM    8  C12 UNL     1       1.239  17.523   1.671  1.00  0.00     0.019 C 
HETATM    9  C13 UNL     1       1.467  15.314   2.995  1.00  0.00     0.002 C 
HETATM   10  C14 UNL     1       1.335  14.427   1.751  1.00  0.00     0.006 C 
HETATM   11  C15 UNL     1       2.670  14.209   1.036  1.00  0.00     0.006 C 
HETATM   12  C16 UNL     1       3.399  15.526   0.689  1.00  0.00     0.003 C 
HETATM   13  C17 UNL     1       4.620  15.330  -0.306  1.00  0.00    -0.035 C 
HETATM   14  C18 UNL     1       5.649  14.286   0.215  1.00  0.00     0.016 C 
HETATM   15  C19 UNL     1       4.070  14.742  -1.648  1.00  0.00     0.017 C 
HETATM   16  C20 UNL     1       4.942  15.069  -2.848  1.00  0.00     0.080 C 
HETATM   17  C21 UNL     1       4.943  16.558  -3.087  1.00  0.00     0.135 C 
HETATM   18  O3  UNL     1       4.968  16.992  -4.241  1.00  0.00    -0.297 OA
HETATM   19  C22 UNL     1       4.932  17.489  -1.859  1.00  0.00     0.017 C 
HETATM   20  C23 UNL     1       5.942  18.623  -2.166  1.00  0.00     0.023 C 
HETATM   21  C24 UNL     1       3.536  18.119  -1.780  1.00  0.00     0.023 C 
HETATM   22  C25 UNL     1       5.393  16.676  -0.588  1.00  0.00     0.009 C 
HETATM   23  C26 UNL     1       5.591  17.505   0.698  1.00  0.00     0.007 C 
HETATM   24  C27 UNL     1       4.342  17.717   1.549  1.00  0.00     0.011 C 
HETATM   25  C28 UNL     1       3.616  16.415   1.976  1.00  0.00    -0.030 C 
HETATM   26  C29 UNL     1       4.537  15.708   3.015  1.00  0.00     0.016 C 
HETATM   27  C30 UNL     1       0.141  15.512   3.761  1.00  0.00     0.009 C 
ENDROOT
BRANCH   1  28
HETATM   28  C2  UNL     1      -1.583  13.658   3.099  1.00  0.00    -0.089 C 
HETATM   29  C1  UNL     1      -1.387  12.381   2.727  1.00  0.00     0.014 C 
HETATM   30  C3  UNL     1      -2.681  14.475   2.468  1.00  0.00     0.043 C 
ENDBRANCH   1  28
BRANCH   4  31
HETATM   31  C8  UNL     1       1.320  15.500   6.101  1.00  0.00     0.174 C 
BRANCH  31  32
HETATM   32  O1  UNL     1       1.603  14.191   5.615  1.00  0.00    -0.400 OA
HETATM   33  H13 UNL     1       2.253  13.794   6.220  1.00  0.00     0.209 HD
ENDBRANCH  31  32
ENDBRANCH   4  31
BRANCH   6  34
HETATM   34  O2  UNL     1       2.645  18.913   3.695  1.00  0.00    -0.395 OA
HETATM   35  H17 UNL     1       2.689  19.396   4.537  1.00  0.00     0.210 HD
ENDBRANCH   6  34
TORSDOF 4
ENDMDL
MODEL 7
REMARK minimizedAffinity -6.26829004
REMARK CNNscore 0.454276532
REMARK CNNaffinity 6.24694586
REMARK  4 active torsions:
REMARK  status: ('A' for Active; 'I' for Inactive)
REMARK    1  A    between atoms: C2_2  and  C4_4 
REMARK    2  A    between atoms: C7_7  and  C8_8 
REMARK    3  A    between atoms: C8_8  and  O1_9 
REMARK    4  A    between atoms: C10_11  and  O2_12 
ROOT
HETATM    1  C4  UNL     1     -19.750  -4.909  16.033  1.00  0.00     0.018 C 
HETATM    2  C5  UNL     1     -19.839  -5.895  17.230  1.00  0.00     0.010 C 
HETATM    3  C6  UNL     1     -18.923  -5.336  18.330  1.00  0.00     0.013 C 
HETATM    4  C7  UNL     1     -17.948  -4.414  17.580  1.00  0.00    -0.012 C 
HETATM    5  C9  UNL     1     -17.311  -3.334  18.463  1.00  0.00     0.044 C 
HETATM    6  C10 UNL     1     -16.563  -2.279  17.618  1.00  0.00     0.128 C 
HETATM    7  C11 UNL     1     -17.436  -1.614  16.475  1.00  0.00    -0.006 C 
HETATM    8  C12 UNL     1     -18.499  -0.712  17.198  1.00  0.00     0.019 C 
HETATM    9  C13 UNL     1     -18.177  -2.760  15.653  1.00  0.00     0.002 C 
HETATM   10  C14 UNL     1     -19.051  -2.189  14.531  1.00  0.00     0.006 C 
HETATM   11  C15 UNL     1     -18.273  -1.275  13.583  1.00  0.00     0.006 C 
HETATM   12  C16 UNL     1     -17.517  -0.142  14.312  1.00  0.00     0.003 C 
HETATM   13  C17 UNL     1     -16.959   0.977  13.335  1.00  0.00    -0.035 C 
HETATM   14  C18 UNL     1     -16.060   0.390  12.209  1.00  0.00     0.016 C 
HETATM   15  C19 UNL     1     -18.174   1.636  12.599  1.00  0.00     0.017 C 
HETATM   16  C20 UNL     1     -17.897   3.057  12.140  1.00  0.00     0.080 C 
HETATM   17  C21 UNL     1     -17.682   3.948  13.337  1.00  0.00     0.135 C 
HETATM   18  O3  UNL     1     -18.093   5.111  13.316  1.00  0.00    -0.297 OA
HETATM   19  C22 UNL     1     -16.930   3.365  14.548  1.00  0.00     0.017 C 
HETATM   20  C23 UNL     1     -15.952   4.468  15.024  1.00  0.00     0.023 C 
HETATM   21  C24 UNL     1     -17.961   3.147  15.662  1.00  0.00     0.023 C 
HETATM   22  C25 UNL     1     -16.128   2.084  14.094  1.00  0.00     0.009 C 
HETATM   23  C26 UNL     1     -15.191   1.472  15.154  1.00  0.00     0.007 C 
HETATM   24  C27 UNL     1     -15.834   0.469  16.108  1.00  0.00     0.011 C 
HETATM   25  C28 UNL     1     -16.549  -0.721  15.417  1.00  0.00    -0.030 C 
HETATM   26  C29 UNL     1     -15.433  -1.614  14.796  1.00  0.00     0.016 C 
HETATM   27  C30 UNL     1     -18.929  -3.724  16.598  1.00  0.00     0.009 C 
ENDROOT
BRANCH   1  28
HETATM   28  C2  UNL     1     -21.122  -4.591  15.463  1.00  0.00    -0.089 C 
HETATM   29  C1  UNL     1     -22.012  -3.869  16.167  1.00  0.00     0.014 C 
HETATM   30  C3  UNL     1     -21.462  -5.079  14.078  1.00  0.00     0.043 C 
ENDBRANCH   1  28
BRANCH   4  31
HETATM   31  C8  UNL     1     -16.847  -5.284  16.904  1.00  0.00     0.174 C 
BRANCH  31  32
HETATM   32  O1  UNL     1     -15.795  -5.543  17.828  1.00  0.00    -0.400 OA
HETATM   33  H13 UNL     1     -15.174  -6.154  17.394  1.00  0.00     0.209 HD
ENDBRANCH  31  32
ENDBRANCH   4  31
BRANCH   6  34
HETATM   34  O2  UNL     1     -16.060  -1.286  18.513  1.00  0.00    -0.395 OA
HETATM   35  H17 UNL     1     -15.533  -1.743  19.190  1.00  0.00     0.210 HD
ENDBRANCH   6  34
TORSDOF 4
ENDMDL
MODEL 8
REMARK minimizedAffinity -5.7990818
REMARK CNNscore 0.450155616
REMARK CNNaffinity 5.97612381
REMARK  4 active torsions:
REMARK  status: ('A' for Active; 'I' for Inactive)
REMARK    1  A    between atoms: C2_2  and  C4_4 
REMARK    2  A    between atoms: C7_7  and  C8_8 
REMARK    3  A    between atoms: C8_8  and  O1_9 
REMARK    4  A    between atoms: C10_11  and  O2_12 
ROOT
HETATM    1  C4  UNL     1     -18.356   0.827  14.626  1.00  0.00     0.018 C 
HETATM    2  C5  UNL     1     -17.879   1.915  15.627  1.00  0.00     0.010 C 
HETATM    3  C6  UNL     1     -16.491   1.478  16.123  1.00  0.00     0.013 C 
HETATM    4  C7  UNL     1     -16.452  -0.035  15.857  1.00  0.00    -0.012 C 
HETATM    5  C9  UNL     1     -15.035  -0.607  15.739  1.00  0.00     0.044 C 
HETATM    6  C10 UNL     1     -15.051  -2.058  15.206  1.00  0.00     0.128 C 
HETATM    7  C11 UNL     1     -15.840  -2.249  13.845  1.00  0.00    -0.006 C 
HETATM    8  C12 UNL     1     -14.985  -1.538  12.736  1.00  0.00     0.019 C 
HETATM    9  C13 UNL     1     -17.261  -1.538  13.963  1.00  0.00     0.002 C 
HETATM   10  C14 UNL     1     -18.080  -1.674  12.674  1.00  0.00     0.006 C 
HETATM   11  C15 UNL     1     -18.249  -3.128  12.232  1.00  0.00     0.006 C 
HETATM   12  C16 UNL     1     -16.909  -3.888  12.106  1.00  0.00     0.003 C 
HETATM   13  C17 UNL     1     -17.041  -5.287  11.369  1.00  0.00    -0.035 C 
HETATM   14  C18 UNL     1     -18.104  -6.210  12.032  1.00  0.00     0.016 C 
HETATM   15  C19 UNL     1     -17.561  -5.028   9.915  1.00  0.00     0.017 C 
HETATM   16  C20 UNL     1     -17.162  -6.117   8.935  1.00  0.00     0.080 C 
HETATM   17  C21 UNL     1     -15.663  -6.138   8.777  1.00  0.00     0.135 C 
HETATM   18  O3  UNL     1     -15.166  -6.386   7.676  1.00  0.00    -0.297 OA
HETATM   19  C22 UNL     1     -14.799  -5.864  10.023  1.00  0.00     0.017 C 
HETATM   20  C23 UNL     1     -13.642  -6.893   9.985  1.00  0.00     0.023 C 
HETATM   21  C24 UNL     1     -14.185  -4.469   9.852  1.00  0.00     0.023 C 
HETATM   22  C25 UNL     1     -15.676  -6.076  11.318  1.00  0.00     0.009 C 
HETATM   23  C26 UNL     1     -14.916  -5.996  12.658  1.00  0.00     0.007 C 
HETATM   24  C27 UNL     1     -14.760  -4.598  13.251  1.00  0.00     0.011 C 
HETATM   25  C28 UNL     1     -16.089  -3.826  13.455  1.00  0.00    -0.030 C 
HETATM   26  C29 UNL     1     -16.844  -4.533  14.621  1.00  0.00     0.016 C 
HETATM   27  C30 UNL     1     -17.114  -0.081  14.456  1.00  0.00     0.009 C 
ENDROOT
BRANCH   1  28
HETATM   28  C2  UNL     1     -18.943   1.441  13.366  1.00  0.00    -0.089 C 
HETATM   29  C1  UNL     1     -20.265   1.389  13.124  1.00  0.00     0.014 C 
HETATM   30  C3  UNL     1     -18.019   2.134  12.399  1.00  0.00     0.043 C 
ENDBRANCH   1  28
BRANCH   4  31
HETATM   31  C8  UNL     1     -17.244  -0.767  16.981  1.00  0.00     0.174 C 
BRANCH  31  32
HETATM   32  O1  UNL     1     -16.425  -0.912  18.137  1.00  0.00    -0.400 OA
HETATM   33  H13 UNL     1     -16.981  -1.297  18.837  1.00  0.00     0.209 HD
ENDBRANCH  31  32
ENDBRANCH   4  31
BRANCH   6  34
HETATM   34  O2  UNL     1     -13.695  -2.483  15.069  1.00  0.00    -0.395 OA
HETATM   35  H17 UNL     1     -13.258  -2.349  15.927  1.00  0.00     0.210 HD
ENDBRANCH   6  34
TORSDOF 4
ENDMDL
MODEL 9
REMARK minimizedAffinity -7.96295691
REMARK CNNscore 0.426656336
REMARK CNNaffinity 6.529634
REMARK  4 active torsions:
REMARK  status: ('A' for Active; 'I' for Inactive)
REMARK    1  A    between atoms: C2_2  and  C4_4 
REMARK    2  A    between atoms: C7_7  and  C8_8 
REMARK    3  A    between atoms: C8_8  and  O1_9 
REMARK    4  A    between atoms: C10_11  and  O2_12 
ROOT
HETATM    1  C4  UNL     1      -5.070   5.193  12.607  1.00  0.00     0.018 C 
HETATM    2  C5  UNL     1      -4.720   3.718  12.265  1.00  0.00     0.010 C 
HETATM    3  C6  UNL     1      -3.348   3.434  12.897  1.00  0.00     0.013 C 
HETATM    4  C7  UNL     1      -2.720   4.824  13.082  1.00  0.00    -0.012 C 
HETATM    5  C9  UNL     1      -1.634   4.875  14.163  1.00  0.00     0.044 C 
HETATM    6  C10 UNL     1      -1.233   6.330  14.497  1.00  0.00     0.128 C 
HETATM    7  C11 UNL     1      -2.447   7.271  14.888  1.00  0.00    -0.006 C 
HETATM    8  C12 UNL     1      -2.956   6.777  16.289  1.00  0.00     0.019 C 
HETATM    9  C13 UNL     1      -3.605   7.102  13.807  1.00  0.00     0.002 C 
HETATM   10  C14 UNL     1      -4.820   7.980  14.126  1.00  0.00     0.006 C 
HETATM   11  C15 UNL     1      -4.456   9.457  14.288  1.00  0.00     0.006 C 
HETATM   12  C16 UNL     1      -3.328   9.698  15.316  1.00  0.00     0.003 C 
HETATM   13  C17 UNL     1      -3.148  11.225  15.712  1.00  0.00    -0.035 C 
HETATM   14  C18 UNL     1      -2.930  12.139  14.473  1.00  0.00     0.016 C 
HETATM   15  C19 UNL     1      -4.480  11.721  16.368  1.00  0.00     0.017 C 
HETATM   16  C20 UNL     1      -4.281  12.887  17.320  1.00  0.00     0.080 C 
HETATM   17  C21 UNL     1      -3.447  12.449  18.497  1.00  0.00     0.135 C 
HETATM   18  O3  UNL     1      -3.686  12.903  19.619  1.00  0.00    -0.297 OA
HETATM   19  C22 UNL     1      -2.300  11.453  18.242  1.00  0.00     0.017 C 
HETATM   20  C23 UNL     1      -1.094  11.957  19.072  1.00  0.00     0.023 C 
HETATM   21  C24 UNL     1      -2.734  10.103  18.826  1.00  0.00     0.023 C 
HETATM   22  C25 UNL     1      -1.943  11.455  16.705  1.00  0.00     0.009 C 
HETATM   23  C26 UNL     1      -0.705  10.627  16.306  1.00  0.00     0.007 C 
HETATM   24  C27 UNL     1      -0.957   9.148  16.028  1.00  0.00     0.011 C 
HETATM   25  C28 UNL     1      -2.038   8.862  14.954  1.00  0.00    -0.030 C 
HETATM   26  C29 UNL     1      -1.434   9.297  13.584  1.00  0.00     0.016 C 
HETATM   27  C30 UNL     1      -3.953   5.612  13.593  1.00  0.00     0.009 C 
ENDROOT
BRANCH   1  28
HETATM   28  C2  UNL     1      -6.505   5.334  13.086  1.00  0.00    -0.089 C 
HETATM   29  C1  UNL     1      -6.924   6.461  13.689  1.00  0.00     0.014 C 
HETATM   30  C3  UNL     1      -7.463   4.195  12.850  1.00  0.00     0.043 C 
ENDBRANCH   1  28
BRANCH   4  31
HETATM   31  C8  UNL     1      -2.152   5.309  11.715  1.00  0.00     0.174 C 
BRANCH  31  32
HETATM   32  O1  UNL     1      -1.147   4.409  11.258  1.00  0.00    -0.400 OA
HETATM   33  H13 UNL     1      -0.880   4.702  10.370  1.00  0.00     0.209 HD
ENDBRANCH  31  32
ENDBRANCH   4  31
BRANCH   6  34
HETATM   34  O2  UNL     1      -0.271   6.282  15.550  1.00  0.00    -0.395 OA
HETATM   35  H17 UNL     1       0.450   5.697  15.261  1.00  0.00     0.210 HD
ENDBRANCH   6  34
TORSDOF 4
ENDMDL
