MODEL 1
REMARK minimizedAffinity -7.84883261
REMARK CNNscore 0.514493942
REMARK CNNaffinity 6.78268051
REMARK  6 active torsions:
REMARK  status: ('A' for Active; 'I' for Inactive)
REMARK    1  A    between atoms: C2_2  and  C30_32 
REMARK    2  A    between atoms: C3_3  and  C4_4 
REMARK    3  A    between atoms: C4_4  and  C5_5 
REMARK    4  A    between atoms: C5_5  and  C6_6 
REMARK    5  A    between atoms: C6_6  and  C8_8 
REMARK    6  A    between atoms: C30_32  and  O4_34 
ROOT
HETATM    1  C8  UNL     1      -5.796   7.270  14.708  1.00  0.00    -0.002 C 
HETATM    2  C9  UNL     1      -5.397   8.579  15.452  1.00  0.00     0.007 C 
HETATM    3  C10 UNL     1      -3.916   8.860  15.143  1.00  0.00     0.015 C 
HETATM    4  C11 UNL     1      -3.574   7.935  13.962  1.00  0.00    -0.005 C 
HETATM    5  C12 UNL     1      -4.045   8.658  12.661  1.00  0.00     0.021 C 
HETATM    6  C13 UNL     1      -2.126   7.549  13.691  1.00  0.00    -0.000 C 
HETATM    7  C14 UNL     1      -1.805   6.370  13.102  1.00  0.00    -0.060 C 
HETATM    8  C15 UNL     1      -2.905   5.345  12.771  1.00  0.00     0.036 C 
HETATM    9  C16 UNL     1      -4.356   5.694  13.164  1.00  0.00     0.015 C 
HETATM   10  C17 UNL     1      -4.406   6.653  14.360  1.00  0.00    -0.028 C 
HETATM   11  C18 UNL     1      -3.841   5.918  15.617  1.00  0.00     0.016 C 
HETATM   12  C19 UNL     1      -0.356   5.950  12.756  1.00  0.00    -0.014 C 
HETATM   13  C20 UNL     1       0.074   4.878  13.796  1.00  0.00     0.020 C 
HETATM   14  C21 UNL     1      -0.293   5.304  11.341  1.00  0.00     0.021 C 
HETATM   15  C22 UNL     1       1.074   5.426  10.691  1.00  0.00     0.080 C 
HETATM   16  C23 UNL     1       1.366   6.885  10.426  1.00  0.00     0.135 C 
HETATM   17  O1  UNL     1       1.950   7.219   9.395  1.00  0.00    -0.297 OA
HETATM   18  C24 UNL     1       0.923   7.907  11.493  1.00  0.00     0.018 C 
HETATM   19  C25 UNL     1       2.085   8.916  11.648  1.00  0.00     0.023 C 
HETATM   20  C26 UNL     1      -0.292   8.663  10.938  1.00  0.00     0.023 C 
HETATM   21  C27 UNL     1       0.674   7.140  12.844  1.00  0.00     0.020 C 
HETATM   22  C28 UNL     1       0.367   8.029  14.052  1.00  0.00     0.090 C 
HETATM   23  C29 UNL     1      -1.051   8.522  14.050  1.00  0.00     0.157 C 
HETATM   24  O2  UNL     1      -1.309   9.681  14.364  1.00  0.00    -0.293 OA
ENDROOT
BRANCH   1  25
HETATM   25  C6  UNL     1      -6.846   6.443  15.514  1.00  0.00    -0.014 C 
HETATM   26  C7  UNL     1      -7.760   5.621  14.597  1.00  0.00     0.010 C 
BRANCH  25  27
HETATM   27  C5  UNL     1      -7.698   7.387  16.407  1.00  0.00     0.008 C 
BRANCH  27  28
HETATM   28  C4  UNL     1      -9.206   7.313  16.132  1.00  0.00     0.028 C 
BRANCH  28  29
HETATM   29  C3  UNL     1      -9.939   8.433  16.821  1.00  0.00    -0.013 C 
HETATM   30  C2  UNL     1     -10.102   9.696  16.375  1.00  0.00     0.008 C 
HETATM   31  C1  UNL     1      -9.521  10.249  15.107  1.00  0.00     0.055 C 
BRANCH  30  32
HETATM   32  C30 UNL     1     -10.891  10.685  17.158  1.00  0.00     0.171 C 
HETATM   33  O3  UNL     1     -10.421  11.538  17.890  1.00  0.00    -0.646 OA
BRANCH  32  34
HETATM   34  O4  UNL     1     -12.220  10.575  16.999  1.00  0.00    -0.773 OA
HETATM   35  H44 UNL     1     -12.578  11.282  17.572  1.00  0.00     0.167 HD
ENDBRANCH  32  34
ENDBRANCH  30  32
ENDBRANCH  28  29
ENDBRANCH  27  28
ENDBRANCH  25  27
ENDBRANCH   1  25
TORSDOF 6
ENDMDL
MODEL 2
REMARK minimizedAffinity -8.57446194
REMARK CNNscore 0.370493948
REMARK CNNaffinity 6.83368826
REMARK  6 active torsions:
REMARK  status: ('A' for Active; 'I' for Inactive)
REMARK    1  A    between atoms: C2_2  and  C30_32 
REMARK    2  A    between atoms: C3_3  and  C4_4 
REMARK    3  A    between atoms: C4_4  and  C5_5 
REMARK    4  A    between atoms: C5_5  and  C6_6 
REMARK    5  A    between atoms: C6_6  and  C8_8 
REMARK    6  A    between atoms: C30_32  and  O4_34 
ROOT
HETATM    1  C8  UNL     1      -6.672   7.177  14.381  1.00  0.00    -0.002 C 
HETATM    2  C9  UNL     1      -6.444   8.531  15.117  1.00  0.00     0.007 C 
HETATM    3  C10 UNL     1      -4.946   8.870  15.019  1.00  0.00     0.015 C 
HETATM    4  C11 UNL     1      -4.391   7.917  13.946  1.00  0.00    -0.005 C 
HETATM    5  C12 UNL     1      -4.689   8.565  12.558  1.00  0.00     0.021 C 
HETATM    6  C13 UNL     1      -2.905   7.590  13.913  1.00  0.00    -0.000 C 
HETATM    7  C14 UNL     1      -2.451   6.405  13.433  1.00  0.00    -0.060 C 
HETATM    8  C15 UNL     1      -3.444   5.317  12.989  1.00  0.00     0.036 C 
HETATM    9  C16 UNL     1      -4.951   5.612  13.144  1.00  0.00     0.015 C 
HETATM   10  C17 UNL     1      -5.221   6.613  14.274  1.00  0.00    -0.028 C 
HETATM   11  C18 UNL     1      -4.823   5.955  15.633  1.00  0.00     0.016 C 
HETATM   12  C19 UNL     1      -0.949   6.041  13.326  1.00  0.00    -0.014 C 
HETATM   13  C20 UNL     1      -0.638   5.031  14.467  1.00  0.00     0.020 C 
HETATM   14  C21 UNL     1      -0.647   5.344  11.968  1.00  0.00     0.021 C 
HETATM   15  C22 UNL     1       0.796   5.506  11.525  1.00  0.00     0.080 C 
HETATM   16  C23 UNL     1       1.066   6.965  11.240  1.00  0.00     0.135 C 
HETATM   17  O1  UNL     1       1.784   7.286  10.294  1.00  0.00    -0.297 OA
HETATM   18  C24 UNL     1       0.425   8.006  12.181  1.00  0.00     0.018 C 
HETATM   19  C25 UNL     1       1.507   9.073  12.462  1.00  0.00     0.023 C 
HETATM   20  C26 UNL     1      -0.722   8.681  11.417  1.00  0.00     0.023 C 
HETATM   21  C27 UNL     1       0.005   7.281  13.513  1.00  0.00     0.020 C 
HETATM   22  C28 UNL     1      -0.517   8.201  14.620  1.00  0.00     0.090 C 
HETATM   23  C29 UNL     1      -1.937   8.625  14.384  1.00  0.00     0.157 C 
HETATM   24  O2  UNL     1      -2.287   9.782  14.602  1.00  0.00    -0.293 OA
ENDROOT
BRANCH   1  25
HETATM   25  C6  UNL     1      -7.797   6.333  15.058  1.00  0.00    -0.014 C 
HETATM   26  C7  UNL     1      -7.475   4.835  15.056  1.00  0.00     0.010 C 
BRANCH  25  27
HETATM   27  C5  UNL     1      -9.156   6.586  14.348  1.00  0.00     0.008 C 
BRANCH  27  28
HETATM   28  C4  UNL     1     -10.058   7.596  15.069  1.00  0.00     0.028 C 
BRANCH  28  29
HETATM   29  C3  UNL     1     -10.758   8.497  14.087  1.00  0.00    -0.013 C 
HETATM   30  C2  UNL     1     -11.936   8.270  13.469  1.00  0.00     0.008 C 
HETATM   31  C1  UNL     1     -12.759   7.023  13.605  1.00  0.00     0.055 C 
BRANCH  30  32
HETATM   32  C30 UNL     1     -12.521   9.281  12.548  1.00  0.00     0.171 C 
HETATM   33  O3  UNL     1     -13.603   9.821  12.693  1.00  0.00    -0.646 OA
BRANCH  32  34
HETATM   34  O4  UNL     1     -11.743   9.577  11.493  1.00  0.00    -0.773 OA
HETATM   35  H44 UNL     1     -12.268  10.241  11.002  1.00  0.00     0.167 HD
ENDBRANCH  32  34
ENDBRANCH  30  32
ENDBRANCH  28  29
ENDBRANCH  27  28
ENDBRANCH  25  27
ENDBRANCH   1  25
TORSDOF 6
ENDMDL
MODEL 3
REMARK minimizedAffinity -9.17523003
REMARK CNNscore 0.352742791
REMARK CNNaffinity 7.16811562
REMARK  6 active torsions:
REMARK  status: ('A' for Active; 'I' for Inactive)
REMARK    1  A    between atoms: C2_2  and  C30_32 
REMARK    2  A    between atoms: C3_3  and  C4_4 
REMARK    3  A    between atoms: C4_4  and  C5_5 
REMARK    4  A    between atoms: C5_5  and  C6_6 
REMARK    5  A    between atoms: C6_6  and  C8_8 
REMARK    6  A    between atoms: C30_32  and  O4_34 
ROOT
HETATM    1  C8  UNL     1      -6.126   7.369  14.391  1.00  0.00    -0.002 C 
HETATM    2  C9  UNL     1      -5.806   8.694  15.146  1.00  0.00     0.007 C 
HETATM    3  C10 UNL     1      -4.301   8.969  14.991  1.00  0.00     0.015 C 
HETATM    4  C11 UNL     1      -3.835   8.020  13.873  1.00  0.00    -0.005 C 
HETATM    5  C12 UNL     1      -4.164   8.715  12.514  1.00  0.00     0.021 C 
HETATM    6  C13 UNL     1      -2.368   7.630  13.767  1.00  0.00    -0.000 C 
HETATM    7  C14 UNL     1      -1.987   6.438  13.240  1.00  0.00    -0.060 C 
HETATM    8  C15 UNL     1      -3.047   5.406  12.816  1.00  0.00     0.036 C 
HETATM    9  C16 UNL     1      -4.531   5.762  13.044  1.00  0.00     0.015 C 
HETATM   10  C17 UNL     1      -4.708   6.746  14.207  1.00  0.00    -0.028 C 
HETATM   11  C18 UNL     1      -4.281   6.037  15.532  1.00  0.00     0.016 C 
HETATM   12  C19 UNL     1      -0.510   6.013  13.060  1.00  0.00    -0.014 C 
HETATM   13  C20 UNL     1      -0.195   4.963  14.162  1.00  0.00     0.020 C 
HETATM   14  C21 UNL     1      -0.297   5.336  11.673  1.00  0.00     0.021 C 
HETATM   15  C22 UNL     1       1.132   5.446  11.171  1.00  0.00     0.080 C 
HETATM   16  C23 UNL     1       1.453   6.899  10.908  1.00  0.00     0.135 C 
HETATM   17  O1  UNL     1       2.144   7.212   9.939  1.00  0.00    -0.297 OA
HETATM   18  C24 UNL     1       0.900   7.943  11.899  1.00  0.00     0.018 C 
HETATM   19  C25 UNL     1       2.039   8.956  12.157  1.00  0.00     0.023 C 
HETATM   20  C26 UNL     1      -0.248   8.686  11.203  1.00  0.00     0.023 C 
HETATM   21  C27 UNL     1       0.506   7.205  13.232  1.00  0.00     0.020 C 
HETATM   22  C28 UNL     1       0.074   8.119  14.382  1.00  0.00     0.090 C 
HETATM   23  C29 UNL     1      -1.335   8.610  14.218  1.00  0.00     0.157 C 
HETATM   24  O2  UNL     1      -1.624   9.775  14.478  1.00  0.00    -0.293 OA
ENDROOT
BRANCH   1  25
HETATM   25  C6  UNL     1      -7.257   6.558  15.097  1.00  0.00    -0.014 C 
HETATM   26  C7  UNL     1      -7.164   6.648  16.625  1.00  0.00     0.010 C 
BRANCH  25  27
HETATM   27  C5  UNL     1      -7.210   5.071  14.648  1.00  0.00     0.008 C 
BRANCH  27  28
HETATM   28  C4  UNL     1      -7.918   4.800  13.314  1.00  0.00     0.028 C 
BRANCH  28  29
HETATM   29  C3  UNL     1      -6.968   4.216  12.304  1.00  0.00    -0.013 C 
HETATM   30  C2  UNL     1      -6.711   2.909  12.087  1.00  0.00     0.008 C 
HETATM   31  C1  UNL     1      -7.295   1.770  12.869  1.00  0.00     0.055 C 
BRANCH  30  32
HETATM   32  C30 UNL     1      -5.768   2.484  11.017  1.00  0.00     0.171 C 
HETATM   33  O3  UNL     1      -5.201   3.234  10.242  1.00  0.00    -0.646 OA
BRANCH  32  34
HETATM   34  O4  UNL     1      -5.570   1.157  10.957  1.00  0.00    -0.773 OA
HETATM   35  H44 UNL     1      -4.940   1.054  10.215  1.00  0.00     0.167 HD
ENDBRANCH  32  34
ENDBRANCH  30  32
ENDBRANCH  28  29
ENDBRANCH  27  28
ENDBRANCH  25  27
ENDBRANCH   1  25
TORSDOF 6
ENDMDL
MODEL 4
REMARK minimizedAffinity -7.0754981
REMARK CNNscore 0.32448566
REMARK CNNaffinity 6.26866913
REMARK  6 active torsions:
REMARK  status: ('A' for Active; 'I' for Inactive)
REMARK    1  A    between atoms: C2_2  and  C30_32 
REMARK    2  A    between atoms: C3_3  and  C4_4 
REMARK    3  A    between atoms: C4_4  and  C5_5 
REMARK    4  A    between atoms: C5_5  and  C6_6 
REMARK    5  A    between atoms: C6_6  and  C8_8 
REMARK    6  A    between atoms: C30_32  and  O4_34 
ROOT
HETATM    1  C8  UNL     1      -2.247   7.817  14.800  1.00  0.00    -0.002 C 
HETATM    2  C9  UNL     1      -2.124   8.449  13.382  1.00  0.00     0.007 C 
HETATM    3  C10 UNL     1      -2.086   9.978  13.553  1.00  0.00     0.015 C 
HETATM    4  C11 UNL     1      -1.829  10.204  15.053  1.00  0.00    -0.005 C 
HETATM    5  C12 UNL     1      -0.290  10.080  15.278  1.00  0.00     0.021 C 
HETATM    6  C13 UNL     1      -2.212  11.528  15.700  1.00  0.00    -0.000 C 
HETATM    7  C14 UNL     1      -2.553  11.602  17.012  1.00  0.00    -0.060 C 
HETATM    8  C15 UNL     1      -2.646  10.324  17.862  1.00  0.00     0.036 C 
HETATM    9  C16 UNL     1      -2.376   8.974  17.164  1.00  0.00     0.015 C 
HETATM   10  C17 UNL     1      -2.697   9.035  15.665  1.00  0.00    -0.028 C 
HETATM   11  C18 UNL     1      -4.234   9.251  15.489  1.00  0.00     0.016 C 
HETATM   12  C19 UNL     1      -2.900  12.928  17.733  1.00  0.00    -0.014 C 
HETATM   13  C20 UNL     1      -4.441  12.952  17.934  1.00  0.00     0.020 C 
HETATM   14  C21 UNL     1      -2.229  12.982  19.137  1.00  0.00     0.021 C 
HETATM   15  C22 UNL     1      -1.999  14.399  19.632  1.00  0.00     0.080 C 
HETATM   16  C23 UNL     1      -0.993  15.079  18.733  1.00  0.00     0.135 C 
HETATM   17  O1  UNL     1      -0.153  15.840  19.213  1.00  0.00    -0.297 OA
HETATM   18  C24 UNL     1      -1.080  14.794  17.219  1.00  0.00     0.018 C 
HETATM   19  C25 UNL     1      -0.879  16.148  16.501  1.00  0.00     0.023 C 
HETATM   20  C26 UNL     1       0.096  13.880  16.849  1.00  0.00     0.023 C 
HETATM   21  C27 UNL     1      -2.506  14.209  16.904  1.00  0.00     0.020 C 
HETATM   22  C28 UNL     1      -2.815  14.005  15.418  1.00  0.00     0.090 C 
HETATM   23  C29 UNL     1      -2.166  12.767  14.868  1.00  0.00     0.157 C 
HETATM   24  O2  UNL     1      -1.645  12.778  13.757  1.00  0.00    -0.293 OA
ENDROOT
BRANCH   1  25
HETATM   25  C6  UNL     1      -3.097   6.508  14.779  1.00  0.00    -0.014 C 
HETATM   26  C7  UNL     1      -2.235   5.257  14.981  1.00  0.00     0.010 C 
BRANCH  25  27
HETATM   27  C5  UNL     1      -3.884   6.403  13.443  1.00  0.00     0.008 C 
BRANCH  27  28
HETATM   28  C4  UNL     1      -5.328   5.912  13.607  1.00  0.00     0.028 C 
BRANCH  28  29
HETATM   29  C3  UNL     1      -5.513   4.553  12.988  1.00  0.00    -0.013 C 
HETATM   30  C2  UNL     1      -6.650   3.829  12.936  1.00  0.00     0.008 C 
HETATM   31  C1  UNL     1      -7.960   4.226  13.550  1.00  0.00     0.055 C 
BRANCH  30  32
HETATM   32  C30 UNL     1      -6.683   2.509  12.249  1.00  0.00     0.171 C 
HETATM   33  O3  UNL     1      -5.793   2.059  11.550  1.00  0.00    -0.646 OA
BRANCH  32  34
HETATM   34  O4  UNL     1      -7.810   1.809  12.460  1.00  0.00    -0.773 OA
HETATM   35  H44 UNL     1      -7.668   0.988  11.946  1.00  0.00     0.167 HD
ENDBRANCH  32  34
ENDBRANCH  30  32
ENDBRANCH  28  29
ENDBRANCH  27  28
ENDBRANCH  25  27
ENDBRANCH   1  25
TORSDOF 6
ENDMDL
MODEL 5
REMARK minimizedAffinity -6.77739
REMARK CNNscore 0.305069953
REMARK CNNaffinity 6.69429731
REMARK  6 active torsions:
REMARK  status: ('A' for Active; 'I' for Inactive)
REMARK    1  A    between atoms: C2_2  and  C30_32 
REMARK    2  A    between atoms: C3_3  and  C4_4 
REMARK    3  A    between atoms: C4_4  and  C5_5 
REMARK    4  A    between atoms: C5_5  and  C6_6 
REMARK    5  A    between atoms: C6_6  and  C8_8 
REMARK    6  A    between atoms: C30_32  and  O4_34 
ROOT
HETATM    1  C8  UNL     1      -8.440   7.734  14.557  1.00  0.00    -0.002 C 
HETATM    2  C9  UNL     1      -9.207   6.399  14.321  1.00  0.00     0.007 C 
HETATM    3  C10 UNL     1     -10.699   6.663  14.590  1.00  0.00     0.015 C 
HETATM    4  C11 UNL     1     -10.832   8.195  14.627  1.00  0.00    -0.005 C 
HETATM    5  C12 UNL     1     -10.950   8.682  13.149  1.00  0.00     0.021 C 
HETATM    6  C13 UNL     1     -12.008   8.841  15.346  1.00  0.00    -0.000 C 
HETATM    7  C14 UNL     1     -11.908  10.074  15.905  1.00  0.00    -0.060 C 
HETATM    8  C15 UNL     1     -10.561  10.818  15.901  1.00  0.00     0.036 C 
HETATM    9  C16 UNL     1      -9.344  10.101  15.280  1.00  0.00     0.015 C 
HETATM   10  C17 UNL     1      -9.482   8.575  15.356  1.00  0.00    -0.028 C 
HETATM   11  C18 UNL     1      -9.450   8.143  16.857  1.00  0.00     0.016 C 
HETATM   12  C19 UNL     1     -13.086  10.799  16.600  1.00  0.00    -0.014 C 
HETATM   13  C20 UNL     1     -12.831  10.725  18.132  1.00  0.00     0.020 C 
HETATM   14  C21 UNL     1     -13.128  12.300  16.189  1.00  0.00     0.021 C 
HETATM   15  C22 UNL     1     -14.514  12.909  16.305  1.00  0.00     0.080 C 
HETATM   16  C23 UNL     1     -15.432  12.244  15.306  1.00  0.00     0.135 C 
HETATM   17  O1  UNL     1     -16.278  12.908  14.708  1.00  0.00    -0.297 OA
HETATM   18  C24 UNL     1     -15.271  10.725  15.090  1.00  0.00     0.018 C 
HETATM   19  C25 UNL     1     -16.698  10.134  15.024  1.00  0.00     0.023 C 
HETATM   20  C26 UNL     1     -14.606  10.515  13.724  1.00  0.00     0.023 C 
HETATM   21  C27 UNL     1     -14.483  10.129  16.315  1.00  0.00     0.020 C 
HETATM   22  C28 UNL     1     -14.363   8.603  16.334  1.00  0.00     0.090 C 
HETATM   23  C29 UNL     1     -13.307   8.105  15.390  1.00  0.00     0.157 C 
HETATM   24  O2  UNL     1     -13.504   7.105  14.705  1.00  0.00    -0.293 OA
ENDROOT
BRANCH   1  25
HETATM   25  C6  UNL     1      -7.013   7.487  15.140  1.00  0.00    -0.014 C 
HETATM   26  C7  UNL     1      -5.982   8.471  14.578  1.00  0.00     0.010 C 
BRANCH  25  27
HETATM   27  C5  UNL     1      -6.565   6.026  14.855  1.00  0.00     0.008 C 
BRANCH  27  28
HETATM   28  C4  UNL     1      -5.835   5.847  13.517  1.00  0.00     0.028 C 
BRANCH  28  29
HETATM   29  C3  UNL     1      -6.218   4.549  12.860  1.00  0.00    -0.013 C 
HETATM   30  C2  UNL     1      -5.385   3.609  12.365  1.00  0.00     0.008 C 
HETATM   31  C1  UNL     1      -3.889   3.712  12.325  1.00  0.00     0.055 C 
BRANCH  30  32
HETATM   32  C30 UNL     1      -5.919   2.351  11.777  1.00  0.00     0.171 C 
HETATM   33  O3  UNL     1      -7.019   1.880  12.005  1.00  0.00    -0.646 OA
BRANCH  32  34
HETATM   34  O4  UNL     1      -5.071   1.737  10.935  1.00  0.00    -0.773 OA
HETATM   35  H44 UNL     1      -5.569   0.945  10.648  1.00  0.00     0.167 HD
ENDBRANCH  32  34
ENDBRANCH  30  32
ENDBRANCH  28  29
ENDBRANCH  27  28
ENDBRANCH  25  27
ENDBRANCH   1  25
TORSDOF 6
ENDMDL
MODEL 6
REMARK minimizedAffinity -8.19379425
REMARK CNNscore 0.270854115
REMARK CNNaffinity 6.57290459
REMARK  6 active torsions:
REMARK  status: ('A' for Active; 'I' for Inactive)
REMARK    1  A    between atoms: C2_2  and  C30_32 
REMARK    2  A    between atoms: C3_3  and  C4_4 
REMARK    3  A    between atoms: C4_4  and  C5_5 
REMARK    4  A    between atoms: C5_5  and  C6_6 
REMARK    5  A    between atoms: C6_6  and  C8_8 
REMARK    6  A    between atoms: C30_32  and  O4_34 
ROOT
HETATM    1  C8  UNL     1       1.917   7.163  10.222  1.00  0.00    -0.002 C 
HETATM    2  C9  UNL     1       2.518   6.063  11.146  1.00  0.00     0.007 C 
HETATM    3  C10 UNL     1       1.532   5.834  12.305  1.00  0.00     0.015 C 
HETATM    4  C11 UNL     1       0.231   6.526  11.863  1.00  0.00    -0.005 C 
HETATM    5  C12 UNL     1      -0.530   5.524  10.939  1.00  0.00     0.021 C 
HETATM    6  C13 UNL     1      -0.795   6.955  12.903  1.00  0.00    -0.000 C 
HETATM    7  C14 UNL     1      -1.619   8.013  12.691  1.00  0.00    -0.060 C 
HETATM    8  C15 UNL     1      -1.472   8.867  11.420  1.00  0.00     0.036 C 
HETATM    9  C16 UNL     1      -0.345   8.498  10.432  1.00  0.00     0.015 C 
HETATM   10  C17 UNL     1       0.823   7.798  11.136  1.00  0.00    -0.028 C 
HETATM   11  C18 UNL     1       1.497   8.810  12.117  1.00  0.00     0.016 C 
HETATM   12  C19 UNL     1      -2.715   8.459  13.690  1.00  0.00    -0.014 C 
HETATM   13  C20 UNL     1      -2.200   9.747  14.392  1.00  0.00     0.020 C 
HETATM   14  C21 UNL     1      -4.033   8.811  12.939  1.00  0.00     0.021 C 
HETATM   15  C22 UNL     1      -5.269   8.661  13.807  1.00  0.00     0.080 C 
HETATM   16  C23 UNL     1      -5.447   7.205  14.167  1.00  0.00     0.135 C 
HETATM   17  O1  UNL     1      -6.575   6.714  14.213  1.00  0.00    -0.297 OA
HETATM   18  C24 UNL     1      -4.178   6.388  14.483  1.00  0.00     0.018 C 
HETATM   19  C25 UNL     1      -4.507   5.519  15.719  1.00  0.00     0.023 C 
HETATM   20  C26 UNL     1      -3.920   5.449  13.297  1.00  0.00     0.023 C 
HETATM   21  C27 UNL     1      -3.009   7.390  14.809  1.00  0.00     0.020 C 
HETATM   22  C28 UNL     1      -1.708   6.741  15.290  1.00  0.00     0.090 C 
HETATM   23  C29 UNL     1      -0.913   6.156  14.159  1.00  0.00     0.157 C 
HETATM   24  O2  UNL     1      -0.358   5.068  14.284  1.00  0.00    -0.293 OA
ENDROOT
BRANCH   1  25
HETATM   25  C6  UNL     1       3.027   8.055   9.585  1.00  0.00    -0.014 C 
HETATM   26  C7  UNL     1       2.931   8.093   8.056  1.00  0.00     0.010 C 
BRANCH  25  27
HETATM   27  C5  UNL     1       4.432   7.551  10.019  1.00  0.00     0.008 C 
BRANCH  27  28
HETATM   28  C4  UNL     1       5.184   8.517  10.943  1.00  0.00     0.028 C 
BRANCH  28  29
HETATM   29  C3  UNL     1       5.037   8.113  12.385  1.00  0.00    -0.013 C 
HETATM   30  C2  UNL     1       5.880   8.395  13.401  1.00  0.00     0.008 C 
HETATM   31  C1  UNL     1       7.180   9.132  13.269  1.00  0.00     0.055 C 
BRANCH  30  32
HETATM   32  C30 UNL     1       5.575   7.956  14.789  1.00  0.00     0.171 C 
HETATM   33  O3  UNL     1       6.303   8.117  15.753  1.00  0.00    -0.646 OA
BRANCH  32  34
HETATM   34  O4  UNL     1       4.389   7.340  14.921  1.00  0.00    -0.773 OA
HETATM   35  H44 UNL     1       4.350   7.121  15.874  1.00  0.00     0.167 HD
ENDBRANCH  32  34
ENDBRANCH  30  32
ENDBRANCH  28  29
ENDBRANCH  27  28
ENDBRANCH  25  27
ENDBRANCH   1  25
TORSDOF 6
ENDMDL
MODEL 7
REMARK minimizedAffinity -8.80583668
REMARK CNNscore 0.22755146
REMARK CNNaffinity 6.0776329
REMARK  6 active torsions:
REMARK  status: ('A' for Active; 'I' for Inactive)
REMARK    1  A    between atoms: C2_2  and  C30_32 
REMARK    2  A    between atoms: C3_3  and  C4_4 
REMARK    3  A    between atoms: C4_4  and  C5_5 
REMARK    4  A    between atoms: C5_5  and  C6_6 
REMARK    5  A    between atoms: C6_6  and  C8_8 
REMARK    6  A    between atoms: C30_32  and  O4_34 
ROOT
HETATM    1  C8  UNL     1       6.534   9.914  14.325  1.00  0.00    -0.002 C 
HETATM    2  C9  UNL     1       7.638   8.998  13.717  1.00  0.00     0.007 C 
HETATM    3  C10 UNL     1       6.980   8.131  12.629  1.00  0.00     0.015 C 
HETATM    4  C11 UNL     1       5.613   8.787  12.370  1.00  0.00    -0.005 C 
HETATM    5  C12 UNL     1       5.851   9.964  11.373  1.00  0.00     0.021 C 
HETATM    6  C13 UNL     1       4.483   7.975  11.753  1.00  0.00    -0.000 C 
HETATM    7  C14 UNL     1       3.182   8.258  12.015  1.00  0.00    -0.060 C 
HETATM    8  C15 UNL     1       2.817   9.362  13.023  1.00  0.00     0.036 C 
HETATM    9  C16 UNL     1       3.972  10.095  13.737  1.00  0.00     0.015 C 
HETATM   10  C17 UNL     1       5.226   9.217  13.840  1.00  0.00    -0.028 C 
HETATM   11  C18 UNL     1       4.913   8.004  14.774  1.00  0.00     0.016 C 
HETATM   12  C19 UNL     1       1.994   7.500  11.374  1.00  0.00    -0.014 C 
HETATM   13  C20 UNL     1       1.403   6.564  12.465  1.00  0.00     0.020 C 
HETATM   14  C21 UNL     1       0.879   8.494  10.935  1.00  0.00     0.021 C 
HETATM   15  C22 UNL     1       0.015   7.959   9.807  1.00  0.00     0.080 C 
HETATM   16  C23 UNL     1       0.863   7.807   8.565  1.00  0.00     0.135 C 
HETATM   17  O1  UNL     1       0.391   8.078   7.460  1.00  0.00    -0.297 OA
HETATM   18  C24 UNL     1       2.306   7.294   8.743  1.00  0.00     0.018 C 
HETATM   19  C25 UNL     1       2.554   6.269   7.613  1.00  0.00     0.023 C 
HETATM   20  C26 UNL     1       3.254   8.481   8.525  1.00  0.00     0.023 C 
HETATM   21  C27 UNL     1       2.417   6.600  10.151  1.00  0.00     0.020 C 
HETATM   22  C28 UNL     1       3.750   5.902  10.432  1.00  0.00     0.090 C 
HETATM   23  C29 UNL     1       4.832   6.874  10.806  1.00  0.00     0.157 C 
HETATM   24  O2  UNL     1       5.971   6.740  10.367  1.00  0.00    -0.293 OA
ENDROOT
BRANCH   1  25
HETATM   25  C6  UNL     1       6.771  10.176  15.845  1.00  0.00    -0.014 C 
HETATM   26  C7  UNL     1       5.807  11.227  16.406  1.00  0.00     0.010 C 
BRANCH  25  27
HETATM   27  C5  UNL     1       8.241  10.618  16.089  1.00  0.00     0.008 C 
BRANCH  27  28
HETATM   28  C4  UNL     1       8.448  11.409  17.387  1.00  0.00     0.028 C 
BRANCH  28  29
HETATM   29  C3  UNL     1       9.842  11.219  17.922  1.00  0.00    -0.013 C 
HETATM   30  C2  UNL     1      10.242  11.314  19.207  1.00  0.00     0.008 C 
HETATM   31  C1  UNL     1       9.363  11.694  20.362  1.00  0.00     0.055 C 
BRANCH  30  32
HETATM   32  C30 UNL     1      11.658  11.058  19.586  1.00  0.00     0.171 C 
HETATM   33  O3  UNL     1      12.222  11.529  20.557  1.00  0.00    -0.646 OA
BRANCH  32  34
HETATM   34  O4  UNL     1      12.308  10.233  18.749  1.00  0.00    -0.773 OA
HETATM   35  H44 UNL     1      13.205  10.176  19.136  1.00  0.00     0.167 HD
ENDBRANCH  32  34
ENDBRANCH  30  32
ENDBRANCH  28  29
ENDBRANCH  27  28
ENDBRANCH  25  27
ENDBRANCH   1  25
TORSDOF 6
ENDMDL
MODEL 8
REMARK minimizedAffinity -7.0880723
REMARK CNNscore 0.223764136
REMARK CNNaffinity 5.79613495
REMARK  6 active torsions:
REMARK  status: ('A' for Active; 'I' for Inactive)
REMARK    1  A    between atoms: C2_2  and  C30_32 
REMARK    2  A    between atoms: C3_3  and  C4_4 
REMARK    3  A    between atoms: C4_4  and  C5_5 
REMARK    4  A    between atoms: C5_5  and  C6_6 
REMARK    5  A    between atoms: C6_6  and  C8_8 
REMARK    6  A    between atoms: C30_32  and  O4_34 
ROOT
HETATM    1  C8  UNL     1      -3.267 -11.122   4.428  1.00  0.00    -0.002 C 
HETATM    2  C9  UNL     1      -2.571 -12.382   3.832  1.00  0.00     0.007 C 
HETATM    3  C10 UNL     1      -3.200 -12.657   2.455  1.00  0.00     0.015 C 
HETATM    4  C11 UNL     1      -3.983 -11.378   2.112  1.00  0.00    -0.005 C 
HETATM    5  C12 UNL     1      -2.962 -10.362   1.510  1.00  0.00     0.021 C 
HETATM    6  C13 UNL     1      -5.123 -11.429   1.104  1.00  0.00    -0.000 C 
HETATM    7  C14 UNL     1      -6.170 -10.569   1.175  1.00  0.00    -0.060 C 
HETATM    8  C15 UNL     1      -6.274  -9.569   2.339  1.00  0.00     0.036 C 
HETATM    9  C16 UNL     1      -5.177  -9.610   3.424  1.00  0.00     0.015 C 
HETATM   10  C17 UNL     1      -4.545 -11.002   3.540  1.00  0.00    -0.028 C 
HETATM   11  C18 UNL     1      -5.626 -12.003   4.059  1.00  0.00     0.016 C 
HETATM   12  C19 UNL     1      -7.328 -10.542   0.147  1.00  0.00    -0.014 C 
HETATM   13  C20 UNL     1      -8.566 -11.186   0.832  1.00  0.00     0.020 C 
HETATM   14  C21 UNL     1      -7.693  -9.077  -0.232  1.00  0.00     0.021 C 
HETATM   15  C22 UNL     1      -8.335  -8.960  -1.604  1.00  0.00     0.080 C 
HETATM   16  C23 UNL     1      -7.327  -9.356  -2.656  1.00  0.00     0.135 C 
HETATM   17  O1  UNL     1      -7.281  -8.748  -3.726  1.00  0.00    -0.297 OA
HETATM   18  C24 UNL     1      -6.391 -10.541  -2.340  1.00  0.00     0.018 C 
HETATM   19  C25 UNL     1      -6.315 -11.399  -3.623  1.00  0.00     0.023 C 
HETATM   20  C26 UNL     1      -4.994  -9.971  -2.064  1.00  0.00     0.023 C 
HETATM   21  C27 UNL     1      -7.020 -11.369  -1.159  1.00  0.00     0.020 C 
HETATM   22  C28 UNL     1      -6.291 -12.670  -0.812  1.00  0.00     0.090 C 
HETATM   23  C29 UNL     1      -5.049 -12.427  -0.004  1.00  0.00     0.157 C 
HETATM   24  O2  UNL     1      -4.020 -13.056  -0.236  1.00  0.00    -0.293 OA
ENDROOT
BRANCH   1  25
HETATM   25  C6  UNL     1      -3.391 -11.209   5.981  1.00  0.00    -0.014 C 
HETATM   26  C7  UNL     1      -3.175 -12.636   6.498  1.00  0.00     0.010 C 
BRANCH  25  27
HETATM   27  C5  UNL     1      -4.781 -10.684   6.436  1.00  0.00     0.008 C 
BRANCH  27  28
HETATM   28  C4  UNL     1      -4.715  -9.438   7.329  1.00  0.00     0.028 C 
BRANCH  28  29
HETATM   29  C3  UNL     1      -4.461  -9.812   8.765  1.00  0.00    -0.013 C 
HETATM   30  C2  UNL     1      -5.325  -9.717   9.797  1.00  0.00     0.008 C 
HETATM   31  C1  UNL     1      -6.712  -9.153   9.717  1.00  0.00     0.055 C 
BRANCH  30  32
HETATM   32  C30 UNL     1      -4.936 -10.168  11.160  1.00  0.00     0.171 C 
HETATM   33  O3  UNL     1      -5.452 -11.087  11.771  1.00  0.00    -0.646 OA
BRANCH  32  34
HETATM   34  O4  UNL     1      -3.928  -9.464  11.704  1.00  0.00    -0.773 OA
HETATM   35  H44 UNL     1      -3.805  -9.882  12.580  1.00  0.00     0.167 HD
ENDBRANCH  32  34
ENDBRANCH  30  32
ENDBRANCH  28  29
ENDBRANCH  27  28
ENDBRANCH  25  27
ENDBRANCH   1  25
TORSDOF 6
ENDMDL
MODEL 9
REMARK minimizedAffinity -7.5072155
REMARK CNNscore 0.222692207
REMARK CNNaffinity 6.52787352
REMARK  6 active torsions:
REMARK  status: ('A' for Active; 'I' for Inactive)
REMARK    1  A    between atoms: C2_2  and  C30_32 
REMARK    2  A    between atoms: C3_3  and  C4_4 
REMARK    3  A    between atoms: C4_4  and  C5_5 
REMARK    4  A    between atoms: C5_5  and  C6_6 
REMARK    5  A    between atoms: C6_6  and  C8_8 
REMARK    6  A    between atoms: C30_32  and  O4_34 
ROOT
HETATM    1  C8  UNL     1     -10.178   7.739  14.784  1.00  0.00    -0.002 C 
HETATM    2  C9  UNL     1      -9.896   9.271  14.797  1.00  0.00     0.007 C 
HETATM    3  C10 UNL     1     -11.234   9.996  14.569  1.00  0.00     0.015 C 
HETATM    4  C11 UNL     1     -12.311   8.918  14.780  1.00  0.00    -0.005 C 
HETATM    5  C12 UNL     1     -12.561   8.814  16.317  1.00  0.00     0.021 C 
HETATM    6  C13 UNL     1     -13.696   9.095  14.172  1.00  0.00    -0.000 C 
HETATM    7  C14 UNL     1     -14.457   8.028  13.821  1.00  0.00    -0.060 C 
HETATM    8  C15 UNL     1     -13.897   6.601  13.950  1.00  0.00     0.036 C 
HETATM    9  C16 UNL     1     -12.446   6.440  14.452  1.00  0.00     0.015 C 
HETATM   10  C17 UNL     1     -11.592   7.672  14.128  1.00  0.00    -0.028 C 
HETATM   11  C18 UNL     1     -11.446   7.787  12.577  1.00  0.00     0.016 C 
HETATM   12  C19 UNL     1     -15.890   8.149  13.248  1.00  0.00    -0.014 C 
HETATM   13  C20 UNL     1     -15.805   7.846  11.726  1.00  0.00     0.020 C 
HETATM   14  C21 UNL     1     -16.834   7.094  13.898  1.00  0.00     0.021 C 
HETATM   15  C22 UNL     1     -18.294   7.509  13.877  1.00  0.00     0.080 C 
HETATM   16  C23 UNL     1     -18.473   8.728  14.751  1.00  0.00     0.135 C 
HETATM   17  O1  UNL     1     -19.483   8.846  15.446  1.00  0.00    -0.297 OA
HETATM   18  C24 UNL     1     -17.365   9.800  14.717  1.00  0.00     0.018 C 
HETATM   19  C25 UNL     1     -18.077  11.172  14.681  1.00  0.00     0.023 C 
HETATM   20  C26 UNL     1     -16.584   9.704  16.034  1.00  0.00     0.023 C 
HETATM   21  C27 UNL     1     -16.508   9.589  13.415  1.00  0.00     0.020 C 
HETATM   22  C28 UNL     1     -15.449  10.662  13.149  1.00  0.00     0.090 C 
HETATM   23  C29 UNL     1     -14.228  10.480  14.003  1.00  0.00     0.157 C 
HETATM   24  O2  UNL     1     -13.675  11.449  14.517  1.00  0.00    -0.293 OA
ENDROOT
BRANCH   1  25
HETATM   25  C6  UNL     1      -8.988   6.936  14.174  1.00  0.00    -0.014 C 
HETATM   26  C7  UNL     1      -9.411   6.117  12.949  1.00  0.00     0.010 C 
BRANCH  25  27
HETATM   27  C5  UNL     1      -8.366   6.002  15.249  1.00  0.00     0.008 C 
BRANCH  27  28
HETATM   28  C4  UNL     1      -7.063   5.322  14.808  1.00  0.00     0.028 C 
BRANCH  28  29
HETATM   29  C3  UNL     1      -7.344   4.083  14.002  1.00  0.00    -0.013 C 
HETATM   30  C2  UNL     1      -6.563   3.538  13.045  1.00  0.00     0.008 C 
HETATM   31  C1  UNL     1      -5.267   4.112  12.554  1.00  0.00     0.055 C 
BRANCH  30  32
HETATM   32  C30 UNL     1      -6.963   2.279  12.361  1.00  0.00     0.171 C 
HETATM   33  O3  UNL     1      -6.262   1.644  11.593  1.00  0.00    -0.646 OA
BRANCH  32  34
HETATM   34  O4  UNL     1      -8.206   1.864  12.657  1.00  0.00    -0.773 OA
HETATM   35  H44 UNL     1      -8.303   1.044  12.132  1.00  0.00     0.167 HD
ENDBRANCH  32  34
ENDBRANCH  30  32
ENDBRANCH  28  29
ENDBRANCH  27  28
ENDBRANCH  25  27
ENDBRANCH   1  25
TORSDOF 6
ENDMDL
