MODEL 1
REMARK minimizedAffinity -10.3942366
REMARK  3 active torsions:
REMARK  status: ('A' for Active; 'I' for Inactive)
REMARK    1  A    between atoms: C7_7  and  C8_8 
REMARK    2  A    between atoms: C8_8  and  O2_10 
REMARK    3  A    between atoms: C21_23  and  O3_24 
ROOT
HETATM    1  C1  UNL     1       4.425   8.945  13.424  1.00  0.00     0.011 C 
HETATM    2  C2  UNL     1       3.900   8.884  11.975  1.00  0.00    -0.005 C 
HETATM    3  C3  UNL     1       5.078   8.978  10.974  1.00  0.00    -0.014 C 
HETATM    4  C4  UNL     1       5.889  10.272  11.120  1.00  0.00     0.010 C 
HETATM    5  C5  UNL     1       4.589   8.861   9.524  1.00  0.00     0.006 C 
HETATM    6  C6  UNL     1       3.454   7.861   9.314  1.00  0.00     0.021 C 
HETATM    7  C7  UNL     1       3.282   6.839  10.457  1.00  0.00     0.053 C 
HETATM    8  C9  UNL     1       2.205   5.789  10.071  1.00  0.00     0.022 C 
HETATM    9  C10 UNL     1       1.162   5.554  11.162  1.00  0.00     0.016 C 
HETATM   10  C11 UNL     1       0.436   6.853  11.597  1.00  0.00    -0.013 C 
HETATM   11  C12 UNL     1      -0.233   7.469  10.325  1.00  0.00     0.021 C 
HETATM   12  C13 UNL     1       1.472   7.876  12.094  1.00  0.00    -0.069 C 
HETATM   13  C14 UNL     1       1.050   8.877  12.898  1.00  0.00    -0.022 C 
HETATM   14  C15 UNL     1      -0.332   9.045  13.468  1.00  0.00     0.033 C 
HETATM   15  C16 UNL     1      -1.353   7.936  13.126  1.00  0.00     0.007 C 
HETATM   16  C17 UNL     1      -2.614   7.866  14.091  1.00  0.00    -0.035 C 
HETATM   17  C18 UNL     1      -2.217   7.500  15.542  1.00  0.00     0.016 C 
HETATM   18  C19 UNL     1      -3.295   9.267  14.122  1.00  0.00     0.012 C 
HETATM   19  C20 UNL     1      -4.681   9.274  14.761  1.00  0.00     0.033 C 
HETATM   20  C21 UNL     1      -5.624   8.265  14.110  1.00  0.00     0.126 C 
HETATM   21  C22 UNL     1      -5.065   6.812  14.078  1.00  0.00    -0.017 C 
HETATM   22  C23 UNL     1      -5.117   6.158  15.473  1.00  0.00     0.018 C 
HETATM   23  C24 UNL     1      -6.016   5.975  13.178  1.00  0.00     0.018 C 
HETATM   24  C25 UNL     1      -3.626   6.848  13.442  1.00  0.00     0.004 C 
HETATM   25  C26 UNL     1      -2.969   5.469  13.228  1.00  0.00     0.007 C 
HETATM   26  C27 UNL     1      -1.744   5.562  12.307  1.00  0.00     0.011 C 
HETATM   27  C28 UNL     1      -0.654   6.570  12.768  1.00  0.00    -0.028 C 
HETATM   28  C29 UNL     1       0.062   5.940  13.999  1.00  0.00     0.016 C 
HETATM   29  C30 UNL     1       2.979   7.608  11.793  1.00  0.00     0.038 C 
ENDROOT
BRANCH   7  30
HETATM   30  C8  UNL     1       4.560   6.002  10.636  1.00  0.00     0.149 C 
HETATM   31  O1  UNL     1       5.471   6.213  11.421  1.00  0.00    -0.649 OA
BRANCH  30  32
HETATM   32  O2  UNL     1       4.599   4.896   9.865  1.00  0.00    -0.776 OA
HETATM   33  H13 UNL     1       5.442   4.464  10.120  1.00  0.00     0.167 HD
ENDBRANCH  30  32
ENDBRANCH   7  30
BRANCH  20  34
HETATM   34  O3  UNL     1      -6.878   8.304  14.791  1.00  0.00    -0.395 OA
HETATM   35  H33 UNL     1      -7.208   9.218  14.750  1.00  0.00     0.210 HD
ENDBRANCH  20  34
TORSDOF 3
ENDMDL
MODEL 2
REMARK minimizedAffinity -9.09417248
REMARK  3 active torsions:
REMARK  status: ('A' for Active; 'I' for Inactive)
REMARK    1  A    between atoms: C7_7  and  C8_8 
REMARK    2  A    between atoms: C8_8  and  O2_10 
REMARK    3  A    between atoms: C21_23  and  O3_24 
ROOT
HETATM    1  C1  UNL     1       5.283   9.660  14.383  1.00  0.00     0.011 C 
HETATM    2  C2  UNL     1       4.898   9.631  12.890  1.00  0.00    -0.005 C 
HETATM    3  C3  UNL     1       6.164   9.764  12.007  1.00  0.00    -0.014 C 
HETATM    4  C4  UNL     1       6.940  11.063  12.261  1.00  0.00     0.010 C 
HETATM    5  C5  UNL     1       5.816   9.678  10.515  1.00  0.00     0.006 C 
HETATM    6  C6  UNL     1       4.719   8.671  10.174  1.00  0.00     0.021 C 
HETATM    7  C7  UNL     1       4.454   7.619  11.270  1.00  0.00     0.053 C 
HETATM    8  C9  UNL     1       3.433   6.567  10.758  1.00  0.00     0.022 C 
HETATM    9  C10 UNL     1       2.294   6.292  11.739  1.00  0.00     0.016 C 
HETATM   10  C11 UNL     1       1.513   7.571  12.136  1.00  0.00    -0.013 C 
HETATM   11  C12 UNL     1       0.959   8.212  10.821  1.00  0.00     0.021 C 
HETATM   12  C13 UNL     1       2.484   8.593  12.753  1.00  0.00    -0.069 C 
HETATM   13  C14 UNL     1       1.974   9.568  13.538  1.00  0.00    -0.022 C 
HETATM   14  C15 UNL     1       0.542   9.705  13.978  1.00  0.00     0.033 C 
HETATM   15  C16 UNL     1      -0.427   8.594  13.513  1.00  0.00     0.007 C 
HETATM   16  C17 UNL     1      -1.772   8.485  14.353  1.00  0.00    -0.035 C 
HETATM   17  C18 UNL     1      -1.509   8.086  15.826  1.00  0.00     0.016 C 
HETATM   18  C19 UNL     1      -2.472   9.877  14.354  1.00  0.00     0.012 C 
HETATM   19  C20 UNL     1      -3.913   9.851  14.858  1.00  0.00     0.033 C 
HETATM   20  C21 UNL     1      -4.776   8.850  14.096  1.00  0.00     0.126 C 
HETATM   21  C22 UNL     1      -4.196   7.404  14.082  1.00  0.00    -0.017 C 
HETATM   22  C23 UNL     1      -4.371   6.714  15.449  1.00  0.00     0.018 C 
HETATM   23  C24 UNL     1      -5.047   6.579  13.075  1.00  0.00     0.018 C 
HETATM   24  C25 UNL     1      -2.705   7.472  13.586  1.00  0.00     0.004 C 
HETATM   25  C26 UNL     1      -2.011   6.107  13.402  1.00  0.00     0.007 C 
HETATM   26  C27 UNL     1      -0.706   6.237  12.604  1.00  0.00     0.011 C 
HETATM   27  C28 UNL     1       0.321   7.245  13.191  1.00  0.00    -0.028 C 
HETATM   28  C29 UNL     1       0.927   6.592  14.468  1.00  0.00     0.016 C 
HETATM   29  C30 UNL     1       4.016   8.350  12.590  1.00  0.00     0.038 C 
ENDROOT
BRANCH   7  30
HETATM   30  C8  UNL     1       5.721   6.792  11.549  1.00  0.00     0.149 C 
HETATM   31  O1  UNL     1       6.188   6.512  12.641  1.00  0.00    -0.649 OA
BRANCH  30  32
HETATM   32  O2  UNL     1       6.303   6.296  10.438  1.00  0.00    -0.776 OA
HETATM   33  H13 UNL     1       7.059   5.775  10.783  1.00  0.00     0.167 HD
ENDBRANCH  30  32
ENDBRANCH   7  30
BRANCH  20  34
HETATM   34  O3  UNL     1      -6.089   8.857  14.657  1.00  0.00    -0.395 OA
HETATM   35  H33 UNL     1      -6.426   9.768  14.606  1.00  0.00     0.210 HD
ENDBRANCH  20  34
TORSDOF 3
ENDMDL
MODEL 3
REMARK minimizedAffinity -9.07844067
REMARK  3 active torsions:
REMARK  status: ('A' for Active; 'I' for Inactive)
REMARK    1  A    between atoms: C7_7  and  C8_8 
REMARK    2  A    between atoms: C8_8  and  O2_10 
REMARK    3  A    between atoms: C21_23  and  O3_24 
ROOT
HETATM    1  C1  UNL     1      -5.905   3.130  13.322  1.00  0.00     0.011 C 
HETATM    2  C2  UNL     1      -6.326   4.605  13.161  1.00  0.00    -0.005 C 
HETATM    3  C3  UNL     1      -7.845   4.759  13.420  1.00  0.00    -0.014 C 
HETATM    4  C4  UNL     1      -8.706   3.924  12.463  1.00  0.00     0.010 C 
HETATM    5  C5  UNL     1      -8.281   6.228  13.325  1.00  0.00     0.006 C 
HETATM    6  C6  UNL     1      -7.278   7.227  13.897  1.00  0.00     0.021 C 
HETATM    7  C7  UNL     1      -6.230   6.610  14.845  1.00  0.00     0.053 C 
HETATM    8  C9  UNL     1      -5.362   7.732  15.478  1.00  0.00     0.022 C 
HETATM    9  C10 UNL     1      -3.861   7.462  15.398  1.00  0.00     0.016 C 
HETATM   10  C11 UNL     1      -3.362   7.224  13.950  1.00  0.00    -0.013 C 
HETATM   11  C12 UNL     1      -3.734   8.489  13.110  1.00  0.00     0.021 C 
HETATM   12  C13 UNL     1      -4.128   6.040  13.334  1.00  0.00    -0.069 C 
HETATM   13  C14 UNL     1      -3.577   5.401  12.278  1.00  0.00    -0.022 C 
HETATM   14  C15 UNL     1      -2.214   5.653  11.691  1.00  0.00     0.033 C 
HETATM   15  C16 UNL     1      -1.351   6.721  12.398  1.00  0.00     0.007 C 
HETATM   16  C17 UNL     1       0.206   6.635  12.089  1.00  0.00    -0.035 C 
HETATM   17  C18 UNL     1       0.832   5.319  12.612  1.00  0.00     0.016 C 
HETATM   18  C19 UNL     1       0.410   6.680  10.545  1.00  0.00     0.012 C 
HETATM   19  C20 UNL     1       1.855   6.912  10.112  1.00  0.00     0.033 C 
HETATM   20  C21 UNL     1       2.454   8.167  10.739  1.00  0.00     0.126 C 
HETATM   21  C22 UNL     1       2.357   8.200  12.294  1.00  0.00    -0.017 C 
HETATM   22  C23 UNL     1       3.370   7.235  12.941  1.00  0.00     0.018 C 
HETATM   23  C24 UNL     1       2.776   9.627  12.748  1.00  0.00     0.018 C 
HETATM   24  C25 UNL     1       0.863   7.930  12.703  1.00  0.00     0.004 C 
HETATM   25  C26 UNL     1       0.566   8.041  14.213  1.00  0.00     0.007 C 
HETATM   26  C27 UNL     1      -0.943   8.106  14.491  1.00  0.00     0.011 C 
HETATM   27  C28 UNL     1      -1.766   6.925  13.905  1.00  0.00    -0.028 C 
HETATM   28  C29 UNL     1      -1.451   5.670  14.772  1.00  0.00     0.016 C 
HETATM   29  C30 UNL     1      -5.406   5.525  14.064  1.00  0.00     0.038 C 
ENDROOT
BRANCH   7  30
HETATM   30  C8  UNL     1      -6.912   5.950  16.056  1.00  0.00     0.149 C 
HETATM   31  O1  UNL     1      -7.229   4.777  16.169  1.00  0.00    -0.649 OA
BRANCH  30  32
HETATM   32  O2  UNL     1      -7.099   6.786  17.097  1.00  0.00    -0.776 OA
HETATM   33  H13 UNL     1      -7.502   6.215  17.786  1.00  0.00     0.167 HD
ENDBRANCH  30  32
ENDBRANCH   7  30
BRANCH  20  34
HETATM   34  O3  UNL     1       3.814   8.285  10.320  1.00  0.00    -0.395 OA
HETATM   35  H33 UNL     1       3.822   8.303   9.347  1.00  0.00     0.210 HD
ENDBRANCH  20  34
TORSDOF 3
ENDMDL
MODEL 4
REMARK minimizedAffinity -8.68574905
REMARK  3 active torsions:
REMARK  status: ('A' for Active; 'I' for Inactive)
REMARK    1  A    between atoms: C7_7  and  C8_8 
REMARK    2  A    between atoms: C8_8  and  O2_10 
REMARK    3  A    between atoms: C21_23  and  O3_24 
ROOT
HETATM    1  C1  UNL     1      -3.520   3.678  12.904  1.00  0.00     0.011 C 
HETATM    2  C2  UNL     1      -4.046   5.123  12.783  1.00  0.00    -0.005 C 
HETATM    3  C3  UNL     1      -5.566   5.167  13.077  1.00  0.00    -0.014 C 
HETATM    4  C4  UNL     1      -6.388   4.292  12.122  1.00  0.00     0.010 C 
HETATM    5  C5  UNL     1      -6.105   6.602  13.023  1.00  0.00     0.006 C 
HETATM    6  C6  UNL     1      -5.161   7.658  13.594  1.00  0.00     0.021 C 
HETATM    7  C7  UNL     1      -4.051   7.097  14.507  1.00  0.00     0.053 C 
HETATM    8  C9  UNL     1      -3.250   8.264  15.145  1.00  0.00     0.022 C 
HETATM    9  C10 UNL     1      -1.735   8.101  15.028  1.00  0.00     0.016 C 
HETATM   10  C11 UNL     1      -1.254   7.927  13.565  1.00  0.00    -0.013 C 
HETATM   11  C12 UNL     1      -1.732   9.180  12.760  1.00  0.00     0.021 C 
HETATM   12  C13 UNL     1      -1.949   6.705  12.940  1.00  0.00    -0.069 C 
HETATM   13  C14 UNL     1      -1.379   6.127  11.860  1.00  0.00    -0.022 C 
HETATM   14  C15 UNL     1      -0.051   6.484  11.250  1.00  0.00     0.033 C 
HETATM   15  C16 UNL     1       0.752   7.596  11.961  1.00  0.00     0.007 C 
HETATM   16  C17 UNL     1       2.304   7.626  11.618  1.00  0.00    -0.035 C 
HETATM   17  C18 UNL     1       3.031   6.346  12.099  1.00  0.00     0.016 C 
HETATM   18  C19 UNL     1       2.469   7.714  10.071  1.00  0.00     0.012 C 
HETATM   19  C20 UNL     1       3.885   8.055   9.612  1.00  0.00     0.033 C 
HETATM   20  C21 UNL     1       4.409   9.337  10.253  1.00  0.00     0.126 C 
HETATM   21  C22 UNL     1       4.346   9.333  11.810  1.00  0.00    -0.017 C 
HETATM   22  C23 UNL     1       5.437   8.428  12.415  1.00  0.00     0.018 C 
HETATM   23  C24 UNL     1       4.674  10.775  12.286  1.00  0.00     0.018 C 
HETATM   24  C25 UNL     1       2.883   8.950  12.245  1.00  0.00     0.004 C 
HETATM   25  C26 UNL     1       2.613   9.011  13.763  1.00  0.00     0.007 C 
HETATM   26  C27 UNL     1       1.110   8.964  14.073  1.00  0.00     0.011 C 
HETATM   27  C28 UNL     1       0.358   7.741  13.480  1.00  0.00    -0.028 C 
HETATM   28  C29 UNL     1       0.778   6.495  14.314  1.00  0.00     0.016 C 
HETATM   29  C30 UNL     1      -3.172   6.088  13.686  1.00  0.00     0.038 C 
ENDROOT
BRANCH   7  30
HETATM   30  C8  UNL     1      -4.659   6.368  15.718  1.00  0.00     0.149 C 
HETATM   31  O1  UNL     1      -5.840   6.301  16.016  1.00  0.00    -0.649 OA
BRANCH  30  32
HETATM   32  O2  UNL     1      -3.754   5.696  16.459  1.00  0.00    -0.776 OA
HETATM   33  H13 UNL     1      -4.295   5.265  17.154  1.00  0.00     0.167 HD
ENDBRANCH  30  32
ENDBRANCH   7  30
BRANCH  20  34
HETATM   34  O3  UNL     1       5.748   9.558   9.808  1.00  0.00    -0.395 OA
HETATM   35  H33 UNL     1       5.733   9.595   8.836  1.00  0.00     0.210 HD
ENDBRANCH  20  34
TORSDOF 3
ENDMDL
MODEL 5
REMARK minimizedAffinity -8.54974842
REMARK  3 active torsions:
REMARK  status: ('A' for Active; 'I' for Inactive)
REMARK    1  A    between atoms: C7_7  and  C8_8 
REMARK    2  A    between atoms: C8_8  and  O2_10 
REMARK    3  A    between atoms: C21_23  and  O3_24 
ROOT
HETATM    1  C1  UNL     1       0.046   8.821  12.866  1.00  0.00     0.011 C 
HETATM    2  C2  UNL     1       0.804   7.608  12.288  1.00  0.00    -0.005 C 
HETATM    3  C3  UNL     1      -0.163   6.708  11.480  1.00  0.00    -0.014 C 
HETATM    4  C4  UNL     1      -1.327   6.169  12.321  1.00  0.00     0.010 C 
HETATM    5  C5  UNL     1       0.577   5.524  10.843  1.00  0.00     0.006 C 
HETATM    6  C6  UNL     1       1.972   5.855  10.316  1.00  0.00     0.021 C 
HETATM    7  C7  UNL     1       2.237   7.361  10.107  1.00  0.00     0.053 C 
HETATM    8  C9  UNL     1       3.621   7.567   9.434  1.00  0.00     0.022 C 
HETATM    9  C10 UNL     1       4.487   8.617  10.127  1.00  0.00     0.016 C 
HETATM   10  C11 UNL     1       4.720   8.317  11.630  1.00  0.00    -0.013 C 
HETATM   11  C12 UNL     1       5.387   6.906  11.730  1.00  0.00     0.021 C 
HETATM   12  C13 UNL     1       3.363   8.219  12.348  1.00  0.00    -0.069 C 
HETATM   13  C14 UNL     1       3.334   8.390  13.689  1.00  0.00    -0.022 C 
HETATM   14  C15 UNL     1       4.491   8.785  14.565  1.00  0.00     0.033 C 
HETATM   15  C16 UNL     1       5.832   9.059  13.848  1.00  0.00     0.007 C 
HETATM   16  C17 UNL     1       6.876   9.916  14.685  1.00  0.00    -0.035 C 
HETATM   17  C18 UNL     1       6.362  11.350  14.964  1.00  0.00     0.016 C 
HETATM   18  C19 UNL     1       7.106   9.217  16.059  1.00  0.00     0.012 C 
HETATM   19  C20 UNL     1       8.302   9.754  16.841  1.00  0.00     0.033 C 
HETATM   20  C21 UNL     1       9.592   9.712  16.028  1.00  0.00     0.126 C 
HETATM   21  C22 UNL     1       9.492  10.438  14.653  1.00  0.00    -0.017 C 
HETATM   22  C23 UNL     1       9.495  11.970  14.823  1.00  0.00     0.018 C 
HETATM   23  C24 UNL     1      10.784  10.094  13.859  1.00  0.00     0.018 C 
HETATM   24  C25 UNL     1       8.235   9.881  13.888  1.00  0.00     0.004 C 
HETATM   25  C26 UNL     1       8.052  10.412  12.452  1.00  0.00     0.007 C 
HETATM   26  C27 UNL     1       7.027   9.581  11.666  1.00  0.00     0.011 C 
HETATM   27  C28 UNL     1       5.630   9.461  12.338  1.00  0.00    -0.028 C 
HETATM   28  C29 UNL     1       4.929  10.844  12.190  1.00  0.00     0.016 C 
HETATM   29  C30 UNL     1       2.072   8.106  11.480  1.00  0.00     0.038 C 
ENDROOT
BRANCH   7  30
HETATM   30  C8  UNL     1       1.245   7.952   9.090  1.00  0.00     0.149 C 
HETATM   31  O1  UNL     1       0.483   8.888   9.269  1.00  0.00    -0.649 OA
BRANCH  30  32
HETATM   32  O2  UNL     1       1.310   7.379   7.871  1.00  0.00    -0.776 OA
HETATM   33  H13 UNL     1       0.655   7.883   7.341  1.00  0.00     0.167 HD
ENDBRANCH  30  32
ENDBRANCH   7  30
BRANCH  20  34
HETATM   34  O3  UNL     1      10.647  10.270  16.812  1.00  0.00    -0.395 OA
HETATM   35  H33 UNL     1      10.700   9.761  17.639  1.00  0.00     0.210 HD
ENDBRANCH  20  34
TORSDOF 3
ENDMDL
MODEL 6
REMARK minimizedAffinity -8.40198326
REMARK  3 active torsions:
REMARK  status: ('A' for Active; 'I' for Inactive)
REMARK    1  A    between atoms: C7_7  and  C8_8 
REMARK    2  A    between atoms: C8_8  and  O2_10 
REMARK    3  A    between atoms: C21_23  and  O3_24 
ROOT
HETATM    1  C1  UNL     1      -3.965   2.870  12.721  1.00  0.00     0.011 C 
HETATM    2  C2  UNL     1      -4.972   3.974  12.339  1.00  0.00    -0.005 C 
HETATM    3  C3  UNL     1      -6.243   3.347  11.715  1.00  0.00    -0.014 C 
HETATM    4  C4  UNL     1      -5.951   2.528  10.451  1.00  0.00     0.010 C 
HETATM    5  C5  UNL     1      -7.288   4.420  11.380  1.00  0.00     0.006 C 
HETATM    6  C6  UNL     1      -7.386   5.553  12.400  1.00  0.00     0.021 C 
HETATM    7  C7  UNL     1      -6.768   5.230  13.776  1.00  0.00     0.053 C 
HETATM    8  C9  UNL     1      -7.056   6.388  14.770  1.00  0.00     0.022 C 
HETATM    9  C10 UNL     1      -5.820   6.858  15.535  1.00  0.00     0.016 C 
HETATM   10  C11 UNL     1      -4.660   7.297  14.605  1.00  0.00    -0.013 C 
HETATM   11  C12 UNL     1      -5.200   8.440  13.685  1.00  0.00     0.021 C 
HETATM   12  C13 UNL     1      -4.275   6.128  13.681  1.00  0.00    -0.069 C 
HETATM   13  C14 UNL     1      -3.050   6.138  13.111  1.00  0.00    -0.022 C 
HETATM   14  C15 UNL     1      -1.951   7.132  13.370  1.00  0.00     0.033 C 
HETATM   15  C16 UNL     1      -2.248   8.222  14.425  1.00  0.00     0.007 C 
HETATM   16  C17 UNL     1      -0.963   8.938  15.027  1.00  0.00    -0.035 C 
HETATM   17  C18 UNL     1      -0.067   7.957  15.823  1.00  0.00     0.016 C 
HETATM   18  C19 UNL     1      -0.116   9.510  13.851  1.00  0.00     0.012 C 
HETATM   19  C20 UNL     1       0.980  10.481  14.285  1.00  0.00     0.033 C 
HETATM   20  C21 UNL     1       0.435  11.633  15.125  1.00  0.00     0.126 C 
HETATM   21  C22 UNL     1      -0.383  11.171  16.368  1.00  0.00    -0.017 C 
HETATM   22  C23 UNL     1       0.538  10.624  17.477  1.00  0.00     0.018 C 
HETATM   23  C24 UNL     1      -1.065  12.435  16.963  1.00  0.00     0.018 C 
HETATM   24  C25 UNL     1      -1.482  10.152  15.888  1.00  0.00     0.004 C 
HETATM   25  C26 UNL     1      -2.461   9.680  16.982  1.00  0.00     0.007 C 
HETATM   26  C27 UNL     1      -3.686   8.975  16.381  1.00  0.00     0.011 C 
HETATM   27  C28 UNL     1      -3.358   7.775  15.450  1.00  0.00    -0.028 C 
HETATM   28  C29 UNL     1      -2.876   6.606  16.361  1.00  0.00     0.016 C 
HETATM   29  C30 UNL     1      -5.242   4.907  13.590  1.00  0.00     0.038 C 
ENDROOT
BRANCH   7  30
HETATM   30  C8  UNL     1      -7.466   4.018  14.416  1.00  0.00     0.149 C 
HETATM   31  O1  UNL     1      -7.675   2.933  13.896  1.00  0.00    -0.649 OA
BRANCH  30  32
HETATM   32  O2  UNL     1      -7.806   4.205  15.707  1.00  0.00    -0.776 OA
HETATM   33  H13 UNL     1      -8.198   3.346  15.973  1.00  0.00     0.167 HD
ENDBRANCH  30  32
ENDBRANCH   7  30
BRANCH  20  34
HETATM   34  O3  UNL     1       1.524  12.464  15.525  1.00  0.00    -0.395 OA
HETATM   35  H33 UNL     1       1.979  12.762  14.718  1.00  0.00     0.210 HD
ENDBRANCH  20  34
TORSDOF 3
ENDMDL
MODEL 7
REMARK minimizedAffinity -8.097785
REMARK  3 active torsions:
REMARK  status: ('A' for Active; 'I' for Inactive)
REMARK    1  A    between atoms: C7_7  and  C8_8 
REMARK    2  A    between atoms: C8_8  and  O2_10 
REMARK    3  A    between atoms: C21_23  and  O3_24 
ROOT
HETATM    1  C1  UNL     1       4.287   6.215   9.982  1.00  0.00     0.011 C 
HETATM    2  C2  UNL     1       4.761   6.614  11.395  1.00  0.00    -0.005 C 
HETATM    3  C3  UNL     1       6.302   6.763  11.422  1.00  0.00    -0.014 C 
HETATM    4  C4  UNL     1       7.038   5.474  11.032  1.00  0.00     0.010 C 
HETATM    5  C5  UNL     1       6.796   7.218  12.801  1.00  0.00     0.006 C 
HETATM    6  C6  UNL     1       5.893   8.236  13.496  1.00  0.00     0.021 C 
HETATM    7  C7  UNL     1       4.903   8.958  12.559  1.00  0.00     0.053 C 
HETATM    8  C9  UNL     1       4.146  10.066  13.340  1.00  0.00     0.022 C 
HETATM    9  C10 UNL     1       2.633  10.033  13.136  1.00  0.00     0.016 C 
HETATM   10  C11 UNL     1       2.001   8.666  13.502  1.00  0.00    -0.013 C 
HETATM   11  C12 UNL     1       2.357   8.366  14.995  1.00  0.00     0.021 C 
HETATM   12  C13 UNL     1       2.654   7.558  12.658  1.00  0.00    -0.069 C 
HETATM   13  C14 UNL     1       1.985   6.394  12.500  1.00  0.00    -0.022 C 
HETATM   14  C15 UNL     1       0.590   6.092  12.976  1.00  0.00     0.033 C 
HETATM   15  C16 UNL     1      -0.159   7.247  13.678  1.00  0.00     0.007 C 
HETATM   16  C17 UNL     1      -1.739   7.083  13.736  1.00  0.00    -0.035 C 
HETATM   17  C18 UNL     1      -2.377   7.097  12.325  1.00  0.00     0.016 C 
HETATM   18  C19 UNL     1      -2.073   5.712  14.396  1.00  0.00     0.012 C 
HETATM   19  C20 UNL     1      -3.538   5.550  14.794  1.00  0.00     0.033 C 
HETATM   20  C21 UNL     1      -4.022   6.680  15.697  1.00  0.00     0.126 C 
HETATM   21  C22 UNL     1      -3.790   8.102  15.104  1.00  0.00    -0.017 C 
HETATM   22  C23 UNL     1      -4.786   8.407  13.968  1.00  0.00     0.018 C 
HETATM   23  C24 UNL     1      -4.101   9.125  16.233  1.00  0.00     0.018 C 
HETATM   24  C25 UNL     1      -2.279   8.222  14.681  1.00  0.00     0.004 C 
HETATM   25  C26 UNL     1      -1.848   9.615  14.176  1.00  0.00     0.007 C 
HETATM   26  C27 UNL     1      -0.319   9.746  14.112  1.00  0.00     0.011 C 
HETATM   27  C28 UNL     1       0.394   8.661  13.258  1.00  0.00    -0.028 C 
HETATM   28  C29 UNL     1       0.098   8.984  11.764  1.00  0.00     0.016 C 
HETATM   29  C30 UNL     1       3.966   7.894  11.884  1.00  0.00     0.038 C 
ENDROOT
BRANCH   7  30
HETATM   30  C8  UNL     1       5.656   9.733  11.464  1.00  0.00     0.149 C 
HETATM   31  O1  UNL     1       5.288   9.925  10.317  1.00  0.00    -0.649 OA
BRANCH  30  32
HETATM   32  O2  UNL     1       6.809  10.291  11.888  1.00  0.00    -0.776 OA
HETATM   33  H13 UNL     1       7.141  10.769  11.098  1.00  0.00     0.167 HD
ENDBRANCH  30  32
ENDBRANCH   7  30
BRANCH  20  34
HETATM   34  O3  UNL     1      -5.405   6.478  15.984  1.00  0.00    -0.395 OA
HETATM   35  H33 UNL     1      -5.497   5.598  16.390  1.00  0.00     0.210 HD
ENDBRANCH  20  34
TORSDOF 3
ENDMDL
MODEL 8
REMARK minimizedAffinity -8.05018711
REMARK  3 active torsions:
REMARK  status: ('A' for Active; 'I' for Inactive)
REMARK    1  A    between atoms: C7_7  and  C8_8 
REMARK    2  A    between atoms: C8_8  and  O2_10 
REMARK    3  A    between atoms: C21_23  and  O3_24 
ROOT
HETATM    1  C1  UNL     1       0.741  11.564  15.176  1.00  0.00     0.011 C 
HETATM    2  C2  UNL     1       0.047  10.832  16.342  1.00  0.00    -0.005 C 
HETATM    3  C3  UNL     1      -0.005  11.743  17.593  1.00  0.00    -0.014 C 
HETATM    4  C4  UNL     1       1.385  12.177  18.079  1.00  0.00     0.010 C 
HETATM    5  C5  UNL     1      -0.744  11.061  18.752  1.00  0.00     0.006 C 
HETATM    6  C6  UNL     1      -1.955  10.230  18.332  1.00  0.00     0.021 C 
HETATM    7  C7  UNL     1      -2.494  10.550  16.922  1.00  0.00     0.053 C 
HETATM    8  C9  UNL     1      -3.803   9.757  16.663  1.00  0.00     0.022 C 
HETATM    9  C10 UNL     1      -3.820   9.027  15.321  1.00  0.00     0.016 C 
HETATM   10  C11 UNL     1      -2.624   8.057  15.143  1.00  0.00    -0.013 C 
HETATM   11  C12 UNL     1      -2.668   7.032  16.323  1.00  0.00     0.021 C 
HETATM   12  C13 UNL     1      -1.306   8.839  15.283  1.00  0.00    -0.069 C 
HETATM   13  C14 UNL     1      -0.184   8.303  14.753  1.00  0.00    -0.022 C 
HETATM   14  C15 UNL     1      -0.095   7.050  13.926  1.00  0.00     0.033 C 
HETATM   15  C16 UNL     1      -1.430   6.333  13.622  1.00  0.00     0.007 C 
HETATM   16  C17 UNL     1      -1.387   5.330  12.390  1.00  0.00    -0.035 C 
HETATM   17  C18 UNL     1      -1.104   6.060  11.054  1.00  0.00     0.016 C 
HETATM   18  C19 UNL     1      -0.238   4.304  12.625  1.00  0.00     0.012 C 
HETATM   19  C20 UNL     1      -0.272   3.103  11.682  1.00  0.00     0.033 C 
HETATM   20  C21 UNL     1      -1.614   2.379  11.712  1.00  0.00     0.126 C 
HETATM   21  C22 UNL     1      -2.835   3.305  11.430  1.00  0.00    -0.017 C 
HETATM   22  C23 UNL     1      -2.922   3.681   9.937  1.00  0.00     0.018 C 
HETATM   23  C24 UNL     1      -4.116   2.482  11.739  1.00  0.00     0.018 C 
HETATM   24  C25 UNL     1      -2.752   4.543  12.397  1.00  0.00     0.004 C 
HETATM   25  C26 UNL     1      -3.953   5.510  12.330  1.00  0.00     0.007 C 
HETATM   26  C27 UNL     1      -3.966   6.480  13.520  1.00  0.00     0.011 C 
HETATM   27  C28 UNL     1      -2.664   7.310  13.700  1.00  0.00    -0.028 C 
HETATM   28  C29 UNL     1      -2.638   8.377  12.566  1.00  0.00     0.016 C 
HETATM   29  C30 UNL     1      -1.361  10.284  15.867  1.00  0.00     0.038 C 
ENDROOT
BRANCH   7  30
HETATM   30  C8  UNL     1      -2.934  12.022  16.829  1.00  0.00     0.149 C 
HETATM   31  O1  UNL     1      -2.742  12.787  15.898  1.00  0.00    -0.649 OA
BRANCH  30  32
HETATM   32  O2  UNL     1      -3.658  12.441  17.887  1.00  0.00    -0.776 OA
HETATM   33  H13 UNL     1      -3.886  13.368  17.661  1.00  0.00     0.167 HD
ENDBRANCH  30  32
ENDBRANCH   7  30
BRANCH  20  34
HETATM   34  O3  UNL     1      -1.576   1.302  10.775  1.00  0.00    -0.395 OA
HETATM   35  H33 UNL     1      -0.827   0.729  11.015  1.00  0.00     0.210 HD
ENDBRANCH  20  34
TORSDOF 3
ENDMDL
MODEL 9
REMARK minimizedAffinity -7.89323854
REMARK  3 active torsions:
REMARK  status: ('A' for Active; 'I' for Inactive)
REMARK    1  A    between atoms: C7_7  and  C8_8 
REMARK    2  A    between atoms: C8_8  and  O2_10 
REMARK    3  A    between atoms: C21_23  and  O3_24 
ROOT
HETATM    1  C1  UNL     1      -7.457   9.086  14.983  1.00  0.00     0.011 C 
HETATM    2  C2  UNL     1      -7.059   7.651  15.386  1.00  0.00    -0.005 C 
HETATM    3  C3  UNL     1      -8.319   6.759  15.504  1.00  0.00    -0.014 C 
HETATM    4  C4  UNL     1      -9.323   7.272  16.545  1.00  0.00     0.010 C 
HETATM    5  C5  UNL     1      -7.948   5.310  15.846  1.00  0.00     0.006 C 
HETATM    6  C6  UNL     1      -6.682   4.799  15.161  1.00  0.00     0.021 C 
HETATM    7  C7  UNL     1      -6.239   5.627  13.937  1.00  0.00     0.053 C 
HETATM    8  C9  UNL     1      -5.037   4.936  13.237  1.00  0.00     0.022 C 
HETATM    9  C10 UNL     1      -3.877   5.883  12.937  1.00  0.00     0.016 C 
HETATM   10  C11 UNL     1      -3.347   6.613  14.198  1.00  0.00    -0.013 C 
HETATM   11  C12 UNL     1      -2.907   5.519  15.225  1.00  0.00     0.021 C 
HETATM   12  C13 UNL     1      -4.495   7.402  14.852  1.00  0.00    -0.069 C 
HETATM   13  C14 UNL     1      -4.180   8.422  15.681  1.00  0.00    -0.022 C 
HETATM   14  C15 UNL     1      -2.801   8.958  15.957  1.00  0.00     0.033 C 
HETATM   15  C16 UNL     1      -1.641   8.296  15.180  1.00  0.00     0.007 C 
HETATM   16  C17 UNL     1      -0.307   9.156  15.108  1.00  0.00    -0.035 C 
HETATM   17  C18 UNL     1      -0.506  10.476  14.324  1.00  0.00     0.016 C 
HETATM   18  C19 UNL     1       0.126   9.525  16.559  1.00  0.00     0.012 C 
HETATM   19  C20 UNL     1       1.543  10.085  16.666  1.00  0.00     0.033 C 
HETATM   20  C21 UNL     1       2.582   9.154  16.046  1.00  0.00     0.126 C 
HETATM   21  C22 UNL     1       2.277   8.767  14.569  1.00  0.00    -0.017 C 
HETATM   22  C23 UNL     1       2.563   9.939  13.609  1.00  0.00     0.018 C 
HETATM   23  C24 UNL     1       3.274   7.641  14.176  1.00  0.00     0.018 C 
HETATM   24  C25 UNL     1       0.803   8.222  14.492  1.00  0.00     0.004 C 
HETATM   25  C26 UNL     1       0.374   7.683  13.112  1.00  0.00     0.007 C 
HETATM   26  C27 UNL     1      -0.926   6.870  13.202  1.00  0.00     0.011 C 
HETATM   27  C28 UNL     1      -2.126   7.623  13.840  1.00  0.00    -0.028 C 
HETATM   28  C29 UNL     1      -2.613   8.675  12.801  1.00  0.00     0.016 C 
HETATM   29  C30 UNL     1      -5.955   7.104  14.391  1.00  0.00     0.038 C 
ENDROOT
BRANCH   7  30
HETATM   30  C8  UNL     1      -7.335   5.634  12.858  1.00  0.00     0.149 C 
HETATM   31  O1  UNL     1      -7.910   6.610  12.402  1.00  0.00    -0.649 OA
BRANCH  30  32
HETATM   32  O2  UNL     1      -7.608   4.414  12.351  1.00  0.00    -0.776 OA
HETATM   33  H13 UNL     1      -8.286   4.592  11.666  1.00  0.00     0.167 HD
ENDBRANCH  30  32
ENDBRANCH   7  30
BRANCH  20  34
HETATM   34  O3  UNL     1       3.866   9.770  16.148  1.00  0.00    -0.395 OA
HETATM   35  H33 UNL     1       4.031   9.955  17.088  1.00  0.00     0.210 HD
ENDBRANCH  20  34
TORSDOF 3
ENDMDL
