MODEL 1
REMARK minimizedAffinity -9.34968472
REMARK  5 active torsions:
REMARK  status: ('A' for Active; 'I' for Inactive)
REMARK    1  A    between atoms: C2_2  and  C3_3 
REMARK    2  A    between atoms: C2_2  and  C25_27 
REMARK    3  A    between atoms: C3_3  and  C4_4 
REMARK    4  A    between atoms: C4_4  and  C5_5 
REMARK    5  A    between atoms: C15_15  and  O1_16 
ROOT
HETATM    1  C5  UNL     1       0.098  50.360 -17.802  1.00  0.00    -0.023 C 
HETATM    2  C6  UNL     1      -0.911  49.985 -18.607  1.00  0.00    -0.075 C 
HETATM    3  C7  UNL     1      -1.867  48.835 -18.344  1.00  0.00     0.035 C 
HETATM    4  C8  UNL     1      -2.690  48.701 -19.633  1.00  0.00     0.013 C 
HETATM    5  C9  UNL     1      -1.784  49.347 -20.676  1.00  0.00     0.033 C 
HETATM    6  C10 UNL     1      -2.324  49.593 -22.085  1.00  0.00     0.070 C 
HETATM    7  C11 UNL     1      -2.741  48.256 -22.753  1.00  0.00     0.039 C 
HETATM    8  C12 UNL     1      -3.329  48.451 -24.154  1.00  0.00     0.009 C 
HETATM    9  C13 UNL     1      -2.515  49.476 -24.950  1.00  0.00    -0.001 C 
HETATM   10  C14 UNL     1      -3.168  49.825 -26.288  1.00  0.00     0.037 C 
HETATM   11  C15 UNL     1      -2.203  50.629 -27.168  1.00  0.00     0.118 C 
HETATM   12  C16 UNL     1      -1.159  51.419 -26.370  1.00  0.00     0.032 C 
HETATM   13  C17 UNL     1      -1.719  51.915 -25.037  1.00  0.00     0.015 C 
HETATM   14  C18 UNL     1      -2.209  50.771 -24.118  1.00  0.00    -0.009 C 
HETATM   15  C19 UNL     1      -3.438  51.234 -23.301  1.00  0.00     0.179 C 
HETATM   16  O2  UNL     1      -3.486  50.438 -22.101  1.00  0.00    -0.379 OA
HETATM   17  C20 UNL     1      -1.284  50.335 -22.960  1.00  0.00     0.032 C 
HETATM   18  C21 UNL     1      -0.554  51.492 -22.234  1.00  0.00     0.009 C 
HETATM   19  C22 UNL     1      -0.089  51.147 -20.812  1.00  0.00     0.014 C 
HETATM   20  C23 UNL     1      -1.249  50.605 -19.960  1.00  0.00    -0.014 C 
HETATM   21  C24 UNL     1      -2.274  51.727 -19.680  1.00  0.00     0.020 C 
ENDROOT
BRANCH   1  22
HETATM   22  C4  UNL     1       0.449  49.737 -16.477  1.00  0.00     0.031 C 
BRANCH  22  23
HETATM   23  C3  UNL     1       0.779  50.808 -15.432  1.00  0.00     0.037 C 
BRANCH  23  24
HETATM   24  C2  UNL     1       1.822  51.818 -15.882  1.00  0.00    -0.086 C 
HETATM   25  C1  UNL     1       1.595  52.570 -16.975  1.00  0.00     0.014 C 
BRANCH  24  26
HETATM   26  C25 UNL     1       3.148  51.944 -15.137  1.00  0.00     0.005 C 
HETATM   27  C26 UNL     1       3.442  50.719 -14.269  1.00  0.00     0.014 C 
HETATM   28  C27 UNL     1       4.337  52.266 -16.044  1.00  0.00     0.014 C 
ENDBRANCH  24  26
ENDBRANCH  23  24
ENDBRANCH  22  23
ENDBRANCH   1  22
BRANCH  11  29
HETATM   29  O1  UNL     1      -2.954  51.511 -27.998  1.00  0.00    -0.396 OA
HETATM   30  H21 UNL     1      -3.403  52.158 -27.428  1.00  0.00     0.210 HD
ENDBRANCH  11  29
TORSDOF 5
ENDMDL
MODEL 2
REMARK minimizedAffinity -9.15721989
REMARK  5 active torsions:
REMARK  status: ('A' for Active; 'I' for Inactive)
REMARK    1  A    between atoms: C2_2  and  C3_3 
REMARK    2  A    between atoms: C2_2  and  C25_27 
REMARK    3  A    between atoms: C3_3  and  C4_4 
REMARK    4  A    between atoms: C4_4  and  C5_5 
REMARK    5  A    between atoms: C15_15  and  O1_16 
ROOT
HETATM    1  C5  UNL     1      -2.321  49.356 -24.442  1.00  0.00    -0.023 C 
HETATM    2  C6  UNL     1      -2.120  50.303 -23.510  1.00  0.00    -0.075 C 
HETATM    3  C7  UNL     1      -1.816  51.765 -23.791  1.00  0.00     0.035 C 
HETATM    4  C8  UNL     1      -1.482  52.370 -22.420  1.00  0.00     0.013 C 
HETATM    5  C9  UNL     1      -1.059  51.149 -21.610  1.00  0.00     0.033 C 
HETATM    6  C10 UNL     1      -0.826  51.296 -20.106  1.00  0.00     0.070 C 
HETATM    7  C11 UNL     1       0.306  52.318 -19.825  1.00  0.00     0.039 C 
HETATM    8  C12 UNL     1       0.554  52.533 -18.330  1.00  0.00     0.009 C 
HETATM    9  C13 UNL     1       0.531  51.201 -17.574  1.00  0.00    -0.001 C 
HETATM   10  C14 UNL     1       0.603  51.389 -16.059  1.00  0.00     0.037 C 
HETATM   11  C15 UNL     1       0.855  50.048 -15.358  1.00  0.00     0.118 C 
HETATM   12  C16 UNL     1       0.360  48.836 -16.156  1.00  0.00     0.032 C 
HETATM   13  C17 UNL     1      -0.900  49.160 -16.958  1.00  0.00     0.015 C 
HETATM   14  C18 UNL     1      -0.698  50.310 -17.974  1.00  0.00    -0.009 C 
HETATM   15  C19 UNL     1      -1.995  51.142 -18.101  1.00  0.00     0.179 C 
HETATM   16  O2  UNL     1      -1.986  51.765 -19.401  1.00  0.00    -0.379 OA
HETATM   17  C20 UNL     1      -0.495  49.929 -19.457  1.00  0.00     0.032 C 
HETATM   18  C21 UNL     1      -1.375  48.758 -19.959  1.00  0.00     0.009 C 
HETATM   19  C22 UNL     1      -1.576  48.730 -21.481  1.00  0.00     0.014 C 
HETATM   20  C23 UNL     1      -2.101  50.079 -22.001  1.00  0.00    -0.014 C 
HETATM   21  C24 UNL     1      -3.548  50.313 -21.509  1.00  0.00     0.020 C 
ENDROOT
BRANCH   1  22
HETATM   22  C4  UNL     1      -2.319  49.567 -25.933  1.00  0.00     0.031 C 
BRANCH  22  23
HETATM   23  C3  UNL     1      -1.071  50.333 -26.383  1.00  0.00     0.037 C 
BRANCH  23  24
HETATM   24  C2  UNL     1      -1.365  51.581 -27.199  1.00  0.00    -0.086 C 
HETATM   25  C1  UNL     1      -2.639  51.906 -27.485  1.00  0.00     0.014 C 
BRANCH  24  26
HETATM   26  C25 UNL     1      -0.224  52.434 -27.745  1.00  0.00     0.005 C 
HETATM   27  C26 UNL     1       0.044  53.666 -26.877  1.00  0.00     0.014 C 
HETATM   28  C27 UNL     1       1.068  51.653 -27.992  1.00  0.00     0.014 C 
ENDBRANCH  24  26
ENDBRANCH  23  24
ENDBRANCH  22  23
ENDBRANCH   1  22
BRANCH  11  29
HETATM   29  O1  UNL     1       0.240  50.071 -14.073  1.00  0.00    -0.396 OA
HETATM   30  H21 UNL     1      -0.722  50.135 -14.196  1.00  0.00     0.210 HD
ENDBRANCH  11  29
TORSDOF 5
ENDMDL
MODEL 3
REMARK minimizedAffinity -9.12565422
REMARK  5 active torsions:
REMARK  status: ('A' for Active; 'I' for Inactive)
REMARK    1  A    between atoms: C2_2  and  C3_3 
REMARK    2  A    between atoms: C2_2  and  C25_27 
REMARK    3  A    between atoms: C3_3  and  C4_4 
REMARK    4  A    between atoms: C4_4  and  C5_5 
REMARK    5  A    between atoms: C15_15  and  O1_16 
ROOT
HETATM    1  C5  UNL     1      -2.694  48.982 -24.211  1.00  0.00    -0.023 C 
HETATM    2  C6  UNL     1      -2.404  50.004 -23.388  1.00  0.00    -0.075 C 
HETATM    3  C7  UNL     1      -2.071  51.420 -23.826  1.00  0.00     0.035 C 
HETATM    4  C8  UNL     1      -1.633  52.139 -22.541  1.00  0.00     0.013 C 
HETATM    5  C9  UNL     1      -1.201  50.984 -21.644  1.00  0.00     0.033 C 
HETATM    6  C10 UNL     1      -0.870  51.263 -20.177  1.00  0.00     0.070 C 
HETATM    7  C11 UNL     1       0.310  52.263 -20.063  1.00  0.00     0.039 C 
HETATM    8  C12 UNL     1       0.657  52.609 -18.612  1.00  0.00     0.009 C 
HETATM    9  C13 UNL     1       0.638  51.355 -17.732  1.00  0.00    -0.001 C 
HETATM   10  C14 UNL     1       0.810  51.681 -16.249  1.00  0.00     0.037 C 
HETATM   11  C15 UNL     1       1.062  50.404 -15.438  1.00  0.00     0.118 C 
HETATM   12  C16 UNL     1       0.479  49.142 -16.086  1.00  0.00     0.032 C 
HETATM   13  C17 UNL     1      -0.817  49.437 -16.840  1.00  0.00     0.015 C 
HETATM   14  C18 UNL     1      -0.641  50.478 -17.971  1.00  0.00    -0.009 C 
HETATM   15  C19 UNL     1      -1.917  51.343 -18.101  1.00  0.00     0.179 C 
HETATM   16  O2  UNL     1      -1.968  51.840 -19.453  1.00  0.00    -0.379 OA
HETATM   17  C20 UNL     1      -0.543  49.951 -19.420  1.00  0.00     0.032 C 
HETATM   18  C21 UNL     1      -1.490  48.772 -19.754  1.00  0.00     0.009 C 
HETATM   19  C22 UNL     1      -1.787  48.610 -21.253  1.00  0.00     0.014 C 
HETATM   20  C23 UNL     1      -2.299  49.923 -21.868  1.00  0.00    -0.014 C 
HETATM   21  C24 UNL     1      -3.704  50.257 -21.317  1.00  0.00     0.020 C 
ENDROOT
BRANCH   1  22
HETATM   22  C4  UNL     1      -2.778  49.052 -25.713  1.00  0.00     0.031 C 
BRANCH  22  23
HETATM   23  C3  UNL     1      -4.018  48.320 -26.234  1.00  0.00     0.037 C 
BRANCH  23  24
HETATM   24  C2  UNL     1      -4.339  48.597 -27.694  1.00  0.00    -0.086 C 
HETATM   25  C1  UNL     1      -3.780  49.655 -28.311  1.00  0.00     0.014 C 
BRANCH  24  26
HETATM   26  C25 UNL     1      -5.333  47.718 -28.447  1.00  0.00     0.005 C 
HETATM   27  C26 UNL     1      -6.689  47.644 -27.741  1.00  0.00     0.014 C 
HETATM   28  C27 UNL     1      -5.506  48.102 -29.918  1.00  0.00     0.014 C 
ENDBRANCH  24  26
ENDBRANCH  23  24
ENDBRANCH  22  23
ENDBRANCH   1  22
BRANCH  11  29
HETATM   29  O1  UNL     1       0.529  50.571 -14.127  1.00  0.00    -0.396 OA
HETATM   30  H21 UNL     1      -0.437  50.659 -14.199  1.00  0.00     0.210 HD
ENDBRANCH  11  29
TORSDOF 5
ENDMDL
MODEL 4
REMARK minimizedAffinity -9.0244112
REMARK  5 active torsions:
REMARK  status: ('A' for Active; 'I' for Inactive)
REMARK    1  A    between atoms: C2_2  and  C3_3 
REMARK    2  A    between atoms: C2_2  and  C25_27 
REMARK    3  A    between atoms: C3_3  and  C4_4 
REMARK    4  A    between atoms: C4_4  and  C5_5 
REMARK    5  A    between atoms: C15_15  and  O1_16 
ROOT
HETATM    1  C5  UNL     1      -0.684  50.823 -24.610  1.00  0.00    -0.023 C 
HETATM    2  C6  UNL     1      -0.576  51.546 -23.483  1.00  0.00    -0.075 C 
HETATM    3  C7  UNL     1       0.088  52.907 -23.370  1.00  0.00     0.035 C 
HETATM    4  C8  UNL     1       0.122  53.207 -21.865  1.00  0.00     0.013 C 
HETATM    5  C9  UNL     1       0.030  51.817 -21.245  1.00  0.00     0.033 C 
HETATM    6  C10 UNL     1      -0.163  51.685 -19.734  1.00  0.00     0.070 C 
HETATM    7  C11 UNL     1       1.020  52.337 -18.971  1.00  0.00     0.039 C 
HETATM    8  C12 UNL     1       0.856  52.268 -17.451  1.00  0.00     0.009 C 
HETATM    9  C13 UNL     1       0.342  50.891 -17.018  1.00  0.00    -0.001 C 
HETATM   10  C14 UNL     1       0.003  50.838 -15.528  1.00  0.00     0.037 C 
HETATM   11  C15 UNL     1      -0.240  49.392 -15.079  1.00  0.00     0.118 C 
HETATM   12  C16 UNL     1      -0.715  48.471 -16.209  1.00  0.00     0.032 C 
HETATM   13  C17 UNL     1      -1.591  49.214 -17.218  1.00  0.00     0.015 C 
HETATM   14  C18 UNL     1      -0.870  50.407 -17.889  1.00  0.00    -0.009 C 
HETATM   15  C19 UNL     1      -1.875  51.550 -18.164  1.00  0.00     0.179 C 
HETATM   16  O2  UNL     1      -1.358  52.328 -19.262  1.00  0.00    -0.379 OA
HETATM   17  C20 UNL     1      -0.323  50.201 -19.319  1.00  0.00     0.032 C 
HETATM   18  C21 UNL     1      -1.236  49.374 -20.257  1.00  0.00     0.009 C 
HETATM   19  C22 UNL     1      -0.984  49.615 -21.753  1.00  0.00     0.014 C 
HETATM   20  C23 UNL     1      -1.046  51.113 -22.098  1.00  0.00    -0.014 C 
HETATM   21  C24 UNL     1      -2.494  51.633 -21.948  1.00  0.00     0.020 C 
ENDROOT
BRANCH   1  22
HETATM   22  C4  UNL     1      -0.201  51.236 -25.976  1.00  0.00     0.031 C 
BRANCH  22  23
HETATM   23  C3  UNL     1      -1.179  50.789 -27.068  1.00  0.00     0.037 C 
BRANCH  23  24
HETATM   24  C2  UNL     1      -2.556  50.404 -26.552  1.00  0.00    -0.086 C 
HETATM   25  C1  UNL     1      -3.402  51.362 -26.128  1.00  0.00     0.014 C 
BRANCH  24  26
HETATM   26  C25 UNL     1      -2.963  48.937 -26.457  1.00  0.00     0.005 C 
HETATM   27  C26 UNL     1      -3.533  48.583 -25.081  1.00  0.00     0.014 C 
HETATM   28  C27 UNL     1      -3.910  48.485 -27.570  1.00  0.00     0.014 C 
ENDBRANCH  24  26
ENDBRANCH  23  24
ENDBRANCH  22  23
ENDBRANCH   1  22
BRANCH  11  29
HETATM   29  O1  UNL     1      -1.187  49.387 -14.014  1.00  0.00    -0.396 OA
HETATM   30  H21 UNL     1      -2.036  49.709 -14.360  1.00  0.00     0.210 HD
ENDBRANCH  11  29
TORSDOF 5
ENDMDL
MODEL 5
REMARK minimizedAffinity -8.88780689
REMARK  5 active torsions:
REMARK  status: ('A' for Active; 'I' for Inactive)
REMARK    1  A    between atoms: C2_2  and  C3_3 
REMARK    2  A    between atoms: C2_2  and  C25_27 
REMARK    3  A    between atoms: C3_3  and  C4_4 
REMARK    4  A    between atoms: C4_4  and  C5_5 
REMARK    5  A    between atoms: C15_15  and  O1_16 
ROOT
HETATM    1  C5  UNL     1      -4.284  48.441 -26.962  1.00  0.00    -0.023 C 
HETATM    2  C6  UNL     1      -3.694  49.539 -26.461  1.00  0.00    -0.075 C 
HETATM    3  C7  UNL     1      -3.055  50.648 -27.280  1.00  0.00     0.035 C 
HETATM    4  C8  UNL     1      -2.363  51.552 -26.250  1.00  0.00     0.013 C 
HETATM    5  C9  UNL     1      -2.165  50.615 -25.063  1.00  0.00     0.033 C 
HETATM    6  C10 UNL     1      -1.671  51.188 -23.734  1.00  0.00     0.070 C 
HETATM    7  C11 UNL     1      -0.276  51.845 -23.906  1.00  0.00     0.039 C 
HETATM    8  C12 UNL     1       0.248  52.472 -22.611  1.00  0.00     0.009 C 
HETATM    9  C13 UNL     1      -0.016  51.554 -21.413  1.00  0.00    -0.001 C 
HETATM   10  C14 UNL     1       0.337  52.218 -20.082  1.00  0.00     0.037 C 
HETATM   11  C15 UNL     1       0.324  51.190 -18.944  1.00  0.00     0.118 C 
HETATM   12  C16 UNL     1      -0.595  49.992 -19.210  1.00  0.00     0.032 C 
HETATM   13  C17 UNL     1      -1.830  50.392 -20.017  1.00  0.00     0.015 C 
HETATM   14  C18 UNL     1      -1.485  51.004 -21.396  1.00  0.00    -0.009 C 
HETATM   15  C19 UNL     1      -2.515  52.098 -21.766  1.00  0.00     0.179 C 
HETATM   16  O2  UNL     1      -2.539  52.203 -23.203  1.00  0.00    -0.379 OA
HETATM   17  C20 UNL     1      -1.624  50.095 -22.638  1.00  0.00     0.032 C 
HETATM   18  C21 UNL     1      -2.853  49.153 -22.627  1.00  0.00     0.009 C 
HETATM   19  C22 UNL     1      -3.287  48.670 -24.019  1.00  0.00     0.014 C 
HETATM   20  C23 UNL     1      -3.503  49.851 -24.980  1.00  0.00    -0.014 C 
HETATM   21  C24 UNL     1      -4.740  50.671 -24.545  1.00  0.00     0.020 C 
ENDROOT
BRANCH   1  22
HETATM   22  C4  UNL     1      -4.455  48.118 -28.423  1.00  0.00     0.031 C 
BRANCH  22  23
HETATM   23  C3  UNL     1      -5.926  47.854 -28.764  1.00  0.00     0.037 C 
BRANCH  23  24
HETATM   24  C2  UNL     1      -6.134  46.949 -29.968  1.00  0.00    -0.086 C 
HETATM   25  C1  UNL     1      -6.789  45.782 -29.820  1.00  0.00     0.014 C 
BRANCH  24  26
HETATM   26  C25 UNL     1      -5.555  47.327 -31.328  1.00  0.00     0.005 C 
HETATM   27  C26 UNL     1      -4.621  46.247 -31.879  1.00  0.00     0.014 C 
HETATM   28  C27 UNL     1      -6.614  47.710 -32.364  1.00  0.00     0.014 C 
ENDBRANCH  24  26
ENDBRANCH  23  24
ENDBRANCH  22  23
ENDBRANCH   1  22
BRANCH  11  29
HETATM   29  O1  UNL     1      -0.056  51.838 -17.734  1.00  0.00    -0.396 OA
HETATM   30  H21 UNL     1      -0.972  52.148 -17.828  1.00  0.00     0.210 HD
ENDBRANCH  11  29
TORSDOF 5
ENDMDL
MODEL 6
REMARK minimizedAffinity -8.77783394
REMARK  5 active torsions:
REMARK  status: ('A' for Active; 'I' for Inactive)
REMARK    1  A    between atoms: C2_2  and  C3_3 
REMARK    2  A    between atoms: C2_2  and  C25_27 
REMARK    3  A    between atoms: C3_3  and  C4_4 
REMARK    4  A    between atoms: C4_4  and  C5_5 
REMARK    5  A    between atoms: C15_15  and  O1_16 
ROOT
HETATM    1  C5  UNL     1      -0.010  51.520 -24.030  1.00  0.00    -0.023 C 
HETATM    2  C6  UNL     1      -0.099  51.954 -22.761  1.00  0.00    -0.075 C 
HETATM    3  C7  UNL     1       0.695  53.104 -22.166  1.00  0.00     0.035 C 
HETATM    4  C8  UNL     1       0.378  53.068 -20.664  1.00  0.00     0.013 C 
HETATM    5  C9  UNL     1      -0.064  51.624 -20.451  1.00  0.00     0.033 C 
HETATM    6  C10 UNL     1      -0.658  51.217 -19.102  1.00  0.00     0.070 C 
HETATM    7  C11 UNL     1       0.365  51.448 -17.960  1.00  0.00     0.039 C 
HETATM    8  C12 UNL     1      -0.196  51.094 -16.580  1.00  0.00     0.009 C 
HETATM    9  C13 UNL     1      -0.990  49.785 -16.632  1.00  0.00    -0.001 C 
HETATM   10  C14 UNL     1      -1.708  49.487 -15.315  1.00  0.00     0.037 C 
HETATM   11  C15 UNL     1      -2.257  48.055 -15.310  1.00  0.00     0.118 C 
HETATM   12  C16 UNL     1      -2.546  47.504 -16.712  1.00  0.00     0.032 C 
HETATM   13  C17 UNL     1      -3.018  48.600 -17.667  1.00  0.00     0.015 C 
HETATM   14  C18 UNL     1      -1.989  49.743 -17.841  1.00  0.00    -0.009 C 
HETATM   15  C19 UNL     1      -2.721  51.092 -18.032  1.00  0.00     0.179 C 
HETATM   16  O2  UNL     1      -1.834  51.967 -18.757  1.00  0.00    -0.379 OA
HETATM   17  C20 UNL     1      -1.124  49.739 -19.121  1.00  0.00     0.032 C 
HETATM   18  C21 UNL     1      -1.868  49.325 -20.414  1.00  0.00     0.009 C 
HETATM   19  C22 UNL     1      -1.205  49.821 -21.707  1.00  0.00     0.014 C 
HETATM   20  C23 UNL     1      -0.968  51.340 -21.668  1.00  0.00    -0.014 C 
HETATM   21  C24 UNL     1      -2.319  52.090 -21.714  1.00  0.00     0.020 C 
ENDROOT
BRANCH   1  22
HETATM   22  C4  UNL     1       0.863  52.109 -25.107  1.00  0.00     0.031 C 
BRANCH  22  23
HETATM   23  C3  UNL     1       0.976  51.164 -26.307  1.00  0.00     0.037 C 
BRANCH  23  24
HETATM   24  C2  UNL     1       0.067  51.523 -27.471  1.00  0.00    -0.086 C 
HETATM   25  C1  UNL     1       0.564  52.205 -28.521  1.00  0.00     0.014 C 
BRANCH  24  26
HETATM   26  C25 UNL     1      -1.417  51.168 -27.432  1.00  0.00     0.005 C 
HETATM   27  C26 UNL     1      -1.686  49.900 -26.619  1.00  0.00     0.014 C 
HETATM   28  C27 UNL     1      -2.314  52.315 -26.964  1.00  0.00     0.014 C 
ENDBRANCH  24  26
ENDBRANCH  23  24
ENDBRANCH  22  23
ENDBRANCH   1  22
BRANCH  11  29
HETATM   29  O1  UNL     1      -3.439  48.012 -14.516  1.00  0.00    -0.396 OA
HETATM   30  H21 UNL     1      -4.116  48.560 -14.946  1.00  0.00     0.210 HD
ENDBRANCH  11  29
TORSDOF 5
ENDMDL
MODEL 7
REMARK minimizedAffinity -8.6417551
REMARK  5 active torsions:
REMARK  status: ('A' for Active; 'I' for Inactive)
REMARK    1  A    between atoms: C2_2  and  C3_3 
REMARK    2  A    between atoms: C2_2  and  C25_27 
REMARK    3  A    between atoms: C3_3  and  C4_4 
REMARK    4  A    between atoms: C4_4  and  C5_5 
REMARK    5  A    between atoms: C15_15  and  O1_16 
ROOT
HETATM    1  C5  UNL     1      -0.558  51.052 -23.525  1.00  0.00    -0.023 C 
HETATM    2  C6  UNL     1      -0.515  51.624 -22.310  1.00  0.00    -0.075 C 
HETATM    3  C7  UNL     1       0.092  52.981 -21.995  1.00  0.00     0.035 C 
HETATM    4  C8  UNL     1       0.064  53.081 -20.464  1.00  0.00     0.013 C 
HETATM    5  C9  UNL     1       0.005  51.619 -20.034  1.00  0.00     0.033 C 
HETATM    6  C10 UNL     1      -0.232  51.283 -18.561  1.00  0.00     0.070 C 
HETATM    7  C11 UNL     1       0.900  51.869 -17.677  1.00  0.00     0.039 C 
HETATM    8  C12 UNL     1       0.689  51.595 -16.185  1.00  0.00     0.009 C 
HETATM    9  C13 UNL     1       0.214  50.157 -15.955  1.00  0.00    -0.001 C 
HETATM   10  C14 UNL     1      -0.171  49.897 -14.499  1.00  0.00     0.037 C 
HETATM   11  C15 UNL     1      -0.374  48.397 -14.251  1.00  0.00     0.118 C 
HETATM   12  C16 UNL     1      -0.776  47.617 -15.509  1.00  0.00     0.032 C 
HETATM   13  C17 UNL     1      -1.645  48.456 -16.444  1.00  0.00     0.015 C 
HETATM   14  C18 UNL     1      -0.949  49.751 -16.927  1.00  0.00    -0.009 C 
HETATM   15  C19 UNL     1      -1.988  50.886 -17.088  1.00  0.00     0.179 C 
HETATM   16  O2  UNL     1      -1.466  51.818 -18.055  1.00  0.00    -0.379 OA
HETATM   17  C20 UNL     1      -0.348  49.753 -18.350  1.00  0.00     0.032 C 
HETATM   18  C21 UNL     1      -1.198  49.027 -19.421  1.00  0.00     0.009 C 
HETATM   19  C22 UNL     1      -0.905  49.471 -20.862  1.00  0.00     0.014 C 
HETATM   20  C23 UNL     1      -1.014  50.997 -21.012  1.00  0.00    -0.014 C 
HETATM   21  C24 UNL     1      -2.485  51.444 -20.850  1.00  0.00     0.020 C 
ENDROOT
BRANCH   1  22
HETATM   22  C4  UNL     1      -0.047  51.658 -24.806  1.00  0.00     0.031 C 
BRANCH  22  23
HETATM   23  C3  UNL     1      -0.148  50.664 -25.967  1.00  0.00     0.037 C 
BRANCH  23  24
HETATM   24  C2  UNL     1      -0.775  51.239 -27.227  1.00  0.00    -0.086 C 
HETATM   25  C1  UNL     1      -2.063  50.971 -27.514  1.00  0.00     0.014 C 
BRANCH  24  26
HETATM   26  C25 UNL     1       0.061  52.068 -28.198  1.00  0.00     0.005 C 
HETATM   27  C26 UNL     1      -0.214  53.568 -28.062  1.00  0.00     0.014 C 
HETATM   28  C27 UNL     1       1.562  51.782 -28.121  1.00  0.00     0.014 C 
ENDBRANCH  24  26
ENDBRANCH  23  24
ENDBRANCH  22  23
ENDBRANCH   1  22
BRANCH  11  29
HETATM   29  O1  UNL     1      -1.354  48.220 -13.233  1.00  0.00    -0.396 OA
HETATM   30  H21 UNL     1      -2.203  48.556 -13.565  1.00  0.00     0.210 HD
ENDBRANCH  11  29
TORSDOF 5
ENDMDL
MODEL 8
REMARK minimizedAffinity -8.58917618
REMARK  5 active torsions:
REMARK  status: ('A' for Active; 'I' for Inactive)
REMARK    1  A    between atoms: C2_2  and  C3_3 
REMARK    2  A    between atoms: C2_2  and  C25_27 
REMARK    3  A    between atoms: C3_3  and  C4_4 
REMARK    4  A    between atoms: C4_4  and  C5_5 
REMARK    5  A    between atoms: C15_15  and  O1_16 
ROOT
HETATM    1  C5  UNL     1      -0.576  51.770 -24.053  1.00  0.00    -0.023 C 
HETATM    2  C6  UNL     1      -0.908  51.301 -22.838  1.00  0.00    -0.075 C 
HETATM    3  C7  UNL     1      -0.075  51.456 -21.577  1.00  0.00     0.035 C 
HETATM    4  C8  UNL     1      -0.784  50.590 -20.526  1.00  0.00     0.013 C 
HETATM    5  C9  UNL     1      -1.567  49.600 -21.382  1.00  0.00     0.033 C 
HETATM    6  C10 UNL     1      -2.575  48.667 -20.710  1.00  0.00     0.070 C 
HETATM    7  C11 UNL     1      -1.871  47.758 -19.668  1.00  0.00     0.039 C 
HETATM    8  C12 UNL     1      -2.845  46.831 -18.936  1.00  0.00     0.009 C 
HETATM    9  C13 UNL     1      -3.859  46.223 -19.910  1.00  0.00    -0.001 C 
HETATM   10  C14 UNL     1      -4.950  45.428 -19.194  1.00  0.00     0.037 C 
HETATM   11  C15 UNL     1      -5.776  44.614 -20.199  1.00  0.00     0.118 C 
HETATM   12  C16 UNL     1      -5.788  45.214 -21.610  1.00  0.00     0.032 C 
HETATM   13  C17 UNL     1      -5.739  46.741 -21.579  1.00  0.00     0.015 C 
HETATM   14  C18 UNL     1      -4.481  47.297 -20.870  1.00  0.00    -0.009 C 
HETATM   15  C19 UNL     1      -4.826  48.607 -20.123  1.00  0.00     0.179 C 
HETATM   16  O2  UNL     1      -3.610  49.372 -20.006  1.00  0.00    -0.379 OA
HETATM   17  C20 UNL     1      -3.325  47.809 -21.759  1.00  0.00     0.032 C 
HETATM   18  C21 UNL     1      -3.766  48.590 -23.021  1.00  0.00     0.009 C 
HETATM   19  C22 UNL     1      -2.689  49.526 -23.588  1.00  0.00     0.014 C 
HETATM   20  C23 UNL     1      -2.150  50.479 -22.508  1.00  0.00    -0.014 C 
HETATM   21  C24 UNL     1      -3.244  51.491 -22.097  1.00  0.00     0.020 C 
ENDROOT
BRANCH   1  22
HETATM   22  C4  UNL     1       0.659  52.563 -24.388  1.00  0.00     0.031 C 
BRANCH  22  23
HETATM   23  C3  UNL     1       0.360  53.639 -25.437  1.00  0.00     0.037 C 
BRANCH  23  24
HETATM   24  C2  UNL     1       0.295  53.118 -26.864  1.00  0.00    -0.086 C 
HETATM   25  C1  UNL     1      -0.393  53.805 -27.795  1.00  0.00     0.014 C 
BRANCH  24  26
HETATM   26  C25 UNL     1       0.956  51.793 -27.233  1.00  0.00     0.005 C 
HETATM   27  C26 UNL     1       2.381  51.685 -26.685  1.00  0.00     0.014 C 
HETATM   28  C27 UNL     1       0.131  50.563 -26.849  1.00  0.00     0.014 C 
ENDBRANCH  24  26
ENDBRANCH  23  24
ENDBRANCH  22  23
ENDBRANCH   1  22
BRANCH  11  29
HETATM   29  O1  UNL     1      -7.108  44.485 -19.711  1.00  0.00    -0.396 OA
HETATM   30  H21 UNL     1      -7.511  45.369 -19.684  1.00  0.00     0.210 HD
ENDBRANCH  11  29
TORSDOF 5
ENDMDL
MODEL 9
REMARK minimizedAffinity -8.54413414
REMARK  5 active torsions:
REMARK  status: ('A' for Active; 'I' for Inactive)
REMARK    1  A    between atoms: C2_2  and  C3_3 
REMARK    2  A    between atoms: C2_2  and  C25_27 
REMARK    3  A    between atoms: C3_3  and  C4_4 
REMARK    4  A    between atoms: C4_4  and  C5_5 
REMARK    5  A    between atoms: C15_15  and  O1_16 
ROOT
HETATM    1  C5  UNL     1      -0.987  52.235 -23.239  1.00  0.00    -0.023 C 
HETATM    2  C6  UNL     1      -1.282  51.278 -22.343  1.00  0.00    -0.075 C 
HETATM    3  C7  UNL     1      -0.303  50.656 -21.363  1.00  0.00     0.035 C 
HETATM    4  C8  UNL     1      -1.074  49.499 -20.713  1.00  0.00     0.013 C 
HETATM    5  C9  UNL     1      -2.157  49.198 -21.745  1.00  0.00     0.033 C 
HETATM    6  C10 UNL     1      -3.275  48.218 -21.389  1.00  0.00     0.070 C 
HETATM    7  C11 UNL     1      -2.693  46.817 -21.065  1.00  0.00     0.039 C 
HETATM    8  C12 UNL     1      -3.770  45.806 -20.662  1.00  0.00     0.009 C 
HETATM    9  C13 UNL     1      -4.999  45.925 -21.569  1.00  0.00    -0.001 C 
HETATM   10  C14 UNL     1      -6.160  45.053 -21.093  1.00  0.00     0.037 C 
HETATM   11  C15 UNL     1      -7.259  44.984 -22.161  1.00  0.00     0.118 C 
HETATM   12  C16 UNL     1      -7.286  46.202 -23.092  1.00  0.00     0.032 C 
HETATM   13  C17 UNL     1      -6.878  47.482 -22.364  1.00  0.00     0.015 C 
HETATM   14  C18 UNL     1      -5.454  47.414 -21.762  1.00  0.00    -0.009 C 
HETATM   15  C19 UNL     1      -5.398  48.211 -20.437  1.00  0.00     0.179 C 
HETATM   16  O2  UNL     1      -4.032  48.623 -20.237  1.00  0.00    -0.379 OA
HETATM   17  C20 UNL     1      -4.316  48.121 -22.532  1.00  0.00     0.032 C 
HETATM   18  C21 UNL     1      -4.698  49.484 -23.160  1.00  0.00     0.009 C 
HETATM   19  C22 UNL     1      -3.501  50.405 -23.439  1.00  0.00     0.014 C 
HETATM   20  C23 UNL     1      -2.638  50.598 -22.180  1.00  0.00    -0.014 C 
HETATM   21  C24 UNL     1      -3.413  51.420 -21.125  1.00  0.00     0.020 C 
ENDROOT
BRANCH   1  22
HETATM   22  C4  UNL     1       0.356  52.894 -23.418  1.00  0.00     0.031 C 
BRANCH  22  23
HETATM   23  C3  UNL     1       0.375  53.782 -24.667  1.00  0.00     0.037 C 
BRANCH  23  24
HETATM   24  C2  UNL     1       0.479  53.016 -25.975  1.00  0.00    -0.086 C 
HETATM   25  C1  UNL     1      -0.011  53.557 -27.107  1.00  0.00     0.014 C 
BRANCH  24  26
HETATM   26  C25 UNL     1       1.083  51.615 -26.004  1.00  0.00     0.005 C 
HETATM   27  C26 UNL     1       0.129  50.587 -26.620  1.00  0.00     0.014 C 
HETATM   28  C27 UNL     1       2.458  51.549 -26.672  1.00  0.00     0.014 C 
ENDBRANCH  24  26
ENDBRANCH  23  24
ENDBRANCH  22  23
ENDBRANCH   1  22
BRANCH  11  29
HETATM   29  O1  UNL     1      -8.522  44.829 -21.521  1.00  0.00    -0.396 OA
HETATM   30  H21 UNL     1      -8.701  45.631 -21.001  1.00  0.00     0.210 HD
ENDBRANCH  11  29
TORSDOF 5
ENDMDL
