MODEL 1
REMARK minimizedAffinity -8.56176567
REMARK CNNscore 0.483267784
REMARK CNNaffinity 7.19928885
REMARK  11 active torsions:
REMARK  status: ('A' for Active; 'I' for Inactive)
REMARK    1  A    between atoms: C5_5  and  C7_7 
REMARK    2  A    between atoms: C7_7  and  C9_9 
REMARK    3  A    between atoms: C18_18  and  C20_20 
REMARK    4  A    between atoms: C20_20  and  O2_22 
REMARK    5  A    between atoms: C21_23  and  O3_24 
REMARK    6  A    between atoms: O3_24  and  C22_25 
REMARK    7  A    between atoms: C23_27  and  C24_28 
REMARK    8  A    between atoms: C24_28  and  O5_29 
REMARK    9  A    between atoms: C25_30  and  O6_31 
REMARK   10  A    between atoms: C26_32  and  O7_33 
REMARK   11  A    between atoms: C27_34  and  O8_35 
ROOT
HETATM    1  C9  UNL     1      -5.479   5.372  13.915  1.00  0.00     0.001 C 
HETATM    2  C10 UNL     1      -4.835   6.082  15.142  1.00  0.00     0.007 C 
HETATM    3  C11 UNL     1      -5.920   6.900  15.858  1.00  0.00     0.011 C 
HETATM    4  C12 UNL     1      -7.244   6.450  15.228  1.00  0.00    -0.032 C 
HETATM    5  C13 UNL     1      -7.699   5.159  15.978  1.00  0.00     0.016 C 
HETATM    6  C14 UNL     1      -8.359   7.528  15.288  1.00  0.00     0.004 C 
HETATM    7  C15 UNL     1      -8.884   7.796  16.705  1.00  0.00     0.007 C 
HETATM    8  C16 UNL     1      -9.998   8.841  16.697  1.00  0.00     0.007 C 
HETATM    9  C17 UNL     1     -11.237   8.251  16.003  1.00  0.00     0.016 C 
HETATM   10  C18 UNL     1     -12.515   9.145  16.036  1.00  0.00     0.072 C 
HETATM   11  C19 UNL     1     -12.343  10.427  15.192  1.00  0.00     0.030 C 
HETATM   12  C21 UNL     1     -13.749   8.295  15.564  1.00  0.00     0.143 C 
HETATM   13  C28 UNL     1     -13.369   7.028  14.779  1.00  0.00     0.034 C 
HETATM   14  C29 UNL     1     -12.184   7.240  13.847  1.00  0.00     0.013 C 
HETATM   15  C30 UNL     1     -10.943   7.776  14.569  1.00  0.00    -0.027 A 
HETATM   16  C31 UNL     1     -10.026   8.537  13.640  1.00  0.00     0.021 A 
HETATM   17  C32 UNL     1      -9.498   7.265  14.268  1.00  0.00    -0.027 A 
HETATM   18  C33 UNL     1      -9.377   6.025  13.383  1.00  0.00     0.011 C 
HETATM   19  C34 UNL     1      -7.971   5.515  13.020  1.00  0.00     0.011 C 
HETATM   20  C35 UNL     1      -6.806   6.213  13.735  1.00  0.00    -0.032 C 
HETATM   21  C36 UNL     1      -6.482   7.534  12.972  1.00  0.00     0.016 C 
ENDROOT
BRANCH  12  22
HETATM   22  O3  UNL     1     -14.628   9.086  14.746  1.00  0.00    -0.352 OA
BRANCH  22  23
HETATM   23  C22 UNL     1     -15.763   8.351  14.275  1.00  0.00     0.292 C 
HETATM   24  O4  UNL     1     -16.232   8.962  13.070  1.00  0.00    -0.348 OA
HETATM   25  C23 UNL     1     -17.362   8.286  12.510  1.00  0.00     0.179 C 
HETATM   26  C25 UNL     1     -18.552   8.391  13.476  1.00  0.00     0.180 C 
HETATM   27  C26 UNL     1     -18.161   7.784  14.825  1.00  0.00     0.183 C 
HETATM   28  C27 UNL     1     -16.858   8.381  15.365  1.00  0.00     0.204 C 
BRANCH  25  29
HETATM   29  C24 UNL     1     -17.692   8.912  11.148  1.00  0.00     0.198 C 
BRANCH  29  30
HETATM   30  O5  UNL     1     -16.523   9.160  10.377  1.00  0.00    -0.398 OA
HETATM   31  H37 UNL     1     -15.948   8.368  10.463  1.00  0.00     0.209 HD
ENDBRANCH  29  30
ENDBRANCH  25  29
BRANCH  26  32
HETATM   32  O6  UNL     1     -19.705   7.718  12.956  1.00  0.00    -0.390 OA
HETATM   33  H39 UNL     1     -20.283   7.528  13.725  1.00  0.00     0.210 HD
ENDBRANCH  26  32
BRANCH  27  34
HETATM   34  O7  UNL     1     -19.231   7.973  15.771  1.00  0.00    -0.390 OA
HETATM   35  H41 UNL     1     -19.345   8.931  15.921  1.00  0.00     0.210 HD
ENDBRANCH  27  34
BRANCH  28  36
HETATM   36  O8  UNL     1     -16.463   7.632  16.525  1.00  0.00    -0.388 OA
HETATM   37  H43 UNL     1     -17.262   7.526  17.077  1.00  0.00     0.210 HD
ENDBRANCH  28  36
ENDBRANCH  22  23
ENDBRANCH  12  22
BRANCH  10  38
HETATM   38  C20 UNL     1     -12.790   9.506  17.497  1.00  0.00     0.151 C 
HETATM   39  O1  UNL     1     -12.567  10.586  18.024  1.00  0.00    -0.649 OA
BRANCH  38  40
HETATM   40  O2  UNL     1     -13.377   8.533  18.218  1.00  0.00    -0.776 OA
HETATM   41  H31 UNL     1     -13.496   8.917  19.113  1.00  0.00     0.167 HD
ENDBRANCH  38  40
ENDBRANCH  10  38
BRANCH   1  42
HETATM   42  C7  UNL     1      -4.503   5.169  12.688  1.00  0.00     0.021 C 
HETATM   43  C8  UNL     1      -4.561   3.686  12.243  1.00  0.00     0.013 C 
BRANCH  42  44
HETATM   44  C5  UNL     1      -2.976   5.564  12.932  1.00  0.00     0.074 C 
HETATM   45  C4  UNL     1      -2.788   7.103  12.858  1.00  0.00     0.066 C 
HETATM   46  C3  UNL     1      -1.361   7.475  12.603  1.00  0.00    -0.011 C 
HETATM   47  C2  UNL     1      -0.492   6.620  12.042  1.00  0.00     0.010 C 
HETATM   48  C1  UNL     1       0.943   6.964  11.782  1.00  0.00     0.054 C 
HETATM   49  C37 UNL     1      -0.934   5.276  11.588  1.00  0.00     0.289 C 
HETATM   50  O9  UNL     1      -2.204   4.908  11.888  1.00  0.00    -0.306 OA
HETATM   51  O10 UNL     1      -0.191   4.545  10.944  1.00  0.00    -0.260 OA
HETATM   52  C6  UNL     1      -2.406   5.087  14.280  1.00  0.00     0.047 C 
ENDBRANCH  42  44
ENDBRANCH   1  42
TORSDOF 11
ENDMDL
MODEL 2
REMARK minimizedAffinity -8.07410431
REMARK CNNscore 0.428933084
REMARK CNNaffinity 7.17890882
REMARK  11 active torsions:
REMARK  status: ('A' for Active; 'I' for Inactive)
REMARK    1  A    between atoms: C5_5  and  C7_7 
REMARK    2  A    between atoms: C7_7  and  C9_9 
REMARK    3  A    between atoms: C18_18  and  C20_20 
REMARK    4  A    between atoms: C20_20  and  O2_22 
REMARK    5  A    between atoms: C21_23  and  O3_24 
REMARK    6  A    between atoms: O3_24  and  C22_25 
REMARK    7  A    between atoms: C23_27  and  C24_28 
REMARK    8  A    between atoms: C24_28  and  O5_29 
REMARK    9  A    between atoms: C25_30  and  O6_31 
REMARK   10  A    between atoms: C26_32  and  O7_33 
REMARK   11  A    between atoms: C27_34  and  O8_35 
ROOT
HETATM    1  C9  UNL     1      -4.868   5.665  13.848  1.00  0.00     0.001 C 
HETATM    2  C10 UNL     1      -5.603   4.409  13.294  1.00  0.00     0.007 C 
HETATM    3  C11 UNL     1      -7.112   4.692  13.279  1.00  0.00     0.011 C 
HETATM    4  C12 UNL     1      -7.241   6.197  13.551  1.00  0.00    -0.032 C 
HETATM    5  C13 UNL     1      -7.074   6.930  12.184  1.00  0.00     0.016 C 
HETATM    6  C14 UNL     1      -8.587   6.595  14.214  1.00  0.00     0.004 C 
HETATM    7  C15 UNL     1      -9.801   6.447  13.287  1.00  0.00     0.007 C 
HETATM    8  C16 UNL     1     -11.089   6.882  13.982  1.00  0.00     0.007 C 
HETATM    9  C17 UNL     1     -11.047   8.401  14.215  1.00  0.00     0.016 C 
HETATM   10  C18 UNL     1     -12.354   9.029  14.792  1.00  0.00     0.072 C 
HETATM   11  C19 UNL     1     -12.626   8.563  16.239  1.00  0.00     0.030 C 
HETATM   12  C21 UNL     1     -12.261  10.594  14.689  1.00  0.00     0.143 C 
HETATM   13  C28 UNL     1     -10.828  11.123  14.510  1.00  0.00     0.034 C 
HETATM   14  C29 UNL     1      -9.802  10.347  15.324  1.00  0.00     0.013 C 
HETATM   15  C30 UNL     1      -9.823   8.842  15.037  1.00  0.00    -0.027 A 
HETATM   16  C31 UNL     1      -9.300   8.031  16.200  1.00  0.00     0.021 A 
HETATM   17  C32 UNL     1      -8.524   7.985  14.900  1.00  0.00    -0.027 A 
HETATM   18  C33 UNL     1      -7.202   8.747  14.827  1.00  0.00     0.011 C 
HETATM   19  C34 UNL     1      -5.893   7.941  14.740  1.00  0.00     0.011 C 
HETATM   20  C35 UNL     1      -6.057   6.426  14.561  1.00  0.00    -0.032 C 
HETATM   21  C36 UNL     1      -6.310   5.790  15.963  1.00  0.00     0.016 C 
ENDROOT
BRANCH  12  22
HETATM   22  O3  UNL     1     -12.828  11.214  15.855  1.00  0.00    -0.352 OA
BRANCH  22  23
HETATM   23  C22 UNL     1     -13.588  12.390  15.548  1.00  0.00     0.292 C 
HETATM   24  O4  UNL     1     -13.538  12.607  14.136  1.00  0.00    -0.348 OA
HETATM   25  C23 UNL     1     -14.284  13.757  13.726  1.00  0.00     0.179 C 
HETATM   26  C25 UNL     1     -13.648  15.020  14.326  1.00  0.00     0.180 C 
HETATM   27  C26 UNL     1     -13.623  14.896  15.851  1.00  0.00     0.183 C 
HETATM   28  C27 UNL     1     -12.972  13.586  16.308  1.00  0.00     0.204 C 
BRANCH  25  29
HETATM   29  C24 UNL     1     -14.303  13.818  12.193  1.00  0.00     0.198 C 
BRANCH  29  30
HETATM   30  O5  UNL     1     -13.189  13.144  11.618  1.00  0.00    -0.398 OA
HETATM   31  H37 UNL     1     -13.080  12.300  12.107  1.00  0.00     0.209 HD
ENDBRANCH  29  30
ENDBRANCH  25  29
BRANCH  26  32
HETATM   32  O6  UNL     1     -14.372  16.197  13.948  1.00  0.00    -0.390 OA
HETATM   33  H39 UNL     1     -14.143  16.886  14.608  1.00  0.00     0.210 HD
ENDBRANCH  26  32
BRANCH  27  34
HETATM   34  O7  UNL     1     -12.932  16.025  16.420  1.00  0.00    -0.390 OA
HETATM   35  H41 UNL     1     -12.003  15.999  16.124  1.00  0.00     0.210 HD
ENDBRANCH  27  34
BRANCH  28  36
HETATM   36  O8  UNL     1     -13.158  13.458  17.726  1.00  0.00    -0.388 OA
HETATM   37  H43 UNL     1     -12.931  14.323  18.119  1.00  0.00     0.210 HD
ENDBRANCH  28  36
ENDBRANCH  22  23
ENDBRANCH  12  22
BRANCH  10  38
HETATM   38  C20 UNL     1     -13.508   8.618  13.877  1.00  0.00     0.151 C 
HETATM   39  O1  UNL     1     -14.529   8.040  14.224  1.00  0.00    -0.649 OA
BRANCH  38  40
HETATM   40  O2  UNL     1     -13.370   8.988  12.591  1.00  0.00    -0.776 OA
HETATM   41  H31 UNL     1     -14.183   8.668  12.145  1.00  0.00     0.167 HD
ENDBRANCH  38  40
ENDBRANCH  10  38
BRANCH   1  42
HETATM   42  C7  UNL     1      -3.541   5.350  14.647  1.00  0.00     0.021 C 
HETATM   43  C8  UNL     1      -3.566   6.130  15.986  1.00  0.00     0.013 C 
BRANCH  42  44
HETATM   44  C5  UNL     1      -2.173   5.680  13.895  1.00  0.00     0.074 C 
HETATM   45  C4  UNL     1      -2.199   7.119  13.315  1.00  0.00     0.066 C 
HETATM   46  C3  UNL     1      -1.184   7.298  12.231  1.00  0.00    -0.011 C 
HETATM   47  C2  UNL     1      -0.686   6.257  11.544  1.00  0.00     0.010 C 
HETATM   48  C1  UNL     1       0.335   6.406  10.458  1.00  0.00     0.054 C 
HETATM   49  C37 UNL     1      -1.179   4.877  11.792  1.00  0.00     0.289 C 
HETATM   50  O9  UNL     1      -2.039   4.704  12.826  1.00  0.00    -0.306 OA
HETATM   51  O10 UNL     1      -0.844   3.943  11.075  1.00  0.00    -0.260 OA
HETATM   52  C6  UNL     1      -0.918   5.554  14.779  1.00  0.00     0.047 C 
ENDBRANCH  42  44
ENDBRANCH   1  42
TORSDOF 11
ENDMDL
MODEL 3
REMARK minimizedAffinity -8.94919777
REMARK CNNscore 0.407510281
REMARK CNNaffinity 7.21784401
REMARK  11 active torsions:
REMARK  status: ('A' for Active; 'I' for Inactive)
REMARK    1  A    between atoms: C5_5  and  C7_7 
REMARK    2  A    between atoms: C7_7  and  C9_9 
REMARK    3  A    between atoms: C18_18  and  C20_20 
REMARK    4  A    between atoms: C20_20  and  O2_22 
REMARK    5  A    between atoms: C21_23  and  O3_24 
REMARK    6  A    between atoms: O3_24  and  C22_25 
REMARK    7  A    between atoms: C23_27  and  C24_28 
REMARK    8  A    between atoms: C24_28  and  O5_29 
REMARK    9  A    between atoms: C25_30  and  O6_31 
REMARK   10  A    between atoms: C26_32  and  O7_33 
REMARK   11  A    between atoms: C27_34  and  O8_35 
ROOT
HETATM    1  C9  UNL     1      -5.979   4.596  12.778  1.00  0.00     0.001 C 
HETATM    2  C10 UNL     1      -7.095   3.533  12.564  1.00  0.00     0.007 C 
HETATM    3  C11 UNL     1      -8.441   4.146  12.979  1.00  0.00     0.011 C 
HETATM    4  C12 UNL     1      -8.160   5.643  13.164  1.00  0.00    -0.032 C 
HETATM    5  C13 UNL     1      -8.270   6.311  11.759  1.00  0.00     0.016 C 
HETATM    6  C14 UNL     1      -9.121   6.336  14.166  1.00  0.00     0.004 C 
HETATM    7  C15 UNL     1     -10.564   6.457  13.658  1.00  0.00     0.007 C 
HETATM    8  C16 UNL     1     -11.454   7.173  14.671  1.00  0.00     0.007 C 
HETATM    9  C17 UNL     1     -11.023   8.646  14.767  1.00  0.00     0.016 C 
HETATM   10  C18 UNL     1     -11.926   9.554  15.658  1.00  0.00     0.072 C 
HETATM   11  C19 UNL     1     -11.832   9.169  17.152  1.00  0.00     0.030 C 
HETATM   12  C21 UNL     1     -11.542  11.057  15.416  1.00  0.00     0.143 C 
HETATM   13  C28 UNL     1     -10.156  11.251  14.779  1.00  0.00     0.034 C 
HETATM   14  C29 UNL     1      -9.117  10.271  15.306  1.00  0.00     0.013 C 
HETATM   15  C30 UNL     1      -9.542   8.808  15.151  1.00  0.00    -0.027 A 
HETATM   16  C31 UNL     1      -8.870   7.908  16.161  1.00  0.00     0.021 A 
HETATM   17  C32 UNL     1      -8.559   7.681  14.697  1.00  0.00    -0.027 A 
HETATM   18  C33 UNL     1      -7.195   8.128  14.176  1.00  0.00     0.011 C 
HETATM   19  C34 UNL     1      -6.176   7.050  13.763  1.00  0.00     0.011 C 
HETATM   20  C35 UNL     1      -6.702   5.608  13.754  1.00  0.00    -0.032 C 
HETATM   21  C36 UNL     1      -6.640   5.054  15.211  1.00  0.00     0.016 C 
ENDROOT
BRANCH  12  22
HETATM   22  O3  UNL     1     -11.579  11.796  16.649  1.00  0.00    -0.352 OA
BRANCH  22  23
HETATM   23  C22 UNL     1     -12.130  13.110  16.495  1.00  0.00     0.292 C 
HETATM   24  O4  UNL     1     -12.541  13.274  15.136  1.00  0.00    -0.348 OA
HETATM   25  C23 UNL     1     -13.122  14.558  14.885  1.00  0.00     0.179 C 
HETATM   26  C25 UNL     1     -12.061  15.649  15.094  1.00  0.00     0.180 C 
HETATM   27  C26 UNL     1     -11.521  15.560  16.523  1.00  0.00     0.183 C 
HETATM   28  C27 UNL     1     -11.044  14.145  16.867  1.00  0.00     0.204 C 
BRANCH  25  29
HETATM   29  C24 UNL     1     -13.673  14.583  13.453  1.00  0.00     0.198 C 
BRANCH  29  30
HETATM   30  O5  UNL     1     -13.013  13.646  12.610  1.00  0.00    -0.398 OA
HETATM   31  H37 UNL     1     -12.923  12.812  13.121  1.00  0.00     0.209 HD
ENDBRANCH  29  30
ENDBRANCH  25  29
BRANCH  26  32
HETATM   32  O6  UNL     1     -12.604  16.954  14.861  1.00  0.00    -0.390 OA
HETATM   33  H39 UNL     1     -12.014  17.585  15.326  1.00  0.00     0.210 HD
ENDBRANCH  26  32
BRANCH  27  34
HETATM   34  O7  UNL     1     -10.450  16.507  16.698  1.00  0.00    -0.390 OA
HETATM   35  H41 UNL     1      -9.715  16.255  16.108  1.00  0.00     0.210 HD
ENDBRANCH  27  34
BRANCH  28  36
HETATM   36  O8  UNL     1     -10.735  14.100  18.269  1.00  0.00    -0.388 OA
HETATM   37  H43 UNL     1     -10.205  14.896  18.467  1.00  0.00     0.210 HD
ENDBRANCH  28  36
ENDBRANCH  22  23
ENDBRANCH  12  22
BRANCH  10  38
HETATM   38  C20 UNL     1     -13.365   9.404  15.163  1.00  0.00     0.151 C 
HETATM   39  O1  UNL     1     -14.293   8.911  15.789  1.00  0.00    -0.649 OA
BRANCH  38  40
HETATM   40  O2  UNL     1     -13.599   9.921  13.943  1.00  0.00    -0.776 OA
HETATM   41  H31 UNL     1     -14.553   9.760  13.777  1.00  0.00     0.167 HD
ENDBRANCH  38  40
ENDBRANCH  10  38
BRANCH   1  42
HETATM   42  C7  UNL     1      -4.568   3.998  13.166  1.00  0.00     0.021 C 
HETATM   43  C8  UNL     1      -3.660   5.146  13.673  1.00  0.00     0.013 C 
BRANCH  42  44
HETATM   44  C5  UNL     1      -3.795   3.214  12.011  1.00  0.00     0.074 C 
HETATM   45  C4  UNL     1      -3.961   1.680  12.181  1.00  0.00     0.066 C 
HETATM   46  C3  UNL     1      -2.901   0.923  11.445  1.00  0.00    -0.011 C 
HETATM   47  C2  UNL     1      -1.728   1.484  11.112  1.00  0.00     0.010 C 
HETATM   48  C1  UNL     1      -0.652   0.752  10.370  1.00  0.00     0.054 C 
HETATM   49  C37 UNL     1      -1.406   2.875  11.523  1.00  0.00     0.289 C 
HETATM   50  O9  UNL     1      -2.394   3.587  12.120  1.00  0.00    -0.306 OA
HETATM   51  O10 UNL     1      -0.289   3.346  11.356  1.00  0.00    -0.260 OA
HETATM   52  C6  UNL     1      -4.248   3.579  10.585  1.00  0.00     0.047 C 
ENDBRANCH  42  44
ENDBRANCH   1  42
TORSDOF 11
ENDMDL
MODEL 4
REMARK minimizedAffinity -11.4844065
REMARK CNNscore 0.347251236
REMARK CNNaffinity 7.31298971
REMARK  11 active torsions:
REMARK  status: ('A' for Active; 'I' for Inactive)
REMARK    1  A    between atoms: C5_5  and  C7_7 
REMARK    2  A    between atoms: C7_7  and  C9_9 
REMARK    3  A    between atoms: C18_18  and  C20_20 
REMARK    4  A    between atoms: C20_20  and  O2_22 
REMARK    5  A    between atoms: C21_23  and  O3_24 
REMARK    6  A    between atoms: O3_24  and  C22_25 
REMARK    7  A    between atoms: C23_27  and  C24_28 
REMARK    8  A    between atoms: C24_28  and  O5_29 
REMARK    9  A    between atoms: C25_30  and  O6_31 
REMARK   10  A    between atoms: C26_32  and  O7_33 
REMARK   11  A    between atoms: C27_34  and  O8_35 
ROOT
HETATM    1  C9  UNL     1      -5.801   3.845  13.265  1.00  0.00     0.001 C 
HETATM    2  C10 UNL     1      -5.759   3.465  11.756  1.00  0.00     0.007 C 
HETATM    3  C11 UNL     1      -4.424   3.947  11.168  1.00  0.00     0.011 C 
HETATM    4  C12 UNL     1      -3.574   4.350  12.380  1.00  0.00    -0.032 C 
HETATM    5  C13 UNL     1      -2.888   3.055  12.916  1.00  0.00     0.016 C 
HETATM    6  C14 UNL     1      -2.507   5.430  12.057  1.00  0.00     0.004 C 
HETATM    7  C15 UNL     1      -1.366   4.925  11.163  1.00  0.00     0.007 C 
HETATM    8  C16 UNL     1      -0.333   6.020  10.906  1.00  0.00     0.007 C 
HETATM    9  C17 UNL     1       0.404   6.334  12.218  1.00  0.00     0.016 C 
HETATM   10  C18 UNL     1       1.594   7.336  12.098  1.00  0.00     0.072 C 
HETATM   11  C19 UNL     1       1.114   8.759  11.736  1.00  0.00     0.030 C 
HETATM   12  C21 UNL     1       2.418   7.319  13.435  1.00  0.00     0.143 C 
HETATM   13  C28 UNL     1       1.650   6.735  14.632  1.00  0.00     0.034 C 
HETATM   14  C29 UNL     1       0.179   7.128  14.644  1.00  0.00     0.013 C 
HETATM   15  C30 UNL     1      -0.550   6.756  13.349  1.00  0.00    -0.027 A 
HETATM   16  C31 UNL     1      -1.754   7.635  13.100  1.00  0.00     0.021 A 
HETATM   17  C32 UNL     1      -1.993   6.157  13.328  1.00  0.00    -0.027 A 
HETATM   18  C33 UNL     1      -2.577   5.724  14.671  1.00  0.00     0.011 C 
HETATM   19  C34 UNL     1      -4.014   5.173  14.705  1.00  0.00     0.011 C 
HETATM   20  C35 UNL     1      -4.671   4.948  13.336  1.00  0.00    -0.032 C 
HETATM   21  C36 UNL     1      -5.246   6.310  12.838  1.00  0.00     0.016 C 
ENDROOT
BRANCH  12  22
HETATM   22  O3  UNL     1       2.852   8.645  13.781  1.00  0.00    -0.352 OA
BRANCH  22  23
HETATM   23  C22 UNL     1       4.278   8.783  13.780  1.00  0.00     0.292 C 
HETATM   24  O4  UNL     1       4.829   7.809  12.890  1.00  0.00    -0.348 OA
HETATM   25  C23 UNL     1       6.256   7.877  12.809  1.00  0.00     0.179 C 
HETATM   26  C25 UNL     1       6.863   7.528  14.175  1.00  0.00     0.180 C 
HETATM   27  C26 UNL     1       6.326   8.498  15.229  1.00  0.00     0.183 C 
HETATM   28  C27 UNL     1       4.795   8.562  15.219  1.00  0.00     0.204 C 
BRANCH  25  29
HETATM   29  C24 UNL     1       6.739   6.911  11.720  1.00  0.00     0.198 C 
BRANCH  29  30
HETATM   30  O5  UNL     1       6.125   5.632  11.830  1.00  0.00    -0.398 OA
HETATM   31  H37 UNL     1       5.171   5.785  12.008  1.00  0.00     0.209 HD
ENDBRANCH  29  30
ENDBRANCH  25  29
BRANCH  26  32
HETATM   32  O6  UNL     1       8.294   7.593  14.141  1.00  0.00    -0.390 OA
HETATM   33  H39 UNL     1       8.588   7.701  15.071  1.00  0.00     0.210 HD
ENDBRANCH  26  32
BRANCH  27  34
HETATM   34  O7  UNL     1       6.804   8.113  16.533  1.00  0.00    -0.390 OA
HETATM   35  H41 UNL     1       6.436   7.236  16.751  1.00  0.00     0.210 HD
ENDBRANCH  27  34
BRANCH  28  36
HETATM   36  O8  UNL     1       4.381   9.624  16.094  1.00  0.00    -0.388 OA
HETATM   37  H43 UNL     1       4.898   9.529  16.917  1.00  0.00     0.210 HD
ENDBRANCH  28  36
ENDBRANCH  22  23
ENDBRANCH  12  22
BRANCH  10  38
HETATM   38  C20 UNL     1       2.538   6.805  11.018  1.00  0.00     0.151 C 
HETATM   39  O1  UNL     1       2.657   7.251   9.885  1.00  0.00    -0.649 OA
BRANCH  38  40
HETATM   40  O2  UNL     1       3.328   5.787  11.408  1.00  0.00    -0.776 OA
HETATM   41  H31 UNL     1       3.874   5.573  10.621  1.00  0.00     0.167 HD
ENDBRANCH  38  40
ENDBRANCH  10  38
BRANCH   1  42
HETATM   42  C7  UNL     1      -7.247   4.161  13.821  1.00  0.00     0.021 C 
HETATM   43  C8  UNL     1      -8.289   3.841  12.720  1.00  0.00     0.013 C 
BRANCH  42  44
HETATM   44  C5  UNL     1      -7.494   5.653  14.331  1.00  0.00     0.074 C 
HETATM   45  C4  UNL     1      -7.112   5.792  15.829  1.00  0.00     0.066 C 
HETATM   46  C3  UNL     1      -7.755   6.988  16.456  1.00  0.00    -0.011 C 
HETATM   47  C2  UNL     1      -8.860   7.553  15.943  1.00  0.00     0.010 C 
HETATM   48  C1  UNL     1      -9.520   8.754  16.546  1.00  0.00     0.054 C 
HETATM   49  C37 UNL     1      -9.532   6.965  14.756  1.00  0.00     0.289 C 
HETATM   50  O9  UNL     1      -8.908   5.930  14.141  1.00  0.00    -0.306 OA
HETATM   51  O10 UNL     1     -10.617   7.379  14.368  1.00  0.00    -0.260 OA
HETATM   52  C6  UNL     1      -6.715   6.726  13.548  1.00  0.00     0.047 C 
ENDBRANCH  42  44
ENDBRANCH   1  42
TORSDOF 11
ENDMDL
MODEL 5
REMARK minimizedAffinity -8.75243378
REMARK CNNscore 0.308070838
REMARK CNNaffinity 7.09442711
REMARK  11 active torsions:
REMARK  status: ('A' for Active; 'I' for Inactive)
REMARK    1  A    between atoms: C5_5  and  C7_7 
REMARK    2  A    between atoms: C7_7  and  C9_9 
REMARK    3  A    between atoms: C18_18  and  C20_20 
REMARK    4  A    between atoms: C20_20  and  O2_22 
REMARK    5  A    between atoms: C21_23  and  O3_24 
REMARK    6  A    between atoms: O3_24  and  C22_25 
REMARK    7  A    between atoms: C23_27  and  C24_28 
REMARK    8  A    between atoms: C24_28  and  O5_29 
REMARK    9  A    between atoms: C25_30  and  O6_31 
REMARK   10  A    between atoms: C26_32  and  O7_33 
REMARK   11  A    between atoms: C27_34  and  O8_35 
ROOT
HETATM    1  C9  UNL     1      -5.202   5.399  14.069  1.00  0.00     0.001 C 
HETATM    2  C10 UNL     1      -4.703   6.276  15.255  1.00  0.00     0.007 C 
HETATM    3  C11 UNL     1      -5.894   7.069  15.812  1.00  0.00     0.011 C 
HETATM    4  C12 UNL     1      -7.133   6.452  15.149  1.00  0.00    -0.032 C 
HETATM    5  C13 UNL     1      -7.542   5.208  15.997  1.00  0.00     0.016 C 
HETATM    6  C14 UNL     1      -8.326   7.436  15.026  1.00  0.00     0.004 C 
HETATM    7  C15 UNL     1      -8.971   7.799  16.370  1.00  0.00     0.007 C 
HETATM    8  C16 UNL     1     -10.157   8.743  16.184  1.00  0.00     0.007 C 
HETATM    9  C17 UNL     1     -11.294   7.988  15.476  1.00  0.00     0.016 C 
HETATM   10  C18 UNL     1     -12.635   8.773  15.335  1.00  0.00     0.072 C 
HETATM   11  C19 UNL     1     -12.500   9.976  14.376  1.00  0.00     0.030 C 
HETATM   12  C21 UNL     1     -13.765   7.783  14.876  1.00  0.00     0.143 C 
HETATM   13  C28 UNL     1     -13.236   6.481  14.252  1.00  0.00     0.034 C 
HETATM   14  C29 UNL     1     -12.005   6.696  13.381  1.00  0.00     0.013 C 
HETATM   15  C30 UNL     1     -10.864   7.400  14.121  1.00  0.00    -0.027 A 
HETATM   16  C31 UNL     1      -9.942   8.139  13.179  1.00  0.00     0.021 A 
HETATM   17  C32 UNL     1      -9.366   6.982  13.967  1.00  0.00    -0.027 A 
HETATM   18  C33 UNL     1      -9.090   5.676  13.225  1.00  0.00     0.011 C 
HETATM   19  C34 UNL     1      -7.626   5.249  13.008  1.00  0.00     0.011 C 
HETATM   20  C35 UNL     1      -6.572   6.107  13.720  1.00  0.00    -0.032 C 
HETATM   21  C36 UNL     1      -6.293   7.369  12.845  1.00  0.00     0.016 C 
ENDROOT
BRANCH  12  22
HETATM   22  O3  UNL     1     -14.639   8.416  13.926  1.00  0.00    -0.352 OA
BRANCH  22  23
HETATM   23  C22 UNL     1     -15.963   7.867  13.936  1.00  0.00     0.292 C 
HETATM   24  O4  UNL     1     -15.865   6.445  14.047  1.00  0.00    -0.348 OA
HETATM   25  C23 UNL     1     -17.143   5.803  14.080  1.00  0.00     0.179 C 
HETATM   26  C25 UNL     1     -17.864   6.029  12.743  1.00  0.00     0.180 C 
HETATM   27  C26 UNL     1     -18.011   7.533  12.498  1.00  0.00     0.183 C 
HETATM   28  C27 UNL     1     -16.671   8.265  12.621  1.00  0.00     0.204 C 
BRANCH  25  29
HETATM   29  C24 UNL     1     -16.942   4.307  14.359  1.00  0.00     0.198 C 
BRANCH  29  30
HETATM   30  O5  UNL     1     -15.794   4.064  15.163  1.00  0.00    -0.398 OA
HETATM   31  H37 UNL     1     -15.798   4.734  15.881  1.00  0.00     0.209 HD
ENDBRANCH  29  30
ENDBRANCH  25  29
BRANCH  26  32
HETATM   32  O6  UNL     1     -19.156   5.409  12.737  1.00  0.00    -0.390 OA
HETATM   33  H39 UNL     1     -19.676   5.861  12.039  1.00  0.00     0.210 HD
ENDBRANCH  26  32
BRANCH  27  34
HETATM   34  O7  UNL     1     -18.588   7.759  11.197  1.00  0.00    -0.390 OA
HETATM   35  H41 UNL     1     -17.968   7.427  10.522  1.00  0.00     0.210 HD
ENDBRANCH  27  34
BRANCH  28  36
HETATM   36  O8  UNL     1     -16.921   9.679  12.568  1.00  0.00    -0.388 OA
HETATM   37  H43 UNL     1     -17.536   9.828  11.823  1.00  0.00     0.210 HD
ENDBRANCH  28  36
ENDBRANCH  22  23
ENDBRANCH  12  22
BRANCH  10  38
HETATM   38  C20 UNL     1     -13.040   9.252  16.730  1.00  0.00     0.151 C 
HETATM   39  O1  UNL     1     -14.060   9.866  17.011  1.00  0.00    -0.649 OA
BRANCH  38  40
HETATM   40  O2  UNL     1     -12.194   8.901  17.716  1.00  0.00    -0.776 OA
HETATM   41  H31 UNL     1     -12.593   9.264  18.535  1.00  0.00     0.167 HD
ENDBRANCH  38  40
ENDBRANCH  10  38
BRANCH   1  42
HETATM   42  C7  UNL     1      -4.128   5.157  12.935  1.00  0.00     0.021 C 
HETATM   43  C8  UNL     1      -4.113   3.651  12.572  1.00  0.00     0.013 C 
BRANCH  42  44
HETATM   44  C5  UNL     1      -2.635   5.609  13.273  1.00  0.00     0.074 C 
HETATM   45  C4  UNL     1      -2.431   7.114  12.951  1.00  0.00     0.066 C 
HETATM   46  C3  UNL     1      -0.983   7.456  12.794  1.00  0.00    -0.011 C 
HETATM   47  C2  UNL     1      -0.062   6.528  12.491  1.00  0.00     0.010 C 
HETATM   48  C1  UNL     1       1.395   6.841  12.335  1.00  0.00     0.054 C 
HETATM   49  C37 UNL     1      -0.459   5.119  12.233  1.00  0.00     0.289 C 
HETATM   50  O9  UNL     1      -1.756   4.792  12.451  1.00  0.00    -0.306 OA
HETATM   51  O10 UNL     1       0.347   4.298  11.813  1.00  0.00    -0.260 OA
HETATM   52  C6  UNL     1      -2.220   5.383  14.738  1.00  0.00     0.047 C 
ENDBRANCH  42  44
ENDBRANCH   1  42
TORSDOF 11
ENDMDL
MODEL 6
REMARK minimizedAffinity -9.47923946
REMARK CNNscore 0.302038163
REMARK CNNaffinity 6.23735046
REMARK  11 active torsions:
REMARK  status: ('A' for Active; 'I' for Inactive)
REMARK    1  A    between atoms: C5_5  and  C7_7 
REMARK    2  A    between atoms: C7_7  and  C9_9 
REMARK    3  A    between atoms: C18_18  and  C20_20 
REMARK    4  A    between atoms: C20_20  and  O2_22 
REMARK    5  A    between atoms: C21_23  and  O3_24 
REMARK    6  A    between atoms: O3_24  and  C22_25 
REMARK    7  A    between atoms: C23_27  and  C24_28 
REMARK    8  A    between atoms: C24_28  and  O5_29 
REMARK    9  A    between atoms: C25_30  and  O6_31 
REMARK   10  A    between atoms: C26_32  and  O7_33 
REMARK   11  A    between atoms: C27_34  and  O8_35 
ROOT
HETATM    1  C9  UNL     1       6.566   9.265  13.250  1.00  0.00     0.001 C 
HETATM    2  C10 UNL     1       6.476   8.031  14.194  1.00  0.00     0.007 C 
HETATM    3  C11 UNL     1       7.367   8.286  15.419  1.00  0.00     0.011 C 
HETATM    4  C12 UNL     1       7.752   9.769  15.334  1.00  0.00    -0.032 C 
HETATM    5  C13 UNL     1       6.594  10.586  15.986  1.00  0.00     0.016 C 
HETATM    6  C14 UNL     1       9.101  10.100  16.026  1.00  0.00     0.004 C 
HETATM    7  C15 UNL     1       9.057   9.985  17.555  1.00  0.00     0.007 C 
HETATM    8  C16 UNL     1      10.400  10.353  18.181  1.00  0.00     0.007 C 
HETATM    9  C17 UNL     1      10.655  11.856  17.980  1.00  0.00     0.016 C 
HETATM   10  C18 UNL     1      11.925  12.423  18.686  1.00  0.00     0.072 C 
HETATM   11  C19 UNL     1      13.225  11.865  18.066  1.00  0.00     0.030 C 
HETATM   12  C21 UNL     1      11.881  13.993  18.640  1.00  0.00     0.143 C 
HETATM   13  C28 UNL     1      10.927  14.558  17.575  1.00  0.00     0.034 C 
HETATM   14  C29 UNL     1      10.936  13.755  16.282  1.00  0.00     0.013 C 
HETATM   15  C30 UNL     1      10.626  12.270  16.498  1.00  0.00    -0.027 A 
HETATM   16  C31 UNL     1      11.209  11.400  15.408  1.00  0.00     0.021 A 
HETATM   17  C32 UNL     1       9.702  11.447  15.544  1.00  0.00    -0.027 A 
HETATM   18  C33 UNL     1       8.912  12.238  14.502  1.00  0.00     0.011 C 
HETATM   19  C34 UNL     1       8.025  11.464  13.510  1.00  0.00     0.011 C 
HETATM   20  C35 UNL     1       7.885   9.959  13.778  1.00  0.00    -0.032 C 
HETATM   21  C36 UNL     1       9.128   9.235  13.172  1.00  0.00     0.016 C 
ENDROOT
BRANCH  12  22
HETATM   22  O3  UNL     1      13.193  14.530  18.402  1.00  0.00    -0.352 OA
BRANCH  22  23
HETATM   23  C22 UNL     1      14.234  13.561  18.580  1.00  0.00     0.292 C 
HETATM   24  O4  UNL     1      14.842  13.775  19.856  1.00  0.00    -0.348 OA
HETATM   25  C23 UNL     1      15.889  12.840  20.134  1.00  0.00     0.179 C 
HETATM   26  C25 UNL     1      17.034  13.042  19.130  1.00  0.00     0.180 C 
HETATM   27  C26 UNL     1      16.497  12.859  17.709  1.00  0.00     0.183 C 
HETATM   28  C27 UNL     1      15.268  13.735  17.445  1.00  0.00     0.204 C 
BRANCH  25  29
HETATM   29  C24 UNL     1      16.370  13.046  21.576  1.00  0.00     0.198 C 
BRANCH  29  30
HETATM   30  O5  UNL     1      15.943  14.294  22.108  1.00  0.00    -0.398 OA
HETATM   31  H37 UNL     1      15.004  14.413  21.848  1.00  0.00     0.209 HD
ENDBRANCH  29  30
ENDBRANCH  25  29
BRANCH  26  32
HETATM   32  O6  UNL     1      18.103  12.118  19.367  1.00  0.00    -0.390 OA
HETATM   33  H39 UNL     1      18.611  12.063  18.530  1.00  0.00     0.210 HD
ENDBRANCH  26  32
BRANCH  27  34
HETATM   34  O7  UNL     1      17.536  13.152  16.755  1.00  0.00    -0.390 OA
HETATM   35  H41 UNL     1      17.779  14.093  16.841  1.00  0.00     0.210 HD
ENDBRANCH  27  34
BRANCH  28  36
HETATM   36  O8  UNL     1      14.716  13.368  16.171  1.00  0.00    -0.388 OA
HETATM   37  H43 UNL     1      15.464  13.309  15.545  1.00  0.00     0.210 HD
ENDBRANCH  28  36
ENDBRANCH  22  23
ENDBRANCH  12  22
BRANCH  10  38
HETATM   38  C20 UNL     1      11.840  12.045  20.166  1.00  0.00     0.151 C 
HETATM   39  O1  UNL     1      10.811  11.861  20.802  1.00  0.00    -0.649 OA
BRANCH  38  40
HETATM   40  O2  UNL     1      13.027  11.860  20.771  1.00  0.00    -0.776 OA
HETATM   41  H31 UNL     1      12.806  11.614  21.695  1.00  0.00     0.167 HD
ENDBRANCH  38  40
ENDBRANCH  10  38
BRANCH   1  42
HETATM   42  C7  UNL     1       6.414   8.928  11.713  1.00  0.00     0.021 C 
HETATM   43  C8  UNL     1       6.609  10.228  10.893  1.00  0.00     0.013 C 
BRANCH  42  44
HETATM   44  C5  UNL     1       5.034   8.257  11.274  1.00  0.00     0.074 C 
HETATM   45  C4  UNL     1       5.156   6.710  11.257  1.00  0.00     0.066 C 
HETATM   46  C3  UNL     1       4.089   6.079  10.420  1.00  0.00    -0.011 C 
HETATM   47  C2  UNL     1       3.448   6.758   9.455  1.00  0.00     0.010 C 
HETATM   48  C1  UNL     1       2.371   6.153   8.606  1.00  0.00     0.054 C 
HETATM   49  C37 UNL     1       3.823   8.159   9.134  1.00  0.00     0.289 C 
HETATM   50  O9  UNL     1       4.733   8.756   9.942  1.00  0.00    -0.306 OA
HETATM   51  O10 UNL     1       3.351   8.738   8.163  1.00  0.00    -0.260 OA
HETATM   52  C6  UNL     1       3.838   8.622  12.173  1.00  0.00     0.047 C 
ENDBRANCH  42  44
ENDBRANCH   1  42
TORSDOF 11
ENDMDL
MODEL 7
REMARK minimizedAffinity -7.81528139
REMARK CNNscore 0.239098668
REMARK CNNaffinity 6.45551348
REMARK  11 active torsions:
REMARK  status: ('A' for Active; 'I' for Inactive)
REMARK    1  A    between atoms: C5_5  and  C7_7 
REMARK    2  A    between atoms: C7_7  and  C9_9 
REMARK    3  A    between atoms: C18_18  and  C20_20 
REMARK    4  A    between atoms: C20_20  and  O2_22 
REMARK    5  A    between atoms: C21_23  and  O3_24 
REMARK    6  A    between atoms: O3_24  and  C22_25 
REMARK    7  A    between atoms: C23_27  and  C24_28 
REMARK    8  A    between atoms: C24_28  and  O5_29 
REMARK    9  A    between atoms: C25_30  and  O6_31 
REMARK   10  A    between atoms: C26_32  and  O7_33 
REMARK   11  A    between atoms: C27_34  and  O8_35 
ROOT
HETATM    1  C9  UNL     1       0.769   8.210  14.004  1.00  0.00     0.001 C 
HETATM    2  C10 UNL     1       1.915   9.235  13.767  1.00  0.00     0.007 C 
HETATM    3  C11 UNL     1       1.551  10.548  14.475  1.00  0.00     0.011 C 
HETATM    4  C12 UNL     1       0.342  10.208  15.356  1.00  0.00    -0.032 C 
HETATM    5  C13 UNL     1       0.893   9.620  16.692  1.00  0.00     0.016 C 
HETATM    6  C14 UNL     1      -0.579  11.423  15.642  1.00  0.00     0.004 C 
HETATM    7  C15 UNL     1       0.054  12.478  16.559  1.00  0.00     0.007 C 
HETATM    8  C16 UNL     1      -0.909  13.632  16.830  1.00  0.00     0.007 C 
HETATM    9  C17 UNL     1      -2.078  13.121  17.689  1.00  0.00     0.016 C 
HETATM   10  C18 UNL     1      -3.082  14.212  18.174  1.00  0.00     0.072 C 
HETATM   11  C19 UNL     1      -3.882  14.820  17.000  1.00  0.00     0.030 C 
HETATM   12  C21 UNL     1      -4.026  13.593  19.266  1.00  0.00     0.143 C 
HETATM   13  C28 UNL     1      -4.063  12.056  19.259  1.00  0.00     0.034 C 
HETATM   14  C29 UNL     1      -4.028  11.467  17.855  1.00  0.00     0.013 C 
HETATM   15  C30 UNL     1      -2.825  11.946  17.035  1.00  0.00    -0.027 A 
HETATM   16  C31 UNL     1      -3.088  11.886  15.548  1.00  0.00     0.021 A 
HETATM   17  C32 UNL     1      -1.997  10.999  16.109  1.00  0.00    -0.027 A 
HETATM   18  C33 UNL     1      -2.280   9.502  16.227  1.00  0.00     0.011 C 
HETATM   19  C34 UNL     1      -1.522   8.535  15.300  1.00  0.00     0.011 C 
HETATM   20  C35 UNL     1      -0.410   9.165  14.450  1.00  0.00    -0.032 C 
HETATM   21  C36 UNL     1      -1.063   9.805  13.185  1.00  0.00     0.016 C 
ENDROOT
BRANCH  12  22
HETATM   22  O3  UNL     1      -5.370  14.078  19.110  1.00  0.00    -0.352 OA
BRANCH  22  23
HETATM   23  C22 UNL     1      -5.891  14.670  20.306  1.00  0.00     0.292 C 
HETATM   24  O4  UNL     1      -4.796  15.131  21.100  1.00  0.00    -0.348 OA
HETATM   25  C23 UNL     1      -5.218  15.756  22.316  1.00  0.00     0.179 C 
HETATM   26  C25 UNL     1      -5.922  14.721  23.206  1.00  0.00     0.180 C 
HETATM   27  C26 UNL     1      -7.114  14.132  22.448  1.00  0.00     0.183 C 
HETATM   28  C27 UNL     1      -6.709  13.604  21.068  1.00  0.00     0.204 C 
BRANCH  25  29
HETATM   29  C24 UNL     1      -3.992  16.355  23.020  1.00  0.00     0.198 C 
BRANCH  29  30
HETATM   30  O5  UNL     1      -3.296  15.386  23.795  1.00  0.00    -0.398 OA
HETATM   31  H37 UNL     1      -3.241  14.569  23.254  1.00  0.00     0.209 HD
ENDBRANCH  29  30
ENDBRANCH  25  29
BRANCH  26  32
HETATM   32  O6  UNL     1      -6.370  15.308  24.434  1.00  0.00    -0.390 OA
HETATM   33  H39 UNL     1      -7.077  14.722  24.778  1.00  0.00     0.210 HD
ENDBRANCH  26  32
BRANCH  27  34
HETATM   34  O7  UNL     1      -7.717  13.083  23.230  1.00  0.00    -0.390 OA
HETATM   35  H41 UNL     1      -7.068  12.361  23.332  1.00  0.00     0.210 HD
ENDBRANCH  27  34
BRANCH  28  36
HETATM   36  O8  UNL     1      -7.902  13.247  20.352  1.00  0.00    -0.388 OA
HETATM   37  H43 UNL     1      -8.459  12.734  20.970  1.00  0.00     0.210 HD
ENDBRANCH  28  36
ENDBRANCH  22  23
ENDBRANCH  12  22
BRANCH  10  38
HETATM   38  C20 UNL     1      -2.276  15.301  18.884  1.00  0.00     0.151 C 
HETATM   39  O1  UNL     1      -1.611  15.154  19.900  1.00  0.00    -0.649 OA
BRANCH  38  40
HETATM   40  O2  UNL     1      -2.287  16.501  18.275  1.00  0.00    -0.776 OA
HETATM   41  H31 UNL     1      -1.725  17.076  18.837  1.00  0.00     0.167 HD
ENDBRANCH  38  40
ENDBRANCH  10  38
BRANCH   1  42
HETATM   42  C7  UNL     1       0.549   7.185  12.820  1.00  0.00     0.021 C 
HETATM   43  C8  UNL     1       1.005   5.779  13.284  1.00  0.00     0.013 C 
BRANCH  42  44
HETATM   44  C5  UNL     1       1.287   7.528  11.448  1.00  0.00     0.074 C 
HETATM   45  C4  UNL     1       0.351   8.332  10.506  1.00  0.00     0.066 C 
HETATM   46  C3  UNL     1       0.801   8.259   9.082  1.00  0.00    -0.011 C 
HETATM   47  C2  UNL     1       1.586   7.266   8.634  1.00  0.00     0.010 C 
HETATM   48  C1  UNL     1       2.058   7.171   7.215  1.00  0.00     0.054 C 
HETATM   49  C37 UNL     1       1.989   6.152   9.532  1.00  0.00     0.289 C 
HETATM   50  O9  UNL     1       1.648   6.258  10.840  1.00  0.00    -0.306 OA
HETATM   51  O10 UNL     1       2.579   5.169   9.101  1.00  0.00    -0.260 OA
HETATM   52  C6  UNL     1       2.589   8.335  11.613  1.00  0.00     0.047 C 
ENDBRANCH  42  44
ENDBRANCH   1  42
TORSDOF 11
ENDMDL
MODEL 8
REMARK minimizedAffinity -11.1434364
REMARK CNNscore 0.235773444
REMARK CNNaffinity 6.91423941
REMARK  11 active torsions:
REMARK  status: ('A' for Active; 'I' for Inactive)
REMARK    1  A    between atoms: C5_5  and  C7_7 
REMARK    2  A    between atoms: C7_7  and  C9_9 
REMARK    3  A    between atoms: C18_18  and  C20_20 
REMARK    4  A    between atoms: C20_20  and  O2_22 
REMARK    5  A    between atoms: C21_23  and  O3_24 
REMARK    6  A    between atoms: O3_24  and  C22_25 
REMARK    7  A    between atoms: C23_27  and  C24_28 
REMARK    8  A    between atoms: C24_28  and  O5_29 
REMARK    9  A    between atoms: C25_30  and  O6_31 
REMARK   10  A    between atoms: C26_32  and  O7_33 
REMARK   11  A    between atoms: C27_34  and  O8_35 
ROOT
HETATM    1  C9  UNL     1      -6.049   7.016  14.048  1.00  0.00     0.001 C 
HETATM    2  C10 UNL     1      -6.357   8.361  14.767  1.00  0.00     0.007 C 
HETATM    3  C11 UNL     1      -5.033   9.101  15.008  1.00  0.00     0.011 C 
HETATM    4  C12 UNL     1      -3.989   8.334  14.187  1.00  0.00    -0.032 C 
HETATM    5  C13 UNL     1      -4.050   8.885  12.728  1.00  0.00     0.016 C 
HETATM    6  C14 UNL     1      -2.547   8.454  14.747  1.00  0.00     0.004 C 
HETATM    7  C15 UNL     1      -1.939   9.856  14.597  1.00  0.00     0.007 C 
HETATM    8  C16 UNL     1      -0.512   9.905  15.137  1.00  0.00     0.007 C 
HETATM    9  C17 UNL     1       0.399   9.062  14.229  1.00  0.00     0.016 C 
HETATM   10  C18 UNL     1       1.922   9.122  14.563  1.00  0.00     0.072 C 
HETATM   11  C19 UNL     1       2.240   8.459  15.921  1.00  0.00     0.030 C 
HETATM   12  C21 UNL     1       2.732   8.467  13.387  1.00  0.00     0.143 C 
HETATM   13  C28 UNL     1       1.888   7.557  12.480  1.00  0.00     0.034 C 
HETATM   14  C29 UNL     1       0.860   6.739  13.250  1.00  0.00     0.013 C 
HETATM   15  C30 UNL     1      -0.073   7.603  14.105  1.00  0.00    -0.027 A 
HETATM   16  C31 UNL     1      -0.643   6.839  15.278  1.00  0.00     0.021 A 
HETATM   17  C32 UNL     1      -1.608   7.336  14.223  1.00  0.00    -0.027 A 
HETATM   18  C33 UNL     1      -2.204   6.313  13.257  1.00  0.00     0.011 C 
HETATM   19  C34 UNL     1      -3.703   5.983  13.369  1.00  0.00     0.011 C 
HETATM   20  C35 UNL     1      -4.504   6.855  14.345  1.00  0.00    -0.032 C 
HETATM   21  C36 UNL     1      -4.311   6.286  15.784  1.00  0.00     0.016 C 
ENDROOT
BRANCH  12  22
HETATM   22  O3  UNL     1       3.835   7.699  13.897  1.00  0.00    -0.352 OA
BRANCH  22  23
HETATM   23  C22 UNL     1       5.067   8.430  13.905  1.00  0.00     0.292 C 
HETATM   24  O4  UNL     1       5.443   8.701  12.552  1.00  0.00    -0.348 OA
HETATM   25  C23 UNL     1       6.662   9.445  12.454  1.00  0.00     0.179 C 
HETATM   26  C25 UNL     1       7.821   8.603  13.008  1.00  0.00     0.180 C 
HETATM   27  C26 UNL     1       7.522   8.227  14.461  1.00  0.00     0.183 C 
HETATM   28  C27 UNL     1       6.143   7.574  14.610  1.00  0.00     0.204 C 
BRANCH  25  29
HETATM   29  C24 UNL     1       6.898   9.822  10.986  1.00  0.00     0.198 C 
BRANCH  29  30
HETATM   30  O5  UNL     1       5.678  10.040  10.288  1.00  0.00    -0.398 OA
HETATM   31  H37 UNL     1       5.099  10.571  10.877  1.00  0.00     0.209 HD
ENDBRANCH  29  30
ENDBRANCH  25  29
BRANCH  26  32
HETATM   32  O6  UNL     1       9.062   9.316  12.938  1.00  0.00    -0.390 OA
HETATM   33  H39 UNL     1       9.660   8.893  13.590  1.00  0.00     0.210 HD
ENDBRANCH  26  32
BRANCH  27  34
HETATM   34  O7  UNL     1       8.550   7.348  14.957  1.00  0.00    -0.390 OA
HETATM   35  H41 UNL     1       8.521   6.518  14.444  1.00  0.00     0.210 HD
ENDBRANCH  27  34
BRANCH  28  36
HETATM   36  O8  UNL     1       5.862   7.427  16.011  1.00  0.00    -0.388 OA
HETATM   37  H43 UNL     1       6.666   7.057  16.423  1.00  0.00     0.210 HD
ENDBRANCH  28  36
ENDBRANCH  22  23
ENDBRANCH  12  22
BRANCH  10  38
HETATM   38  C20 UNL     1       2.333  10.595  14.585  1.00  0.00     0.151 C 
HETATM   39  O1  UNL     1       2.619  11.247  15.579  1.00  0.00    -0.649 OA
BRANCH  38  40
HETATM   40  O2  UNL     1       2.424  11.174  13.373  1.00  0.00    -0.776 OA
HETATM   41  H31 UNL     1       2.705  12.097  13.553  1.00  0.00     0.167 HD
ENDBRANCH  38  40
ENDBRANCH  10  38
BRANCH   1  42
HETATM   42  C7  UNL     1      -7.046   5.840  14.401  1.00  0.00     0.021 C 
HETATM   43  C8  UNL     1      -6.565   5.149  15.702  1.00  0.00     0.013 C 
BRANCH  42  44
HETATM   44  C5  UNL     1      -7.240   4.723  13.278  1.00  0.00     0.074 C 
HETATM   45  C4  UNL     1      -7.652   3.369  13.916  1.00  0.00     0.066 C 
HETATM   46  C3  UNL     1      -7.382   2.219  12.999  1.00  0.00    -0.011 C 
HETATM   47  C2  UNL     1      -6.484   2.298  12.005  1.00  0.00     0.010 C 
HETATM   48  C1  UNL     1      -6.198   1.164  11.068  1.00  0.00     0.054 C 
HETATM   49  C37 UNL     1      -5.665   3.523  11.816  1.00  0.00     0.289 C 
HETATM   50  O9  UNL     1      -5.964   4.592  12.594  1.00  0.00    -0.306 OA
HETATM   51  O10 UNL     1      -4.743   3.555  11.010  1.00  0.00    -0.260 OA
HETATM   52  C6  UNL     1      -8.290   5.075  12.209  1.00  0.00     0.047 C 
ENDBRANCH  42  44
ENDBRANCH   1  42
TORSDOF 11
ENDMDL
MODEL 9
REMARK minimizedAffinity -9.98308182
REMARK CNNscore 0.225456938
REMARK CNNaffinity 7.11344671
REMARK  11 active torsions:
REMARK  status: ('A' for Active; 'I' for Inactive)
REMARK    1  A    between atoms: C5_5  and  C7_7 
REMARK    2  A    between atoms: C7_7  and  C9_9 
REMARK    3  A    between atoms: C18_18  and  C20_20 
REMARK    4  A    between atoms: C20_20  and  O2_22 
REMARK    5  A    between atoms: C21_23  and  O3_24 
REMARK    6  A    between atoms: O3_24  and  C22_25 
REMARK    7  A    between atoms: C23_27  and  C24_28 
REMARK    8  A    between atoms: C24_28  and  O5_29 
REMARK    9  A    between atoms: C25_30  and  O6_31 
REMARK   10  A    between atoms: C26_32  and  O7_33 
REMARK   11  A    between atoms: C27_34  and  O8_35 
ROOT
HETATM    1  C9  UNL     1       0.694   7.151  13.639  1.00  0.00     0.001 C 
HETATM    2  C10 UNL     1       0.723   5.907  12.704  1.00  0.00     0.007 C 
HETATM    3  C11 UNL     1      -0.712   5.383  12.542  1.00  0.00     0.011 C 
HETATM    4  C12 UNL     1      -1.608   6.475  13.141  1.00  0.00    -0.032 C 
HETATM    5  C13 UNL     1      -1.852   7.538  12.026  1.00  0.00     0.016 C 
HETATM    6  C14 UNL     1      -2.962   5.941  13.681  1.00  0.00     0.004 C 
HETATM    7  C15 UNL     1      -3.922   5.466  12.582  1.00  0.00     0.007 C 
HETATM    8  C16 UNL     1      -5.246   4.982  13.170  1.00  0.00     0.007 C 
HETATM    9  C17 UNL     1      -6.003   6.182  13.759  1.00  0.00     0.016 C 
HETATM   10  C18 UNL     1      -7.444   5.880  14.276  1.00  0.00     0.072 C 
HETATM   11  C19 UNL     1      -7.429   4.960  15.517  1.00  0.00     0.030 C 
HETATM   12  C21 UNL     1      -8.183   7.236  14.562  1.00  0.00     0.143 C 
HETATM   13  C28 UNL     1      -7.239   8.439  14.719  1.00  0.00     0.034 C 
HETATM   14  C29 UNL     1      -5.956   8.095  15.464  1.00  0.00     0.013 C 
HETATM   15  C30 UNL     1      -5.189   6.931  14.828  1.00  0.00    -0.027 A 
HETATM   16  C31 UNL     1      -4.316   6.209  15.828  1.00  0.00     0.021 A 
HETATM   17  C32 UNL     1      -3.633   6.921  14.679  1.00  0.00    -0.027 A 
HETATM   18  C33 UNL     1      -2.905   8.230  14.977  1.00  0.00     0.011 C 
HETATM   19  C34 UNL     1      -1.368   8.253  14.890  1.00  0.00     0.011 C 
HETATM   20  C35 UNL     1      -0.716   6.980  14.335  1.00  0.00    -0.032 C 
HETATM   21  C36 UNL     1      -0.596   5.944  15.495  1.00  0.00     0.016 C 
ENDROOT
BRANCH  12  22
HETATM   22  O3  UNL     1      -8.988   7.135  15.748  1.00  0.00    -0.352 OA
BRANCH  22  23
HETATM   23  C22 UNL     1     -10.330   7.599  15.553  1.00  0.00     0.292 C 
HETATM   24  O4  UNL     1     -10.543   7.799  14.153  1.00  0.00    -0.348 OA
HETATM   25  C23 UNL     1     -11.867   8.251  13.853  1.00  0.00     0.179 C 
HETATM   26  C25 UNL     1     -12.086   9.639  14.472  1.00  0.00     0.180 C 
HETATM   27  C26 UNL     1     -11.862   9.559  15.984  1.00  0.00     0.183 C 
HETATM   28  C27 UNL     1     -10.511   8.923  16.328  1.00  0.00     0.204 C 
BRANCH  25  29
HETATM   29  C24 UNL     1     -12.048   8.284  12.330  1.00  0.00     0.198 C 
BRANCH  29  30
HETATM   30  O5  UNL     1     -11.750   9.564  11.785  1.00  0.00    -0.398 OA
HETATM   31  H37 UNL     1     -10.929   9.879  12.221  1.00  0.00     0.209 HD
ENDBRANCH  29  30
ENDBRANCH  25  29
BRANCH  26  32
HETATM   32  O6  UNL     1     -13.407  10.126  14.203  1.00  0.00    -0.390 OA
HETATM   33  H39 UNL     1     -13.592  10.811  14.880  1.00  0.00     0.210 HD
ENDBRANCH  26  32
BRANCH  27  34
HETATM   34  O7  UNL     1     -11.960  10.875  16.560  1.00  0.00    -0.390 OA
HETATM   35  H41 UNL     1     -11.237  11.424  16.202  1.00  0.00     0.210 HD
ENDBRANCH  27  34
BRANCH  28  36
HETATM   36  O8  UNL     1     -10.460   8.711  17.748  1.00  0.00    -0.388 OA
HETATM   37  H43 UNL     1     -10.777   9.534  18.168  1.00  0.00     0.210 HD
ENDBRANCH  28  36
ENDBRANCH  22  23
ENDBRANCH  12  22
BRANCH  10  38
HETATM   38  C20 UNL     1      -8.215   5.215  13.135  1.00  0.00     0.151 C 
HETATM   39  O1  UNL     1      -8.457   5.714  12.044  1.00  0.00    -0.649 OA
BRANCH  38  40
HETATM   40  O2  UNL     1      -8.601   3.949  13.376  1.00  0.00    -0.776 OA
HETATM   41  H31 UNL     1      -9.063   3.663  12.558  1.00  0.00     0.167 HD
ENDBRANCH  38  40
ENDBRANCH  10  38
BRANCH   1  42
HETATM   42  C7  UNL     1       1.991   7.340  14.521  1.00  0.00     0.021 C 
HETATM   43  C8  UNL     1       1.597   8.030  15.851  1.00  0.00     0.013 C 
BRANCH  42  44
HETATM   44  C5  UNL     1       3.180   8.170  13.855  1.00  0.00     0.074 C 
HETATM   45  C4  UNL     1       3.677   7.475  12.559  1.00  0.00     0.066 C 
HETATM   46  C3  UNL     1       5.051   7.928  12.180  1.00  0.00    -0.011 C 
HETATM   47  C2  UNL     1       5.896   8.463  13.075  1.00  0.00     0.010 C 
HETATM   48  C1  UNL     1       7.275   8.932  12.721  1.00  0.00     0.054 C 
HETATM   49  C37 UNL     1       5.519   8.568  14.508  1.00  0.00     0.289 C 
HETATM   50  O9  UNL     1       4.248   8.231  14.839  1.00  0.00    -0.306 OA
HETATM   51  O10 UNL     1       6.331   8.916  15.356  1.00  0.00    -0.260 OA
HETATM   52  C6  UNL     1       2.815   9.622  13.496  1.00  0.00     0.047 C 
ENDBRANCH  42  44
ENDBRANCH   1  42
TORSDOF 11
ENDMDL
