MODEL 1
REMARK minimizedAffinity -9.68737221
REMARK  6 active torsions:
REMARK  status: ('A' for Active; 'I' for Inactive)
REMARK    1  A    between atoms: C2_2  and  C30_32 
REMARK    2  A    between atoms: C3_3  and  C4_4 
REMARK    3  A    between atoms: C4_4  and  C5_5 
REMARK    4  A    between atoms: C5_5  and  C6_6 
REMARK    5  A    between atoms: C6_6  and  C8_8 
REMARK    6  A    between atoms: C30_32  and  O4_34 
ROOT
HETATM    1  C8  UNL     1       0.830  51.698 -20.579  1.00  0.00    -0.002 C 
HETATM    2  C9  UNL     1      -0.153  50.600 -20.987  1.00  0.00     0.007 C 
HETATM    3  C10 UNL     1      -0.452  49.903 -19.672  1.00  0.00     0.015 C 
HETATM    4  C11 UNL     1      -0.735  51.051 -18.675  1.00  0.00    -0.005 C 
HETATM    5  C12 UNL     1      -2.222  51.480 -18.839  1.00  0.00     0.021 C 
HETATM    6  C13 UNL     1      -0.547  50.606 -17.208  1.00  0.00    -0.000 C 
HETATM    7  C14 UNL     1       0.218  51.266 -16.304  1.00  0.00    -0.060 C 
HETATM    8  C15 UNL     1       1.063  52.438 -16.761  1.00  0.00     0.036 C 
HETATM    9  C16 UNL     1       1.487  52.298 -18.212  1.00  0.00     0.015 C 
HETATM   10  C17 UNL     1       0.282  52.197 -19.175  1.00  0.00    -0.028 C 
HETATM   11  C18 UNL     1      -0.397  53.586 -19.243  1.00  0.00     0.016 C 
HETATM   12  C19 UNL     1       0.320  50.911 -14.804  1.00  0.00    -0.014 C 
HETATM   13  C20 UNL     1       1.697  50.227 -14.575  1.00  0.00     0.020 C 
HETATM   14  C21 UNL     1       0.267  52.205 -13.937  1.00  0.00     0.021 C 
HETATM   15  C22 UNL     1      -0.288  51.967 -12.544  1.00  0.00     0.080 C 
HETATM   16  C23 UNL     1      -1.734  51.545 -12.654  1.00  0.00     0.135 C 
HETATM   17  O1  UNL     1      -2.562  51.957 -11.840  1.00  0.00    -0.297 OA
HETATM   18  C24 UNL     1      -2.112  50.582 -13.796  1.00  0.00     0.018 C 
HETATM   19  C25 UNL     1      -3.054  49.518 -13.189  1.00  0.00     0.023 C 
HETATM   20  C26 UNL     1      -2.908  51.384 -14.836  1.00  0.00     0.023 C 
HETATM   21  C27 UNL     1      -0.797  49.910 -14.336  1.00  0.00     0.020 C 
HETATM   22  C28 UNL     1      -0.997  48.818 -15.385  1.00  0.00     0.090 C 
HETATM   23  C29 UNL     1      -1.271  49.362 -16.760  1.00  0.00     0.157 C 
HETATM   24  O2  UNL     1      -2.029  48.749 -17.508  1.00  0.00    -0.293 OA
ENDROOT
BRANCH   1  25
HETATM   25  C6  UNL     1       1.112  52.738 -21.701  1.00  0.00    -0.014 C 
HETATM   26  C7  UNL     1       1.291  54.159 -21.135  1.00  0.00     0.010 C 
BRANCH  25  27
HETATM   27  C5  UNL     1       0.044  52.764 -22.824  1.00  0.00     0.008 C 
BRANCH  27  28
HETATM   28  C4  UNL     1       0.475  52.146 -24.159  1.00  0.00     0.028 C 
BRANCH  28  29
HETATM   29  C3  UNL     1       0.187  53.082 -25.303  1.00  0.00    -0.013 C 
HETATM   30  C2  UNL     1       0.056  52.761 -26.607  1.00  0.00     0.008 C 
HETATM   31  C1  UNL     1       0.123  51.375 -27.177  1.00  0.00     0.055 C 
BRANCH  30  32
HETATM   32  C30 UNL     1      -0.195  53.814 -27.628  1.00  0.00     0.171 C 
HETATM   33  O3  UNL     1      -0.380  54.996 -27.388  1.00  0.00    -0.646 OA
BRANCH  32  34
HETATM   34  O4  UNL     1      -0.210  53.362 -28.893  1.00  0.00    -0.773 OA
HETATM   35  H44 UNL     1      -0.385  54.169 -29.419  1.00  0.00     0.167 HD
ENDBRANCH  32  34
ENDBRANCH  30  32
ENDBRANCH  28  29
ENDBRANCH  27  28
ENDBRANCH  25  27
ENDBRANCH   1  25
TORSDOF 6
ENDMDL
MODEL 2
REMARK minimizedAffinity -9.56515694
REMARK  6 active torsions:
REMARK  status: ('A' for Active; 'I' for Inactive)
REMARK    1  A    between atoms: C2_2  and  C30_32 
REMARK    2  A    between atoms: C3_3  and  C4_4 
REMARK    3  A    between atoms: C4_4  and  C5_5 
REMARK    4  A    between atoms: C5_5  and  C6_6 
REMARK    5  A    between atoms: C6_6  and  C8_8 
REMARK    6  A    between atoms: C30_32  and  O4_34 
ROOT
HETATM    1  C8  UNL     1      -3.634  51.549 -25.425  1.00  0.00    -0.002 C 
HETATM    2  C9  UNL     1      -3.065  52.597 -24.468  1.00  0.00     0.007 C 
HETATM    3  C10 UNL     1      -3.514  52.097 -23.107  1.00  0.00     0.015 C 
HETATM    4  C11 UNL     1      -3.171  50.589 -23.111  1.00  0.00    -0.005 C 
HETATM    5  C12 UNL     1      -1.671  50.432 -22.725  1.00  0.00     0.021 C 
HETATM    6  C13 UNL     1      -3.996  49.802 -22.068  1.00  0.00    -0.000 C 
HETATM    7  C14 UNL     1      -4.710  48.684 -22.349  1.00  0.00    -0.060 C 
HETATM    8  C15 UNL     1      -4.839  48.226 -23.787  1.00  0.00     0.036 C 
HETATM    9  C16 UNL     1      -4.770  49.390 -24.759  1.00  0.00     0.015 C 
HETATM   10  C17 UNL     1      -3.445  50.179 -24.646  1.00  0.00    -0.028 C 
HETATM   11  C18 UNL     1      -2.310  49.300 -25.223  1.00  0.00     0.016 C 
HETATM   12  C19 UNL     1      -5.437  47.812 -21.299  1.00  0.00    -0.014 C 
HETATM   13  C20 UNL     1      -6.960  48.094 -21.430  1.00  0.00     0.020 C 
HETATM   14  C21 UNL     1      -5.192  46.300 -21.589  1.00  0.00     0.021 C 
HETATM   15  C22 UNL     1      -5.273  45.435 -20.345  1.00  0.00     0.080 C 
HETATM   16  C23 UNL     1      -4.150  45.811 -19.407  1.00  0.00     0.135 C 
HETATM   17  O1  UNL     1      -3.554  44.937 -18.775  1.00  0.00    -0.297 OA
HETATM   18  C24 UNL     1      -3.804  47.306 -19.271  1.00  0.00     0.018 C 
HETATM   19  C25 UNL     1      -3.601  47.580 -17.764  1.00  0.00     0.023 C 
HETATM   20  C26 UNL     1      -2.464  47.540 -19.983  1.00  0.00     0.023 C 
HETATM   21  C27 UNL     1      -5.011  48.149 -19.826  1.00  0.00     0.020 C 
HETATM   22  C28 UNL     1      -4.899  49.661 -19.642  1.00  0.00     0.090 C 
HETATM   23  C29 UNL     1      -3.994  50.313 -20.651  1.00  0.00     0.157 C 
HETATM   24  O2  UNL     1      -3.321  51.284 -20.314  1.00  0.00    -0.293 OA
ENDROOT
BRANCH   1  25
HETATM   25  C6  UNL     1      -3.105  51.676 -26.883  1.00  0.00    -0.014 C 
HETATM   26  C7  UNL     1      -3.059  50.314 -27.598  1.00  0.00     0.010 C 
BRANCH  25  27
HETATM   27  C5  UNL     1      -1.720  52.363 -26.996  1.00  0.00     0.008 C 
BRANCH  27  28
HETATM   28  C4  UNL     1      -1.012  52.647 -25.666  1.00  0.00     0.028 C 
BRANCH  28  29
HETATM   29  C3  UNL     1       0.431  52.220 -25.723  1.00  0.00    -0.013 C 
HETATM   30  C2  UNL     1       1.141  51.888 -26.821  1.00  0.00     0.008 C 
HETATM   31  C1  UNL     1       0.635  51.927 -28.233  1.00  0.00     0.055 C 
BRANCH  30  32
HETATM   32  C30 UNL     1       2.559  51.450 -26.707  1.00  0.00     0.171 C 
HETATM   33  O3  UNL     1       2.961  50.556 -25.981  1.00  0.00    -0.646 OA
BRANCH  32  34
HETATM   34  O4  UNL     1       3.410  52.135 -27.487  1.00  0.00    -0.773 OA
HETATM   35  H44 UNL     1       4.277  51.726 -27.289  1.00  0.00     0.167 HD
ENDBRANCH  32  34
ENDBRANCH  30  32
ENDBRANCH  28  29
ENDBRANCH  27  28
ENDBRANCH  25  27
ENDBRANCH   1  25
TORSDOF 6
ENDMDL
MODEL 3
REMARK minimizedAffinity -9.5212183
REMARK  6 active torsions:
REMARK  status: ('A' for Active; 'I' for Inactive)
REMARK    1  A    between atoms: C2_2  and  C30_32 
REMARK    2  A    between atoms: C3_3  and  C4_4 
REMARK    3  A    between atoms: C4_4  and  C5_5 
REMARK    4  A    between atoms: C5_5  and  C6_6 
REMARK    5  A    between atoms: C6_6  and  C8_8 
REMARK    6  A    between atoms: C30_32  and  O4_34 
ROOT
HETATM    1  C8  UNL     1      -1.812  49.719 -18.758  1.00  0.00    -0.002 C 
HETATM    2  C9  UNL     1      -2.468  48.340 -18.689  1.00  0.00     0.007 C 
HETATM    3  C10 UNL     1      -3.368  48.327 -19.912  1.00  0.00     0.015 C 
HETATM    4  C11 UNL     1      -2.475  48.851 -21.061  1.00  0.00    -0.005 C 
HETATM    5  C12 UNL     1      -1.637  47.659 -21.607  1.00  0.00     0.021 C 
HETATM    6  C13 UNL     1      -3.308  49.403 -22.239  1.00  0.00    -0.000 C 
HETATM    7  C14 UNL     1      -3.125  50.627 -22.794  1.00  0.00    -0.060 C 
HETATM    8  C15 UNL     1      -2.145  51.592 -22.159  1.00  0.00     0.036 C 
HETATM    9  C16 UNL     1      -2.024  51.371 -20.661  1.00  0.00     0.015 C 
HETATM   10  C17 UNL     1      -1.554  49.940 -20.309  1.00  0.00    -0.028 C 
HETATM   11  C18 UNL     1      -0.064  49.813 -20.705  1.00  0.00     0.016 C 
HETATM   12  C19 UNL     1      -3.860  51.147 -24.050  1.00  0.00    -0.014 C 
HETATM   13  C20 UNL     1      -4.921  52.180 -23.578  1.00  0.00     0.020 C 
HETATM   14  C21 UNL     1      -2.860  51.873 -25.000  1.00  0.00     0.021 C 
HETATM   15  C22 UNL     1      -3.283  51.828 -26.457  1.00  0.00     0.080 C 
HETATM   16  C23 UNL     1      -3.263  50.395 -26.934  1.00  0.00     0.135 C 
HETATM   17  O1  UNL     1      -2.863  50.127 -28.068  1.00  0.00    -0.297 OA
HETATM   18  C24 UNL     1      -3.770  49.311 -25.963  1.00  0.00     0.018 C 
HETATM   19  C25 UNL     1      -4.662  48.356 -26.788  1.00  0.00     0.023 C 
HETATM   20  C26 UNL     1      -2.550  48.519 -25.472  1.00  0.00     0.023 C 
HETATM   21  C27 UNL     1      -4.611  50.011 -24.833  1.00  0.00     0.020 C 
HETATM   22  C28 UNL     1      -5.310  49.070 -23.853  1.00  0.00     0.090 C 
HETATM   23  C29 UNL     1      -4.384  48.514 -22.806  1.00  0.00     0.157 C 
HETATM   24  O2  UNL     1      -4.564  47.371 -22.393  1.00  0.00    -0.293 OA
ENDROOT
BRANCH   1  25
HETATM   25  C6  UNL     1      -0.637  49.907 -17.756  1.00  0.00    -0.014 C 
HETATM   26  C7  UNL     1      -0.772  48.985 -16.531  1.00  0.00     0.010 C 
BRANCH  25  27
HETATM   27  C5  UNL     1      -0.440  51.369 -17.279  1.00  0.00     0.008 C 
BRANCH  27  28
HETATM   28  C4  UNL     1       1.016  51.841 -17.179  1.00  0.00     0.028 C 
BRANCH  28  29
HETATM   29  C3  UNL     1       1.580  51.556 -15.812  1.00  0.00    -0.013 C 
HETATM   30  C2  UNL     1       2.810  51.874 -15.355  1.00  0.00     0.008 C 
HETATM   31  C1  UNL     1       3.856  52.632 -16.117  1.00  0.00     0.055 C 
BRANCH  30  32
HETATM   32  C30 UNL     1       3.233  51.489 -13.981  1.00  0.00     0.171 C 
HETATM   33  O3  UNL     1       3.877  50.494 -13.697  1.00  0.00    -0.646 OA
BRANCH  32  34
HETATM   34  O4  UNL     1       2.839  52.346 -13.024  1.00  0.00    -0.773 OA
HETATM   35  H44 UNL     1       3.194  51.947 -12.204  1.00  0.00     0.167 HD
ENDBRANCH  32  34
ENDBRANCH  30  32
ENDBRANCH  28  29
ENDBRANCH  27  28
ENDBRANCH  25  27
ENDBRANCH   1  25
TORSDOF 6
ENDMDL
MODEL 4
REMARK minimizedAffinity -9.25851154
REMARK  6 active torsions:
REMARK  status: ('A' for Active; 'I' for Inactive)
REMARK    1  A    between atoms: C2_2  and  C30_32 
REMARK    2  A    between atoms: C3_3  and  C4_4 
REMARK    3  A    between atoms: C4_4  and  C5_5 
REMARK    4  A    between atoms: C5_5  and  C6_6 
REMARK    5  A    between atoms: C6_6  and  C8_8 
REMARK    6  A    between atoms: C30_32  and  O4_34 
ROOT
HETATM    1  C8  UNL     1      -2.120  50.242 -25.165  1.00  0.00    -0.002 C 
HETATM    2  C9  UNL     1      -3.267  50.006 -26.148  1.00  0.00     0.007 C 
HETATM    3  C10 UNL     1      -4.157  49.025 -25.406  1.00  0.00     0.015 C 
HETATM    4  C11 UNL     1      -4.288  49.614 -23.982  1.00  0.00    -0.005 C 
HETATM    5  C12 UNL     1      -5.412  50.690 -24.003  1.00  0.00     0.021 C 
HETATM    6  C13 UNL     1      -4.697  48.544 -22.945  1.00  0.00    -0.000 C 
HETATM    7  C14 UNL     1      -4.041  48.322 -21.781  1.00  0.00    -0.060 C 
HETATM    8  C15 UNL     1      -2.743  49.054 -21.507  1.00  0.00     0.036 C 
HETATM    9  C16 UNL     1      -1.999  49.385 -22.790  1.00  0.00     0.015 C 
HETATM   10  C17 UNL     1      -2.833  50.268 -23.747  1.00  0.00    -0.028 C 
HETATM   11  C18 UNL     1      -2.926  51.686 -23.135  1.00  0.00     0.016 C 
HETATM   12  C19 UNL     1      -4.506  47.346 -20.676  1.00  0.00    -0.014 C 
HETATM   13  C20 UNL     1      -3.587  46.094 -20.738  1.00  0.00     0.020 C 
HETATM   14  C21 UNL     1      -4.342  48.003 -19.271  1.00  0.00     0.021 C 
HETATM   15  C22 UNL     1      -5.319  47.461 -18.243  1.00  0.00     0.080 C 
HETATM   16  C23 UNL     1      -6.725  47.830 -18.655  1.00  0.00     0.135 C 
HETATM   17  O1  UNL     1      -7.548  48.170 -17.804  1.00  0.00    -0.297 OA
HETATM   18  C24 UNL     1      -7.076  47.747 -20.153  1.00  0.00     0.018 C 
HETATM   19  C25 UNL     1      -8.465  47.076 -20.248  1.00  0.00     0.023 C 
HETATM   20  C26 UNL     1      -7.202  49.183 -20.681  1.00  0.00     0.023 C 
HETATM   21  C27 UNL     1      -5.988  46.865 -20.870  1.00  0.00     0.020 C 
HETATM   22  C28 UNL     1      -6.254  46.560 -22.343  1.00  0.00     0.090 C 
HETATM   23  C29 UNL     1      -5.911  47.706 -23.255  1.00  0.00     0.157 C 
HETATM   24  O2  UNL     1      -6.589  47.894 -24.262  1.00  0.00    -0.293 OA
ENDROOT
BRANCH   1  25
HETATM   25  C6  UNL     1      -1.179  51.415 -25.566  1.00  0.00    -0.014 C 
HETATM   26  C7  UNL     1       0.129  50.911 -26.202  1.00  0.00     0.010 C 
BRANCH  25  27
HETATM   27  C5  UNL     1      -0.845  52.385 -24.404  1.00  0.00     0.008 C 
BRANCH  27  28
HETATM   28  C4  UNL     1       0.569  52.259 -23.825  1.00  0.00     0.028 C 
BRANCH  28  29
HETATM   29  C3  UNL     1       0.701  53.053 -22.553  1.00  0.00    -0.013 C 
HETATM   30  C2  UNL     1       0.522  52.610 -21.291  1.00  0.00     0.008 C 
HETATM   31  C1  UNL     1       0.199  51.199 -20.899  1.00  0.00     0.055 C 
BRANCH  30  32
HETATM   32  C30 UNL     1       0.656  53.536 -20.133  1.00  0.00     0.171 C 
HETATM   33  O3  UNL     1      -0.066  53.540 -19.151  1.00  0.00    -0.646 OA
BRANCH  32  34
HETATM   34  O4  UNL     1       1.668  54.412 -20.243  1.00  0.00    -0.773 OA
HETATM   35  H44 UNL     1       1.609  54.930 -19.415  1.00  0.00     0.167 HD
ENDBRANCH  32  34
ENDBRANCH  30  32
ENDBRANCH  28  29
ENDBRANCH  27  28
ENDBRANCH  25  27
ENDBRANCH   1  25
TORSDOF 6
ENDMDL
MODEL 5
REMARK minimizedAffinity -9.15766621
REMARK  6 active torsions:
REMARK  status: ('A' for Active; 'I' for Inactive)
REMARK    1  A    between atoms: C2_2  and  C30_32 
REMARK    2  A    between atoms: C3_3  and  C4_4 
REMARK    3  A    between atoms: C4_4  and  C5_5 
REMARK    4  A    between atoms: C5_5  and  C6_6 
REMARK    5  A    between atoms: C6_6  and  C8_8 
REMARK    6  A    between atoms: C30_32  and  O4_34 
ROOT
HETATM    1  C8  UNL     1      -0.919  51.230 -20.523  1.00  0.00    -0.002 C 
HETATM    2  C9  UNL     1      -0.107  50.007 -20.952  1.00  0.00     0.007 C 
HETATM    3  C10 UNL     1      -1.086  48.863 -20.764  1.00  0.00     0.015 C 
HETATM    4  C11 UNL     1      -2.398  49.358 -21.418  1.00  0.00    -0.005 C 
HETATM    5  C12 UNL     1      -2.307  49.090 -22.948  1.00  0.00     0.021 C 
HETATM    6  C13 UNL     1      -3.634  48.594 -20.892  1.00  0.00    -0.000 C 
HETATM    7  C14 UNL     1      -4.749  49.193 -20.408  1.00  0.00    -0.060 C 
HETATM    8  C15 UNL     1      -4.768  50.697 -20.229  1.00  0.00     0.036 C 
HETATM    9  C16 UNL     1      -3.381  51.250 -19.948  1.00  0.00     0.015 C 
HETATM   10  C17 UNL     1      -2.376  50.934 -21.080  1.00  0.00    -0.028 C 
HETATM   11  C18 UNL     1      -2.747  51.796 -22.309  1.00  0.00     0.016 C 
HETATM   12  C19 UNL     1      -6.042  48.453 -19.996  1.00  0.00    -0.014 C 
HETATM   13  C20 UNL     1      -6.100  48.440 -18.443  1.00  0.00     0.020 C 
HETATM   14  C21 UNL     1      -7.294  49.217 -20.525  1.00  0.00     0.021 C 
HETATM   15  C22 UNL     1      -8.489  48.311 -20.761  1.00  0.00     0.080 C 
HETATM   16  C23 UNL     1      -8.161  47.339 -21.869  1.00  0.00     0.135 C 
HETATM   17  O1  UNL     1      -9.020  47.036 -22.699  1.00  0.00    -0.297 OA
HETATM   18  C24 UNL     1      -6.740  46.744 -21.901  1.00  0.00     0.018 C 
HETATM   19  C25 UNL     1      -6.895  45.236 -22.197  1.00  0.00     0.023 C 
HETATM   20  C26 UNL     1      -5.994  47.387 -23.079  1.00  0.00     0.023 C 
HETATM   21  C27 UNL     1      -6.078  46.963 -20.492  1.00  0.00     0.020 C 
HETATM   22  C28 UNL     1      -4.710  46.311 -20.298  1.00  0.00     0.090 C 
HETATM   23  C29 UNL     1      -3.590  47.089 -20.933  1.00  0.00     0.157 C 
HETATM   24  O2  UNL     1      -2.637  46.481 -21.415  1.00  0.00    -0.293 OA
ENDROOT
BRANCH   1  25
HETATM   25  C6  UNL     1      -0.237  52.587 -20.858  1.00  0.00    -0.014 C 
HETATM   26  C7  UNL     1       0.986  52.405 -21.775  1.00  0.00     0.010 C 
BRANCH  25  27
HETATM   27  C5  UNL     1       0.174  53.414 -19.613  1.00  0.00     0.008 C 
BRANCH  27  28
HETATM   28  C4  UNL     1       1.409  52.905 -18.859  1.00  0.00     0.028 C 
BRANCH  28  29
HETATM   29  C3  UNL     1       1.043  52.459 -17.468  1.00  0.00    -0.013 C 
HETATM   30  C2  UNL     1       1.868  52.335 -16.408  1.00  0.00     0.008 C 
HETATM   31  C1  UNL     1       3.330  52.670 -16.395  1.00  0.00     0.055 C 
BRANCH  30  32
HETATM   32  C30 UNL     1       1.357  51.845 -15.099  1.00  0.00     0.171 C 
HETATM   33  O3  UNL     1       1.478  50.706 -14.680  1.00  0.00    -0.646 OA
BRANCH  32  34
HETATM   34  O4  UNL     1       0.718  52.777 -14.374  1.00  0.00    -0.773 OA
HETATM   35  H44 UNL     1       0.454  52.293 -13.565  1.00  0.00     0.167 HD
ENDBRANCH  32  34
ENDBRANCH  30  32
ENDBRANCH  28  29
ENDBRANCH  27  28
ENDBRANCH  25  27
ENDBRANCH   1  25
TORSDOF 6
ENDMDL
MODEL 6
REMARK minimizedAffinity -9.11986828
REMARK  6 active torsions:
REMARK  status: ('A' for Active; 'I' for Inactive)
REMARK    1  A    between atoms: C2_2  and  C30_32 
REMARK    2  A    between atoms: C3_3  and  C4_4 
REMARK    3  A    between atoms: C4_4  and  C5_5 
REMARK    4  A    between atoms: C5_5  and  C6_6 
REMARK    5  A    between atoms: C6_6  and  C8_8 
REMARK    6  A    between atoms: C30_32  and  O4_34 
ROOT
HETATM    1  C8  UNL     1      -1.378  51.143 -22.057  1.00  0.00    -0.002 C 
HETATM    2  C9  UNL     1      -0.525  50.339 -21.074  1.00  0.00     0.007 C 
HETATM    3  C10 UNL     1      -1.560  49.572 -20.272  1.00  0.00     0.015 C 
HETATM    4  C11 UNL     1      -2.521  48.984 -21.332  1.00  0.00    -0.005 C 
HETATM    5  C12 UNL     1      -1.897  47.666 -21.875  1.00  0.00     0.021 C 
HETATM    6  C13 UNL     1      -3.899  48.624 -20.732  1.00  0.00    -0.000 C 
HETATM    7  C14 UNL     1      -5.084  49.035 -21.246  1.00  0.00    -0.060 C 
HETATM    8  C15 UNL     1      -5.093  50.020 -22.398  1.00  0.00     0.036 C 
HETATM    9  C16 UNL     1      -3.877  50.930 -22.374  1.00  0.00     0.015 C 
HETATM   10  C17 UNL     1      -2.548  50.144 -22.451  1.00  0.00    -0.028 C 
HETATM   11  C18 UNL     1      -2.408  49.574 -23.882  1.00  0.00     0.016 C 
HETATM   12  C19 UNL     1      -6.473  48.585 -20.738  1.00  0.00    -0.014 C 
HETATM   13  C20 UNL     1      -7.089  49.771 -19.944  1.00  0.00     0.020 C 
HETATM   14  C21 UNL     1      -7.410  48.263 -21.941  1.00  0.00     0.021 C 
HETATM   15  C22 UNL     1      -8.481  47.242 -21.604  1.00  0.00     0.080 C 
HETATM   16  C23 UNL     1      -7.822  45.918 -21.294  1.00  0.00     0.135 C 
HETATM   17  O1  UNL     1      -8.336  44.867 -21.678  1.00  0.00    -0.297 OA
HETATM   18  C24 UNL     1      -6.516  45.946 -20.477  1.00  0.00     0.018 C 
HETATM   19  C25 UNL     1      -6.626  44.820 -19.424  1.00  0.00     0.023 C 
HETATM   20  C26 UNL     1      -5.364  45.595 -21.430  1.00  0.00     0.023 C 
HETATM   21  C27 UNL     1      -6.398  47.347 -19.774  1.00  0.00     0.020 C 
HETATM   22  C28 UNL     1      -5.226  47.503 -18.807  1.00  0.00     0.090 C 
HETATM   23  C29 UNL     1      -3.916  47.754 -19.502  1.00  0.00     0.157 C 
HETATM   24  O2  UNL     1      -2.883  47.295 -19.019  1.00  0.00    -0.293 OA
ENDROOT
BRANCH   1  25
HETATM   25  C6  UNL     1      -0.556  51.835 -23.182  1.00  0.00    -0.014 C 
HETATM   26  C7  UNL     1       0.602  52.675 -22.614  1.00  0.00     0.010 C 
BRANCH  25  27
HETATM   27  C5  UNL     1      -1.405  52.711 -24.139  1.00  0.00     0.008 C 
BRANCH  27  28
HETATM   28  C4  UNL     1      -0.678  53.216 -25.391  1.00  0.00     0.028 C 
BRANCH  28  29
HETATM   29  C3  UNL     1       0.669  52.558 -25.533  1.00  0.00    -0.013 C 
HETATM   30  C2  UNL     1       1.162  51.934 -26.623  1.00  0.00     0.008 C 
HETATM   31  C1  UNL     1       0.470  51.815 -27.949  1.00  0.00     0.055 C 
BRANCH  30  32
HETATM   32  C30 UNL     1       2.507  51.298 -26.593  1.00  0.00     0.171 C 
HETATM   33  O3  UNL     1       2.866  50.452 -25.791  1.00  0.00    -0.646 OA
BRANCH  32  34
HETATM   34  O4  UNL     1       3.344  51.737 -27.547  1.00  0.00    -0.773 OA
HETATM   35  H44 UNL     1       4.163  51.226 -27.381  1.00  0.00     0.167 HD
ENDBRANCH  32  34
ENDBRANCH  30  32
ENDBRANCH  28  29
ENDBRANCH  27  28
ENDBRANCH  25  27
ENDBRANCH   1  25
TORSDOF 6
ENDMDL
MODEL 7
REMARK minimizedAffinity -9.07680988
REMARK  6 active torsions:
REMARK  status: ('A' for Active; 'I' for Inactive)
REMARK    1  A    between atoms: C2_2  and  C30_32 
REMARK    2  A    between atoms: C3_3  and  C4_4 
REMARK    3  A    between atoms: C4_4  and  C5_5 
REMARK    4  A    between atoms: C5_5  and  C6_6 
REMARK    5  A    between atoms: C6_6  and  C8_8 
REMARK    6  A    between atoms: C30_32  and  O4_34 
ROOT
HETATM    1  C8  UNL     1      -2.141  49.723 -18.555  1.00  0.00    -0.002 C 
HETATM    2  C9  UNL     1      -2.772  48.331 -18.528  1.00  0.00     0.007 C 
HETATM    3  C10 UNL     1      -3.606  48.309 -19.796  1.00  0.00     0.015 C 
HETATM    4  C11 UNL     1      -2.665  48.858 -20.894  1.00  0.00    -0.005 C 
HETATM    5  C12 UNL     1      -1.776  47.686 -21.402  1.00  0.00     0.021 C 
HETATM    6  C13 UNL     1      -3.446  49.401 -22.111  1.00  0.00    -0.000 C 
HETATM    7  C14 UNL     1      -3.260  50.631 -22.649  1.00  0.00    -0.060 C 
HETATM    8  C15 UNL     1      -2.334  51.612 -21.958  1.00  0.00     0.036 C 
HETATM    9  C16 UNL     1      -2.286  51.383 -20.457  1.00  0.00     0.015 C 
HETATM   10  C17 UNL     1      -1.807  49.960 -20.089  1.00  0.00    -0.028 C 
HETATM   11  C18 UNL     1      -0.296  49.865 -20.407  1.00  0.00     0.016 C 
HETATM   12  C19 UNL     1      -3.938  51.145 -23.939  1.00  0.00    -0.014 C 
HETATM   13  C20 UNL     1      -5.043  52.154 -23.518  1.00  0.00     0.020 C 
HETATM   14  C21 UNL     1      -2.904  51.897 -24.831  1.00  0.00     0.021 C 
HETATM   15  C22 UNL     1      -3.250  51.853 -26.309  1.00  0.00     0.080 C 
HETATM   16  C23 UNL     1      -3.176  50.424 -26.792  1.00  0.00     0.135 C 
HETATM   17  O1  UNL     1      -2.712  50.172 -27.905  1.00  0.00    -0.297 OA
HETATM   18  C24 UNL     1      -3.711  49.325 -25.855  1.00  0.00     0.018 C 
HETATM   19  C25 UNL     1      -4.539  48.357 -26.730  1.00  0.00     0.023 C 
HETATM   20  C26 UNL     1      -2.502  48.554 -25.305  1.00  0.00     0.023 C 
HETATM   21  C27 UNL     1      -4.623  49.999 -24.766  1.00  0.00     0.020 C 
HETATM   22  C28 UNL     1      -5.353  49.038 -23.830  1.00  0.00     0.090 C 
HETATM   23  C29 UNL     1      -4.473  48.494 -22.739  1.00  0.00     0.157 C 
HETATM   24  O2  UNL     1      -4.651  47.345 -22.342  1.00  0.00    -0.293 OA
ENDROOT
BRANCH   1  25
HETATM   25  C6  UNL     1      -1.024  49.929 -17.492  1.00  0.00    -0.014 C 
HETATM   26  C7  UNL     1      -0.530  48.591 -16.911  1.00  0.00     0.010 C 
BRANCH  25  27
HETATM   27  C5  UNL     1      -1.421  50.877 -16.331  1.00  0.00     0.008 C 
BRANCH  27  28
HETATM   28  C4  UNL     1      -2.580  50.394 -15.451  1.00  0.00     0.028 C 
BRANCH  28  29
HETATM   29  C3  UNL     1      -3.193  51.541 -14.693  1.00  0.00    -0.013 C 
HETATM   30  C2  UNL     1      -3.175  51.740 -13.358  1.00  0.00     0.008 C 
HETATM   31  C1  UNL     1      -2.483  50.865 -12.354  1.00  0.00     0.055 C 
BRANCH  30  32
HETATM   32  C30 UNL     1      -3.862  52.913 -12.754  1.00  0.00     0.171 C 
HETATM   33  O3  UNL     1      -4.027  53.092 -11.559  1.00  0.00    -0.646 OA
BRANCH  32  34
HETATM   34  O4  UNL     1      -4.316  53.806 -13.650  1.00  0.00    -0.773 OA
HETATM   35  H44 UNL     1      -4.731  54.495 -13.091  1.00  0.00     0.167 HD
ENDBRANCH  32  34
ENDBRANCH  30  32
ENDBRANCH  28  29
ENDBRANCH  27  28
ENDBRANCH  25  27
ENDBRANCH   1  25
TORSDOF 6
ENDMDL
MODEL 8
REMARK minimizedAffinity -9.00165176
REMARK  6 active torsions:
REMARK  status: ('A' for Active; 'I' for Inactive)
REMARK    1  A    between atoms: C2_2  and  C30_32 
REMARK    2  A    between atoms: C3_3  and  C4_4 
REMARK    3  A    between atoms: C4_4  and  C5_5 
REMARK    4  A    between atoms: C5_5  and  C6_6 
REMARK    5  A    between atoms: C6_6  and  C8_8 
REMARK    6  A    between atoms: C30_32  and  O4_34 
ROOT
HETATM    1  C8  UNL     1      -2.003  49.785 -18.941  1.00  0.00    -0.002 C 
HETATM    2  C9  UNL     1      -3.500  49.864 -19.243  1.00  0.00     0.007 C 
HETATM    3  C10 UNL     1      -3.552  50.725 -20.493  1.00  0.00     0.015 C 
HETATM    4  C11 UNL     1      -2.467  50.132 -21.423  1.00  0.00    -0.005 C 
HETATM    5  C12 UNL     1      -3.085  48.919 -22.177  1.00  0.00     0.021 C 
HETATM    6  C13 UNL     1      -2.001  51.146 -22.491  1.00  0.00    -0.000 C 
HETATM    7  C14 UNL     1      -0.703  51.460 -22.728  1.00  0.00    -0.060 C 
HETATM    8  C15 UNL     1       0.374  50.905 -21.819  1.00  0.00     0.036 C 
HETATM    9  C16 UNL     1      -0.143  50.665 -20.411  1.00  0.00     0.015 C 
HETATM   10  C17 UNL     1      -1.330  49.675 -20.375  1.00  0.00    -0.028 C 
HETATM   11  C18 UNL     1      -0.787  48.261 -20.688  1.00  0.00     0.016 C 
HETATM   12  C19 UNL     1      -0.209  52.373 -23.873  1.00  0.00    -0.014 C 
HETATM   13  C20 UNL     1       0.201  53.734 -23.244  1.00  0.00     0.020 C 
HETATM   14  C21 UNL     1       1.048  51.752 -24.556  1.00  0.00     0.021 C 
HETATM   15  C22 UNL     1       1.203  52.168 -26.007  1.00  0.00     0.080 C 
HETATM   16  C23 UNL     1       0.046  51.616 -26.806  1.00  0.00     0.135 C 
HETATM   17  O1  UNL     1       0.233  51.177 -27.942  1.00  0.00    -0.297 OA
HETATM   18  C24 UNL     1      -1.350  51.644 -26.154  1.00  0.00     0.018 C 
HETATM   19  C25 UNL     1      -2.339  52.127 -27.239  1.00  0.00     0.023 C 
HETATM   20  C26 UNL     1      -1.718  50.200 -25.783  1.00  0.00     0.023 C 
HETATM   21  C27 UNL     1      -1.317  52.655 -24.950  1.00  0.00     0.020 C 
HETATM   22  C28 UNL     1      -2.659  52.914 -24.270  1.00  0.00     0.090 C 
HETATM   23  C29 UNL     1      -3.063  51.818 -23.323  1.00  0.00     0.157 C 
HETATM   24  O2  UNL     1      -4.253  51.536 -23.204  1.00  0.00    -0.293 OA
ENDROOT
BRANCH   1  25
HETATM   25  C6  UNL     1      -1.636  48.743 -17.846  1.00  0.00    -0.014 C 
HETATM   26  C7  UNL     1      -2.813  48.475 -16.890  1.00  0.00     0.010 C 
BRANCH  25  27
HETATM   27  C5  UNL     1      -0.377  49.109 -17.020  1.00  0.00     0.008 C 
BRANCH  27  28
HETATM   28  C4  UNL     1      -0.473  50.407 -16.209  1.00  0.00     0.028 C 
BRANCH  28  29
HETATM   29  C3  UNL     1       0.685  51.320 -16.516  1.00  0.00    -0.013 C 
HETATM   30  C2  UNL     1       1.819  51.469 -15.800  1.00  0.00     0.008 C 
HETATM   31  C1  UNL     1       2.177  50.703 -14.561  1.00  0.00     0.055 C 
BRANCH  30  32
HETATM   32  C30 UNL     1       2.860  52.446 -16.220  1.00  0.00     0.171 C 
HETATM   33  O3  UNL     1       4.013  52.457 -15.822  1.00  0.00    -0.646 OA
BRANCH  32  34
HETATM   34  O4  UNL     1       2.431  53.361 -17.104  1.00  0.00    -0.773 OA
HETATM   35  H44 UNL     1       3.226  53.909 -17.265  1.00  0.00     0.167 HD
ENDBRANCH  32  34
ENDBRANCH  30  32
ENDBRANCH  28  29
ENDBRANCH  27  28
ENDBRANCH  25  27
ENDBRANCH   1  25
TORSDOF 6
ENDMDL
MODEL 9
REMARK minimizedAffinity -8.96538448
REMARK  6 active torsions:
REMARK  status: ('A' for Active; 'I' for Inactive)
REMARK    1  A    between atoms: C2_2  and  C30_32 
REMARK    2  A    between atoms: C3_3  and  C4_4 
REMARK    3  A    between atoms: C4_4  and  C5_5 
REMARK    4  A    between atoms: C5_5  and  C6_6 
REMARK    5  A    between atoms: C6_6  and  C8_8 
REMARK    6  A    between atoms: C30_32  and  O4_34 
ROOT
HETATM    1  C8  UNL     1      -1.201  51.887 -20.613  1.00  0.00    -0.002 C 
HETATM    2  C9  UNL     1      -1.377  51.732 -19.102  1.00  0.00     0.007 C 
HETATM    3  C10 UNL     1      -2.752  51.100 -18.981  1.00  0.00     0.015 C 
HETATM    4  C11 UNL     1      -2.749  49.952 -20.017  1.00  0.00    -0.005 C 
HETATM    5  C12 UNL     1      -2.071  48.712 -19.366  1.00  0.00     0.021 C 
HETATM    6  C13 UNL     1      -4.180  49.532 -20.423  1.00  0.00    -0.000 C 
HETATM    7  C14 UNL     1      -4.609  49.432 -21.704  1.00  0.00    -0.060 C 
HETATM    8  C15 UNL     1      -3.702  49.883 -22.830  1.00  0.00     0.036 C 
HETATM    9  C16 UNL     1      -2.763  50.993 -22.389  1.00  0.00     0.015 C 
HETATM   10  C17 UNL     1      -1.857  50.570 -21.210  1.00  0.00    -0.028 C 
HETATM   11  C18 UNL     1      -0.817  49.556 -21.741  1.00  0.00     0.016 C 
HETATM   12  C19 UNL     1      -5.993  48.893 -22.134  1.00  0.00    -0.014 C 
HETATM   13  C20 UNL     1      -6.855  50.110 -22.571  1.00  0.00     0.020 C 
HETATM   14  C21 UNL     1      -5.845  47.936 -23.356  1.00  0.00     0.021 C 
HETATM   15  C22 UNL     1      -6.946  46.894 -23.433  1.00  0.00     0.080 C 
HETATM   16  C23 UNL     1      -6.844  45.976 -22.237  1.00  0.00     0.135 C 
HETATM   17  O1  UNL     1      -7.050  44.768 -22.366  1.00  0.00    -0.297 OA
HETATM   18  C24 UNL     1      -6.493  46.611 -20.878  1.00  0.00     0.018 C 
HETATM   19  C25 UNL     1      -7.431  45.968 -19.831  1.00  0.00     0.023 C 
HETATM   20  C26 UNL     1      -5.051  46.209 -20.535  1.00  0.00     0.023 C 
HETATM   21  C27 UNL     1      -6.751  48.159 -20.970  1.00  0.00     0.020 C 
HETATM   22  C28 UNL     1      -6.586  48.934 -19.664  1.00  0.00     0.090 C 
HETATM   23  C29 UNL     1      -5.149  49.205 -19.316  1.00  0.00     0.157 C 
HETATM   24  O2  UNL     1      -4.809  49.215 -18.135  1.00  0.00    -0.293 OA
ENDROOT
BRANCH   1  25
HETATM   25  C6  UNL     1       0.242  52.280 -21.041  1.00  0.00    -0.014 C 
HETATM   26  C7  UNL     1       0.989  53.031 -19.924  1.00  0.00     0.010 C 
BRANCH  25  27
HETATM   27  C5  UNL     1       0.311  53.107 -22.350  1.00  0.00     0.008 C 
BRANCH  27  28
HETATM   28  C4  UNL     1       0.521  52.295 -23.634  1.00  0.00     0.028 C 
BRANCH  28  29
HETATM   29  C3  UNL     1       0.086  53.079 -24.844  1.00  0.00    -0.013 C 
HETATM   30  C2  UNL     1       0.434  52.857 -26.128  1.00  0.00     0.008 C 
HETATM   31  C1  UNL     1       1.299  51.733 -26.618  1.00  0.00     0.055 C 
BRANCH  30  32
HETATM   32  C30 UNL     1      -0.055  53.750 -27.214  1.00  0.00     0.171 C 
HETATM   33  O3  UNL     1      -0.185  54.959 -27.123  1.00  0.00    -0.646 OA
BRANCH  32  34
HETATM   34  O4  UNL     1      -0.362  53.112 -28.355  1.00  0.00    -0.773 OA
HETATM   35  H44 UNL     1      -0.660  53.834 -28.945  1.00  0.00     0.167 HD
ENDBRANCH  32  34
ENDBRANCH  30  32
ENDBRANCH  28  29
ENDBRANCH  27  28
ENDBRANCH  25  27
ENDBRANCH   1  25
TORSDOF 6
ENDMDL
