MODEL 1
REMARK minimizedAffinity -9.61631775
REMARK CNNscore 0.618548751
REMARK CNNaffinity 7.09965181
REMARK  6 active torsions:
REMARK  status: ('A' for Active; 'I' for Inactive)
REMARK    1  A    between atoms: C5_5  and  C6_6 
REMARK    2  A    between atoms: C6_6  and  C7_7 
REMARK    3  A    between atoms: C13_15  and  O3_16 
REMARK    4  A    between atoms: C24_28  and  C25_29 
REMARK    5  A    between atoms: C25_29  and  O5_30 
REMARK    6  A    between atoms: C25_29  and  C26_31 
ROOT
HETATM    1  C6  UNL     1      -9.232   6.777  13.863  1.00  0.00     0.033 C 
ENDROOT
BRANCH   1   2
HETATM    2  C5  UNL     1      -8.457   5.616  14.550  1.00  0.00    -0.002 C 
HETATM    3  C4  UNL     1      -7.898   6.031  15.930  1.00  0.00     0.010 C 
HETATM    4  C3  UNL     1      -6.831   7.122  15.817  1.00  0.00     0.034 C 
HETATM    5  C2  UNL     1      -6.028   6.979  14.542  1.00  0.00    -0.082 C 
HETATM    6  C1  UNL     1      -5.575   8.070  13.902  1.00  0.00     0.015 C 
HETATM    7  C24 UNL     1      -5.855   5.521  14.088  1.00  0.00     0.054 C 
HETATM    8  C21 UNL     1      -7.288   4.963  13.665  1.00  0.00    -0.034 C 
HETATM    9  C22 UNL     1      -7.347   3.435  13.937  1.00  0.00     0.016 C 
HETATM   10  C23 UNL     1      -7.553   5.160  12.159  1.00  0.00     0.016 C 
BRANCH   7  11
HETATM   11  C25 UNL     1      -4.668   5.293  13.084  1.00  0.00     0.150 C 
BRANCH  11  12
HETATM   12  O5  UNL     1      -3.446   5.697  13.717  1.00  0.00    -0.391 OA
HETATM   13  H39 UNL     1      -2.719   5.520  13.098  1.00  0.00     0.210 HD
ENDBRANCH  11  12
BRANCH  11  14
HETATM   14  C26 UNL     1      -4.425   3.865  12.693  1.00  0.00     0.018 C 
HETATM   15  C27 UNL     1      -3.388   3.401  11.978  1.00  0.00     0.018 C 
HETATM   16  C28 UNL     1      -2.216   4.110  11.418  1.00  0.00     0.071 C 
HETATM   17  C30 UNL     1      -3.241   1.963  11.651  1.00  0.00     0.289 C 
HETATM   18  C29 UNL     1      -1.225   2.976  11.318  1.00  0.00     0.183 C 
HETATM   19  O6  UNL     1      -1.991   1.783  11.144  1.00  0.00    -0.317 OA
HETATM   20  O7  UNL     1      -4.086   1.100  11.789  1.00  0.00    -0.260 OA
ENDBRANCH  11  14
ENDBRANCH   7  11
ENDBRANCH   1   2
BRANCH   1  21
HETATM   21  C7  UNL     1     -10.279   7.413  14.741  1.00  0.00    -0.021 C 
HETATM   22  C8  UNL     1     -11.510   7.818  14.373  1.00  0.00    -0.060 C 
HETATM   23  C9  UNL     1     -12.454   8.451  15.363  1.00  0.00     0.041 C 
HETATM   24  C12 UNL     1     -12.111   7.675  13.001  1.00  0.00     0.205 C 
HETATM   25  C10 UNL     1     -13.783   7.702  15.340  1.00  0.00     0.076 C 
HETATM   26  C11 UNL     1     -14.333   7.604  13.905  1.00  0.00     0.199 C 
HETATM   27  O1  UNL     1     -13.348   6.964  13.077  1.00  0.00    -0.348 OA
HETATM   28  O2  UNL     1     -14.590   8.946  13.412  1.00  0.00    -0.313 OA
HETATM   29  C16 UNL     1     -15.664   6.758  13.823  1.00  0.00     0.115 C 
HETATM   30  C13 UNL     1     -15.911   9.070  12.860  1.00  0.00     0.196 C 
HETATM   31  C14 UNL     1     -16.044   8.048  11.725  1.00  0.00     0.075 C 
HETATM   32  C18 UNL     1     -16.958   8.779  13.989  1.00  0.00     0.111 C 
HETATM   33  C15 UNL     1     -16.081   6.650  12.338  1.00  0.00     0.049 C 
HETATM   34  O4  UNL     1     -16.729   7.451  14.535  1.00  0.00    -0.359 OA
HETATM   35  C19 UNL     1     -18.409   8.823  13.483  1.00  0.00     0.051 C 
HETATM   36  C20 UNL     1     -16.845   9.785  15.146  1.00  0.00     0.051 C 
HETATM   37  C17 UNL     1     -15.553   5.356  14.422  1.00  0.00     0.052 C 
BRANCH  30  38
HETATM   38  O3  UNL     1     -16.031  10.370  12.319  1.00  0.00    -0.363 OA
HETATM   39  H17 UNL     1     -15.623  10.951  12.983  1.00  0.00     0.213 HD
ENDBRANCH  30  38
ENDBRANCH   1  21
TORSDOF 6
ENDMDL
MODEL 2
REMARK minimizedAffinity -9.7019043
REMARK CNNscore 0.578980923
REMARK CNNaffinity 6.78143311
REMARK  6 active torsions:
REMARK  status: ('A' for Active; 'I' for Inactive)
REMARK    1  A    between atoms: C5_5  and  C6_6 
REMARK    2  A    between atoms: C6_6  and  C7_7 
REMARK    3  A    between atoms: C13_15  and  O3_16 
REMARK    4  A    between atoms: C24_28  and  C25_29 
REMARK    5  A    between atoms: C25_29  and  O5_30 
REMARK    6  A    between atoms: C25_29  and  C26_31 
ROOT
HETATM    1  C6  UNL     1      -2.923   6.251  12.371  1.00  0.00     0.033 C 
ENDROOT
BRANCH   1   2
HETATM    2  C5  UNL     1      -3.448   5.681  13.720  1.00  0.00    -0.002 C 
HETATM    3  C4  UNL     1      -3.136   4.175  13.872  1.00  0.00     0.010 C 
HETATM    4  C3  UNL     1      -3.879   3.324  12.840  1.00  0.00     0.034 C 
HETATM    5  C2  UNL     1      -5.228   3.920  12.501  1.00  0.00    -0.082 C 
HETATM    6  C1  UNL     1      -5.724   3.810  11.257  1.00  0.00     0.015 C 
HETATM    7  C24 UNL     1      -5.885   4.656  13.679  1.00  0.00     0.054 C 
HETATM    8  C21 UNL     1      -5.004   5.944  14.009  1.00  0.00    -0.034 C 
HETATM    9  C22 UNL     1      -5.112   6.268  15.523  1.00  0.00     0.016 C 
HETATM   10  C23 UNL     1      -5.509   7.188  13.249  1.00  0.00     0.016 C 
BRANCH   7  11
HETATM   11  C25 UNL     1      -7.436   4.861  13.530  1.00  0.00     0.150 C 
BRANCH  11  12
HETATM   12  O5  UNL     1      -8.087   3.597  13.710  1.00  0.00    -0.391 OA
HETATM   13  H39 UNL     1      -9.045   3.745  13.647  1.00  0.00     0.210 HD
ENDBRANCH  11  12
BRANCH  11  14
HETATM   14  C26 UNL     1      -8.066   5.751  14.561  1.00  0.00     0.018 C 
HETATM   15  C27 UNL     1      -9.155   6.517  14.391  1.00  0.00     0.018 C 
HETATM   16  C28 UNL     1     -10.037   6.683  13.214  1.00  0.00     0.071 C 
HETATM   17  C30 UNL     1      -9.700   7.358  15.483  1.00  0.00     0.289 C 
HETATM   18  C29 UNL     1     -11.311   7.141  13.882  1.00  0.00     0.183 C 
HETATM   19  O6  UNL     1     -10.921   7.810  15.083  1.00  0.00    -0.317 OA
HETATM   20  O7  UNL     1      -9.155   7.618  16.538  1.00  0.00    -0.260 OA
ENDBRANCH  11  14
ENDBRANCH   7  11
ENDBRANCH   1   2
BRANCH   1  21
HETATM   21  C7  UNL     1      -1.970   7.408  12.530  1.00  0.00    -0.021 C 
HETATM   22  C8  UNL     1      -0.632   7.385  12.371  1.00  0.00    -0.060 C 
HETATM   23  C9  UNL     1       0.201   8.624  12.572  1.00  0.00     0.041 C 
HETATM   24  C12 UNL     1       0.186   6.191  11.955  1.00  0.00     0.205 C 
HETATM   25  C10 UNL     1       1.061   8.858  11.334  1.00  0.00     0.076 C 
HETATM   26  C11 UNL     1       1.869   7.596  10.979  1.00  0.00     0.199 C 
HETATM   27  O1  UNL     1       0.955   6.502  10.793  1.00  0.00    -0.348 OA
HETATM   28  O2  UNL     1       2.773   7.298  12.077  1.00  0.00    -0.313 OA
HETATM   29  C16 UNL     1       2.706   7.766   9.651  1.00  0.00     0.115 C 
HETATM   30  C13 UNL     1       4.120   7.095  11.621  1.00  0.00     0.196 C 
HETATM   31  C14 UNL     1       4.106   5.942  10.611  1.00  0.00     0.075 C 
HETATM   32  C18 UNL     1       4.627   8.415  10.944  1.00  0.00     0.111 C 
HETATM   33  C15 UNL     1       3.405   6.422   9.342  1.00  0.00     0.049 C 
HETATM   34  O4  UNL     1       3.740   8.771   9.849  1.00  0.00    -0.359 OA
HETATM   35  C19 UNL     1       6.044   8.280  10.363  1.00  0.00     0.051 C 
HETATM   36  C20 UNL     1       4.646   9.592  11.932  1.00  0.00     0.051 C 
HETATM   37  C17 UNL     1       1.878   8.197   8.440  1.00  0.00     0.052 C 
BRANCH  30  38
HETATM   38  O3  UNL     1       4.899   6.714  12.737  1.00  0.00    -0.363 OA
HETATM   39  H17 UNL     1       4.611   7.307  13.451  1.00  0.00     0.213 HD
ENDBRANCH  30  38
ENDBRANCH   1  21
TORSDOF 6
ENDMDL
MODEL 3
REMARK minimizedAffinity -8.67717743
REMARK CNNscore 0.5700441
REMARK CNNaffinity 6.91450548
REMARK  6 active torsions:
REMARK  status: ('A' for Active; 'I' for Inactive)
REMARK    1  A    between atoms: C5_5  and  C6_6 
REMARK    2  A    between atoms: C6_6  and  C7_7 
REMARK    3  A    between atoms: C13_15  and  O3_16 
REMARK    4  A    between atoms: C24_28  and  C25_29 
REMARK    5  A    between atoms: C25_29  and  O5_30 
REMARK    6  A    between atoms: C25_29  and  C26_31 
ROOT
HETATM    1  C6  UNL     1      -2.485   2.959  12.241  1.00  0.00     0.033 C 
ENDROOT
BRANCH   1   2
HETATM    2  C5  UNL     1      -3.390   3.727  11.236  1.00  0.00    -0.002 C 
HETATM    3  C4  UNL     1      -3.279   5.258  11.413  1.00  0.00     0.010 C 
HETATM    4  C3  UNL     1      -3.815   5.726  12.768  1.00  0.00     0.034 C 
HETATM    5  C2  UNL     1      -4.967   4.862  13.233  1.00  0.00    -0.082 C 
HETATM    6  C1  UNL     1      -5.137   4.607  14.541  1.00  0.00     0.015 C 
HETATM    7  C24 UNL     1      -5.826   4.315  12.082  1.00  0.00     0.054 C 
HETATM    8  C21 UNL     1      -4.935   3.291  11.244  1.00  0.00    -0.034 C 
HETATM    9  C22 UNL     1      -5.392   3.305   9.760  1.00  0.00     0.016 C 
HETATM   10  C23 UNL     1      -5.103   1.845  11.751  1.00  0.00     0.016 C 
BRANCH   7  11
HETATM   11  C25 UNL     1      -7.259   3.838  12.515  1.00  0.00     0.150 C 
BRANCH  11  12
HETATM   12  O5  UNL     1      -7.217   3.447  13.893  1.00  0.00    -0.391 OA
HETATM   13  H39 UNL     1      -8.115   3.186  14.155  1.00  0.00     0.210 HD
ENDBRANCH  11  12
BRANCH  11  14
HETATM   14  C26 UNL     1      -8.328   4.889  12.462  1.00  0.00     0.018 C 
HETATM   15  C27 UNL     1      -8.664   5.732  13.451  1.00  0.00     0.018 C 
HETATM   16  C28 UNL     1      -8.093   5.896  14.807  1.00  0.00     0.071 C 
HETATM   17  C30 UNL     1      -9.737   6.742  13.291  1.00  0.00     0.289 C 
HETATM   18  C29 UNL     1      -8.477   7.326  15.101  1.00  0.00     0.183 C 
HETATM   19  O6  UNL     1      -9.669   7.586  14.357  1.00  0.00    -0.317 OA
HETATM   20  O7  UNL     1     -10.546   6.801  12.386  1.00  0.00    -0.260 OA
ENDBRANCH  11  14
ENDBRANCH   7  11
ENDBRANCH   1   2
BRANCH   1  21
HETATM   21  C7  UNL     1      -1.488   3.835  12.955  1.00  0.00    -0.021 C 
HETATM   22  C8  UNL     1      -0.355   4.358  12.445  1.00  0.00    -0.060 C 
HETATM   23  C9  UNL     1       0.557   5.215  13.284  1.00  0.00     0.041 C 
HETATM   24  C12 UNL     1       0.126   4.204  11.027  1.00  0.00     0.205 C 
HETATM   25  C10 UNL     1       0.808   6.536  12.564  1.00  0.00     0.076 C 
HETATM   26  C11 UNL     1       1.302   6.294  11.126  1.00  0.00     0.199 C 
HETATM   27  O1  UNL     1       0.332   5.488  10.436  1.00  0.00    -0.348 OA
HETATM   28  O2  UNL     1       2.572   5.591  11.183  1.00  0.00    -0.313 OA
HETATM   29  C16 UNL     1       1.489   7.635  10.315  1.00  0.00     0.115 C 
HETATM   30  C13 UNL     1       3.573   6.227  10.372  1.00  0.00     0.196 C 
HETATM   31  C14 UNL     1       3.051   6.274   8.931  1.00  0.00     0.075 C 
HETATM   32  C18 UNL     1       3.817   7.676  10.917  1.00  0.00     0.111 C 
HETATM   33  C15 UNL     1       1.901   7.276   8.869  1.00  0.00     0.049 C 
HETATM   34  O4  UNL     1       2.567   8.417  10.904  1.00  0.00    -0.359 OA
HETATM   35  C19 UNL     1       4.830   8.467  10.075  1.00  0.00     0.051 C 
HETATM   36  C20 UNL     1       4.336   7.661  12.364  1.00  0.00     0.051 C 
HETATM   37  C17 UNL     1       0.246   8.526  10.282  1.00  0.00     0.052 C 
BRANCH  30  38
HETATM   38  O3  UNL     1       4.734   5.421  10.410  1.00  0.00    -0.363 OA
HETATM   39  H17 UNL     1       4.822   5.161  11.342  1.00  0.00     0.213 HD
ENDBRANCH  30  38
ENDBRANCH   1  21
TORSDOF 6
ENDMDL
MODEL 4
REMARK minimizedAffinity -9.05763245
REMARK CNNscore 0.565886497
REMARK CNNaffinity 7.12349319
REMARK  6 active torsions:
REMARK  status: ('A' for Active; 'I' for Inactive)
REMARK    1  A    between atoms: C5_5  and  C6_6 
REMARK    2  A    between atoms: C6_6  and  C7_7 
REMARK    3  A    between atoms: C13_15  and  O3_16 
REMARK    4  A    between atoms: C24_28  and  C25_29 
REMARK    5  A    between atoms: C25_29  and  O5_30 
REMARK    6  A    between atoms: C25_29  and  C26_31 
ROOT
HETATM    1  C6  UNL     1      -9.119   6.958  14.132  1.00  0.00     0.033 C 
ENDROOT
BRANCH   1   2
HETATM    2  C5  UNL     1      -8.343   5.734  14.697  1.00  0.00    -0.002 C 
HETATM    3  C4  UNL     1      -7.651   6.058  16.040  1.00  0.00     0.010 C 
HETATM    4  C3  UNL     1      -6.548   7.107  15.884  1.00  0.00     0.034 C 
HETATM    5  C2  UNL     1      -5.864   6.993  14.540  1.00  0.00    -0.082 C 
HETATM    6  C1  UNL     1      -5.417   8.094  13.912  1.00  0.00     0.015 C 
HETATM    7  C24 UNL     1      -5.796   5.554  14.007  1.00  0.00     0.054 C 
HETATM    8  C21 UNL     1      -7.284   5.076  13.686  1.00  0.00    -0.034 C 
HETATM    9  C22 UNL     1      -7.389   3.541  13.892  1.00  0.00     0.016 C 
HETATM   10  C23 UNL     1      -7.666   5.357  12.218  1.00  0.00     0.016 C 
BRANCH   7  11
HETATM   11  C25 UNL     1      -4.709   5.325  12.896  1.00  0.00     0.150 C 
BRANCH  11  12
HETATM   12  O5  UNL     1      -3.456   5.840  13.364  1.00  0.00    -0.391 OA
HETATM   13  H39 UNL     1      -2.789   5.662  12.682  1.00  0.00     0.210 HD
ENDBRANCH  11  12
BRANCH  11  14
HETATM   14  C26 UNL     1      -4.419   3.889  12.569  1.00  0.00     0.018 C 
HETATM   15  C27 UNL     1      -3.348   3.425  11.908  1.00  0.00     0.018 C 
HETATM   16  C28 UNL     1      -2.174   4.142  11.359  1.00  0.00     0.071 C 
HETATM   17  C30 UNL     1      -3.155   1.979  11.642  1.00  0.00     0.289 C 
HETATM   18  C29 UNL     1      -1.154   3.031  11.336  1.00  0.00     0.183 C 
HETATM   19  O6  UNL     1      -1.884   1.812  11.184  1.00  0.00    -0.317 OA
HETATM   20  O7  UNL     1      -3.982   1.101  11.786  1.00  0.00    -0.260 OA
ENDBRANCH  11  14
ENDBRANCH   7  11
ENDBRANCH   1   2
BRANCH   1  21
HETATM   21  C7  UNL     1     -10.510   6.629  13.654  1.00  0.00    -0.021 C 
HETATM   22  C8  UNL     1     -11.667   7.163  14.093  1.00  0.00    -0.060 C 
HETATM   23  C9  UNL     1     -12.994   6.728  13.526  1.00  0.00     0.041 C 
HETATM   24  C12 UNL     1     -11.800   8.242  15.133  1.00  0.00     0.205 C 
HETATM   25  C10 UNL     1     -13.765   7.956  13.054  1.00  0.00     0.076 C 
HETATM   26  C11 UNL     1     -13.863   9.008  14.175  1.00  0.00     0.199 C 
HETATM   27  O1  UNL     1     -12.534   9.348  14.604  1.00  0.00    -0.348 OA
HETATM   28  O2  UNL     1     -14.605   8.438  15.285  1.00  0.00    -0.313 OA
HETATM   29  C16 UNL     1     -14.577  10.334  13.701  1.00  0.00     0.115 C 
HETATM   30  C13 UNL     1     -15.664   9.305  15.723  1.00  0.00     0.196 C 
HETATM   31  C14 UNL     1     -15.037  10.644  16.130  1.00  0.00     0.075 C 
HETATM   32  C18 UNL     1     -16.673   9.506  14.541  1.00  0.00     0.111 C 
HETATM   33  C15 UNL     1     -14.545  11.348  14.868  1.00  0.00     0.049 C 
HETATM   34  O4  UNL     1     -15.973  10.054  13.392  1.00  0.00    -0.359 OA
HETATM   35  C19 UNL     1     -17.815  10.474  14.890  1.00  0.00     0.051 C 
HETATM   36  C20 UNL     1     -17.314   8.178  14.107  1.00  0.00     0.051 C 
HETATM   37  C17 UNL     1     -13.955  10.971  12.458  1.00  0.00     0.052 C 
BRANCH  30  38
HETATM   38  O3  UNL     1     -16.259   8.716  16.862  1.00  0.00    -0.363 OA
HETATM   39  H17 UNL     1     -16.337   7.773  16.639  1.00  0.00     0.213 HD
ENDBRANCH  30  38
ENDBRANCH   1  21
TORSDOF 6
ENDMDL
MODEL 5
REMARK minimizedAffinity -8.99351215
REMARK CNNscore 0.525820851
REMARK CNNaffinity 6.78942156
REMARK  6 active torsions:
REMARK  status: ('A' for Active; 'I' for Inactive)
REMARK    1  A    between atoms: C5_5  and  C6_6 
REMARK    2  A    between atoms: C6_6  and  C7_7 
REMARK    3  A    between atoms: C13_15  and  O3_16 
REMARK    4  A    between atoms: C24_28  and  C25_29 
REMARK    5  A    between atoms: C25_29  and  O5_30 
REMARK    6  A    between atoms: C25_29  and  C26_31 
ROOT
HETATM    1  C6  UNL     1      -5.347   6.240  13.384  1.00  0.00     0.033 C 
ENDROOT
BRANCH   1   2
HETATM    2  C5  UNL     1      -6.250   5.692  14.527  1.00  0.00    -0.002 C 
HETATM    3  C4  UNL     1      -6.773   4.271  14.219  1.00  0.00     0.010 C 
HETATM    4  C3  UNL     1      -7.713   4.249  13.012  1.00  0.00     0.034 C 
HETATM    5  C2  UNL     1      -8.515   5.528  12.914  1.00  0.00    -0.082 C 
HETATM    6  C1  UNL     1      -8.840   6.033  11.712  1.00  0.00     0.015 C 
HETATM    7  C24 UNL     1      -8.843   6.152  14.279  1.00  0.00     0.054 C 
HETATM    8  C21 UNL     1      -7.476   6.644  14.938  1.00  0.00    -0.034 C 
HETATM    9  C22 UNL     1      -7.587   6.556  16.484  1.00  0.00     0.016 C 
HETATM   10  C23 UNL     1      -7.177   8.117  14.594  1.00  0.00     0.016 C 
BRANCH   7  11
HETATM   11  C25 UNL     1     -10.039   7.170  14.255  1.00  0.00     0.150 C 
BRANCH  11  12
HETATM   12  O5  UNL     1     -11.246   6.456  13.958  1.00  0.00    -0.391 OA
HETATM   13  H39 UNL     1     -11.979   7.092  13.978  1.00  0.00     0.210 HD
ENDBRANCH  11  12
BRANCH  11  14
HETATM   14  C26 UNL     1     -10.326   7.851  15.561  1.00  0.00     0.018 C 
HETATM   15  C27 UNL     1     -10.399   9.175  15.768  1.00  0.00     0.018 C 
HETATM   16  C28 UNL     1     -10.260  10.304  14.820  1.00  0.00     0.071 C 
HETATM   17  C30 UNL     1     -10.695   9.746  17.104  1.00  0.00     0.289 C 
HETATM   18  C29 UNL     1     -11.038  11.375  15.545  1.00  0.00     0.183 C 
HETATM   19  O6  UNL     1     -10.941  11.075  16.938  1.00  0.00    -0.317 OA
HETATM   20  O7  UNL     1     -10.701   9.147  18.162  1.00  0.00    -0.260 OA
ENDBRANCH  11  14
ENDBRANCH   7  11
ENDBRANCH   1   2
BRANCH   1  21
HETATM   21  C7  UNL     1      -3.937   6.549  13.819  1.00  0.00    -0.021 C 
HETATM   22  C8  UNL     1      -3.398   7.769  14.016  1.00  0.00    -0.060 C 
HETATM   23  C9  UNL     1      -1.962   7.929  14.444  1.00  0.00     0.041 C 
HETATM   24  C12 UNL     1      -4.118   9.083  13.880  1.00  0.00     0.205 C 
HETATM   25  C10 UNL     1      -1.905   8.803  15.693  1.00  0.00     0.076 C 
HETATM   26  C11 UNL     1      -2.658  10.128  15.472  1.00  0.00     0.199 C 
HETATM   27  O1  UNL     1      -4.012   9.830  15.093  1.00  0.00    -0.348 OA
HETATM   28  O2  UNL     1      -2.001  10.864  14.406  1.00  0.00    -0.313 OA
HETATM   29  C16 UNL     1      -2.700  11.025  16.771  1.00  0.00     0.115 C 
HETATM   30  C13 UNL     1      -1.723  12.221  14.785  1.00  0.00     0.196 C 
HETATM   31  C14 UNL     1      -3.054  12.888  15.155  1.00  0.00     0.075 C 
HETATM   32  C18 UNL     1      -0.750  12.213  16.014  1.00  0.00     0.111 C 
HETATM   33  C15 UNL     1      -3.547  12.282  16.466  1.00  0.00     0.049 C 
HETATM   34  O4  UNL     1      -1.352  11.466  17.105  1.00  0.00    -0.359 OA
HETATM   35  C19 UNL     1      -0.440  13.624  16.538  1.00  0.00     0.051 C 
HETATM   36  C20 UNL     1       0.591  11.544  15.674  1.00  0.00     0.051 C 
HETATM   37  C17 UNL     1      -3.266  10.318  18.002  1.00  0.00     0.052 C 
BRANCH  30  38
HETATM   38  O3  UNL     1      -1.182  12.880  13.657  1.00  0.00    -0.363 OA
HETATM   39  H17 UNL     1      -0.552  12.243  13.280  1.00  0.00     0.213 HD
ENDBRANCH  30  38
ENDBRANCH   1  21
TORSDOF 6
ENDMDL
MODEL 6
REMARK minimizedAffinity -10.636363
REMARK CNNscore 0.520225048
REMARK CNNaffinity 6.79588079
REMARK  6 active torsions:
REMARK  status: ('A' for Active; 'I' for Inactive)
REMARK    1  A    between atoms: C5_5  and  C6_6 
REMARK    2  A    between atoms: C6_6  and  C7_7 
REMARK    3  A    between atoms: C13_15  and  O3_16 
REMARK    4  A    between atoms: C24_28  and  C25_29 
REMARK    5  A    between atoms: C25_29  and  O5_30 
REMARK    6  A    between atoms: C25_29  and  C26_31 
ROOT
HETATM    1  C6  UNL     1      -5.580   7.694  13.215  1.00  0.00     0.033 C 
ENDROOT
BRANCH   1   2
HETATM    2  C5  UNL     1      -5.957   6.793  14.427  1.00  0.00    -0.002 C 
HETATM    3  C4  UNL     1      -5.908   5.291  14.067  1.00  0.00     0.010 C 
HETATM    4  C3  UNL     1      -6.966   4.911  13.028  1.00  0.00     0.034 C 
HETATM    5  C2  UNL     1      -8.219   5.744  13.185  1.00  0.00    -0.082 C 
HETATM    6  C1  UNL     1      -8.936   6.098  12.106  1.00  0.00     0.015 C 
HETATM    7  C24 UNL     1      -8.511   6.142  14.640  1.00  0.00     0.054 C 
HETATM    8  C21 UNL     1      -7.363   7.140  15.119  1.00  0.00    -0.034 C 
HETATM    9  C22 UNL     1      -7.141   6.976  16.647  1.00  0.00     0.016 C 
HETATM   10  C23 UNL     1      -7.753   8.613  14.880  1.00  0.00     0.016 C 
BRANCH   7  11
HETATM   11  C25 UNL     1      -9.998   6.573  14.907  1.00  0.00     0.150 C 
BRANCH  11  12
HETATM   12  O5  UNL     1     -10.054   7.294  16.145  1.00  0.00    -0.391 OA
HETATM   13  H39 UNL     1     -10.972   7.581  16.280  1.00  0.00     0.210 HD
ENDBRANCH  11  12
BRANCH  11  14
HETATM   14  C26 UNL     1     -10.580   7.523  13.901  1.00  0.00     0.018 C 
HETATM   15  C27 UNL     1     -11.858   7.564  13.493  1.00  0.00     0.018 C 
HETATM   16  C28 UNL     1     -13.025   6.756  13.911  1.00  0.00     0.071 C 
HETATM   17  C30 UNL     1     -12.331   8.552  12.493  1.00  0.00     0.289 C 
HETATM   18  C29 UNL     1     -14.155   7.694  13.562  1.00  0.00     0.183 C 
HETATM   19  O6  UNL     1     -13.691   8.500  12.478  1.00  0.00    -0.317 OA
HETATM   20  O7  UNL     1     -11.636   9.266  11.797  1.00  0.00    -0.260 OA
ENDBRANCH  11  14
ENDBRANCH   7  11
ENDBRANCH   1   2
BRANCH   1  21
HETATM   21  C7  UNL     1      -4.410   8.607  13.477  1.00  0.00    -0.021 C 
HETATM   22  C8  UNL     1      -3.104   8.275  13.475  1.00  0.00    -0.060 C 
HETATM   23  C9  UNL     1      -2.036   9.297  13.765  1.00  0.00     0.041 C 
HETATM   24  C12 UNL     1      -2.542   6.913  13.163  1.00  0.00     0.205 C 
HETATM   25  C10 UNL     1      -1.012   9.289  12.634  1.00  0.00     0.076 C 
HETATM   26  C11 UNL     1      -0.482   7.865  12.382  1.00  0.00     0.199 C 
HETATM   27  O1  UNL     1      -1.597   7.004  12.096  1.00  0.00    -0.348 OA
HETATM   28  O2  UNL     1       0.200   7.403  13.578  1.00  0.00    -0.313 OA
HETATM   29  C16 UNL     1       0.514   7.798  11.158  1.00  0.00     0.115 C 
HETATM   30  C13 UNL     1       1.506   6.884  13.282  1.00  0.00     0.196 C 
HETATM   31  C14 UNL     1       1.340   5.733  12.283  1.00  0.00     0.075 C 
HETATM   32  C18 UNL     1       2.376   8.031  12.662  1.00  0.00     0.111 C 
HETATM   33  C15 UNL     1       0.915   6.320  10.939  1.00  0.00     0.049 C 
HETATM   34  O4  UNL     1       1.723   8.546  11.471  1.00  0.00    -0.359 OA
HETATM   35  C19 UNL     1       3.779   7.558  12.250  1.00  0.00     0.051 C 
HETATM   36  C20 UNL     1       2.556   9.203  13.641  1.00  0.00     0.051 C 
HETATM   37  C17 UNL     1      -0.052   8.368   9.857  1.00  0.00     0.052 C 
BRANCH  30  38
HETATM   38  O3  UNL     1       2.046   6.370  14.483  1.00  0.00    -0.363 OA
HETATM   39  H17 UNL     1       1.826   7.036  15.156  1.00  0.00     0.213 HD
ENDBRANCH  30  38
ENDBRANCH   1  21
TORSDOF 6
ENDMDL
MODEL 7
REMARK minimizedAffinity -9.78046799
REMARK CNNscore 0.513986409
REMARK CNNaffinity 6.89761734
REMARK  6 active torsions:
REMARK  status: ('A' for Active; 'I' for Inactive)
REMARK    1  A    between atoms: C5_5  and  C6_6 
REMARK    2  A    between atoms: C6_6  and  C7_7 
REMARK    3  A    between atoms: C13_15  and  O3_16 
REMARK    4  A    between atoms: C24_28  and  C25_29 
REMARK    5  A    between atoms: C25_29  and  O5_30 
REMARK    6  A    between atoms: C25_29  and  C26_31 
ROOT
HETATM    1  C6  UNL     1      -6.003   7.294  14.809  1.00  0.00     0.033 C 
ENDROOT
BRANCH   1   2
HETATM    2  C5  UNL     1      -7.173   6.803  15.709  1.00  0.00    -0.002 C 
HETATM    3  C4  UNL     1      -7.318   5.265  15.681  1.00  0.00     0.010 C 
HETATM    4  C3  UNL     1      -7.722   4.747  14.299  1.00  0.00     0.034 C 
HETATM    5  C2  UNL     1      -8.614   5.734  13.578  1.00  0.00    -0.082 C 
HETATM    6  C1  UNL     1      -8.538   5.867  12.243  1.00  0.00     0.015 C 
HETATM    7  C24 UNL     1      -9.521   6.540  14.521  1.00  0.00     0.054 C 
HETATM    8  C21 UNL     1      -8.593   7.487  15.408  1.00  0.00    -0.034 C 
HETATM    9  C22 UNL     1      -9.262   7.715  16.791  1.00  0.00     0.016 C 
HETATM   10  C23 UNL     1      -8.417   8.877  14.763  1.00  0.00     0.016 C 
BRANCH   7  11
HETATM   11  C25 UNL     1     -10.762   7.200  13.818  1.00  0.00     0.150 C 
BRANCH  11  12
HETATM   12  O5  UNL     1     -10.577   7.132  12.398  1.00  0.00    -0.391 OA
HETATM   13  H39 UNL     1     -11.365   7.513  11.977  1.00  0.00     0.210 HD
ENDBRANCH  11  12
BRANCH  11  14
HETATM   14  C26 UNL     1     -12.073   6.509  14.052  1.00  0.00     0.018 C 
HETATM   15  C27 UNL     1     -13.289   6.984  13.742  1.00  0.00     0.018 C 
HETATM   16  C28 UNL     1     -13.685   8.247  13.079  1.00  0.00     0.071 C 
HETATM   17  C30 UNL     1     -14.526   6.213  14.012  1.00  0.00     0.289 C 
HETATM   18  C29 UNL     1     -15.029   7.857  12.514  1.00  0.00     0.183 C 
HETATM   19  O6  UNL     1     -15.550   6.840  13.371  1.00  0.00    -0.317 OA
HETATM   20  O7  UNL     1     -14.620   5.213  14.697  1.00  0.00    -0.260 OA
ENDBRANCH  11  14
ENDBRANCH   7  11
ENDBRANCH   1   2
BRANCH   1  21
HETATM   21  C7  UNL     1      -5.027   6.208  14.435  1.00  0.00    -0.021 C 
HETATM   22  C8  UNL     1      -3.887   6.348  13.728  1.00  0.00    -0.060 C 
HETATM   23  C9  UNL     1      -3.008   5.165  13.419  1.00  0.00     0.041 C 
HETATM   24  C12 UNL     1      -3.332   7.644  13.200  1.00  0.00     0.205 C 
HETATM   25  C10 UNL     1      -1.584   5.465  13.876  1.00  0.00     0.076 C 
HETATM   26  C11 UNL     1      -1.088   6.799  13.289  1.00  0.00     0.199 C 
HETATM   27  O1  UNL     1      -2.001   7.840  13.678  1.00  0.00    -0.348 OA
HETATM   28  O2  UNL     1      -1.058   6.689  11.841  1.00  0.00    -0.313 OA
HETATM   29  C16 UNL     1       0.350   7.192  13.809  1.00  0.00     0.115 C 
HETATM   30  C13 UNL     1       0.204   7.111  11.298  1.00  0.00     0.196 C 
HETATM   31  C14 UNL     1       0.440   8.563  11.729  1.00  0.00     0.075 C 
HETATM   32  C18 UNL     1       1.331   6.179  11.860  1.00  0.00     0.111 C 
HETATM   33  C15 UNL     1       0.713   8.580  13.231  1.00  0.00     0.049 C 
HETATM   34  O4  UNL     1       1.329   6.234  13.312  1.00  0.00    -0.359 OA
HETATM   35  C19 UNL     1       2.735   6.588  11.387  1.00  0.00     0.051 C 
HETATM   36  C20 UNL     1       1.117   4.713  11.449  1.00  0.00     0.051 C 
HETATM   37  C17 UNL     1       0.479   7.227  15.332  1.00  0.00     0.052 C 
BRANCH  30  38
HETATM   38  O3  UNL     1       0.102   7.065   9.889  1.00  0.00    -0.363 OA
HETATM   39  H17 UNL     1      -0.359   6.230   9.703  1.00  0.00     0.213 HD
ENDBRANCH  30  38
ENDBRANCH   1  21
TORSDOF 6
ENDMDL
MODEL 8
REMARK minimizedAffinity -9.28122425
REMARK CNNscore 0.494674653
REMARK CNNaffinity 6.93342638
REMARK  6 active torsions:
REMARK  status: ('A' for Active; 'I' for Inactive)
REMARK    1  A    between atoms: C5_5  and  C6_6 
REMARK    2  A    between atoms: C6_6  and  C7_7 
REMARK    3  A    between atoms: C13_15  and  O3_16 
REMARK    4  A    between atoms: C24_28  and  C25_29 
REMARK    5  A    between atoms: C25_29  and  O5_30 
REMARK    6  A    between atoms: C25_29  and  C26_31 
ROOT
HETATM    1  C6  UNL     1      -8.813   6.414  14.950  1.00  0.00     0.033 C 
ENDROOT
BRANCH   1   2
HETATM    2  C5  UNL     1      -7.869   6.815  13.781  1.00  0.00    -0.002 C 
HETATM    3  C4  UNL     1      -8.389   6.306  12.417  1.00  0.00     0.010 C 
HETATM    4  C3  UNL     1      -8.393   4.778  12.333  1.00  0.00     0.034 C 
HETATM    5  C2  UNL     1      -7.251   4.179  13.125  1.00  0.00    -0.082 C 
HETATM    6  C1  UNL     1      -7.409   3.002  13.754  1.00  0.00     0.015 C 
HETATM    7  C24 UNL     1      -5.993   5.060  13.148  1.00  0.00     0.054 C 
HETATM    8  C21 UNL     1      -6.334   6.385  13.970  1.00  0.00    -0.034 C 
HETATM    9  C22 UNL     1      -5.487   7.564  13.420  1.00  0.00     0.016 C 
HETATM   10  C23 UNL     1      -5.977   6.235  15.463  1.00  0.00     0.016 C 
BRANCH   7  11
HETATM   11  C25 UNL     1      -4.674   4.296  13.528  1.00  0.00     0.150 C 
BRANCH  11  12
HETATM   12  O5  UNL     1      -4.366   3.363  12.484  1.00  0.00    -0.391 OA
HETATM   13  H39 UNL     1      -3.533   2.922  12.717  1.00  0.00     0.210 HD
ENDBRANCH  11  12
BRANCH  11  14
HETATM   14  C26 UNL     1      -3.446   5.151  13.632  1.00  0.00     0.018 C 
HETATM   15  C27 UNL     1      -2.316   5.010  12.922  1.00  0.00     0.018 C 
HETATM   16  C28 UNL     1      -1.967   4.044  11.856  1.00  0.00     0.071 C 
HETATM   17  C30 UNL     1      -1.157   5.918  13.101  1.00  0.00     0.289 C 
HETATM   18  C29 UNL     1      -0.894   4.811  11.123  1.00  0.00     0.183 C 
HETATM   19  O6  UNL     1      -0.284   5.674  12.085  1.00  0.00    -0.317 OA
HETATM   20  O7  UNL     1      -1.001   6.722  13.998  1.00  0.00    -0.260 OA
ENDBRANCH  11  14
ENDBRANCH   7  11
ENDBRANCH   1   2
BRANCH   1  21
HETATM   21  C7  UNL     1      -9.771   7.504  15.359  1.00  0.00    -0.021 C 
HETATM   22  C8  UNL     1     -10.952   7.805  14.782  1.00  0.00    -0.060 C 
HETATM   23  C9  UNL     1     -11.806   8.935  15.294  1.00  0.00     0.041 C 
HETATM   24  C12 UNL     1     -11.578   7.075  13.624  1.00  0.00     0.205 C 
HETATM   25  C10 UNL     1     -13.213   8.414  15.573  1.00  0.00     0.076 C 
HETATM   26  C11 UNL     1     -13.785   7.688  14.342  1.00  0.00     0.199 C 
HETATM   27  O1  UNL     1     -12.888   6.626  13.976  1.00  0.00    -0.348 OA
HETATM   28  O2  UNL     1     -13.890   8.638  13.248  1.00  0.00    -0.313 OA
HETATM   29  C16 UNL     1     -15.205   7.055  14.617  1.00  0.00     0.115 C 
HETATM   30  C13 UNL     1     -15.193   8.616  12.643  1.00  0.00     0.196 C 
HETATM   31  C14 UNL     1     -15.454   7.191  12.141  1.00  0.00     0.075 C 
HETATM   32  C18 UNL     1     -16.256   9.024  13.720  1.00  0.00     0.111 C 
HETATM   33  C15 UNL     1     -15.645   6.281  13.352  1.00  0.00     0.049 C 
HETATM   34  O4  UNL     1     -16.176   8.114  14.851  1.00  0.00    -0.359 OA
HETATM   35  C19 UNL     1     -17.697   8.968  13.187  1.00  0.00     0.051 C 
HETATM   36  C20 UNL     1     -16.016  10.447  14.248  1.00  0.00     0.051 C 
HETATM   37  C17 UNL     1     -15.251   6.119  15.825  1.00  0.00     0.052 C 
BRANCH  30  38
HETATM   38  O3  UNL     1     -15.168   9.492  11.534  1.00  0.00    -0.363 OA
HETATM   39  H17 UNL     1     -14.690  10.276  11.852  1.00  0.00     0.213 HD
ENDBRANCH  30  38
ENDBRANCH   1  21
TORSDOF 6
ENDMDL
MODEL 9
REMARK minimizedAffinity -8.10659504
REMARK CNNscore 0.441641837
REMARK CNNaffinity 6.6371789
REMARK  6 active torsions:
REMARK  status: ('A' for Active; 'I' for Inactive)
REMARK    1  A    between atoms: C5_5  and  C6_6 
REMARK    2  A    between atoms: C6_6  and  C7_7 
REMARK    3  A    between atoms: C13_15  and  O3_16 
REMARK    4  A    between atoms: C24_28  and  C25_29 
REMARK    5  A    between atoms: C25_29  and  O5_30 
REMARK    6  A    between atoms: C25_29  and  C26_31 
ROOT
HETATM    1  C6  UNL     1      -9.145   6.985  13.717  1.00  0.00     0.033 C 
ENDROOT
BRANCH   1   2
HETATM    2  C5  UNL     1      -8.513   5.830  14.546  1.00  0.00    -0.002 C 
HETATM    3  C4  UNL     1      -8.149   6.280  15.979  1.00  0.00     0.010 C 
HETATM    4  C3  UNL     1      -7.045   7.339  15.989  1.00  0.00     0.034 C 
HETATM    5  C2  UNL     1      -6.070   7.132  14.851  1.00  0.00    -0.082 C 
HETATM    6  C1  UNL     1      -5.497   8.188  14.249  1.00  0.00     0.015 C 
HETATM    7  C24 UNL     1      -5.875   5.656  14.472  1.00  0.00     0.054 C 
HETATM    8  C21 UNL     1      -7.248   5.118  13.862  1.00  0.00    -0.034 C 
HETATM    9  C22 UNL     1      -7.390   3.603  14.170  1.00  0.00     0.016 C 
HETATM   10  C23 UNL     1      -7.285   5.268  12.328  1.00  0.00     0.016 C 
BRANCH   7  11
HETATM   11  C25 UNL     1      -4.562   5.363  13.661  1.00  0.00     0.150 C 
BRANCH  11  12
HETATM   12  O5  UNL     1      -4.913   4.700  12.440  1.00  0.00    -0.391 OA
HETATM   13  H39 UNL     1      -4.096   4.555  11.935  1.00  0.00     0.210 HD
ENDBRANCH  11  12
BRANCH  11  14
HETATM   14  C26 UNL     1      -3.801   6.577  13.215  1.00  0.00     0.018 C 
HETATM   15  C27 UNL     1      -2.494   6.631  12.916  1.00  0.00     0.018 C 
HETATM   16  C28 UNL     1      -1.468   5.563  12.901  1.00  0.00     0.071 C 
HETATM   17  C30 UNL     1      -1.840   7.887  12.478  1.00  0.00     0.289 C 
HETATM   18  C29 UNL     1      -0.472   6.146  11.929  1.00  0.00     0.183 C 
HETATM   19  O6  UNL     1      -0.598   7.566  12.021  1.00  0.00    -0.317 OA
HETATM   20  O7  UNL     1      -2.312   9.006  12.531  1.00  0.00    -0.260 OA
ENDBRANCH  11  14
ENDBRANCH   7  11
ENDBRANCH   1   2
BRANCH   1  21
HETATM   21  C7  UNL     1     -10.572   6.728  13.306  1.00  0.00    -0.021 C 
HETATM   22  C8  UNL     1     -11.683   7.261  13.852  1.00  0.00    -0.060 C 
HETATM   23  C9  UNL     1     -13.055   6.903  13.341  1.00  0.00     0.041 C 
HETATM   24  C12 UNL     1     -11.719   8.267  14.970  1.00  0.00     0.205 C 
HETATM   25  C10 UNL     1     -13.815   8.182  13.004  1.00  0.00     0.076 C 
HETATM   26  C11 UNL     1     -13.811   9.154  14.198  1.00  0.00     0.199 C 
HETATM   27  O1  UNL     1     -12.448   9.427  14.565  1.00  0.00    -0.348 OA
HETATM   28  O2  UNL     1     -14.503   8.527  15.312  1.00  0.00    -0.313 OA
HETATM   29  C16 UNL     1     -14.511  10.529  13.862  1.00  0.00     0.115 C 
HETATM   30  C13 UNL     1     -15.505   9.390  15.873  1.00  0.00     0.196 C 
HETATM   31  C14 UNL     1     -14.812  10.679  16.332  1.00  0.00     0.075 C 
HETATM   32  C18 UNL     1     -16.577   9.701  14.774  1.00  0.00     0.111 C 
HETATM   33  C15 UNL     1     -14.376  11.457  15.092  1.00  0.00     0.049 C 
HETATM   34  O4  UNL     1     -15.931  10.310  13.623  1.00  0.00    -0.359 OA
HETATM   35  C19 UNL     1     -17.664  10.673  15.259  1.00  0.00     0.051 C 
HETATM   36  C20 UNL     1     -17.284   8.425  14.290  1.00  0.00     0.051 C 
HETATM   37  C17 UNL     1     -13.946  11.236  12.630  1.00  0.00     0.052 C 
BRANCH  30  38
HETATM   38  O3  UNL     1     -16.048   8.738  17.005  1.00  0.00    -0.363 OA
HETATM   39  H17 UNL     1     -16.168   7.816  16.722  1.00  0.00     0.213 HD
ENDBRANCH  30  38
ENDBRANCH   1  21
TORSDOF 6
ENDMDL
