MODEL 1
REMARK minimizedAffinity -8.74992085
REMARK  13 active torsions:
REMARK  status: ('A' for Active; 'I' for Inactive)
REMARK    1  A    between atoms: C2_2  and  C3_3 
REMARK    2  A    between atoms: C4_5  and  C5_6 
REMARK    3  A    between atoms: C5_6  and  C6_7 
REMARK    4  A    between atoms: C6_7  and  C7_8 
REMARK    5  A    between atoms: C7_8  and  C9_10 
REMARK    6  A    between atoms: C17_18  and  C18_19 
REMARK    7  A    between atoms: C18_19  and  O2_21 
REMARK    8  A    between atoms: C18_19  and  C20_22 
REMARK    9  A    between atoms: C20_22  and  O3_23 
REMARK   10  A    between atoms: C21_24  and  C22_25 
REMARK   11  A    between atoms: C22_25  and  C23_26 
REMARK   12  A    between atoms: C23_26  and  C24_27 
REMARK   13  A    between atoms: C24_27  and  O5_29 
ROOT
HETATM    1  C9  UNL     1      -2.298   7.598  13.745  1.00  0.00    -0.002 C 
HETATM    2  C10 UNL     1      -1.997   9.103  13.835  1.00  0.00     0.006 C 
HETATM    3  C11 UNL     1      -0.485   9.221  14.130  1.00  0.00     0.011 C 
HETATM    4  C12 UNL     1       0.085   7.773  14.150  1.00  0.00    -0.032 C 
HETATM    5  C13 UNL     1       0.052   7.294  15.641  1.00  0.00     0.016 C 
HETATM    6  C14 UNL     1       1.570   7.609  13.682  1.00  0.00     0.004 C 
HETATM    7  C15 UNL     1       2.515   8.691  14.197  1.00  0.00     0.007 C 
HETATM    8  C16 UNL     1       3.941   8.192  14.013  1.00  0.00     0.009 C 
HETATM    9  C17 UNL     1       4.371   8.062  12.536  1.00  0.00     0.031 C 
HETATM   10  C21 UNL     1       3.242   7.537  11.570  1.00  0.00    -0.025 A 
HETATM   11  C25 UNL     1       2.531   6.211  11.768  1.00  0.00     0.021 A 
HETATM   12  C26 UNL     1       1.788   7.455  12.178  1.00  0.00    -0.027 A 
HETATM   13  C27 UNL     1       0.637   7.973  11.368  1.00  0.00     0.011 C 
HETATM   14  C28 UNL     1      -0.687   7.313  11.726  1.00  0.00     0.011 C 
HETATM   15  C29 UNL     1      -0.942   7.004  13.231  1.00  0.00    -0.032 C 
HETATM   16  C30 UNL     1      -0.916   5.479  13.432  1.00  0.00     0.016 C 
ENDROOT
BRANCH   1  17
HETATM   17  C7  UNL     1      -3.665   7.183  13.126  1.00  0.00    -0.014 C 
HETATM   18  C8  UNL     1      -4.810   8.190  13.248  1.00  0.00     0.010 C 
BRANCH  17  19
HETATM   19  C6  UNL     1      -4.175   5.823  13.679  1.00  0.00     0.008 C 
BRANCH  19  20
HETATM   20  C5  UNL     1      -4.503   4.783  12.601  1.00  0.00     0.028 C 
BRANCH  20  21
HETATM   21  C4  UNL     1      -5.825   4.117  12.878  1.00  0.00    -0.017 C 
HETATM   22  C2  UNL     1      -6.273   2.961  12.356  1.00  0.00    -0.028 C 
HETATM   23  C1  UNL     1      -5.583   2.079  11.362  1.00  0.00     0.051 C 
BRANCH  22  24
HETATM   24  C3  UNL     1      -7.619   2.495  12.800  1.00  0.00     0.265 C 
HETATM   25  O1  UNL     1      -8.591   3.240  12.857  1.00  0.00    -0.302 OA
ENDBRANCH  22  24
ENDBRANCH  20  21
ENDBRANCH  19  20
ENDBRANCH  17  19
ENDBRANCH   1  17
BRANCH  10  26
HETATM   26  C22 UNL     1       3.416   8.083  10.128  1.00  0.00     0.021 C 
BRANCH  26  27
HETATM   27  C23 UNL     1       3.088   7.177   8.940  1.00  0.00     0.111 C 
BRANCH  27  28
HETATM   28  C24 UNL     1       2.568   7.851   7.703  1.00  0.00     0.139 C 
HETATM   29  O4  UNL     1       1.694   7.410   6.975  1.00  0.00    -0.650 OA
BRANCH  28  30
HETATM   30  O5  UNL     1       3.069   9.079   7.489  1.00  0.00    -0.776 OA
HETATM   31  H39 UNL     1       2.600   9.365   6.674  1.00  0.00     0.167 HD
ENDBRANCH  28  30
ENDBRANCH  27  28
ENDBRANCH  26  27
ENDBRANCH  10  26
BRANCH   9  32
HETATM   32  C18 UNL     1       5.784   7.368  12.419  1.00  0.00     0.080 C 
HETATM   33  C19 UNL     1       5.823   6.357  11.255  1.00  0.00     0.048 C 
BRANCH  32  34
HETATM   34  O2  UNL     1       6.050   6.589  13.604  1.00  0.00    -0.388 OA
HETATM   35  H31 UNL     1       5.362   5.905  13.673  1.00  0.00     0.210 HD
ENDBRANCH  32  34
BRANCH  32  36
HETATM   36  C20 UNL     1       6.979   8.332  12.261  1.00  0.00     0.201 C 
BRANCH  36  37
HETATM   37  O3  UNL     1       8.198   7.667  12.583  1.00  0.00    -0.398 OA
HETATM   38  H34 UNL     1       8.011   6.728  12.362  1.00  0.00     0.209 HD
ENDBRANCH  36  37
ENDBRANCH  32  36
ENDBRANCH   9  32
TORSDOF 13
ENDMDL
MODEL 2
REMARK minimizedAffinity -8.69308758
REMARK  13 active torsions:
REMARK  status: ('A' for Active; 'I' for Inactive)
REMARK    1  A    between atoms: C2_2  and  C3_3 
REMARK    2  A    between atoms: C4_5  and  C5_6 
REMARK    3  A    between atoms: C5_6  and  C6_7 
REMARK    4  A    between atoms: C6_7  and  C7_8 
REMARK    5  A    between atoms: C7_8  and  C9_10 
REMARK    6  A    between atoms: C17_18  and  C18_19 
REMARK    7  A    between atoms: C18_19  and  O2_21 
REMARK    8  A    between atoms: C18_19  and  C20_22 
REMARK    9  A    between atoms: C20_22  and  O3_23 
REMARK   10  A    between atoms: C21_24  and  C22_25 
REMARK   11  A    between atoms: C22_25  and  C23_26 
REMARK   12  A    between atoms: C23_26  and  C24_27 
REMARK   13  A    between atoms: C24_27  and  O5_29 
ROOT
HETATM    1  C9  UNL     1       0.712   7.703  13.343  1.00  0.00    -0.002 C 
HETATM    2  C10 UNL     1       0.550   6.980  14.689  1.00  0.00     0.006 C 
HETATM    3  C11 UNL     1      -0.888   6.415  14.702  1.00  0.00     0.011 C 
HETATM    4  C12 UNL     1      -1.525   6.772  13.329  1.00  0.00    -0.032 C 
HETATM    5  C13 UNL     1      -2.287   8.126  13.521  1.00  0.00     0.016 C 
HETATM    6  C14 UNL     1      -2.585   5.761  12.775  1.00  0.00     0.004 C 
HETATM    7  C15 UNL     1      -3.554   5.226  13.826  1.00  0.00     0.007 C 
HETATM    8  C16 UNL     1      -4.736   4.604  13.098  1.00  0.00     0.009 C 
HETATM    9  C17 UNL     1      -4.379   3.327  12.307  1.00  0.00     0.031 C 
HETATM   10  C21 UNL     1      -2.974   3.369  11.596  1.00  0.00    -0.025 A 
HETATM   11  C25 UNL     1      -2.586   4.435  10.587  1.00  0.00     0.021 A 
HETATM   12  C26 UNL     1      -2.034   4.577  11.982  1.00  0.00    -0.027 A 
HETATM   13  C27 UNL     1      -0.590   4.302  12.276  1.00  0.00     0.011 C 
HETATM   14  C28 UNL     1       0.308   5.503  12.020  1.00  0.00     0.011 C 
HETATM   15  C29 UNL     1      -0.254   6.905  12.403  1.00  0.00    -0.032 C 
HETATM   16  C30 UNL     1      -0.520   7.697  11.111  1.00  0.00     0.016 C 
ENDROOT
BRANCH   1  17
HETATM   17  C7  UNL     1       2.160   8.079  12.909  1.00  0.00    -0.014 C 
HETATM   18  C8  UNL     1       2.499   9.569  12.858  1.00  0.00     0.010 C 
BRANCH  17  19
HETATM   19  C6  UNL     1       2.542   7.463  11.534  1.00  0.00     0.008 C 
BRANCH  19  20
HETATM   20  C5  UNL     1       3.661   8.206  10.794  1.00  0.00     0.028 C 
BRANCH  20  21
HETATM   21  C4  UNL     1       4.865   7.323  10.608  1.00  0.00    -0.017 C 
HETATM   22  C2  UNL     1       5.785   7.002  11.536  1.00  0.00    -0.028 C 
HETATM   23  C1  UNL     1       5.847   7.465  12.959  1.00  0.00     0.051 C 
BRANCH  22  24
HETATM   24  C3  UNL     1       6.886   6.089  11.110  1.00  0.00     0.265 C 
HETATM   25  O1  UNL     1       6.690   5.089  10.430  1.00  0.00    -0.302 OA
ENDBRANCH  22  24
ENDBRANCH  20  21
ENDBRANCH  19  20
ENDBRANCH  17  19
ENDBRANCH   1  17
BRANCH  10  26
HETATM   26  C22 UNL     1      -2.352   1.954  11.464  1.00  0.00     0.021 C 
BRANCH  26  27
HETATM   27  C23 UNL     1      -0.883   1.818  11.054  1.00  0.00     0.111 C 
BRANCH  27  28
HETATM   28  C24 UNL     1      -0.476   0.509  10.442  1.00  0.00     0.139 C 
HETATM   29  O4  UNL     1      -0.152  -0.490  11.066  1.00  0.00    -0.650 OA
BRANCH  28  30
HETATM   30  O5  UNL     1      -0.594   0.461   9.105  1.00  0.00    -0.776 OA
HETATM   31  H39 UNL     1      -0.319  -0.459   8.896  1.00  0.00     0.167 HD
ENDBRANCH  28  30
ENDBRANCH  27  28
ENDBRANCH  26  27
ENDBRANCH  10  26
BRANCH   9  32
HETATM   32  C18 UNL     1      -5.603   2.845  11.433  1.00  0.00     0.080 C 
HETATM   33  C19 UNL     1      -5.779   1.315  11.501  1.00  0.00     0.048 C 
BRANCH  32  34
HETATM   34  O2  UNL     1      -5.360   3.137  10.041  1.00  0.00    -0.388 OA
HETATM   35  H31 UNL     1      -4.562   2.651   9.769  1.00  0.00     0.210 HD
ENDBRANCH  32  34
BRANCH  32  36
HETATM   36  C20 UNL     1      -6.956   3.502  11.779  1.00  0.00     0.201 C 
BRANCH  36  37
HETATM   37  O3  UNL     1      -7.688   2.682  12.686  1.00  0.00    -0.398 OA
HETATM   38  H34 UNL     1      -6.985   2.205  13.180  1.00  0.00     0.209 HD
ENDBRANCH  36  37
ENDBRANCH  32  36
ENDBRANCH   9  32
TORSDOF 13
ENDMDL
MODEL 3
REMARK minimizedAffinity -8.55408287
REMARK  13 active torsions:
REMARK  status: ('A' for Active; 'I' for Inactive)
REMARK    1  A    between atoms: C2_2  and  C3_3 
REMARK    2  A    between atoms: C4_5  and  C5_6 
REMARK    3  A    between atoms: C5_6  and  C6_7 
REMARK    4  A    between atoms: C6_7  and  C7_8 
REMARK    5  A    between atoms: C7_8  and  C9_10 
REMARK    6  A    between atoms: C17_18  and  C18_19 
REMARK    7  A    between atoms: C18_19  and  O2_21 
REMARK    8  A    between atoms: C18_19  and  C20_22 
REMARK    9  A    between atoms: C20_22  and  O3_23 
REMARK   10  A    between atoms: C21_24  and  C22_25 
REMARK   11  A    between atoms: C22_25  and  C23_26 
REMARK   12  A    between atoms: C23_26  and  C24_27 
REMARK   13  A    between atoms: C24_27  and  O5_29 
ROOT
HETATM    1  C9  UNL     1       0.577   6.339  12.231  1.00  0.00    -0.002 C 
HETATM    2  C10 UNL     1      -0.013   6.422  10.814  1.00  0.00     0.006 C 
HETATM    3  C11 UNL     1      -1.337   5.627  10.853  1.00  0.00     0.011 C 
HETATM    4  C12 UNL     1      -1.526   5.139  12.318  1.00  0.00    -0.032 C 
HETATM    5  C13 UNL     1      -0.912   3.701  12.401  1.00  0.00     0.016 C 
HETATM    6  C14 UNL     1      -3.005   5.000  12.815  1.00  0.00     0.004 C 
HETATM    7  C15 UNL     1      -3.957   4.385  11.792  1.00  0.00     0.007 C 
HETATM    8  C16 UNL     1      -5.214   3.947  12.528  1.00  0.00     0.009 C 
HETATM    9  C17 UNL     1      -6.051   5.119  13.085  1.00  0.00     0.031 C 
HETATM   10  C21 UNL     1      -5.200   6.315  13.659  1.00  0.00    -0.025 A 
HETATM   11  C25 UNL     1      -4.182   6.150  14.773  1.00  0.00     0.021 A 
HETATM   12  C26 UNL     1      -3.650   6.269  13.369  1.00  0.00    -0.027 A 
HETATM   13  C27 UNL     1      -2.967   7.520  12.903  1.00  0.00     0.011 C 
HETATM   14  C28 UNL     1      -1.484   7.551  13.247  1.00  0.00     0.011 C 
HETATM   15  C29 UNL     1      -0.699   6.211  13.130  1.00  0.00    -0.032 C 
HETATM   16  C30 UNL     1      -0.314   5.741  14.543  1.00  0.00     0.016 C 
ENDROOT
BRANCH   1  17
HETATM   17  C7  UNL     1       1.733   7.324  12.577  1.00  0.00    -0.014 C 
HETATM   18  C8  UNL     1       1.548   8.781  12.151  1.00  0.00     0.010 C 
BRANCH  17  19
HETATM   19  C6  UNL     1       3.103   6.843  12.025  1.00  0.00     0.008 C 
BRANCH  19  20
HETATM   20  C5  UNL     1       3.556   7.554  10.743  1.00  0.00     0.028 C 
BRANCH  20  21
HETATM   21  C4  UNL     1       3.395   6.659   9.543  1.00  0.00    -0.017 C 
HETATM   22  C2  UNL     1       2.709   6.931   8.418  1.00  0.00    -0.028 C 
HETATM   23  C1  UNL     1       1.924   8.167   8.102  1.00  0.00     0.051 C 
BRANCH  22  24
HETATM   24  C3  UNL     1       2.710   5.883   7.356  1.00  0.00     0.265 C 
HETATM   25  O1  UNL     1       3.272   4.803   7.493  1.00  0.00    -0.302 OA
ENDBRANCH  22  24
ENDBRANCH  20  21
ENDBRANCH  19  20
ENDBRANCH  17  19
ENDBRANCH   1  17
BRANCH  10  26
HETATM   26  C22 UNL     1      -5.944   7.669  13.522  1.00  0.00     0.021 C 
BRANCH  26  27
HETATM   27  C23 UNL     1      -6.406   8.401  14.785  1.00  0.00     0.111 C 
BRANCH  27  28
HETATM   28  C24 UNL     1      -7.886   8.580  14.955  1.00  0.00     0.139 C 
HETATM   29  O4  UNL     1      -8.705   7.675  14.989  1.00  0.00    -0.650 OA
BRANCH  28  30
HETATM   30  O5  UNL     1      -8.269   9.846  15.186  1.00  0.00    -0.776 OA
HETATM   31  H39 UNL     1      -9.242   9.761  15.299  1.00  0.00     0.167 HD
ENDBRANCH  28  30
ENDBRANCH  27  28
ENDBRANCH  26  27
ENDBRANCH  10  26
BRANCH   9  32
HETATM   32  C18 UNL     1      -7.231   4.589  13.990  1.00  0.00     0.080 C 
HETATM   33  C19 UNL     1      -7.453   3.075  13.800  1.00  0.00     0.048 C 
BRANCH  32  34
HETATM   34  O2  UNL     1      -8.473   5.206  13.594  1.00  0.00    -0.388 OA
HETATM   35  H31 UNL     1      -8.646   4.962  12.668  1.00  0.00     0.210 HD
ENDBRANCH  32  34
BRANCH  32  36
HETATM   36  C20 UNL     1      -7.076   4.867  15.501  1.00  0.00     0.201 C 
BRANCH  36  37
HETATM   37  O3  UNL     1      -8.177   4.318  16.222  1.00  0.00    -0.398 OA
HETATM   38  H34 UNL     1      -8.455   3.557  15.666  1.00  0.00     0.209 HD
ENDBRANCH  36  37
ENDBRANCH  32  36
ENDBRANCH   9  32
TORSDOF 13
ENDMDL
MODEL 4
REMARK minimizedAffinity -8.47490883
REMARK  13 active torsions:
REMARK  status: ('A' for Active; 'I' for Inactive)
REMARK    1  A    between atoms: C2_2  and  C3_3 
REMARK    2  A    between atoms: C4_5  and  C5_6 
REMARK    3  A    between atoms: C5_6  and  C6_7 
REMARK    4  A    between atoms: C6_7  and  C7_8 
REMARK    5  A    between atoms: C7_8  and  C9_10 
REMARK    6  A    between atoms: C17_18  and  C18_19 
REMARK    7  A    between atoms: C18_19  and  O2_21 
REMARK    8  A    between atoms: C18_19  and  C20_22 
REMARK    9  A    between atoms: C20_22  and  O3_23 
REMARK   10  A    between atoms: C21_24  and  C22_25 
REMARK   11  A    between atoms: C22_25  and  C23_26 
REMARK   12  A    between atoms: C23_26  and  C24_27 
REMARK   13  A    between atoms: C24_27  and  O5_29 
ROOT
HETATM    1  C9  UNL     1       0.292   7.837  13.130  1.00  0.00    -0.002 C 
HETATM    2  C10 UNL     1       0.615   6.805  14.222  1.00  0.00     0.006 C 
HETATM    3  C11 UNL     1      -0.667   6.663  15.071  1.00  0.00     0.011 C 
HETATM    4  C12 UNL     1      -1.742   7.580  14.420  1.00  0.00    -0.032 C 
HETATM    5  C13 UNL     1      -1.668   8.960  15.157  1.00  0.00     0.016 C 
HETATM    6  C14 UNL     1      -3.229   7.105  14.555  1.00  0.00     0.004 C 
HETATM    7  C15 UNL     1      -3.589   6.548  15.930  1.00  0.00     0.007 C 
HETATM    8  C16 UNL     1      -5.106   6.514  16.037  1.00  0.00     0.009 C 
HETATM    9  C17 UNL     1      -5.776   5.495  15.089  1.00  0.00     0.031 C 
HETATM   10  C21 UNL     1      -5.102   5.383  13.669  1.00  0.00    -0.025 A 
HETATM   11  C25 UNL     1      -4.940   6.566  12.732  1.00  0.00     0.021 A 
HETATM   12  C26 UNL     1      -3.719   6.121  13.494  1.00  0.00    -0.027 A 
HETATM   13  C27 UNL     1      -2.598   5.399  12.809  1.00  0.00     0.011 C 
HETATM   14  C28 UNL     1      -1.595   6.340  12.157  1.00  0.00     0.011 C 
HETATM   15  C29 UNL     1      -1.249   7.651  12.923  1.00  0.00    -0.032 C 
HETATM   16  C30 UNL     1      -1.833   8.843  12.145  1.00  0.00     0.016 C 
ENDROOT
BRANCH   1  17
HETATM   17  C7  UNL     1       1.279   7.933  11.929  1.00  0.00    -0.014 C 
HETATM   18  C8  UNL     1       0.724   8.510  10.626  1.00  0.00     0.010 C 
BRANCH  17  19
HETATM   19  C6  UNL     1       1.937   6.566  11.596  1.00  0.00     0.008 C 
BRANCH  19  20
HETATM   20  C5  UNL     1       3.155   6.657  10.668  1.00  0.00     0.028 C 
BRANCH  20  21
HETATM   21  C4  UNL     1       2.839   6.102   9.305  1.00  0.00    -0.017 C 
HETATM   22  C2  UNL     1       2.737   6.792   8.154  1.00  0.00    -0.028 C 
HETATM   23  C1  UNL     1       2.885   8.269   7.959  1.00  0.00     0.051 C 
BRANCH  22  24
HETATM   24  C3  UNL     1       2.429   6.010   6.922  1.00  0.00     0.265 C 
HETATM   25  O1  UNL     1       2.902   4.901   6.707  1.00  0.00    -0.302 OA
ENDBRANCH  22  24
ENDBRANCH  20  21
ENDBRANCH  19  20
ENDBRANCH  17  19
ENDBRANCH   1  17
BRANCH  10  26
HETATM   26  C22 UNL     1      -5.273   3.966  13.061  1.00  0.00     0.021 C 
BRANCH  26  27
HETATM   27  C23 UNL     1      -6.404   3.712  12.061  1.00  0.00     0.111 C 
BRANCH  27  28
HETATM   28  C24 UNL     1      -7.381   2.628  12.413  1.00  0.00     0.139 C 
HETATM   29  O4  UNL     1      -8.454   2.801  12.968  1.00  0.00    -0.650 OA
BRANCH  28  30
HETATM   30  O5  UNL     1      -7.040   1.407  11.967  1.00  0.00    -0.776 OA
HETATM   31  H39 UNL     1      -7.796   0.852  12.259  1.00  0.00     0.167 HD
ENDBRANCH  28  30
ENDBRANCH  27  28
ENDBRANCH  26  27
ENDBRANCH  10  26
BRANCH   9  32
HETATM   32  C18 UNL     1      -7.347   5.646  15.119  1.00  0.00     0.080 C 
HETATM   33  C19 UNL     1      -7.807   6.544  16.286  1.00  0.00     0.048 C 
BRANCH  32  34
HETATM   34  O2  UNL     1      -7.962   4.364  15.364  1.00  0.00    -0.388 OA
HETATM   35  H31 UNL     1      -7.655   4.046  16.231  1.00  0.00     0.210 HD
ENDBRANCH  32  34
BRANCH  32  36
HETATM   36  C20 UNL     1      -7.981   6.185  13.819  1.00  0.00     0.201 C 
BRANCH  36  37
HETATM   37  O3  UNL     1      -9.385   5.941  13.813  1.00  0.00    -0.398 OA
HETATM   38  H34 UNL     1      -9.620   5.939  14.767  1.00  0.00     0.209 HD
ENDBRANCH  36  37
ENDBRANCH  32  36
ENDBRANCH   9  32
TORSDOF 13
ENDMDL
MODEL 5
REMARK minimizedAffinity -8.34162712
REMARK  13 active torsions:
REMARK  status: ('A' for Active; 'I' for Inactive)
REMARK    1  A    between atoms: C2_2  and  C3_3 
REMARK    2  A    between atoms: C4_5  and  C5_6 
REMARK    3  A    between atoms: C5_6  and  C6_7 
REMARK    4  A    between atoms: C6_7  and  C7_8 
REMARK    5  A    between atoms: C7_8  and  C9_10 
REMARK    6  A    between atoms: C17_18  and  C18_19 
REMARK    7  A    between atoms: C18_19  and  O2_21 
REMARK    8  A    between atoms: C18_19  and  C20_22 
REMARK    9  A    between atoms: C20_22  and  O3_23 
REMARK   10  A    between atoms: C21_24  and  C22_25 
REMARK   11  A    between atoms: C22_25  and  C23_26 
REMARK   12  A    between atoms: C23_26  and  C24_27 
REMARK   13  A    between atoms: C24_27  and  O5_29 
ROOT
HETATM    1  C9  UNL     1       0.734   7.718  13.360  1.00  0.00    -0.002 C 
HETATM    2  C10 UNL     1       0.465   7.193  14.779  1.00  0.00     0.006 C 
HETATM    3  C11 UNL     1      -1.017   6.757  14.802  1.00  0.00     0.011 C 
HETATM    4  C12 UNL     1      -1.575   6.983  13.368  1.00  0.00    -0.032 C 
HETATM    5  C13 UNL     1      -2.221   8.410  13.353  1.00  0.00     0.016 C 
HETATM    6  C14 UNL     1      -2.702   6.000  12.902  1.00  0.00     0.004 C 
HETATM    7  C15 UNL     1      -3.748   5.690  13.971  1.00  0.00     0.007 C 
HETATM    8  C16 UNL     1      -4.957   5.079  13.278  1.00  0.00     0.009 C 
HETATM    9  C17 UNL     1      -4.689   3.684  12.673  1.00  0.00     0.031 C 
HETATM   10  C21 UNL     1      -3.263   3.516  12.023  1.00  0.00    -0.025 A 
HETATM   11  C25 UNL     1      -2.751   4.404  10.904  1.00  0.00     0.021 A 
HETATM   12  C26 UNL     1      -2.234   4.681  12.292  1.00  0.00    -0.027 A 
HETATM   13  C27 UNL     1      -0.830   4.327  12.680  1.00  0.00     0.011 C 
HETATM   14  C28 UNL     1       0.179   5.405  12.312  1.00  0.00     0.011 C 
HETATM   15  C29 UNL     1      -0.269   6.887  12.488  1.00  0.00    -0.032 C 
HETATM   16  C30 UNL     1      -0.423   7.523  11.096  1.00  0.00     0.016 C 
ENDROOT
BRANCH   1  17
HETATM   17  C7  UNL     1       2.222   7.911  12.944  1.00  0.00    -0.014 C 
HETATM   18  C8  UNL     1       2.989   9.039  13.634  1.00  0.00     0.010 C 
BRANCH  17  19
HETATM   19  C6  UNL     1       2.386   8.101  11.410  1.00  0.00     0.008 C 
BRANCH  19  20
HETATM   20  C5  UNL     1       3.319   7.084  10.741  1.00  0.00     0.028 C 
BRANCH  20  21
HETATM   21  C4  UNL     1       2.753   6.617   9.426  1.00  0.00    -0.017 C 
HETATM   22  C2  UNL     1       2.698   7.313   8.276  1.00  0.00    -0.028 C 
HETATM   23  C1  UNL     1       3.156   8.719   8.036  1.00  0.00     0.051 C 
BRANCH  22  24
HETATM   24  C3  UNL     1       2.101   6.624   7.095  1.00  0.00     0.265 C 
HETATM   25  O1  UNL     1       1.469   7.219   6.231  1.00  0.00    -0.302 OA
ENDBRANCH  22  24
ENDBRANCH  20  21
ENDBRANCH  19  20
ENDBRANCH  17  19
ENDBRANCH   1  17
BRANCH  10  26
HETATM   26  C22 UNL     1      -2.765   2.049  12.100  1.00  0.00     0.021 C 
BRANCH  26  27
HETATM   27  C23 UNL     1      -2.380   1.321  10.809  1.00  0.00     0.111 C 
BRANCH  27  28
HETATM   28  C24 UNL     1      -0.912   1.185  10.526  1.00  0.00     0.139 C 
HETATM   29  O4  UNL     1      -0.015   1.512  11.287  1.00  0.00    -0.650 OA
BRANCH  28  30
HETATM   30  O5  UNL     1      -0.625   0.555   9.375  1.00  0.00    -0.776 OA
HETATM   31  H39 UNL     1       0.358   0.535   9.379  1.00  0.00     0.167 HD
ENDBRANCH  28  30
ENDBRANCH  27  28
ENDBRANCH  26  27
ENDBRANCH  10  26
BRANCH   9  32
HETATM   32  C18 UNL     1      -5.922   3.196  11.815  1.00  0.00     0.080 C 
HETATM   33  C19 UNL     1      -6.173   1.685  11.994  1.00  0.00     0.048 C 
BRANCH  32  34
HETATM   34  O2  UNL     1      -5.645   3.370  10.410  1.00  0.00    -0.388 OA
HETATM   35  H31 UNL     1      -4.867   2.828  10.189  1.00  0.00     0.210 HD
ENDBRANCH  32  34
BRANCH  32  36
HETATM   36  C20 UNL     1      -7.246   3.940  12.087  1.00  0.00     0.201 C 
BRANCH  36  37
HETATM   37  O3  UNL     1      -8.139   3.110  12.826  1.00  0.00    -0.398 OA
HETATM   38  H34 UNL     1      -7.537   2.526  13.336  1.00  0.00     0.209 HD
ENDBRANCH  36  37
ENDBRANCH  32  36
ENDBRANCH   9  32
TORSDOF 13
ENDMDL
MODEL 6
REMARK minimizedAffinity -8.24345207
REMARK  13 active torsions:
REMARK  status: ('A' for Active; 'I' for Inactive)
REMARK    1  A    between atoms: C2_2  and  C3_3 
REMARK    2  A    between atoms: C4_5  and  C5_6 
REMARK    3  A    between atoms: C5_6  and  C6_7 
REMARK    4  A    between atoms: C6_7  and  C7_8 
REMARK    5  A    between atoms: C7_8  and  C9_10 
REMARK    6  A    between atoms: C17_18  and  C18_19 
REMARK    7  A    between atoms: C18_19  and  O2_21 
REMARK    8  A    between atoms: C18_19  and  C20_22 
REMARK    9  A    between atoms: C20_22  and  O3_23 
REMARK   10  A    between atoms: C21_24  and  C22_25 
REMARK   11  A    between atoms: C22_25  and  C23_26 
REMARK   12  A    between atoms: C23_26  and  C24_27 
REMARK   13  A    between atoms: C24_27  and  O5_29 
ROOT
HETATM    1  C9  UNL     1      -0.790   5.846  11.762  1.00  0.00    -0.002 C 
HETATM    2  C10 UNL     1       0.122   4.613  11.868  1.00  0.00     0.006 C 
HETATM    3  C11 UNL     1       1.512   5.064  11.365  1.00  0.00     0.011 C 
HETATM    4  C12 UNL     1       1.400   6.578  11.027  1.00  0.00    -0.032 C 
HETATM    5  C13 UNL     1       1.056   6.678   9.502  1.00  0.00     0.016 C 
HETATM    6  C14 UNL     1       2.699   7.429  11.227  1.00  0.00     0.004 C 
HETATM    7  C15 UNL     1       3.978   6.745  10.752  1.00  0.00     0.007 C 
HETATM    8  C16 UNL     1       5.059   7.809  10.631  1.00  0.00     0.009 C 
HETATM    9  C17 UNL     1       5.497   8.410  11.984  1.00  0.00     0.031 C 
HETATM   10  C21 UNL     1       4.325   8.618  13.017  1.00  0.00    -0.025 A 
HETATM   11  C25 UNL     1       3.100   9.465  12.723  1.00  0.00     0.021 A 
HETATM   12  C26 UNL     1       2.938   7.969  12.635  1.00  0.00    -0.027 A 
HETATM   13  C27 UNL     1       2.184   7.210  13.685  1.00  0.00     0.011 C 
HETATM   14  C28 UNL     1       0.683   7.180  13.436  1.00  0.00     0.011 C 
HETATM   15  C29 UNL     1       0.211   7.035  11.959  1.00  0.00    -0.032 C 
HETATM   16  C30 UNL     1      -0.436   8.359  11.517  1.00  0.00     0.016 C 
ENDROOT
BRANCH   1  17
HETATM   17  C7  UNL     1      -2.154   5.786  12.511  1.00  0.00    -0.014 C 
HETATM   18  C8  UNL     1      -2.191   6.370  13.924  1.00  0.00     0.010 C 
BRANCH  17  19
HETATM   19  C6  UNL     1      -2.724   4.342  12.584  1.00  0.00     0.008 C 
BRANCH  19  20
HETATM   20  C5  UNL     1      -3.878   4.065  11.612  1.00  0.00     0.028 C 
BRANCH  20  21
HETATM   21  C4  UNL     1      -5.186   3.945  12.348  1.00  0.00    -0.017 C 
HETATM   22  C2  UNL     1      -6.087   2.951  12.239  1.00  0.00    -0.028 C 
HETATM   23  C1  UNL     1      -6.019   1.751  11.346  1.00  0.00     0.051 C 
BRANCH  22  24
HETATM   24  C3  UNL     1      -7.308   3.049  13.090  1.00  0.00     0.265 C 
HETATM   25  O1  UNL     1      -8.373   2.527  12.782  1.00  0.00    -0.302 OA
ENDBRANCH  22  24
ENDBRANCH  20  21
ENDBRANCH  19  20
ENDBRANCH  17  19
ENDBRANCH   1  17
BRANCH  10  26
HETATM   26  C22 UNL     1       4.821   8.506  14.482  1.00  0.00     0.021 C 
BRANCH  26  27
HETATM   27  C23 UNL     1       6.059   7.660  14.791  1.00  0.00     0.111 C 
BRANCH  27  28
HETATM   28  C24 UNL     1       7.175   8.345  15.524  1.00  0.00     0.139 C 
HETATM   29  O4  UNL     1       7.914   9.192  15.048  1.00  0.00    -0.650 OA
BRANCH  28  30
HETATM   30  O5  UNL     1       7.254   8.036  16.829  1.00  0.00    -0.776 OA
HETATM   31  H39 UNL     1       8.005   8.590  17.137  1.00  0.00     0.167 HD
ENDBRANCH  28  30
ENDBRANCH  27  28
ENDBRANCH  26  27
ENDBRANCH  10  26
BRANCH   9  32
HETATM   32  C18 UNL     1       6.477   9.629  11.769  1.00  0.00     0.080 C 
HETATM   33  C19 UNL     1       6.633   9.972  10.274  1.00  0.00     0.048 C 
BRANCH  32  34
HETATM   34  O2  UNL     1       7.804   9.280  12.217  1.00  0.00    -0.388 OA
HETATM   35  H31 UNL     1       8.111   8.525  11.685  1.00  0.00     0.210 HD
ENDBRANCH  32  34
BRANCH  32  36
HETATM   36  C20 UNL     1       6.095  10.920  12.523  1.00  0.00     0.201 C 
BRANCH  36  37
HETATM   37  O3  UNL     1       5.535  11.873  11.622  1.00  0.00    -0.398 OA
HETATM   38  H34 UNL     1       5.131  11.314  10.922  1.00  0.00     0.209 HD
ENDBRANCH  36  37
ENDBRANCH  32  36
ENDBRANCH   9  32
TORSDOF 13
ENDMDL
MODEL 7
REMARK minimizedAffinity -8.24158573
REMARK  13 active torsions:
REMARK  status: ('A' for Active; 'I' for Inactive)
REMARK    1  A    between atoms: C2_2  and  C3_3 
REMARK    2  A    between atoms: C4_5  and  C5_6 
REMARK    3  A    between atoms: C5_6  and  C6_7 
REMARK    4  A    between atoms: C6_7  and  C7_8 
REMARK    5  A    between atoms: C7_8  and  C9_10 
REMARK    6  A    between atoms: C17_18  and  C18_19 
REMARK    7  A    between atoms: C18_19  and  O2_21 
REMARK    8  A    between atoms: C18_19  and  C20_22 
REMARK    9  A    between atoms: C20_22  and  O3_23 
REMARK   10  A    between atoms: C21_24  and  C22_25 
REMARK   11  A    between atoms: C22_25  and  C23_26 
REMARK   12  A    between atoms: C23_26  and  C24_27 
REMARK   13  A    between atoms: C24_27  and  O5_29 
ROOT
HETATM    1  C9  UNL     1      -3.221   7.114  14.181  1.00  0.00    -0.002 C 
HETATM    2  C10 UNL     1      -3.314   8.466  13.455  1.00  0.00     0.006 C 
HETATM    3  C11 UNL     1      -1.865   8.985  13.327  1.00  0.00     0.011 C 
HETATM    4  C12 UNL     1      -0.939   7.892  13.933  1.00  0.00    -0.032 C 
HETATM    5  C13 UNL     1      -0.712   8.272  15.436  1.00  0.00     0.016 C 
HETATM    6  C14 UNL     1       0.489   7.770  13.304  1.00  0.00     0.004 C 
HETATM    7  C15 UNL     1       1.163   9.107  13.008  1.00  0.00     0.007 C 
HETATM    8  C16 UNL     1       2.647   8.847  12.796  1.00  0.00     0.009 C 
HETATM    9  C17 UNL     1       2.961   8.036  11.520  1.00  0.00     0.031 C 
HETATM   10  C21 UNL     1       1.925   6.892  11.200  1.00  0.00    -0.025 A 
HETATM   11  C25 UNL     1       1.605   5.768  12.168  1.00  0.00     0.021 A 
HETATM   12  C26 UNL     1       0.604   6.889  12.062  1.00  0.00    -0.027 A 
HETATM   13  C27 UNL     1      -0.710   6.691  11.367  1.00  0.00     0.011 C 
HETATM   14  C28 UNL     1      -1.779   6.097  12.273  1.00  0.00     0.011 C 
HETATM   15  C29 UNL     1      -1.809   6.588  13.751  1.00  0.00    -0.032 C 
HETATM   16  C30 UNL     1      -1.369   5.429  14.663  1.00  0.00     0.016 C 
ENDROOT
BRANCH   1  17
HETATM   17  C7  UNL     1      -4.483   6.203  14.151  1.00  0.00    -0.014 C 
HETATM   18  C8  UNL     1      -4.563   5.173  13.023  1.00  0.00     0.010 C 
BRANCH  17  19
HETATM   19  C6  UNL     1      -5.803   7.023  14.133  1.00  0.00     0.008 C 
BRANCH  19  20
HETATM   20  C5  UNL     1      -6.972   6.362  14.873  1.00  0.00     0.028 C 
BRANCH  20  21
HETATM   21  C4  UNL     1      -7.316   5.031  14.259  1.00  0.00    -0.017 C 
HETATM   22  C2  UNL     1      -8.088   4.814  13.178  1.00  0.00    -0.028 C 
HETATM   23  C1  UNL     1      -8.806   5.834  12.349  1.00  0.00     0.051 C 
BRANCH  22  24
HETATM   24  C3  UNL     1      -8.269   3.397  12.749  1.00  0.00     0.265 C 
HETATM   25  O1  UNL     1      -7.838   2.450  13.397  1.00  0.00    -0.302 OA
ENDBRANCH  22  24
ENDBRANCH  20  21
ENDBRANCH  19  20
ENDBRANCH  17  19
ENDBRANCH   1  17
BRANCH  10  26
HETATM   26  C22 UNL     1       1.822   6.618   9.676  1.00  0.00     0.021 C 
BRANCH  26  27
HETATM   27  C23 UNL     1       1.432   7.760   8.735  1.00  0.00     0.111 C 
BRANCH  27  28
HETATM   28  C24 UNL     1       2.251   7.912   7.486  1.00  0.00     0.139 C 
HETATM   29  O4  UNL     1       2.094   7.271   6.459  1.00  0.00    -0.650 OA
BRANCH  28  30
HETATM   30  O5  UNL     1       3.143   8.915   7.526  1.00  0.00    -0.776 OA
HETATM   31  H39 UNL     1       3.550   8.878   6.633  1.00  0.00     0.167 HD
ENDBRANCH  28  30
ENDBRANCH  27  28
ENDBRANCH  26  27
ENDBRANCH  10  26
BRANCH   9  32
HETATM   32  C18 UNL     1       4.490   7.645  11.463  1.00  0.00     0.080 C 
HETATM   33  C19 UNL     1       4.721   6.388  10.600  1.00  0.00     0.048 C 
BRANCH  32  34
HETATM   34  O2  UNL     1       4.958   7.291  12.781  1.00  0.00    -0.388 OA
HETATM   35  H31 UNL     1       4.443   6.523  13.085  1.00  0.00     0.210 HD
ENDBRANCH  32  34
BRANCH  32  36
HETATM   36  C20 UNL     1       5.434   8.757  10.957  1.00  0.00     0.201 C 
BRANCH  36  37
HETATM   37  O3  UNL     1       6.793   8.338  11.059  1.00  0.00    -0.398 OA
HETATM   38  H34 UNL     1       6.737   7.361  10.972  1.00  0.00     0.209 HD
ENDBRANCH  36  37
ENDBRANCH  32  36
ENDBRANCH   9  32
TORSDOF 13
ENDMDL
MODEL 8
REMARK minimizedAffinity -8.01908875
REMARK  13 active torsions:
REMARK  status: ('A' for Active; 'I' for Inactive)
REMARK    1  A    between atoms: C2_2  and  C3_3 
REMARK    2  A    between atoms: C4_5  and  C5_6 
REMARK    3  A    between atoms: C5_6  and  C6_7 
REMARK    4  A    between atoms: C6_7  and  C7_8 
REMARK    5  A    between atoms: C7_8  and  C9_10 
REMARK    6  A    between atoms: C17_18  and  C18_19 
REMARK    7  A    between atoms: C18_19  and  O2_21 
REMARK    8  A    between atoms: C18_19  and  C20_22 
REMARK    9  A    between atoms: C20_22  and  O3_23 
REMARK   10  A    between atoms: C21_24  and  C22_25 
REMARK   11  A    between atoms: C22_25  and  C23_26 
REMARK   12  A    between atoms: C23_26  and  C24_27 
REMARK   13  A    between atoms: C24_27  and  O5_29 
ROOT
HETATM    1  C9  UNL     1      -5.945   7.168  15.175  1.00  0.00    -0.002 C 
HETATM    2  C10 UNL     1      -6.345   7.746  13.808  1.00  0.00     0.006 C 
HETATM    3  C11 UNL     1      -5.032   8.201  13.134  1.00  0.00     0.011 C 
HETATM    4  C12 UNL     1      -3.874   7.826  14.103  1.00  0.00    -0.032 C 
HETATM    5  C13 UNL     1      -3.600   9.085  14.992  1.00  0.00     0.016 C 
HETATM    6  C14 UNL     1      -2.503   7.468  13.436  1.00  0.00     0.004 C 
HETATM    7  C15 UNL     1      -2.114   8.377  12.273  1.00  0.00     0.007 C 
HETATM    8  C16 UNL     1      -0.629   8.180  12.003  1.00  0.00     0.009 C 
HETATM    9  C17 UNL     1      -0.275   6.781  11.453  1.00  0.00     0.031 C 
HETATM   10  C21 UNL     1      -1.105   5.601  12.087  1.00  0.00    -0.025 A 
HETATM   11  C25 UNL     1      -1.133   5.313  13.577  1.00  0.00     0.021 A 
HETATM   12  C26 UNL     1      -2.329   6.017  12.992  1.00  0.00    -0.027 A 
HETATM   13  C27 UNL     1      -3.635   5.305  12.809  1.00  0.00     0.011 C 
HETATM   14  C28 UNL     1      -4.500   5.318  14.062  1.00  0.00     0.011 C 
HETATM   15  C29 UNL     1      -4.500   6.624  14.911  1.00  0.00    -0.032 C 
HETATM   16  C30 UNL     1      -3.782   6.344  16.243  1.00  0.00     0.016 C 
ENDROOT
BRANCH   1  17
HETATM   17  C7  UNL     1      -7.016   6.329  15.932  1.00  0.00    -0.014 C 
HETATM   18  C8  UNL     1      -7.620   5.142  15.179  1.00  0.00     0.010 C 
BRANCH  17  19
HETATM   19  C6  UNL     1      -8.191   7.202  16.452  1.00  0.00     0.008 C 
BRANCH  19  20
HETATM   20  C5  UNL     1      -9.564   6.827  15.879  1.00  0.00     0.028 C 
BRANCH  20  21
HETATM   21  C4  UNL     1     -10.057   7.881  14.923  1.00  0.00    -0.017 C 
HETATM   22  C2  UNL     1     -11.188   7.847  14.195  1.00  0.00    -0.028 C 
HETATM   23  C1  UNL     1     -12.206   6.751  14.140  1.00  0.00     0.051 C 
BRANCH  22  24
HETATM   24  C3  UNL     1     -11.468   9.027  13.327  1.00  0.00     0.265 C 
HETATM   25  O1  UNL     1     -11.876   8.919  12.176  1.00  0.00    -0.302 OA
ENDBRANCH  22  24
ENDBRANCH  20  21
ENDBRANCH  19  20
ENDBRANCH  17  19
ENDBRANCH   1  17
BRANCH  10  26
HETATM   26  C22 UNL     1      -1.279   4.421  11.095  1.00  0.00     0.021 C 
BRANCH  26  27
HETATM   27  C23 UNL     1      -0.798   3.025  11.500  1.00  0.00     0.111 C 
BRANCH  27  28
HETATM   28  C24 UNL     1      -1.576   1.862  10.955  1.00  0.00     0.139 C 
HETATM   29  O4  UNL     1      -2.693   1.530  11.319  1.00  0.00    -0.650 OA
BRANCH  28  30
HETATM   30  O5  UNL     1      -0.990   1.240   9.919  1.00  0.00    -0.776 OA
HETATM   31  H39 UNL     1      -1.645   0.545   9.686  1.00  0.00     0.167 HD
ENDBRANCH  28  30
ENDBRANCH  27  28
ENDBRANCH  26  27
ENDBRANCH  10  26
BRANCH   9  32
HETATM   32  C18 UNL     1       1.290   6.586  11.375  1.00  0.00     0.080 C 
HETATM   33  C19 UNL     1       1.679   5.570  10.282  1.00  0.00     0.048 C 
BRANCH  32  34
HETATM   34  O2  UNL     1       1.779   6.021  12.609  1.00  0.00    -0.388 OA
HETATM   35  H31 UNL     1       1.355   5.153  12.729  1.00  0.00     0.210 HD
ENDBRANCH  32  34
BRANCH  32  36
HETATM   36  C20 UNL     1       2.102   7.878  11.143  1.00  0.00     0.201 C 
BRANCH  36  37
HETATM   37  O3  UNL     1       1.430   8.726  10.214  1.00  0.00    -0.398 OA
HETATM   38  H34 UNL     1       0.483   8.497  10.341  1.00  0.00     0.209 HD
ENDBRANCH  36  37
ENDBRANCH  32  36
ENDBRANCH   9  32
TORSDOF 13
ENDMDL
MODEL 9
REMARK minimizedAffinity -8.01741982
REMARK  13 active torsions:
REMARK  status: ('A' for Active; 'I' for Inactive)
REMARK    1  A    between atoms: C2_2  and  C3_3 
REMARK    2  A    between atoms: C4_5  and  C5_6 
REMARK    3  A    between atoms: C5_6  and  C6_7 
REMARK    4  A    between atoms: C6_7  and  C7_8 
REMARK    5  A    between atoms: C7_8  and  C9_10 
REMARK    6  A    between atoms: C17_18  and  C18_19 
REMARK    7  A    between atoms: C18_19  and  O2_21 
REMARK    8  A    between atoms: C18_19  and  C20_22 
REMARK    9  A    between atoms: C20_22  and  O3_23 
REMARK   10  A    between atoms: C21_24  and  C22_25 
REMARK   11  A    between atoms: C22_25  and  C23_26 
REMARK   12  A    between atoms: C23_26  and  C24_27 
REMARK   13  A    between atoms: C24_27  and  O5_29 
ROOT
HETATM    1  C9  UNL     1      -6.121   6.918  14.641  1.00  0.00    -0.002 C 
HETATM    2  C10 UNL     1      -6.343   7.589  13.276  1.00  0.00     0.006 C 
HETATM    3  C11 UNL     1      -5.007   8.275  12.912  1.00  0.00     0.011 C 
HETATM    4  C12 UNL     1      -4.004   7.940  14.053  1.00  0.00    -0.032 C 
HETATM    5  C13 UNL     1      -4.077   9.117  15.082  1.00  0.00     0.016 C 
HETATM    6  C14 UNL     1      -2.498   7.830  13.638  1.00  0.00     0.004 C 
HETATM    7  C15 UNL     1      -2.036   8.902  12.655  1.00  0.00     0.007 C 
HETATM    8  C16 UNL     1      -0.515   8.921  12.664  1.00  0.00     0.009 C 
HETATM    9  C17 UNL     1       0.128   7.646  12.077  1.00  0.00     0.031 C 
HETATM   10  C21 UNL     1      -0.627   6.309  12.434  1.00  0.00    -0.025 A 
HETATM   11  C25 UNL     1      -0.884   5.857  13.860  1.00  0.00     0.021 A 
HETATM   12  C26 UNL     1      -2.042   6.470  13.114  1.00  0.00    -0.027 A 
HETATM   13  C27 UNL     1      -3.179   5.626  12.621  1.00  0.00     0.011 C 
HETATM   14  C28 UNL     1      -4.250   5.394  13.677  1.00  0.00     0.011 C 
HETATM   15  C29 UNL     1      -4.589   6.588  14.618  1.00  0.00    -0.032 C 
HETATM   16  C30 UNL     1      -4.093   6.253  16.035  1.00  0.00     0.016 C 
ENDROOT
BRANCH   1  17
HETATM   17  C7  UNL     1      -7.181   5.874  15.100  1.00  0.00    -0.014 C 
HETATM   18  C8  UNL     1      -6.680   4.717  15.964  1.00  0.00     0.010 C 
BRANCH  17  19
HETATM   19  C6  UNL     1      -7.964   5.263  13.904  1.00  0.00     0.008 C 
BRANCH  19  20
HETATM   20  C5  UNL     1      -7.511   3.854  13.502  1.00  0.00     0.028 C 
BRANCH  20  21
HETATM   21  C4  UNL     1      -6.574   3.904  12.325  1.00  0.00    -0.017 C 
HETATM   22  C2  UNL     1      -6.139   2.862  11.593  1.00  0.00    -0.028 C 
HETATM   23  C1  UNL     1      -6.457   1.411  11.789  1.00  0.00     0.051 C 
BRANCH  22  24
HETATM   24  C3  UNL     1      -5.221   3.169  10.458  1.00  0.00     0.265 C 
HETATM   25  O1  UNL     1      -5.594   3.181   9.291  1.00  0.00    -0.302 OA
ENDBRANCH  22  24
ENDBRANCH  20  21
ENDBRANCH  19  20
ENDBRANCH  17  19
ENDBRANCH   1  17
BRANCH  10  26
HETATM   26  C22 UNL     1      -0.449   5.234  11.330  1.00  0.00     0.021 C 
BRANCH  26  27
HETATM   27  C23 UNL     1       0.184   3.888  11.691  1.00  0.00     0.111 C 
BRANCH  27  28
HETATM   28  C24 UNL     1      -0.646   2.664  11.435  1.00  0.00     0.139 C 
HETATM   29  O4  UNL     1      -1.861   2.603  11.540  1.00  0.00    -0.650 OA
BRANCH  28  30
HETATM   30  O5  UNL     1       0.044   1.616  10.955  1.00  0.00    -0.776 OA
HETATM   31  H39 UNL     1      -0.655   0.939  10.824  1.00  0.00     0.167 HD
ENDBRANCH  28  30
ENDBRANCH  27  28
ENDBRANCH  26  27
ENDBRANCH  10  26
BRANCH   9  32
HETATM   32  C18 UNL     1       1.693   7.655  12.288  1.00  0.00     0.080 C 
HETATM   33  C19 UNL     1       2.078   7.116  13.681  1.00  0.00     0.048 C 
BRANCH  32  34
HETATM   34  O2  UNL     1       2.187   9.010  12.256  1.00  0.00    -0.388 OA
HETATM   35  H31 UNL     1       1.763   9.500  12.983  1.00  0.00     0.210 HD
ENDBRANCH  32  34
BRANCH  32  36
HETATM   36  C20 UNL     1       2.503   6.877  11.230  1.00  0.00     0.201 C 
BRANCH  36  37
HETATM   37  O3  UNL     1       3.669   6.306  11.818  1.00  0.00    -0.398 OA
HETATM   38  H34 UNL     1       3.405   6.164  12.754  1.00  0.00     0.209 HD
ENDBRANCH  36  37
ENDBRANCH  32  36
ENDBRANCH   9  32
TORSDOF 13
ENDMDL
