MODEL 1
REMARK minimizedAffinity -8.22086811
REMARK  8 active torsions:
REMARK  status: ('A' for Active; 'I' for Inactive)
REMARK    1  A    between atoms: C5_5  and  C6_6 
REMARK    2  A    between atoms: C6_6  and  O1_9 
REMARK    3  A    between atoms: C14_16  and  C15_17 
REMARK    4  A    between atoms: C16_19  and  O4_20 
REMARK    5  A    between atoms: C17_21  and  C18_22 
REMARK    6  A    between atoms: C19_24  and  O6_25 
REMARK    7  A    between atoms: C21_27  and  C22_28 
REMARK    8  A    between atoms: C22_28  and  C23_29 
ROOT
HETATM    1  C1  UNL     1      -7.369  50.640 -22.422  1.00  0.00     0.019 C 
HETATM    2  C2  UNL     1      -6.647  49.502 -22.426  1.00  0.00    -0.068 C 
HETATM    3  C3  UNL     1      -6.627  48.710 -21.202  1.00  0.00     0.003 C 
HETATM    4  C4  UNL     1      -5.763  47.806 -20.703  1.00  0.00    -0.019 C 
HETATM    5  C5  UNL     1      -4.461  47.258 -21.259  1.00  0.00     0.042 C 
HETATM    6  C9  UNL     1      -3.243  48.147 -20.867  1.00  0.00     0.014 C 
HETATM    7  C10 UNL     1      -3.390  49.671 -21.047  1.00  0.00     0.039 C 
HETATM    8  C11 UNL     1      -3.028  50.312 -22.423  1.00  0.00     0.068 C 
HETATM    9  C12 UNL     1      -3.607  51.754 -22.364  1.00  0.00     0.047 C 
HETATM   10  O2  UNL     1      -1.564  50.437 -22.396  1.00  0.00    -0.338 OA
HETATM   11  C13 UNL     1      -1.096  51.100 -23.512  1.00  0.00     0.095 A 
HETATM   12  C14 UNL     1      -0.225  52.181 -23.368  1.00  0.00     0.070 A 
HETATM   13  C16 UNL     1       0.127  52.930 -24.497  1.00  0.00     0.097 A 
HETATM   14  C17 UNL     1      -0.407  52.591 -25.747  1.00  0.00     0.069 A 
HETATM   15  C19 UNL     1      -1.256  51.470 -25.880  1.00  0.00     0.091 A 
HETATM   16  C20 UNL     1      -1.562  50.679 -24.772  1.00  0.00     0.015 A 
HETATM   17  C21 UNL     1      -2.305  49.362 -24.724  1.00  0.00     0.031 C 
HETATM   18  C26 UNL     1      -3.474  49.474 -23.683  1.00  0.00     0.029 C 
HETATM   19  C27 UNL     1      -4.851  49.847 -24.288  1.00  0.00     0.013 C 
HETATM   20  C28 UNL     1      -6.048  49.038 -23.734  1.00  0.00     0.038 C 
ENDROOT
BRANCH   5  21
HETATM   21  C6  UNL     1      -4.237  45.734 -20.917  1.00  0.00     0.057 C 
HETATM   22  C7  UNL     1      -3.934  45.540 -19.423  1.00  0.00     0.046 C 
HETATM   23  C8  UNL     1      -5.396  44.810 -21.319  1.00  0.00     0.046 C 
BRANCH  21  24
HETATM   24  O1  UNL     1      -3.067  45.296 -21.630  1.00  0.00    -0.390 OA
HETATM   25  H12 UNL     1      -2.914  44.359 -21.422  1.00  0.00     0.210 HD
ENDBRANCH  21  24
ENDBRANCH   5  21
BRANCH  17  26
HETATM   26  C22 UNL     1      -2.672  48.569 -26.007  1.00  0.00     0.014 C 
BRANCH  26  27
HETATM   27  C23 UNL     1      -3.947  49.018 -26.769  1.00  0.00    -0.022 C 
HETATM   28  C24 UNL     1      -4.990  47.897 -26.854  1.00  0.00     0.009 C 
HETATM   29  C25 UNL     1      -3.691  49.600 -28.155  1.00  0.00     0.009 C 
ENDBRANCH  26  27
ENDBRANCH  17  26
BRANCH  12  30
HETATM   30  C15 UNL     1       0.279  52.537 -22.029  1.00  0.00     0.275 C 
HETATM   31  O3  UNL     1       1.286  51.990 -21.585  1.00  0.00    -0.301 OA
ENDBRANCH  12  30
BRANCH  13  32
HETATM   32  O4  UNL     1       0.968  54.012 -24.410  1.00  0.00    -0.359 OA
HETATM   33  H21 UNL     1       1.246  54.123 -23.469  1.00  0.00     0.217 HD
ENDBRANCH  13  32
BRANCH  15  34
HETATM   34  O6  UNL     1      -1.812  51.149 -27.086  1.00  0.00    -0.359 OA
HETATM   35  H23 UNL     1      -1.513  51.798 -27.764  1.00  0.00     0.217 HD
ENDBRANCH  15  34
BRANCH  14  36
HETATM   36  C18 UNL     1      -0.067  53.422 -26.922  1.00  0.00     0.275 C 
HETATM   37  O5  UNL     1      -0.952  53.969 -27.576  1.00  0.00    -0.301 OA
ENDBRANCH  14  36
TORSDOF 8
ENDMDL
MODEL 2
REMARK minimizedAffinity -8.1641016
REMARK  8 active torsions:
REMARK  status: ('A' for Active; 'I' for Inactive)
REMARK    1  A    between atoms: C5_5  and  C6_6 
REMARK    2  A    between atoms: C6_6  and  O1_9 
REMARK    3  A    between atoms: C14_16  and  C15_17 
REMARK    4  A    between atoms: C16_19  and  O4_20 
REMARK    5  A    between atoms: C17_21  and  C18_22 
REMARK    6  A    between atoms: C19_24  and  O6_25 
REMARK    7  A    between atoms: C21_27  and  C22_28 
REMARK    8  A    between atoms: C22_28  and  C23_29 
ROOT
HETATM    1  C1  UNL     1      -7.171  50.213 -19.917  1.00  0.00     0.019 C 
HETATM    2  C2  UNL     1      -6.420  49.095 -19.887  1.00  0.00    -0.068 C 
HETATM    3  C3  UNL     1      -6.362  48.352 -18.634  1.00  0.00     0.003 C 
HETATM    4  C4  UNL     1      -5.469  47.489 -18.113  1.00  0.00    -0.019 C 
HETATM    5  C5  UNL     1      -4.161  46.954 -18.667  1.00  0.00     0.042 C 
HETATM    6  C9  UNL     1      -2.961  47.887 -18.328  1.00  0.00     0.014 C 
HETATM    7  C10 UNL     1      -3.150  49.399 -18.564  1.00  0.00     0.039 C 
HETATM    8  C11 UNL     1      -2.823  49.995 -19.969  1.00  0.00     0.068 C 
HETATM    9  C12 UNL     1      -3.439  51.423 -19.957  1.00  0.00     0.047 C 
HETATM   10  O2  UNL     1      -1.363  50.158 -19.969  1.00  0.00    -0.338 OA
HETATM   11  C13 UNL     1      -0.928  50.788 -21.117  1.00  0.00     0.095 A 
HETATM   12  C14 UNL     1      -0.083  51.896 -21.026  1.00  0.00     0.070 A 
HETATM   13  C16 UNL     1       0.235  52.609 -22.189  1.00  0.00     0.097 A 
HETATM   14  C17 UNL     1      -0.308  52.208 -23.416  1.00  0.00     0.069 A 
HETATM   15  C19 UNL     1      -1.129  51.062 -23.494  1.00  0.00     0.091 A 
HETATM   16  C20 UNL     1      -1.400  50.307 -22.352  1.00  0.00     0.015 A 
HETATM   17  C21 UNL     1      -2.108  48.975 -22.243  1.00  0.00     0.031 C 
HETATM   18  C26 UNL     1      -3.265  49.098 -21.189  1.00  0.00     0.029 C 
HETATM   19  C27 UNL     1      -4.659  49.412 -21.787  1.00  0.00     0.013 C 
HETATM   20  C28 UNL     1      -5.827  48.596 -21.185  1.00  0.00     0.038 C 
ENDROOT
BRANCH   5  21
HETATM   21  C6  UNL     1      -3.894  45.450 -18.270  1.00  0.00     0.057 C 
HETATM   22  C7  UNL     1      -4.911  44.964 -17.225  1.00  0.00     0.046 C 
HETATM   23  C8  UNL     1      -3.878  44.469 -19.451  1.00  0.00     0.046 C 
BRANCH  21  24
HETATM   24  O1  UNL     1      -2.602  45.390 -17.639  1.00  0.00    -0.390 OA
HETATM   25  H12 UNL     1      -2.429  44.468 -17.384  1.00  0.00     0.210 HD
ENDBRANCH  21  24
ENDBRANCH   5  21
BRANCH  17  26
HETATM   26  C22 UNL     1      -2.473  48.123 -23.488  1.00  0.00     0.014 C 
BRANCH  26  27
HETATM   27  C23 UNL     1      -3.352  48.803 -24.570  1.00  0.00    -0.022 C 
HETATM   28  C24 UNL     1      -4.816  48.356 -24.485  1.00  0.00     0.009 C 
HETATM   29  C25 UNL     1      -2.840  48.649 -25.999  1.00  0.00     0.009 C 
ENDBRANCH  26  27
ENDBRANCH  17  26
BRANCH  12  30
HETATM   30  C15 UNL     1       0.430  52.316 -19.710  1.00  0.00     0.275 C 
HETATM   31  O3  UNL     1       0.082  53.391 -19.227  1.00  0.00    -0.301 OA
ENDBRANCH  12  30
BRANCH  13  32
HETATM   32  O4  UNL     1       1.048  53.715 -22.156  1.00  0.00    -0.359 OA
HETATM   33  H21 UNL     1       1.336  53.869 -21.225  1.00  0.00     0.217 HD
ENDBRANCH  13  32
BRANCH  15  34
HETATM   34  O6  UNL     1      -1.694  50.681 -24.678  1.00  0.00    -0.359 OA
HETATM   35  H23 UNL     1      -1.421  51.310 -25.386  1.00  0.00     0.217 HD
ENDBRANCH  15  34
BRANCH  14  36
HETATM   36  C18 UNL     1      -0.006  53.001 -24.628  1.00  0.00     0.275 C 
HETATM   37  O5  UNL     1       1.141  53.058 -25.066  1.00  0.00    -0.301 OA
ENDBRANCH  14  36
TORSDOF 8
ENDMDL
MODEL 3
REMARK minimizedAffinity -7.57543135
REMARK  8 active torsions:
REMARK  status: ('A' for Active; 'I' for Inactive)
REMARK    1  A    between atoms: C5_5  and  C6_6 
REMARK    2  A    between atoms: C6_6  and  O1_9 
REMARK    3  A    between atoms: C14_16  and  C15_17 
REMARK    4  A    between atoms: C16_19  and  O4_20 
REMARK    5  A    between atoms: C17_21  and  C18_22 
REMARK    6  A    between atoms: C19_24  and  O6_25 
REMARK    7  A    between atoms: C21_27  and  C22_28 
REMARK    8  A    between atoms: C22_28  and  C23_29 
ROOT
HETATM    1  C1  UNL     1      -7.093  50.295 -19.900  1.00  0.00     0.019 C 
HETATM    2  C2  UNL     1      -6.385  49.212 -20.276  1.00  0.00    -0.068 C 
HETATM    3  C3  UNL     1      -6.624  47.965 -19.559  1.00  0.00     0.003 C 
HETATM    4  C4  UNL     1      -5.885  46.857 -19.365  1.00  0.00    -0.019 C 
HETATM    5  C5  UNL     1      -4.493  46.490 -19.846  1.00  0.00     0.042 C 
HETATM    6  C9  UNL     1      -3.389  46.997 -18.871  1.00  0.00     0.014 C 
HETATM    7  C10 UNL     1      -3.497  48.451 -18.372  1.00  0.00     0.039 C 
HETATM    8  C11 UNL     1      -2.851  49.595 -19.215  1.00  0.00     0.068 C 
HETATM    9  C12 UNL     1      -3.433  50.912 -18.628  1.00  0.00     0.047 C 
HETATM   10  O2  UNL     1      -1.427  49.557 -18.855  1.00  0.00    -0.338 OA
HETATM   11  C13 UNL     1      -0.733  50.596 -19.442  1.00  0.00     0.095 A 
HETATM   12  C14 UNL     1       0.084  51.416 -18.663  1.00  0.00     0.070 A 
HETATM   13  C16 UNL     1       0.668  52.548 -19.245  1.00  0.00     0.097 A 
HETATM   14  C17 UNL     1       0.414  52.844 -20.590  1.00  0.00     0.069 A 
HETATM   15  C19 UNL     1      -0.384  51.981 -21.372  1.00  0.00     0.091 A 
HETATM   16  C20 UNL     1      -0.918  50.816 -20.820  1.00  0.00     0.015 A 
HETATM   17  C21 UNL     1      -1.652  49.689 -21.512  1.00  0.00     0.031 C 
HETATM   18  C26 UNL     1      -3.016  49.441 -20.776  1.00  0.00     0.029 C 
HETATM   19  C27 UNL     1      -4.233  50.169 -21.401  1.00  0.00     0.013 C 
HETATM   20  C28 UNL     1      -5.519  49.316 -21.511  1.00  0.00     0.038 C 
ENDROOT
BRANCH   5  21
HETATM   21  C6  UNL     1      -4.344  44.957 -20.190  1.00  0.00     0.057 C 
HETATM   22  C7  UNL     1      -3.868  44.159 -18.965  1.00  0.00     0.046 C 
HETATM   23  C8  UNL     1      -5.611  44.301 -20.756  1.00  0.00     0.046 C 
BRANCH  21  24
HETATM   24  O1  UNL     1      -3.311  44.832 -21.183  1.00  0.00    -0.390 OA
HETATM   25  H12 UNL     1      -3.204  43.890 -21.398  1.00  0.00     0.210 HD
ENDBRANCH  21  24
ENDBRANCH   5  21
BRANCH  17  26
HETATM   26  C22 UNL     1      -1.735  49.578 -23.058  1.00  0.00     0.014 C 
BRANCH  26  27
HETATM   27  C23 UNL     1      -2.086  50.872 -23.836  1.00  0.00    -0.022 C 
HETATM   28  C24 UNL     1      -3.577  50.945 -24.188  1.00  0.00     0.009 C 
HETATM   29  C25 UNL     1      -1.242  51.117 -25.083  1.00  0.00     0.009 C 
ENDBRANCH  26  27
ENDBRANCH  17  26
BRANCH  12  30
HETATM   30  C15 UNL     1       0.290  51.099 -17.239  1.00  0.00     0.275 C 
HETATM   31  O3  UNL     1       0.377  49.928 -16.875  1.00  0.00    -0.301 OA
ENDBRANCH  12  30
BRANCH  13  32
HETATM   32  O4  UNL     1       1.469  53.398 -18.521  1.00  0.00    -0.359 OA
HETATM   33  H21 UNL     1       1.539  53.057 -17.598  1.00  0.00     0.217 HD
ENDBRANCH  13  32
BRANCH  15  34
HETATM   34  O6  UNL     1      -0.669  52.276 -22.676  1.00  0.00    -0.359 OA
HETATM   35  H23 UNL     1      -0.234  53.126 -22.919  1.00  0.00     0.217 HD
ENDBRANCH  15  34
BRANCH  14  36
HETATM   36  C18 UNL     1       0.995  54.071 -21.177  1.00  0.00     0.275 C 
HETATM   37  O5  UNL     1       2.207  54.271 -21.131  1.00  0.00    -0.301 OA
ENDBRANCH  14  36
TORSDOF 8
ENDMDL
MODEL 4
REMARK minimizedAffinity -7.47229624
REMARK  8 active torsions:
REMARK  status: ('A' for Active; 'I' for Inactive)
REMARK    1  A    between atoms: C5_5  and  C6_6 
REMARK    2  A    between atoms: C6_6  and  O1_9 
REMARK    3  A    between atoms: C14_16  and  C15_17 
REMARK    4  A    between atoms: C16_19  and  O4_20 
REMARK    5  A    between atoms: C17_21  and  C18_22 
REMARK    6  A    between atoms: C19_24  and  O6_25 
REMARK    7  A    between atoms: C21_27  and  C22_28 
REMARK    8  A    between atoms: C22_28  and  C23_29 
ROOT
HETATM    1  C1  UNL     1      -3.875  44.963 -20.683  1.00  0.00     0.019 C 
HETATM    2  C2  UNL     1      -4.605  45.806 -19.928  1.00  0.00    -0.068 C 
HETATM    3  C3  UNL     1      -6.050  45.617 -19.907  1.00  0.00     0.003 C 
HETATM    4  C4  UNL     1      -7.084  46.435 -19.635  1.00  0.00    -0.019 C 
HETATM    5  C5  UNL     1      -7.117  47.898 -19.229  1.00  0.00     0.042 C 
HETATM    6  C9  UNL     1      -7.121  48.844 -20.466  1.00  0.00     0.014 C 
HETATM    7  C10 UNL     1      -6.109  48.547 -21.590  1.00  0.00     0.039 C 
HETATM    8  C11 UNL     1      -4.677  49.162 -21.506  1.00  0.00     0.068 C 
HETATM    9  C12 UNL     1      -3.844  48.400 -22.575  1.00  0.00     0.047 C 
HETATM   10  O2  UNL     1      -4.839  50.540 -21.990  1.00  0.00    -0.338 OA
HETATM   11  C13 UNL     1      -3.624  51.186 -22.083  1.00  0.00     0.095 A 
HETATM   12  C14 UNL     1      -3.269  51.838 -23.265  1.00  0.00     0.070 A 
HETATM   13  C16 UNL     1      -1.978  52.366 -23.392  1.00  0.00     0.097 A 
HETATM   14  C17 UNL     1      -1.064  52.220 -22.341  1.00  0.00     0.069 A 
HETATM   15  C19 UNL     1      -1.453  51.592 -21.138  1.00  0.00     0.091 A 
HETATM   16  C20 UNL     1      -2.756  51.120 -20.976  1.00  0.00     0.015 A 
HETATM   17  C21 UNL     1      -3.418  50.571 -19.731  1.00  0.00     0.031 C 
HETATM   18  C26 UNL     1      -4.043  49.170 -20.061  1.00  0.00     0.029 C 
HETATM   19  C27 UNL     1      -3.144  47.958 -19.712  1.00  0.00     0.013 C 
HETATM   20  C28 UNL     1      -3.874  46.777 -19.029  1.00  0.00     0.038 C 
ENDROOT
BRANCH   5  21
HETATM   21  C6  UNL     1      -8.273  48.227 -18.206  1.00  0.00     0.057 C 
HETATM   22  C7  UNL     1      -8.780  49.667 -18.389  1.00  0.00     0.046 C 
HETATM   23  C8  UNL     1      -9.467  47.264 -18.256  1.00  0.00     0.046 C 
BRANCH  21  24
HETATM   24  O1  UNL     1      -7.715  48.158 -16.882  1.00  0.00    -0.390 OA
HETATM   25  H12 UNL     1      -8.417  48.366 -16.242  1.00  0.00     0.210 HD
ENDBRANCH  21  24
ENDBRANCH   5  21
BRANCH  17  26
HETATM   26  C22 UNL     1      -2.752  50.655 -18.332  1.00  0.00     0.014 C 
BRANCH  26  27
HETATM   27  C23 UNL     1      -1.425  49.876 -18.138  1.00  0.00    -0.022 C 
HETATM   28  C24 UNL     1      -1.553  48.778 -17.075  1.00  0.00     0.009 C 
HETATM   29  C25 UNL     1      -0.208  50.747 -17.845  1.00  0.00     0.009 C 
ENDBRANCH  26  27
ENDBRANCH  17  26
BRANCH  12  30
HETATM   30  C15 UNL     1      -4.242  51.930 -24.367  1.00  0.00     0.275 C 
HETATM   31  O3  UNL     1      -3.946  51.518 -25.487  1.00  0.00    -0.301 OA
ENDBRANCH  12  30
BRANCH  13  32
HETATM   32  O4  UNL     1      -1.571  53.004 -24.538  1.00  0.00    -0.359 OA
HETATM   33  H21 UNL     1      -2.321  53.014 -25.179  1.00  0.00     0.217 HD
ENDBRANCH  13  32
BRANCH  15  34
HETATM   34  O6  UNL     1      -0.562  51.412 -20.118  1.00  0.00    -0.359 OA
HETATM   35  H23 UNL     1       0.311  51.786 -20.381  1.00  0.00     0.217 HD
ENDBRANCH  15  34
BRANCH  14  36
HETATM   36  C18 UNL     1       0.312  52.737 -22.509  1.00  0.00     0.275 C 
HETATM   37  O5  UNL     1       0.813  53.466 -21.656  1.00  0.00    -0.301 OA
ENDBRANCH  14  36
TORSDOF 8
ENDMDL
MODEL 5
REMARK minimizedAffinity -7.45270777
REMARK  8 active torsions:
REMARK  status: ('A' for Active; 'I' for Inactive)
REMARK    1  A    between atoms: C5_5  and  C6_6 
REMARK    2  A    between atoms: C6_6  and  O1_9 
REMARK    3  A    between atoms: C14_16  and  C15_17 
REMARK    4  A    between atoms: C16_19  and  O4_20 
REMARK    5  A    between atoms: C17_21  and  C18_22 
REMARK    6  A    between atoms: C19_24  and  O6_25 
REMARK    7  A    between atoms: C21_27  and  C22_28 
REMARK    8  A    between atoms: C22_28  and  C23_29 
ROOT
HETATM    1  C1  UNL     1      -8.503  48.978 -19.082  1.00  0.00     0.019 C 
HETATM    2  C2  UNL     1      -8.289  47.960 -19.938  1.00  0.00    -0.068 C 
HETATM    3  C3  UNL     1      -8.271  46.608 -19.392  1.00  0.00     0.003 C 
HETATM    4  C4  UNL     1      -7.721  45.452 -19.808  1.00  0.00    -0.019 C 
HETATM    5  C5  UNL     1      -6.901  45.127 -21.043  1.00  0.00     0.042 C 
HETATM    6  C9  UNL     1      -5.382  45.385 -20.817  1.00  0.00     0.014 C 
HETATM    7  C10 UNL     1      -4.980  46.717 -20.153  1.00  0.00     0.039 C 
HETATM    8  C11 UNL     1      -4.751  47.975 -21.048  1.00  0.00     0.068 C 
HETATM    9  C12 UNL     1      -4.708  49.175 -20.060  1.00  0.00     0.047 C 
HETATM   10  O2  UNL     1      -3.390  47.806 -21.577  1.00  0.00    -0.338 OA
HETATM   11  C13 UNL     1      -2.994  48.908 -22.306  1.00  0.00     0.095 A 
HETATM   12  C14 UNL     1      -1.772  49.524 -22.031  1.00  0.00     0.070 A 
HETATM   13  C16 UNL     1      -1.450  50.722 -22.682  1.00  0.00     0.097 A 
HETATM   14  C17 UNL     1      -2.361  51.286 -23.584  1.00  0.00     0.069 A 
HETATM   15  C19 UNL     1      -3.574  50.629 -23.878  1.00  0.00     0.091 A 
HETATM   16  C20 UNL     1      -3.877  49.402 -23.285  1.00  0.00     0.015 A 
HETATM   17  C21 UNL     1      -5.027  48.464 -23.579  1.00  0.00     0.031 C 
HETATM   18  C26 UNL     1      -5.774  48.137 -22.238  1.00  0.00     0.029 C 
HETATM   19  C27 UNL     1      -7.010  49.025 -21.948  1.00  0.00     0.013 C 
HETATM   20  C28 UNL     1      -8.249  48.266 -21.418  1.00  0.00     0.038 C 
ENDROOT
BRANCH   5  21
HETATM   21  C6  UNL     1      -7.195  43.686 -21.616  1.00  0.00     0.057 C 
HETATM   22  C7  UNL     1      -7.656  42.731 -20.502  1.00  0.00     0.046 C 
HETATM   23  C8  UNL     1      -8.212  43.648 -22.765  1.00  0.00     0.046 C 
BRANCH  21  24
HETATM   24  O1  UNL     1      -5.955  43.156 -22.117  1.00  0.00    -0.390 OA
HETATM   25  H12 UNL     1      -6.121  42.264 -22.467  1.00  0.00     0.210 HD
ENDBRANCH  21  24
ENDBRANCH   5  21
BRANCH  17  26
HETATM   26  C22 UNL     1      -5.968  48.662 -24.797  1.00  0.00     0.014 C 
BRANCH  26  27
HETATM   27  C23 UNL     1      -5.656  47.828 -26.067  1.00  0.00    -0.022 C 
HETATM   28  C24 UNL     1      -4.493  48.421 -26.872  1.00  0.00     0.009 C 
HETATM   29  C25 UNL     1      -6.852  47.582 -26.981  1.00  0.00     0.009 C 
ENDBRANCH  26  27
ENDBRANCH  17  26
BRANCH  12  30
HETATM   30  C15 UNL     1      -0.860  48.926 -21.040  1.00  0.00     0.275 C 
HETATM   31  O3  UNL     1      -0.625  47.720 -21.069  1.00  0.00    -0.301 OA
ENDBRANCH  12  30
BRANCH  13  32
HETATM   32  O4  UNL     1      -0.269  51.378 -22.438  1.00  0.00    -0.359 OA
HETATM   33  H21 UNL     1       0.251  50.861 -21.777  1.00  0.00     0.217 HD
ENDBRANCH  13  32
BRANCH  15  34
HETATM   34  O6  UNL     1      -4.487  51.185 -24.729  1.00  0.00    -0.359 OA
HETATM   35  H23 UNL     1      -4.140  52.046 -25.059  1.00  0.00     0.217 HD
ENDBRANCH  15  34
BRANCH  14  36
HETATM   36  C18 UNL     1      -2.030  52.578 -24.224  1.00  0.00     0.275 C 
HETATM   37  O5  UNL     1      -2.172  52.728 -25.435  1.00  0.00    -0.301 OA
ENDBRANCH  14  36
TORSDOF 8
ENDMDL
MODEL 6
REMARK minimizedAffinity -7.40906858
REMARK  8 active torsions:
REMARK  status: ('A' for Active; 'I' for Inactive)
REMARK    1  A    between atoms: C5_5  and  C6_6 
REMARK    2  A    between atoms: C6_6  and  O1_9 
REMARK    3  A    between atoms: C14_16  and  C15_17 
REMARK    4  A    between atoms: C16_19  and  O4_20 
REMARK    5  A    between atoms: C17_21  and  C18_22 
REMARK    6  A    between atoms: C19_24  and  O6_25 
REMARK    7  A    between atoms: C21_27  and  C22_28 
REMARK    8  A    between atoms: C22_28  and  C23_29 
ROOT
HETATM    1  C1  UNL     1       3.218  49.681  -8.725  1.00  0.00     0.019 C 
HETATM    2  C2  UNL     1       3.595  50.809  -9.358  1.00  0.00    -0.068 C 
HETATM    3  C3  UNL     1       3.725  52.021  -8.559  1.00  0.00     0.003 C 
HETATM    4  C4  UNL     1       3.675  53.333  -8.858  1.00  0.00    -0.019 C 
HETATM    5  C5  UNL     1       3.468  54.046 -10.182  1.00  0.00     0.042 C 
HETATM    6  C9  UNL     1       1.957  54.254 -10.499  1.00  0.00     0.014 C 
HETATM    7  C10 UNL     1       1.019  53.047 -10.304  1.00  0.00     0.039 C 
HETATM    8  C11 UNL     1       0.815  52.043 -11.481  1.00  0.00     0.068 C 
HETATM    9  C12 UNL     1       0.116  50.808 -10.846  1.00  0.00     0.047 C 
HETATM   10  O2  UNL     1      -0.172  52.694 -12.353  1.00  0.00    -0.338 OA
HETATM   11  C13 UNL     1      -0.545  51.869 -13.394  1.00  0.00     0.095 A 
HETATM   12  C14 UNL     1      -1.897  51.640 -13.654  1.00  0.00     0.070 A 
HETATM   13  C16 UNL     1      -2.256  50.693 -14.620  1.00  0.00     0.097 A 
HETATM   14  C17 UNL     1      -1.257  49.983 -15.298  1.00  0.00     0.069 A 
HETATM   15  C19 UNL     1       0.106  50.255 -15.050  1.00  0.00     0.091 A 
HETATM   16  C20 UNL     1       0.475  51.243 -14.136  1.00  0.00     0.015 A 
HETATM   17  C21 UNL     1       1.852  51.799 -13.846  1.00  0.00     0.031 C 
HETATM   18  C26 UNL     1       2.121  51.711 -12.302  1.00  0.00     0.029 C 
HETATM   19  C27 UNL     1       2.901  50.451 -11.848  1.00  0.00     0.013 C 
HETATM   20  C28 UNL     1       4.014  50.711 -10.807  1.00  0.00     0.038 C 
ENDROOT
BRANCH   5  21
HETATM   21  C6  UNL     1       4.304  55.379 -10.302  1.00  0.00     0.057 C 
HETATM   22  C7  UNL     1       3.662  56.511  -9.482  1.00  0.00     0.046 C 
HETATM   23  C8  UNL     1       5.781  55.247  -9.906  1.00  0.00     0.046 C 
BRANCH  21  24
HETATM   24  O1  UNL     1       4.259  55.798 -11.677  1.00  0.00    -0.390 OA
HETATM   25  H12 UNL     1       4.766  56.624 -11.762  1.00  0.00     0.210 HD
ENDBRANCH  21  24
ENDBRANCH   5  21
BRANCH  17  26
HETATM   26  C22 UNL     1       3.085  51.463 -14.725  1.00  0.00     0.014 C 
BRANCH  26  27
HETATM   27  C23 UNL     1       3.502  52.520 -15.782  1.00  0.00    -0.022 C 
HETATM   28  C24 UNL     1       2.437  52.693 -16.871  1.00  0.00     0.009 C 
HETATM   29  C25 UNL     1       4.868  52.283 -16.418  1.00  0.00     0.009 C 
ENDBRANCH  26  27
ENDBRANCH  17  26
BRANCH  12  30
HETATM   30  C15 UNL     1      -2.920  52.372 -12.886  1.00  0.00     0.275 C 
HETATM   31  O3  UNL     1      -3.840  52.940 -13.471  1.00  0.00    -0.301 OA
ENDBRANCH  12  30
BRANCH  13  32
HETATM   32  O4  UNL     1      -3.571  50.418 -14.905  1.00  0.00    -0.359 OA
HETATM   33  H21 UNL     1      -4.144  50.989 -14.340  1.00  0.00     0.217 HD
ENDBRANCH  13  32
BRANCH  15  34
HETATM   34  O6  UNL     1       1.090  49.546 -15.678  1.00  0.00    -0.359 OA
HETATM   35  H23 UNL     1       0.679  48.884 -16.281  1.00  0.00     0.217 HD
ENDBRANCH  15  34
BRANCH  14  36
HETATM   36  C18 UNL     1      -1.652  48.948 -16.278  1.00  0.00     0.275 C 
HETATM   37  O5  UNL     1      -1.561  49.165 -17.485  1.00  0.00    -0.301 OA
ENDBRANCH  14  36
TORSDOF 8
ENDMDL
MODEL 7
REMARK minimizedAffinity -7.22668552
REMARK  8 active torsions:
REMARK  status: ('A' for Active; 'I' for Inactive)
REMARK    1  A    between atoms: C5_5  and  C6_6 
REMARK    2  A    between atoms: C6_6  and  O1_9 
REMARK    3  A    between atoms: C14_16  and  C15_17 
REMARK    4  A    between atoms: C16_19  and  O4_20 
REMARK    5  A    between atoms: C17_21  and  C18_22 
REMARK    6  A    between atoms: C19_24  and  O6_25 
REMARK    7  A    between atoms: C21_27  and  C22_28 
REMARK    8  A    between atoms: C22_28  and  C23_29 
ROOT
HETATM    1  C1  UNL     1       3.455  70.245 -35.291  1.00  0.00     0.019 C 
HETATM    2  C2  UNL     1       3.173  69.641 -36.461  1.00  0.00    -0.068 C 
HETATM    3  C3  UNL     1       1.776  69.334 -36.744  1.00  0.00     0.003 C 
HETATM    4  C4  UNL     1       1.173  68.435 -37.545  1.00  0.00    -0.019 C 
HETATM    5  C5  UNL     1       1.751  67.389 -38.480  1.00  0.00     0.042 C 
HETATM    6  C9  UNL     1       2.038  66.047 -37.744  1.00  0.00     0.014 C 
HETATM    7  C10 UNL     1       2.771  66.124 -36.390  1.00  0.00     0.039 C 
HETATM    8  C11 UNL     1       4.331  66.119 -36.368  1.00  0.00     0.068 C 
HETATM    9  C12 UNL     1       4.719  66.549 -34.924  1.00  0.00     0.047 C 
HETATM   10  O2  UNL     1       4.697  64.703 -36.506  1.00  0.00    -0.338 OA
HETATM   11  C13 UNL     1       6.060  64.522 -36.390  1.00  0.00     0.095 A 
HETATM   12  C14 UNL     1       6.563  63.567 -35.504  1.00  0.00     0.070 A 
HETATM   13  C16 UNL     1       7.946  63.494 -35.294  1.00  0.00     0.097 A 
HETATM   14  C17 UNL     1       8.796  64.384 -35.961  1.00  0.00     0.069 A 
HETATM   15  C19 UNL     1       8.272  65.317 -36.882  1.00  0.00     0.091 A 
HETATM   16  C20 UNL     1       6.903  65.355 -37.149  1.00  0.00     0.015 A 
HETATM   17  C21 UNL     1       6.164  66.151 -38.202  1.00  0.00     0.031 C 
HETATM   18  C26 UNL     1       5.013  66.965 -37.512  1.00  0.00     0.029 C 
HETATM   19  C27 UNL     1       5.379  68.425 -37.144  1.00  0.00     0.013 C 
HETATM   20  C28 UNL     1       4.288  69.474 -37.468  1.00  0.00     0.038 C 
ENDROOT
BRANCH   5  21
HETATM   21  C6  UNL     1       0.893  67.192 -39.790  1.00  0.00     0.057 C 
HETATM   22  C7  UNL     1      -0.196  68.272 -39.906  1.00  0.00     0.046 C 
HETATM   23  C8  UNL     1       1.708  67.157 -41.091  1.00  0.00     0.046 C 
BRANCH  21  24
HETATM   24  O1  UNL     1       0.205  65.934 -39.675  1.00  0.00    -0.390 OA
HETATM   25  H12 UNL     1      -0.333  65.804 -40.474  1.00  0.00     0.210 HD
ENDBRANCH  21  24
ENDBRANCH   5  21
BRANCH  17  26
HETATM   26  C22 UNL     1       6.901  66.925 -39.327  1.00  0.00     0.014 C 
BRANCH  26  27
HETATM   27  C23 UNL     1       8.083  67.831 -38.897  1.00  0.00    -0.022 C 
HETATM   28  C24 UNL     1       7.693  68.783 -37.759  1.00  0.00     0.009 C 
HETATM   29  C25 UNL     1       8.736  68.614 -40.032  1.00  0.00     0.009 C 
ENDBRANCH  26  27
ENDBRANCH  17  26
BRANCH  12  30
HETATM   30  C15 UNL     1       5.634  62.679 -34.783  1.00  0.00     0.275 C 
HETATM   31  O3  UNL     1       4.912  63.131 -33.898  1.00  0.00    -0.301 OA
ENDBRANCH  12  30
BRANCH  13  32
HETATM   32  O4  UNL     1       8.494  62.585 -34.423  1.00  0.00    -0.359 OA
HETATM   33  H21 UNL     1       7.767  62.044 -34.030  1.00  0.00     0.217 HD
ENDBRANCH  13  32
BRANCH  15  34
HETATM   34  O6  UNL     1       9.086  66.215 -37.514  1.00  0.00    -0.359 OA
HETATM   35  H23 UNL     1      10.015  66.072 -37.221  1.00  0.00     0.217 HD
ENDBRANCH  15  34
BRANCH  14  36
HETATM   36  C18 UNL     1      10.249  64.330 -35.689  1.00  0.00     0.275 C 
HETATM   37  O5  UNL     1      11.054  64.257 -36.615  1.00  0.00    -0.301 OA
ENDBRANCH  14  36
TORSDOF 8
ENDMDL
MODEL 8
REMARK minimizedAffinity -6.94748592
REMARK  8 active torsions:
REMARK  status: ('A' for Active; 'I' for Inactive)
REMARK    1  A    between atoms: C5_5  and  C6_6 
REMARK    2  A    between atoms: C6_6  and  O1_9 
REMARK    3  A    between atoms: C14_16  and  C15_17 
REMARK    4  A    between atoms: C16_19  and  O4_20 
REMARK    5  A    between atoms: C17_21  and  C18_22 
REMARK    6  A    between atoms: C19_24  and  O6_25 
REMARK    7  A    between atoms: C21_27  and  C22_28 
REMARK    8  A    between atoms: C22_28  and  C23_29 
ROOT
HETATM    1  C1  UNL     1      -5.223  44.736 -21.421  1.00  0.00     0.019 C 
HETATM    2  C2  UNL     1      -5.689  45.532 -20.439  1.00  0.00    -0.068 C 
HETATM    3  C3  UNL     1      -7.134  45.607 -20.258  1.00  0.00     0.003 C 
HETATM    4  C4  UNL     1      -7.948  46.529 -19.711  1.00  0.00    -0.019 C 
HETATM    5  C5  UNL     1      -7.644  47.864 -19.056  1.00  0.00     0.042 C 
HETATM    6  C9  UNL     1      -7.579  49.020 -20.098  1.00  0.00     0.014 C 
HETATM    7  C10 UNL     1      -6.763  48.772 -21.382  1.00  0.00     0.039 C 
HETATM    8  C11 UNL     1      -5.235  49.089 -21.386  1.00  0.00     0.068 C 
HETATM    9  C12 UNL     1      -4.683  48.415 -22.674  1.00  0.00     0.047 C 
HETATM   10  O2  UNL     1      -5.162  50.542 -21.597  1.00  0.00    -0.338 OA
HETATM   11  C13 UNL     1      -3.856  50.964 -21.739  1.00  0.00     0.095 A 
HETATM   12  C14 UNL     1      -3.494  51.760 -22.827  1.00  0.00     0.070 A 
HETATM   13  C16 UNL     1      -2.142  52.062 -23.033  1.00  0.00     0.097 A 
HETATM   14  C17 UNL     1      -1.178  51.550 -22.156  1.00  0.00     0.069 A 
HETATM   15  C19 UNL     1      -1.566  50.778 -21.039  1.00  0.00     0.091 A 
HETATM   16  C20 UNL     1      -2.915  50.526 -20.788  1.00  0.00     0.015 A 
HETATM   17  C21 UNL     1      -3.548  49.872 -19.579  1.00  0.00     0.031 C 
HETATM   18  C26 UNL     1      -4.474  48.699 -20.061  1.00  0.00     0.029 C 
HETATM   19  C27 UNL     1      -3.808  47.300 -20.052  1.00  0.00     0.013 C 
HETATM   20  C28 UNL     1      -4.692  46.160 -19.492  1.00  0.00     0.038 C 
ENDROOT
BRANCH   5  21
HETATM   21  C6  UNL     1      -8.603  48.189 -17.845  1.00  0.00     0.057 C 
HETATM   22  C7  UNL     1      -8.930  49.690 -17.786  1.00  0.00     0.046 C 
HETATM   23  C8  UNL     1      -9.913  47.388 -17.832  1.00  0.00     0.046 C 
BRANCH  21  24
HETATM   24  O1  UNL     1      -7.893  47.880 -16.633  1.00  0.00    -0.390 OA
HETATM   25  H12 UNL     1      -8.472  48.083 -15.879  1.00  0.00     0.210 HD
ENDBRANCH  21  24
ENDBRANCH   5  21
BRANCH  17  26
HETATM   26  C22 UNL     1      -2.745  49.558 -18.289  1.00  0.00     0.014 C 
BRANCH  26  27
HETATM   27  C23 UNL     1      -2.438  50.750 -17.346  1.00  0.00    -0.022 C 
HETATM   28  C24 UNL     1      -0.933  50.920 -17.107  1.00  0.00     0.009 C 
HETATM   29  C25 UNL     1      -3.179  50.718 -16.013  1.00  0.00     0.009 C 
ENDBRANCH  26  27
ENDBRANCH  17  26
BRANCH  12  30
HETATM   30  C15 UNL     1      -4.533  52.241 -23.755  1.00  0.00     0.275 C 
HETATM   31  O3  UNL     1      -4.393  52.092 -24.967  1.00  0.00    -0.301 OA
ENDBRANCH  12  30
BRANCH  13  32
HETATM   32  O4  UNL     1      -1.730  52.828 -24.095  1.00  0.00    -0.359 OA
HETATM   33  H21 UNL     1      -2.522  53.099 -24.617  1.00  0.00     0.217 HD
ENDBRANCH  13  32
BRANCH  15  34
HETATM   34  O6  UNL     1      -0.633  50.243 -20.196  1.00  0.00    -0.359 OA
HETATM   35  H23 UNL     1       0.267  50.498 -20.504  1.00  0.00     0.217 HD
ENDBRANCH  15  34
BRANCH  14  36
HETATM   36  C18 UNL     1       0.250  51.833 -22.416  1.00  0.00     0.275 C 
HETATM   37  O5  UNL     1       0.987  52.209 -21.507  1.00  0.00    -0.301 OA
ENDBRANCH  14  36
TORSDOF 8
ENDMDL
MODEL 9
REMARK minimizedAffinity -6.94475985
REMARK  8 active torsions:
REMARK  status: ('A' for Active; 'I' for Inactive)
REMARK    1  A    between atoms: C5_5  and  C6_6 
REMARK    2  A    between atoms: C6_6  and  O1_9 
REMARK    3  A    between atoms: C14_16  and  C15_17 
REMARK    4  A    between atoms: C16_19  and  O4_20 
REMARK    5  A    between atoms: C17_21  and  C18_22 
REMARK    6  A    between atoms: C19_24  and  O6_25 
REMARK    7  A    between atoms: C21_27  and  C22_28 
REMARK    8  A    between atoms: C22_28  and  C23_29 
ROOT
HETATM    1  C1  UNL     1      -9.598  42.103 -25.706  1.00  0.00     0.019 C 
HETATM    2  C2  UNL     1     -10.390  43.193 -25.742  1.00  0.00    -0.068 C 
HETATM    3  C3  UNL     1     -11.536  43.167 -26.643  1.00  0.00     0.003 C 
HETATM    4  C4  UNL     1     -12.267  44.131 -27.233  1.00  0.00    -0.019 C 
HETATM    5  C5  UNL     1     -12.164  45.644 -27.163  1.00  0.00     0.042 C 
HETATM    6  C9  UNL     1     -11.171  46.207 -28.223  1.00  0.00     0.014 C 
HETATM    7  C10 UNL     1      -9.803  45.509 -28.356  1.00  0.00     0.039 C 
HETATM    8  C11 UNL     1      -8.622  45.971 -27.447  1.00  0.00     0.068 C 
HETATM    9  C12 UNL     1      -7.541  44.862 -27.590  1.00  0.00     0.047 C 
HETATM   10  O2  UNL     1      -8.095  47.171 -28.112  1.00  0.00    -0.338 OA
HETATM   11  C13 UNL     1      -6.960  47.638 -27.481  1.00  0.00     0.095 A 
HETATM   12  C14 UNL     1      -5.806  47.898 -28.223  1.00  0.00     0.070 A 
HETATM   13  C16 UNL     1      -4.624  48.235 -27.551  1.00  0.00     0.097 A 
HETATM   14  C17 UNL     1      -4.615  48.291 -26.152  1.00  0.00     0.069 A 
HETATM   15  C19 UNL     1      -5.801  48.063 -25.421  1.00  0.00     0.091 A 
HETATM   16  C20 UNL     1      -6.999  47.791 -26.082  1.00  0.00     0.015 A 
HETATM   17  C21 UNL     1      -8.395  47.678 -25.509  1.00  0.00     0.031 C 
HETATM   18  C26 UNL     1      -9.023  46.312 -25.961  1.00  0.00     0.029 C 
HETATM   19  C27 UNL     1      -8.871  45.157 -24.939  1.00  0.00     0.013 C 
HETATM   20  C28 UNL     1     -10.138  44.293 -24.737  1.00  0.00     0.038 C 
ENDROOT
BRANCH   5  21
HETATM   21  C6  UNL     1     -13.569  46.360 -27.204  1.00  0.00     0.057 C 
HETATM   22  C7  UNL     1     -14.323  46.027 -28.503  1.00  0.00     0.046 C 
HETATM   23  C8  UNL     1     -14.478  46.059 -26.004  1.00  0.00     0.046 C 
BRANCH  21  24
HETATM   24  O1  UNL     1     -13.334  47.779 -27.224  1.00  0.00    -0.390 OA
HETATM   25  H12 UNL     1     -14.193  48.232 -27.257  1.00  0.00     0.210 HD
ENDBRANCH  21  24
ENDBRANCH   5  21
BRANCH  17  26
HETATM   26  C22 UNL     1      -8.725  48.075 -24.046  1.00  0.00     0.014 C 
BRANCH  26  27
HETATM   27  C23 UNL     1      -7.771  47.548 -22.943  1.00  0.00    -0.022 C 
HETATM   28  C24 UNL     1      -8.305  46.270 -22.284  1.00  0.00     0.009 C 
HETATM   29  C25 UNL     1      -7.401  48.571 -21.874  1.00  0.00     0.009 C 
ENDBRANCH  26  27
ENDBRANCH  17  26
BRANCH  12  30
HETATM   30  C15 UNL     1      -5.842  47.782 -29.692  1.00  0.00     0.275 C 
HETATM   31  O3  UNL     1      -4.838  47.433 -30.307  1.00  0.00    -0.301 OA
ENDBRANCH  12  30
BRANCH  13  32
HETATM   32  O4  UNL     1      -3.457  48.486 -28.230  1.00  0.00    -0.359 OA
HETATM   33  H21 UNL     1      -3.628  48.396 -29.198  1.00  0.00     0.217 HD
ENDBRANCH  13  32
BRANCH  15  34
HETATM   34  O6  UNL     1      -5.799  48.080 -24.054  1.00  0.00    -0.359 OA
HETATM   35  H23 UNL     1      -4.888  48.275 -23.734  1.00  0.00     0.217 HD
ENDBRANCH  15  34
BRANCH  14  36
HETATM   36  C18 UNL     1      -3.347  48.596 -25.455  1.00  0.00     0.275 C 
HETATM   37  O5  UNL     1      -2.517  49.342 -25.968  1.00  0.00    -0.301 OA
ENDBRANCH  14  36
TORSDOF 8
ENDMDL
