MODEL 1
REMARK minimizedAffinity -8.7017498
REMARK  5 active torsions:
REMARK  status: ('A' for Active; 'I' for Inactive)
REMARK    1  A    between atoms: C2_5  and  C3_6 
REMARK    2  A    between atoms: C5_11  and  C6_12 
REMARK       I    between atoms: C6_12  and  N3_14 
REMARK    3  A    between atoms: N3_14  and  C7_15 
REMARK    4  A    between atoms: C10_18  and  S1_19 
REMARK    5  A    between atoms: S1_19  and  N4_22 
ROOT
HETATM    1  C7  UNL     1      -2.722   5.743  12.445  1.00  0.00     0.035 A 
HETATM    2  C8  UNL     1      -2.141   4.727  11.680  1.00  0.00     0.031 A 
HETATM    3  C9  UNL     1      -0.784   4.779  11.344  1.00  0.00     0.027 A 
HETATM    4  C10 UNL     1      -0.003   5.849  11.779  1.00  0.00     0.074 A 
HETATM    5  C16 UNL     1      -0.567   6.877  12.535  1.00  0.00     0.027 A 
HETATM    6  C17 UNL     1      -1.923   6.818  12.865  1.00  0.00     0.031 A 
ENDROOT
BRANCH   1   7
HETATM    7  N3  UNL     1      -4.082   5.773  12.825  1.00  0.00    -0.322 N 
HETATM    8  C6  UNL     1      -4.940   4.700  13.000  1.00  0.00     0.274 C 
HETATM    9  O1  UNL     1      -4.614   3.526  12.881  1.00  0.00    -0.266 OA
HETATM   10  H5  UNL     1      -4.457   6.690  13.013  1.00  0.00     0.169 HD
BRANCH   8  11
HETATM   11  C5  UNL     1      -6.300   5.078  13.365  1.00  0.00     0.120 A 
HETATM   12  N1  UNL     1      -7.382   4.230  13.291  1.00  0.00    -0.291 N 
HETATM   13  C1  UNL     1      -7.392   2.846  12.867  1.00  0.00     0.178 C 
HETATM   14  N2  UNL     1      -8.544   4.790  13.681  1.00  0.00    -0.294 N 
HETATM   15  C2  UNL     1      -8.225   6.053  14.008  1.00  0.00     0.134 A 
ATOM     16  H2  UNL     1      -9.465   4.352  13.719  1.00  0.00     0.187 HD
HETATM   17  C4  UNL     1      -6.833   6.273  13.824  1.00  0.00     0.072 A 
BRANCH  15  18
HETATM   18  C3  UNL     1      -9.239   7.057  14.493  1.00  0.00     0.434 C 
HETATM   19  F1  UNL     1     -10.259   7.237  13.613  1.00  0.00    -0.165 F 
HETATM   20  F2  UNL     1      -9.812   6.656  15.664  1.00  0.00    -0.165 F 
HETATM   21  F3  UNL     1      -8.694   8.276  14.734  1.00  0.00    -0.165 F 
ENDBRANCH  15  18
ENDBRANCH   8  11
ENDBRANCH   1   7
BRANCH   4  22
HETATM   22  S1  UNL     1       1.716   5.899  11.339  1.00  0.00     0.243 S 
HETATM   23  O2  UNL     1       2.432   6.416  12.487  1.00  0.00    -0.206 OA
HETATM   24  O3  UNL     1       2.072   4.628  10.742  1.00  0.00    -0.206 OA
BRANCH  22  25
HETATM   25  N4  UNL     1       1.759   7.076  10.099  1.00  0.00    -0.206 NA
HETATM   26  C11 UNL     1       0.453   7.356   9.436  1.00  0.00     0.107 C 
HETATM   27  C12 UNL     1       0.657   8.239   8.212  1.00  0.00     0.015 C 
HETATM   28  C13 UNL     1       1.512   7.540   7.156  1.00  0.00     0.002 C 
HETATM   29  C14 UNL     1       2.466   6.518   7.769  1.00  0.00     0.015 C 
HETATM   30  C15 UNL     1       2.915   6.935   9.164  1.00  0.00     0.107 C 
ENDBRANCH  22  25
ENDBRANCH   4  22
TORSDOF 5
ENDMDL
MODEL 2
REMARK minimizedAffinity -8.55435848
REMARK  5 active torsions:
REMARK  status: ('A' for Active; 'I' for Inactive)
REMARK    1  A    between atoms: C2_5  and  C3_6 
REMARK    2  A    between atoms: C5_11  and  C6_12 
REMARK       I    between atoms: C6_12  and  N3_14 
REMARK    3  A    between atoms: N3_14  and  C7_15 
REMARK    4  A    between atoms: C10_18  and  S1_19 
REMARK    5  A    between atoms: S1_19  and  N4_22 
ROOT
HETATM    1  C7  UNL     1      -0.589   5.348  11.493  1.00  0.00     0.035 A 
HETATM    2  C8  UNL     1       0.451   4.417  11.560  1.00  0.00     0.031 A 
HETATM    3  C9  UNL     1       1.720   4.733  11.064  1.00  0.00     0.027 A 
HETATM    4  C10 UNL     1       1.952   5.988  10.502  1.00  0.00     0.074 A 
HETATM    5  C16 UNL     1       0.924   6.927  10.417  1.00  0.00     0.027 A 
HETATM    6  C17 UNL     1      -0.341   6.603  10.914  1.00  0.00     0.031 A 
ENDROOT
BRANCH   1   7
HETATM    7  N3  UNL     1      -1.900   5.111  11.964  1.00  0.00    -0.322 N 
HETATM    8  C6  UNL     1      -2.889   4.342  11.375  1.00  0.00     0.274 C 
HETATM    9  O1  UNL     1      -2.745   3.704  10.340  1.00  0.00    -0.266 OA
HETATM   10  H5  UNL     1      -2.123   5.540  12.849  1.00  0.00     0.169 HD
BRANCH   8  11
HETATM   11  C5  UNL     1      -4.150   4.331  12.105  1.00  0.00     0.120 A 
HETATM   12  N1  UNL     1      -4.584   5.359  12.912  1.00  0.00    -0.291 N 
HETATM   13  C1  UNL     1      -3.912   6.614  13.182  1.00  0.00     0.178 C 
HETATM   14  N2  UNL     1      -5.781   5.136  13.488  1.00  0.00    -0.294 N 
HETATM   15  C2  UNL     1      -6.146   3.915  13.062  1.00  0.00     0.134 A 
ATOM     16  H2  UNL     1      -6.298   5.756  14.111  1.00  0.00     0.187 HD
HETATM   17  C4  UNL     1      -5.154   3.379  12.197  1.00  0.00     0.072 A 
BRANCH  15  18
HETATM   18  C3  UNL     1      -7.434   3.252  13.476  1.00  0.00     0.434 C 
HETATM   19  F1  UNL     1      -7.480   1.937  13.137  1.00  0.00    -0.165 F 
HETATM   20  F2  UNL     1      -7.604   3.303  14.829  1.00  0.00    -0.165 F 
HETATM   21  F3  UNL     1      -8.527   3.847  12.933  1.00  0.00    -0.165 F 
ENDBRANCH  15  18
ENDBRANCH   8  11
ENDBRANCH   1   7
BRANCH   4  22
HETATM   22  S1  UNL     1       3.568   6.370   9.874  1.00  0.00     0.243 S 
HETATM   23  O2  UNL     1       4.007   5.222   9.109  1.00  0.00    -0.206 OA
HETATM   24  O3  UNL     1       3.529   7.693   9.286  1.00  0.00    -0.206 OA
BRANCH  22  25
HETATM   25  N4  UNL     1       4.515   6.469  11.294  1.00  0.00    -0.206 NA
HETATM   26  C11 UNL     1       4.268   7.667  12.147  1.00  0.00     0.107 C 
HETATM   27  C12 UNL     1       5.317   7.763  13.247  1.00  0.00     0.015 C 
HETATM   28  C13 UNL     1       6.717   7.953  12.669  1.00  0.00     0.002 C 
HETATM   29  C14 UNL     1       6.850   7.357  11.269  1.00  0.00     0.015 C 
HETATM   30  C15 UNL     1       5.957   6.136  11.092  1.00  0.00     0.107 C 
ENDBRANCH  22  25
ENDBRANCH   4  22
TORSDOF 5
ENDMDL
MODEL 3
REMARK minimizedAffinity -8.35390949
REMARK  5 active torsions:
REMARK  status: ('A' for Active; 'I' for Inactive)
REMARK    1  A    between atoms: C2_5  and  C3_6 
REMARK    2  A    between atoms: C5_11  and  C6_12 
REMARK       I    between atoms: C6_12  and  N3_14 
REMARK    3  A    between atoms: N3_14  and  C7_15 
REMARK    4  A    between atoms: C10_18  and  S1_19 
REMARK    5  A    between atoms: S1_19  and  N4_22 
ROOT
HETATM    1  C7  UNL     1      -3.023   5.175  12.504  1.00  0.00     0.035 A 
HETATM    2  C8  UNL     1      -3.839   6.069  13.204  1.00  0.00     0.031 A 
HETATM    3  C9  UNL     1      -5.191   5.780  13.416  1.00  0.00     0.027 A 
HETATM    4  C10 UNL     1      -5.730   4.589  12.930  1.00  0.00     0.074 A 
HETATM    5  C16 UNL     1      -4.934   3.688  12.221  1.00  0.00     0.027 A 
HETATM    6  C17 UNL     1      -3.585   3.986  12.012  1.00  0.00     0.031 A 
ENDROOT
BRANCH   1   7
HETATM    7  N3  UNL     1      -1.652   5.389  12.240  1.00  0.00    -0.322 N 
HETATM    8  C6  UNL     1      -0.989   6.597  12.112  1.00  0.00     0.274 C 
HETATM    9  O1  UNL     1      -1.516   7.694  12.254  1.00  0.00    -0.266 OA
HETATM   10  H5  UNL     1      -1.094   4.553  12.161  1.00  0.00     0.169 HD
BRANCH   8  11
HETATM   11  C5  UNL     1       0.429   6.470  11.804  1.00  0.00     0.120 A 
HETATM   12  N1  UNL     1       1.435   6.581  12.738  1.00  0.00    -0.291 N 
HETATM   13  C1  UNL     1       1.298   6.825  14.159  1.00  0.00     0.178 C 
HETATM   14  N2  UNL     1       2.674   6.425  12.230  1.00  0.00    -0.294 N 
HETATM   15  C2  UNL     1       2.484   6.219  10.916  1.00  0.00     0.134 A 
ATOM     16  H2  UNL     1       3.561   6.456  12.733  1.00  0.00     0.187 HD
HETATM   17  C4  UNL     1       1.096   6.241  10.610  1.00  0.00     0.072 A 
BRANCH  15  18
HETATM   18  C3  UNL     1       3.617   6.007   9.947  1.00  0.00     0.434 C 
HETATM   19  F1  UNL     1       3.396   6.596   8.743  1.00  0.00    -0.165 F 
HETATM   20  F2  UNL     1       4.781   6.536  10.422  1.00  0.00    -0.165 F 
HETATM   21  F3  UNL     1       3.865   4.692   9.713  1.00  0.00    -0.165 F 
ENDBRANCH  15  18
ENDBRANCH   8  11
ENDBRANCH   1   7
BRANCH   4  22
HETATM   22  S1  UNL     1      -7.449   4.241  13.206  1.00  0.00     0.243 S 
HETATM   23  O2  UNL     1      -8.135   4.472  11.953  1.00  0.00    -0.206 OA
HETATM   24  O3  UNL     1      -7.553   2.971  13.896  1.00  0.00    -0.206 OA
BRANCH  22  25
HETATM   25  N4  UNL     1      -7.912   5.461  14.311  1.00  0.00    -0.206 NA
HETATM   26  C11 UNL     1      -7.540   6.852  13.923  1.00  0.00     0.107 C 
HETATM   27  C12 UNL     1      -7.797   7.813  15.077  1.00  0.00     0.015 C 
HETATM   28  C13 UNL     1      -6.926   7.478  16.286  1.00  0.00     0.002 C 
HETATM   29  C14 UNL     1      -6.553   5.998  16.337  1.00  0.00     0.015 C 
HETATM   30  C15 UNL     1      -7.648   5.122  15.741  1.00  0.00     0.107 C 
ENDBRANCH  22  25
ENDBRANCH   4  22
TORSDOF 5
ENDMDL
MODEL 4
REMARK minimizedAffinity -8.34466553
REMARK  5 active torsions:
REMARK  status: ('A' for Active; 'I' for Inactive)
REMARK    1  A    between atoms: C2_5  and  C3_6 
REMARK    2  A    between atoms: C5_11  and  C6_12 
REMARK       I    between atoms: C6_12  and  N3_14 
REMARK    3  A    between atoms: N3_14  and  C7_15 
REMARK    4  A    between atoms: C10_18  and  S1_19 
REMARK    5  A    between atoms: S1_19  and  N4_22 
ROOT
HETATM    1  C7  UNL     1      -3.164   5.080  12.579  1.00  0.00     0.035 A 
HETATM    2  C8  UNL     1      -3.881   3.924  12.257  1.00  0.00     0.031 A 
HETATM    3  C9  UNL     1      -5.215   3.781  12.654  1.00  0.00     0.027 A 
HETATM    4  C10 UNL     1      -5.837   4.802  13.374  1.00  0.00     0.074 A 
HETATM    5  C16 UNL     1      -5.135   5.959  13.713  1.00  0.00     0.027 A 
HETATM    6  C17 UNL     1      -3.802   6.093  13.314  1.00  0.00     0.031 A 
ENDROOT
BRANCH   1   7
HETATM    7  N3  UNL     1      -1.816   5.304  12.224  1.00  0.00    -0.322 N 
HETATM    8  C6  UNL     1      -1.156   6.516  12.111  1.00  0.00     0.274 C 
HETATM    9  O1  UNL     1      -1.664   7.605  12.349  1.00  0.00    -0.266 OA
HETATM   10  H5  UNL     1      -1.270   4.472  12.059  1.00  0.00     0.169 HD
BRANCH   8  11
HETATM   11  C5  UNL     1       0.234   6.402  11.689  1.00  0.00     0.120 A 
HETATM   12  N1  UNL     1       1.305   6.403  12.554  1.00  0.00    -0.291 N 
HETATM   13  C1  UNL     1       1.274   6.502  13.999  1.00  0.00     0.178 C 
HETATM   14  N2  UNL     1       2.501   6.284  11.945  1.00  0.00    -0.294 N 
HETATM   15  C2  UNL     1       2.215   6.216  10.634  1.00  0.00     0.134 A 
ATOM     16  H2  UNL     1       3.422   6.251  12.382  1.00  0.00     0.187 HD
HETATM   17  C4  UNL     1       0.810   6.287  10.433  1.00  0.00     0.072 A 
BRANCH  15  18
HETATM   18  C3  UNL     1       3.273   6.089   9.569  1.00  0.00     0.434 C 
HETATM   19  F1  UNL     1       3.933   7.255   9.343  1.00  0.00    -0.165 F 
HETATM   20  F2  UNL     1       4.222   5.175   9.921  1.00  0.00    -0.165 F 
HETATM   21  F3  UNL     1       2.768   5.674   8.379  1.00  0.00    -0.165 F 
ENDBRANCH  15  18
ENDBRANCH   8  11
ENDBRANCH   1   7
BRANCH   4  22
HETATM   22  S1  UNL     1      -7.529   4.602  13.872  1.00  0.00     0.243 S 
HETATM   23  O2  UNL     1      -8.193   3.855  12.825  1.00  0.00    -0.206 OA
HETATM   24  O3  UNL     1      -7.549   4.148  15.248  1.00  0.00    -0.206 OA
BRANCH  22  25
HETATM   25  N4  UNL     1      -8.124   6.205  13.855  1.00  0.00    -0.206 NA
HETATM   26  C11 UNL     1      -8.110   6.908  15.170  1.00  0.00     0.107 C 
HETATM   27  C12 UNL     1      -8.866   8.227  15.076  1.00  0.00     0.015 C 
HETATM   28  C13 UNL     1     -10.340   8.003  14.747  1.00  0.00     0.002 C 
HETATM   29  C14 UNL     1     -10.567   6.711  13.965  1.00  0.00     0.015 C 
HETATM   30  C15 UNL     1      -9.381   6.382  13.069  1.00  0.00     0.107 C 
ENDBRANCH  22  25
ENDBRANCH   4  22
TORSDOF 5
ENDMDL
MODEL 5
REMARK minimizedAffinity -8.11237144
REMARK  5 active torsions:
REMARK  status: ('A' for Active; 'I' for Inactive)
REMARK    1  A    between atoms: C2_5  and  C3_6 
REMARK    2  A    between atoms: C5_11  and  C6_12 
REMARK       I    between atoms: C6_12  and  N3_14 
REMARK    3  A    between atoms: N3_14  and  C7_15 
REMARK    4  A    between atoms: C10_18  and  S1_19 
REMARK    5  A    between atoms: S1_19  and  N4_22 
ROOT
HETATM    1  C7  UNL     1      -0.590   6.724  11.748  1.00  0.00     0.035 A 
HETATM    2  C8  UNL     1       0.225   5.608  11.538  1.00  0.00     0.031 A 
HETATM    3  C9  UNL     1       1.251   5.646  10.588  1.00  0.00     0.027 A 
HETATM    4  C10 UNL     1       1.467   6.808   9.847  1.00  0.00     0.074 A 
HETATM    5  C16 UNL     1       0.659   7.929  10.036  1.00  0.00     0.027 A 
HETATM    6  C17 UNL     1      -0.365   7.882  10.985  1.00  0.00     0.031 A 
ENDROOT
BRANCH   1   7
HETATM    7  N3  UNL     1      -1.649   6.771  12.681  1.00  0.00    -0.322 N 
HETATM    8  C6  UNL     1      -2.364   5.710  13.209  1.00  0.00     0.274 C 
HETATM    9  O1  UNL     1      -2.142   4.532  12.958  1.00  0.00    -0.266 OA
HETATM   10  H5  UNL     1      -1.889   7.693  13.013  1.00  0.00     0.169 HD
BRANCH   8  11
HETATM   11  C5  UNL     1      -3.424   6.104  14.128  1.00  0.00     0.120 A 
HETATM   12  N1  UNL     1      -3.225   6.874  15.252  1.00  0.00    -0.291 N 
HETATM   13  C1  UNL     1      -1.978   7.436  15.728  1.00  0.00     0.178 C 
HETATM   14  N2  UNL     1      -4.348   7.119  15.955  1.00  0.00    -0.294 N 
HETATM   15  C2  UNL     1      -5.320   6.479  15.284  1.00  0.00     0.134 A 
ATOM     16  H2  UNL     1      -4.441   7.669  16.809  1.00  0.00     0.187 HD
HETATM   17  C4  UNL     1      -4.784   5.833  14.138  1.00  0.00     0.072 A 
BRANCH  15  18
HETATM   18  C3  UNL     1      -6.759   6.475  15.731  1.00  0.00     0.434 C 
HETATM   19  F1  UNL     1      -7.630   6.607  14.697  1.00  0.00    -0.165 F 
HETATM   20  F2  UNL     1      -7.081   5.304  16.353  1.00  0.00    -0.165 F 
HETATM   21  F3  UNL     1      -7.034   7.465  16.619  1.00  0.00    -0.165 F 
ENDBRANCH  15  18
ENDBRANCH   8  11
ENDBRANCH   1   7
BRANCH   4  22
HETATM   22  S1  UNL     1       2.772   6.836   8.643  1.00  0.00     0.243 S 
HETATM   23  O2  UNL     1       2.858   5.505   8.081  1.00  0.00    -0.206 OA
HETATM   24  O3  UNL     1       2.588   7.998   7.797  1.00  0.00    -0.206 OA
BRANCH  22  25
HETATM   25  N4  UNL     1       4.164   7.114   9.596  1.00  0.00    -0.206 NA
HETATM   26  C11 UNL     1       4.505   6.032  10.564  1.00  0.00     0.107 C 
HETATM   27  C12 UNL     1       5.614   6.488  11.503  1.00  0.00     0.015 C 
HETATM   28  C13 UNL     1       5.170   7.675  12.355  1.00  0.00     0.002 C 
HETATM   29  C14 UNL     1       4.095   8.512  11.665  1.00  0.00     0.015 C 
HETATM   30  C15 UNL     1       4.259   8.497  10.151  1.00  0.00     0.107 C 
ENDBRANCH  22  25
ENDBRANCH   4  22
TORSDOF 5
ENDMDL
MODEL 6
REMARK minimizedAffinity -7.97218084
REMARK  5 active torsions:
REMARK  status: ('A' for Active; 'I' for Inactive)
REMARK    1  A    between atoms: C2_5  and  C3_6 
REMARK    2  A    between atoms: C5_11  and  C6_12 
REMARK       I    between atoms: C6_12  and  N3_14 
REMARK    3  A    between atoms: N3_14  and  C7_15 
REMARK    4  A    between atoms: C10_18  and  S1_19 
REMARK    5  A    between atoms: S1_19  and  N4_22 
ROOT
HETATM    1  C7  UNL     1      -0.651   6.996  12.572  1.00  0.00     0.035 A 
HETATM    2  C8  UNL     1      -1.450   8.096  12.247  1.00  0.00     0.031 A 
HETATM    3  C9  UNL     1      -2.749   8.207  12.752  1.00  0.00     0.027 A 
HETATM    4  C10 UNL     1      -3.252   7.213  13.593  1.00  0.00     0.074 A 
HETATM    5  C16 UNL     1      -2.474   6.103  13.922  1.00  0.00     0.027 A 
HETATM    6  C17 UNL     1      -1.178   6.000  13.411  1.00  0.00     0.031 A 
ENDROOT
BRANCH   1   7
HETATM    7  N3  UNL     1       0.667   6.803  12.103  1.00  0.00    -0.322 N 
HETATM    8  C6  UNL     1       1.387   7.606  11.235  1.00  0.00     0.274 C 
HETATM    9  O1  UNL     1       0.975   8.659  10.764  1.00  0.00    -0.266 OA
HETATM   10  H5  UNL     1       1.140   5.992  12.470  1.00  0.00     0.169 HD
BRANCH   8  11
HETATM   11  C5  UNL     1       2.718   7.103  10.923  1.00  0.00     0.120 A 
HETATM   12  N1  UNL     1       3.075   6.567   9.706  1.00  0.00    -0.291 N 
HETATM   13  C1  UNL     1       2.243   6.409   8.532  1.00  0.00     0.178 C 
HETATM   14  N2  UNL     1       4.361   6.168   9.640  1.00  0.00    -0.294 N 
HETATM   15  C2  UNL     1       4.867   6.434  10.855  1.00  0.00     0.134 A 
ATOM     16  H2  UNL     1       4.844   5.754   8.842  1.00  0.00     0.187 HD
HETATM   17  C4  UNL     1       3.873   7.018  11.686  1.00  0.00     0.072 A 
BRANCH  15  18
HETATM   18  C3  UNL     1       6.294   6.131  11.233  1.00  0.00     0.434 C 
HETATM   19  F1  UNL     1       6.711   4.920  10.778  1.00  0.00    -0.165 F 
HETATM   20  F2  UNL     1       7.152   7.052  10.709  1.00  0.00    -0.165 F 
HETATM   21  F3  UNL     1       6.493   6.147  12.576  1.00  0.00    -0.165 F 
ENDBRANCH  15  18
ENDBRANCH   8  11
ENDBRANCH   1   7
BRANCH   4  22
HETATM   22  S1  UNL     1      -4.904   7.368  14.222  1.00  0.00     0.243 S 
HETATM   23  O2  UNL     1      -4.794   7.800  15.600  1.00  0.00    -0.206 OA
HETATM   24  O3  UNL     1      -5.691   8.116  13.262  1.00  0.00    -0.206 OA
BRANCH  22  25
HETATM   25  N4  UNL     1      -5.473   5.756  14.203  1.00  0.00    -0.206 NA
HETATM   26  C11 UNL     1      -5.357   5.051  12.894  1.00  0.00     0.107 C 
HETATM   27  C12 UNL     1      -6.096   3.720  12.939  1.00  0.00     0.015 C 
HETATM   28  C13 UNL     1      -7.593   3.921  13.165  1.00  0.00     0.002 C 
HETATM   29  C14 UNL     1      -7.895   5.210  13.926  1.00  0.00     0.015 C 
HETATM   30  C15 UNL     1      -6.779   5.561  14.901  1.00  0.00     0.107 C 
ENDBRANCH  22  25
ENDBRANCH   4  22
TORSDOF 5
ENDMDL
MODEL 7
REMARK minimizedAffinity -7.97072124
REMARK  5 active torsions:
REMARK  status: ('A' for Active; 'I' for Inactive)
REMARK    1  A    between atoms: C2_5  and  C3_6 
REMARK    2  A    between atoms: C5_11  and  C6_12 
REMARK       I    between atoms: C6_12  and  N3_14 
REMARK    3  A    between atoms: N3_14  and  C7_15 
REMARK    4  A    between atoms: C10_18  and  S1_19 
REMARK    5  A    between atoms: S1_19  and  N4_22 
ROOT
HETATM    1  C7  UNL     1      -3.245   7.509  13.380  1.00  0.00     0.035 A 
HETATM    2  C8  UNL     1      -3.373   6.884  14.624  1.00  0.00     0.031 A 
HETATM    3  C9  UNL     1      -4.610   6.847  15.276  1.00  0.00     0.027 A 
HETATM    4  C10 UNL     1      -5.726   7.433  14.679  1.00  0.00     0.074 A 
HETATM    5  C16 UNL     1      -5.616   8.069  13.442  1.00  0.00     0.027 A 
HETATM    6  C17 UNL     1      -4.377   8.103  12.799  1.00  0.00     0.031 A 
ENDROOT
BRANCH   1   7
HETATM    7  N3  UNL     1      -2.036   7.597  12.655  1.00  0.00    -0.322 N 
HETATM    8  C6  UNL     1      -1.330   8.739  12.314  1.00  0.00     0.274 C 
HETATM    9  O1  UNL     1      -1.652   9.875  12.640  1.00  0.00    -0.266 OA
HETATM   10  H5  UNL     1      -1.634   6.715  12.379  1.00  0.00     0.169 HD
BRANCH   8  11
HETATM   11  C5  UNL     1      -0.130   8.485  11.528  1.00  0.00     0.120 A 
HETATM   12  N1  UNL     1       1.149   8.528  12.037  1.00  0.00    -0.291 N 
HETATM   13  C1  UNL     1       1.548   8.810  13.400  1.00  0.00     0.178 C 
HETATM   14  N2  UNL     1       2.109   8.258  11.130  1.00  0.00    -0.294 N 
HETATM   15  C2  UNL     1       1.447   8.044   9.981  1.00  0.00     0.134 A 
ATOM     16  H2  UNL     1       3.117   8.224  11.282  1.00  0.00     0.187 HD
HETATM   17  C4  UNL     1       0.047   8.177  10.188  1.00  0.00     0.072 A 
BRANCH  15  18
HETATM   18  C3  UNL     1       2.139   7.718   8.684  1.00  0.00     0.434 C 
HETATM   19  F1  UNL     1       2.873   6.576   8.754  1.00  0.00    -0.165 F 
HETATM   20  F2  UNL     1       1.240   7.531   7.676  1.00  0.00    -0.165 F 
HETATM   21  F3  UNL     1       2.972   8.708   8.272  1.00  0.00    -0.165 F 
ENDBRANCH  15  18
ENDBRANCH   8  11
ENDBRANCH   1   7
BRANCH   4  22
HETATM   22  S1  UNL     1      -7.286   7.379  15.524  1.00  0.00     0.243 S 
HETATM   23  O2  UNL     1      -7.003   7.133  16.922  1.00  0.00    -0.206 OA
HETATM   24  O3  UNL     1      -8.072   8.523  15.107  1.00  0.00    -0.206 OA
BRANCH  22  25
HETATM   25  N4  UNL     1      -8.027   5.984  14.867  1.00  0.00    -0.206 NA
HETATM   26  C11 UNL     1      -7.140   4.795  14.722  1.00  0.00     0.107 C 
HETATM   27  C12 UNL     1      -7.841   3.703  13.925  1.00  0.00     0.015 C 
HETATM   28  C13 UNL     1      -8.149   4.161  12.501  1.00  0.00     0.002 C 
HETATM   29  C14 UNL     1      -8.320   5.675  12.406  1.00  0.00     0.015 C 
HETATM   30  C15 UNL     1      -8.903   6.256  13.688  1.00  0.00     0.107 C 
ENDBRANCH  22  25
ENDBRANCH   4  22
TORSDOF 5
ENDMDL
MODEL 8
REMARK minimizedAffinity -7.93326998
REMARK  5 active torsions:
REMARK  status: ('A' for Active; 'I' for Inactive)
REMARK    1  A    between atoms: C2_5  and  C3_6 
REMARK    2  A    between atoms: C5_11  and  C6_12 
REMARK       I    between atoms: C6_12  and  N3_14 
REMARK    3  A    between atoms: N3_14  and  C7_15 
REMARK    4  A    between atoms: C10_18  and  S1_19 
REMARK    5  A    between atoms: S1_19  and  N4_22 
ROOT
HETATM    1  C7  UNL     1      -0.654   5.520  11.540  1.00  0.00     0.035 A 
HETATM    2  C8  UNL     1       0.377   4.589  11.699  1.00  0.00     0.031 A 
HETATM    3  C9  UNL     1       1.619   4.793  11.090  1.00  0.00     0.027 A 
HETATM    4  C10 UNL     1       1.835   5.937  10.321  1.00  0.00     0.074 A 
HETATM    5  C16 UNL     1       0.816   6.874  10.143  1.00  0.00     0.027 A 
HETATM    6  C17 UNL     1      -0.423   6.661  10.753  1.00  0.00     0.031 A 
ENDROOT
BRANCH   1   7
HETATM    7  N3  UNL     1      -1.938   5.391  12.113  1.00  0.00    -0.322 N 
HETATM    8  C6  UNL     1      -2.875   4.398  11.884  1.00  0.00     0.274 C 
HETATM    9  O1  UNL     1      -2.697   3.434  11.149  1.00  0.00    -0.266 OA
HETATM   10  H5  UNL     1      -2.181   6.100  12.788  1.00  0.00     0.169 HD
BRANCH   8  11
HETATM   11  C5  UNL     1      -4.124   4.577  12.614  1.00  0.00     0.120 A 
HETATM   12  N1  UNL     1      -5.289   3.902  12.328  1.00  0.00    -0.291 N 
HETATM   13  C1  UNL     1      -5.504   2.911  11.294  1.00  0.00     0.178 C 
HETATM   14  N2  UNL     1      -6.320   4.223  13.134  1.00  0.00    -0.294 N 
HETATM   15  C2  UNL     1      -5.827   5.150  13.972  1.00  0.00     0.134 A 
ATOM     16  H2  UNL     1      -7.267   3.845  13.113  1.00  0.00     0.187 HD
HETATM   17  C4  UNL     1      -4.459   5.399  13.680  1.00  0.00     0.072 A 
BRANCH  15  18
HETATM   18  C3  UNL     1      -6.653   5.805  15.049  1.00  0.00     0.434 C 
HETATM   19  F1  UNL     1      -7.418   4.917  15.735  1.00  0.00    -0.165 F 
HETATM   20  F2  UNL     1      -5.862   6.421  15.973  1.00  0.00    -0.165 F 
HETATM   21  F3  UNL     1      -7.484   6.761  14.561  1.00  0.00    -0.165 F 
ENDBRANCH  15  18
ENDBRANCH   8  11
ENDBRANCH   1   7
BRANCH   4  22
HETATM   22  S1  UNL     1       3.417   6.178   9.554  1.00  0.00     0.243 S 
HETATM   23  O2  UNL     1       4.115   4.911   9.617  1.00  0.00    -0.206 OA
HETATM   24  O3  UNL     1       3.214   6.861   8.292  1.00  0.00    -0.206 OA
BRANCH  22  25
HETATM   25  N4  UNL     1       4.191   7.277  10.610  1.00  0.00    -0.206 NA
HETATM   26  C11 UNL     1       4.486   8.620  10.034  1.00  0.00     0.107 C 
HETATM   27  C12 UNL     1       5.370   9.422  10.981  1.00  0.00     0.015 C 
HETATM   28  C13 UNL     1       6.728   8.753  11.177  1.00  0.00     0.002 C 
HETATM   29  C14 UNL     1       6.661   7.240  10.982  1.00  0.00     0.015 C 
HETATM   30  C15 UNL     1       5.308   6.680  11.401  1.00  0.00     0.107 C 
ENDBRANCH  22  25
ENDBRANCH   4  22
TORSDOF 5
ENDMDL
MODEL 9
REMARK minimizedAffinity -7.91699219
REMARK  5 active torsions:
REMARK  status: ('A' for Active; 'I' for Inactive)
REMARK    1  A    between atoms: C2_5  and  C3_6 
REMARK    2  A    between atoms: C5_11  and  C6_12 
REMARK       I    between atoms: C6_12  and  N3_14 
REMARK    3  A    between atoms: N3_14  and  C7_15 
REMARK    4  A    between atoms: C10_18  and  S1_19 
REMARK    5  A    between atoms: S1_19  and  N4_22 
ROOT
HETATM    1  C7  UNL     1      -0.121   5.713  11.015  1.00  0.00     0.035 A 
HETATM    2  C8  UNL     1       0.043   6.968  10.422  1.00  0.00     0.031 A 
HETATM    3  C9  UNL     1       1.322   7.484  10.193  1.00  0.00     0.027 A 
HETATM    4  C10 UNL     1       2.445   6.740  10.556  1.00  0.00     0.074 A 
HETATM    5  C16 UNL     1       2.302   5.489  11.158  1.00  0.00     0.027 A 
HETATM    6  C17 UNL     1       1.020   4.982  11.384  1.00  0.00     0.031 A 
ENDROOT
BRANCH   1   7
HETATM    7  N3  UNL     1      -1.374   5.119  11.287  1.00  0.00    -0.322 N 
HETATM    8  C6  UNL     1      -2.025   5.028  12.505  1.00  0.00     0.274 C 
HETATM    9  O1  UNL     1      -1.604   5.502  13.552  1.00  0.00    -0.266 OA
HETATM   10  H5  UNL     1      -1.854   4.741  10.485  1.00  0.00     0.169 HD
BRANCH   8  11
HETATM   11  C5  UNL     1      -3.297   4.318  12.449  1.00  0.00     0.120 A 
HETATM   12  N1  UNL     1      -3.450   3.048  11.940  1.00  0.00    -0.291 N 
HETATM   13  C1  UNL     1      -2.425   2.188  11.388  1.00  0.00     0.178 C 
HETATM   14  N2  UNL     1      -4.716   2.587  11.991  1.00  0.00    -0.294 N 
HETATM   15  C2  UNL     1      -5.425   3.588  12.539  1.00  0.00     0.134 A 
ATOM     16  H2  UNL     1      -5.060   1.678  11.682  1.00  0.00     0.187 HD
HETATM   17  C4  UNL     1      -4.576   4.687  12.839  1.00  0.00     0.072 A 
BRANCH  15  18
HETATM   18  C3  UNL     1      -6.911   3.506  12.775  1.00  0.00     0.434 C 
HETATM   19  F1  UNL     1      -7.598   4.490  12.137  1.00  0.00    -0.165 F 
HETATM   20  F2  UNL     1      -7.421   2.327  12.316  1.00  0.00    -0.165 F 
HETATM   21  F3  UNL     1      -7.236   3.575  14.091  1.00  0.00    -0.165 F 
ENDBRANCH  15  18
ENDBRANCH   8  11
ENDBRANCH   1   7
BRANCH   4  22
HETATM   22  S1  UNL     1       4.061   7.413  10.261  1.00  0.00     0.243 S 
HETATM   23  O2  UNL     1       4.958   6.293  10.070  1.00  0.00    -0.206 OA
HETATM   24  O3  UNL     1       3.945   8.460   9.266  1.00  0.00    -0.206 OA
BRANCH  22  25
HETATM   25  N4  UNL     1       4.439   8.164  11.750  1.00  0.00    -0.206 NA
HETATM   26  C11 UNL     1       5.300   7.366  12.669  1.00  0.00     0.107 C 
HETATM   27  C12 UNL     1       5.378   8.032  14.037  1.00  0.00     0.015 C 
HETATM   28  C13 UNL     1       4.007   8.091  14.707  1.00  0.00     0.002 C 
HETATM   29  C14 UNL     1       2.868   8.121  13.691  1.00  0.00     0.015 C 
HETATM   30  C15 UNL     1       3.278   8.833  12.409  1.00  0.00     0.107 C 
ENDBRANCH  22  25
ENDBRANCH   4  22
TORSDOF 5
ENDMDL
