MODEL 1
REMARK minimizedAffinity -9.68676186
REMARK  9 active torsions:
REMARK  status: ('A' for Active; 'I' for Inactive)
REMARK    1  A    between atoms: C3_3  and  O1_4 
REMARK    2  A    between atoms: N1_14  and  O2_16 
REMARK    3  A    between atoms: O2_16  and  C13_17 
REMARK    4  A    between atoms: C13_17  and  C14_18 
REMARK       I    between atoms: C14_18  and  N2_20 
REMARK    5  A    between atoms: N2_20  and  C15_21 
REMARK    6  A    between atoms: C15_21  and  C16_22 
REMARK    7  A    between atoms: C15_21  and  C17_25 
REMARK    8  A    between atoms: C16_22  and  O5_24 
REMARK    9  A    between atoms: C17_25  and  C19_27 
ROOT
HETATM    1  C1  UNL     1     -14.479   8.404  12.645  1.00  0.00     0.015 C 
HETATM    2  C2  UNL     1     -13.368   8.590  13.065  1.00  0.00    -0.078 C 
HETATM    3  C3  UNL     1     -12.005   8.825  13.565  1.00  0.00     0.128 C 
HETATM    4  C4  UNL     1     -12.000   9.438  14.988  1.00  0.00     0.052 C 
HETATM    5  C5  UNL     1     -10.756   8.866  15.703  1.00  0.00     0.010 C 
HETATM    6  C6  UNL     1     -10.002   8.108  14.615  1.00  0.00     0.002 C 
HETATM    7  C7  UNL     1      -8.971   7.050  15.031  1.00  0.00    -0.004 C 
HETATM    8  C8  UNL     1      -7.888   7.657  15.936  1.00  0.00     0.010 C 
HETATM    9  C9  UNL     1      -6.819   6.632  16.293  1.00  0.00     0.035 C 
HETATM   10  C10 UNL     1      -6.216   6.007  15.056  1.00  0.00    -0.069 C 
HETATM   11  C11 UNL     1      -4.883   6.044  14.876  1.00  0.00     0.030 C 
HETATM   12  C12 UNL     1      -4.245   5.379  13.708  1.00  0.00     0.032 C 
HETATM   13  N1  UNL     1      -3.016   5.533  13.317  1.00  0.00    -0.271 N 
ATOM     14  H1  UNL     1      -2.592   5.018  12.546  1.00  0.00     0.194 HD
HETATM   15  C21 UNL     1      -5.106   4.405  12.938  1.00  0.00     0.060 C 
HETATM   16  C22 UNL     1      -6.480   5.020  12.727  1.00  0.00     0.020 C 
HETATM   17  C23 UNL     1      -7.203   5.385  14.058  1.00  0.00    -0.016 C 
HETATM   18  C24 UNL     1      -7.777   4.090  14.674  1.00  0.00     0.020 C 
HETATM   19  C25 UNL     1      -8.328   6.444  13.744  1.00  0.00     0.002 C 
HETATM   20  C26 UNL     1      -9.405   5.942  12.745  1.00  0.00     0.007 C 
HETATM   21  C27 UNL     1     -10.479   7.002  12.436  1.00  0.00     0.014 C 
HETATM   22  C28 UNL     1     -11.133   7.543  13.719  1.00  0.00     0.003 C 
HETATM   23  C29 UNL     1     -11.945   6.406  14.404  1.00  0.00     0.020 C 
ENDROOT
BRANCH   3  24
HETATM   24  O1  UNL     1     -11.369   9.768  12.699  1.00  0.00    -0.377 OA
HETATM   25  H2  UNL     1     -11.568   9.495  11.788  1.00  0.00     0.211 HD
ENDBRANCH   3  24
BRANCH  13  26
HETATM   26  O2  UNL     1      -2.344   6.497  14.087  1.00  0.00    -0.271 OA
BRANCH  26  27
HETATM   27  C13 UNL     1      -1.402   7.188  13.273  1.00  0.00     0.303 C 
BRANCH  27  28
HETATM   28  C14 UNL     1      -0.828   6.328  12.147  1.00  0.00     0.244 C 
HETATM   29  O3  UNL     1      -1.044   5.120  12.070  1.00  0.00    -0.271 OA
HETATM   30  N2  UNL     1      -0.049   7.017  11.244  1.00  0.00    -0.344 N 
HETATM   31  H16 UNL     1       0.325   7.891  11.616  1.00  0.00     0.163 HD
BRANCH  30  32
HETATM   32  C15 UNL     1       0.740   6.326  10.222  1.00  0.00     0.186 C 
BRANCH  32  33
HETATM   33  C16 UNL     1       1.832   5.488  10.910  1.00  0.00     0.163 C 
HETATM   34  O4  UNL     1       2.002   4.284  10.797  1.00  0.00    -0.648 OA
BRANCH  33  35
HETATM   35  O5  UNL     1       2.714   6.214  11.634  1.00  0.00    -0.775 OA
HETATM   36  H18 UNL     1       3.327   5.542  11.998  1.00  0.00     0.167 HD
ENDBRANCH  33  35
ENDBRANCH  32  33
BRANCH  32  37
HETATM   37  C17 UNL     1       1.366   7.355   9.247  1.00  0.00     0.014 C 
HETATM   38  C18 UNL     1       0.295   8.295   8.668  1.00  0.00     0.012 C 
BRANCH  37  39
HETATM   39  C19 UNL     1       2.184   6.721   8.100  1.00  0.00     0.002 C 
HETATM   40  C20 UNL     1       1.953   7.333   6.724  1.00  0.00     0.005 C 
ENDBRANCH  37  39
ENDBRANCH  32  37
ENDBRANCH  30  32
ENDBRANCH  27  28
ENDBRANCH  26  27
ENDBRANCH  13  26
TORSDOF 9
ENDMDL
MODEL 2
REMARK minimizedAffinity -9.1073904
REMARK  9 active torsions:
REMARK  status: ('A' for Active; 'I' for Inactive)
REMARK    1  A    between atoms: C3_3  and  O1_4 
REMARK    2  A    between atoms: N1_14  and  O2_16 
REMARK    3  A    between atoms: O2_16  and  C13_17 
REMARK    4  A    between atoms: C13_17  and  C14_18 
REMARK       I    between atoms: C14_18  and  N2_20 
REMARK    5  A    between atoms: N2_20  and  C15_21 
REMARK    6  A    between atoms: C15_21  and  C16_22 
REMARK    7  A    between atoms: C15_21  and  C17_25 
REMARK    8  A    between atoms: C16_22  and  O5_24 
REMARK    9  A    between atoms: C17_25  and  C19_27 
ROOT
HETATM    1  C1  UNL     1       4.087   7.563   9.936  1.00  0.00     0.015 C 
HETATM    2  C2  UNL     1       3.018   7.142  10.286  1.00  0.00    -0.078 C 
HETATM    3  C3  UNL     1       1.702   6.632  10.702  1.00  0.00     0.128 C 
HETATM    4  C4  UNL     1       1.745   5.129  11.073  1.00  0.00     0.052 C 
HETATM    5  C5  UNL     1       0.723   4.933  12.215  1.00  0.00     0.010 C 
HETATM    6  C6  UNL     1       0.007   6.275  12.323  1.00  0.00     0.002 C 
HETATM    7  C7  UNL     1      -0.751   6.606  13.616  1.00  0.00    -0.004 C 
HETATM    8  C8  UNL     1      -1.816   5.544  13.922  1.00  0.00     0.010 C 
HETATM    9  C9  UNL     1      -2.624   5.903  15.164  1.00  0.00     0.035 C 
HETATM   10  C10 UNL     1      -3.236   7.279  15.047  1.00  0.00    -0.069 C 
HETATM   11  C11 UNL     1      -4.564   7.431  15.206  1.00  0.00     0.030 C 
HETATM   12  C12 UNL     1      -5.195   8.778  15.168  1.00  0.00     0.032 C 
HETATM   13  N1  UNL     1      -6.467   9.025  15.089  1.00  0.00    -0.271 N 
ATOM     14  H1  UNL     1      -6.872   9.960  15.124  1.00  0.00     0.194 HD
HETATM   15  C21 UNL     1      -4.260   9.960  15.276  1.00  0.00     0.060 C 
HETATM   16  C22 UNL     1      -3.061   9.726  14.371  1.00  0.00     0.020 C 
HETATM   17  C23 UNL     1      -2.271   8.428  14.718  1.00  0.00    -0.016 C 
HETATM   18  C24 UNL     1      -1.394   8.706  15.960  1.00  0.00     0.020 C 
HETATM   19  C25 UNL     1      -1.411   8.012  13.464  1.00  0.00     0.002 C 
HETATM   20  C26 UNL     1      -0.382   9.087  13.021  1.00  0.00     0.007 C 
HETATM   21  C27 UNL     1       0.429   8.668  11.781  1.00  0.00     0.014 C 
HETATM   22  C28 UNL     1       1.112   7.304  11.978  1.00  0.00     0.003 C 
HETATM   23  C29 UNL     1       2.199   7.427  13.086  1.00  0.00     0.020 C 
ENDROOT
BRANCH   3  24
HETATM   24  O1  UNL     1       0.803   6.768   9.599  1.00  0.00    -0.377 OA
HETATM   25  H2  UNL     1       0.943   7.654   9.225  1.00  0.00     0.211 HD
ENDBRANCH   3  24
BRANCH  13  26
HETATM   26  O2  UNL     1      -7.216   7.844  14.949  1.00  0.00    -0.271 OA
BRANCH  26  27
HETATM   27  C13 UNL     1      -6.371   6.793  14.490  1.00  0.00     0.303 C 
BRANCH  27  28
HETATM   28  C14 UNL     1      -7.003   5.944  13.388  1.00  0.00     0.244 C 
HETATM   29  O3  UNL     1      -8.131   6.168  12.954  1.00  0.00    -0.271 OA
HETATM   30  N2  UNL     1      -6.208   4.913  12.937  1.00  0.00    -0.344 N 
HETATM   31  H16 UNL     1      -5.488   4.636  13.604  1.00  0.00     0.163 HD
BRANCH  30  32
HETATM   32  C15 UNL     1      -6.724   3.882  12.033  1.00  0.00     0.186 C 
BRANCH  32  33
HETATM   33  C16 UNL     1      -7.579   2.888  12.837  1.00  0.00     0.163 C 
HETATM   34  O4  UNL     1      -7.169   1.952  13.506  1.00  0.00    -0.648 OA
BRANCH  33  35
HETATM   35  O5  UNL     1      -8.903   3.170  12.838  1.00  0.00    -0.775 OA
HETATM   36  H18 UNL     1      -9.293   2.454  13.382  1.00  0.00     0.167 HD
ENDBRANCH  33  35
ENDBRANCH  32  33
BRANCH  32  37
HETATM   37  C17 UNL     1      -5.549   3.157  11.329  1.00  0.00     0.014 C 
HETATM   38  C18 UNL     1      -5.902   1.690  11.029  1.00  0.00     0.012 C 
BRANCH  37  39
HETATM   39  C19 UNL     1      -4.211   3.229  12.098  1.00  0.00     0.002 C 
HETATM   40  C20 UNL     1      -2.966   3.311  11.225  1.00  0.00     0.005 C 
ENDBRANCH  37  39
ENDBRANCH  32  37
ENDBRANCH  30  32
ENDBRANCH  27  28
ENDBRANCH  26  27
ENDBRANCH  13  26
TORSDOF 9
ENDMDL
MODEL 3
REMARK minimizedAffinity -8.69179916
REMARK  9 active torsions:
REMARK  status: ('A' for Active; 'I' for Inactive)
REMARK    1  A    between atoms: C3_3  and  O1_4 
REMARK    2  A    between atoms: N1_14  and  O2_16 
REMARK    3  A    between atoms: O2_16  and  C13_17 
REMARK    4  A    between atoms: C13_17  and  C14_18 
REMARK       I    between atoms: C14_18  and  N2_20 
REMARK    5  A    between atoms: N2_20  and  C15_21 
REMARK    6  A    between atoms: C15_21  and  C16_22 
REMARK    7  A    between atoms: C15_21  and  C17_25 
REMARK    8  A    between atoms: C16_22  and  O5_24 
REMARK    9  A    between atoms: C17_25  and  C19_27 
ROOT
HETATM    1  C1  UNL     1       4.412   8.660   9.567  1.00  0.00     0.015 C 
HETATM    2  C2  UNL     1       3.455   7.948   9.712  1.00  0.00    -0.078 C 
HETATM    3  C3  UNL     1       2.276   7.083   9.875  1.00  0.00     0.128 C 
HETATM    4  C4  UNL     1       2.663   5.597  10.081  1.00  0.00     0.052 C 
HETATM    5  C5  UNL     1       1.605   5.000  11.035  1.00  0.00     0.010 C 
HETATM    6  C6  UNL     1       0.560   6.102  11.186  1.00  0.00     0.002 C 
HETATM    7  C7  UNL     1      -0.397   6.053  12.385  1.00  0.00    -0.004 C 
HETATM    8  C8  UNL     1      -1.181   4.733  12.415  1.00  0.00     0.010 C 
HETATM    9  C9  UNL     1      -2.187   4.708  13.560  1.00  0.00     0.035 C 
HETATM   10  C10 UNL     1      -3.116   5.898  13.508  1.00  0.00    -0.069 C 
HETATM   11  C11 UNL     1      -4.447   5.701  13.490  1.00  0.00     0.030 C 
HETATM   12  C12 UNL     1      -5.395   6.848  13.509  1.00  0.00     0.032 C 
HETATM   13  N1  UNL     1      -6.671   6.790  13.275  1.00  0.00    -0.271 N 
ATOM     14  H1  UNL     1      -7.304   7.586  13.353  1.00  0.00     0.194 HD
HETATM   15  C21 UNL     1      -4.814   8.193  13.879  1.00  0.00     0.060 C 
HETATM   16  C22 UNL     1      -3.501   8.385  13.136  1.00  0.00     0.020 C 
HETATM   17  C23 UNL     1      -2.448   7.280  13.449  1.00  0.00    -0.016 C 
HETATM   18  C24 UNL     1      -1.817   7.581  14.827  1.00  0.00     0.020 C 
HETATM   19  C25 UNL     1      -1.376   7.266  12.294  1.00  0.00     0.002 C 
HETATM   20  C26 UNL     1      -0.614   8.608  12.125  1.00  0.00     0.007 C 
HETATM   21  C27 UNL     1       0.410   8.578  10.976  1.00  0.00     0.014 C 
HETATM   22  C28 UNL     1       1.395   7.404  11.119  1.00  0.00     0.003 C 
HETATM   23  C29 UNL     1       2.282   7.626  12.378  1.00  0.00     0.020 C 
ENDROOT
BRANCH   3  24
HETATM   24  O1  UNL     1       1.502   7.154   8.676  1.00  0.00    -0.377 OA
HETATM   25  H2  UNL     1       1.451   8.091   8.425  1.00  0.00     0.211 HD
ENDBRANCH   3  24
BRANCH  13  26
HETATM   26  O2  UNL     1      -7.071   5.497  12.900  1.00  0.00    -0.271 OA
BRANCH  26  27
HETATM   27  C13 UNL     1      -7.831   4.908  13.950  1.00  0.00     0.303 C 
BRANCH  27  28
HETATM   28  C14 UNL     1      -8.589   5.930  14.797  1.00  0.00     0.244 C 
HETATM   29  O3  UNL     1      -8.320   6.129  15.980  1.00  0.00    -0.271 OA
HETATM   30  N2  UNL     1      -9.593   6.593  14.126  1.00  0.00    -0.344 N 
HETATM   31  H16 UNL     1      -9.928   6.093  13.302  1.00  0.00     0.163 HD
BRANCH  30  32
HETATM   32  C15 UNL     1     -10.547   7.456  14.827  1.00  0.00     0.186 C 
BRANCH  32  33
HETATM   33  C16 UNL     1     -11.964   7.173  14.298  1.00  0.00     0.163 C 
HETATM   34  O4  UNL     1     -12.308   7.133  13.127  1.00  0.00    -0.648 OA
BRANCH  33  35
HETATM   35  O5  UNL     1     -12.863   6.864  15.261  1.00  0.00    -0.775 OA
HETATM   36  H18 UNL     1     -13.696   6.718  14.765  1.00  0.00     0.167 HD
ENDBRANCH  33  35
ENDBRANCH  32  33
BRANCH  32  37
HETATM   37  C17 UNL     1     -10.168   8.944  14.622  1.00  0.00     0.014 C 
HETATM   38  C18 UNL     1      -8.789   9.255  15.229  1.00  0.00     0.012 C 
BRANCH  37  39
HETATM   39  C19 UNL     1     -11.216   9.943  15.161  1.00  0.00     0.002 C 
HETATM   40  C20 UNL     1     -11.204  11.315  14.500  1.00  0.00     0.005 C 
ENDBRANCH  37  39
ENDBRANCH  32  37
ENDBRANCH  30  32
ENDBRANCH  27  28
ENDBRANCH  26  27
ENDBRANCH  13  26
TORSDOF 9
ENDMDL
MODEL 4
REMARK minimizedAffinity -8.60088444
REMARK  9 active torsions:
REMARK  status: ('A' for Active; 'I' for Inactive)
REMARK    1  A    between atoms: C3_3  and  O1_4 
REMARK    2  A    between atoms: N1_14  and  O2_16 
REMARK    3  A    between atoms: O2_16  and  C13_17 
REMARK    4  A    between atoms: C13_17  and  C14_18 
REMARK       I    between atoms: C14_18  and  N2_20 
REMARK    5  A    between atoms: N2_20  and  C15_21 
REMARK    6  A    between atoms: C15_21  and  C16_22 
REMARK    7  A    between atoms: C15_21  and  C17_25 
REMARK    8  A    between atoms: C16_22  and  O5_24 
REMARK    9  A    between atoms: C17_25  and  C19_27 
ROOT
HETATM    1  C1  UNL     1       0.776   6.828  14.075  1.00  0.00     0.015 C 
HETATM    2  C2  UNL     1      -0.299   6.641  13.572  1.00  0.00    -0.078 C 
HETATM    3  C3  UNL     1      -1.614   6.427  12.949  1.00  0.00     0.128 C 
HETATM    4  C4  UNL     1      -1.695   5.073  12.200  1.00  0.00     0.052 C 
HETATM    5  C5  UNL     1      -3.149   4.573  12.360  1.00  0.00     0.010 C 
HETATM    6  C6  UNL     1      -3.882   5.735  13.022  1.00  0.00     0.002 C 
HETATM    7  C7  UNL     1      -5.213   5.458  13.736  1.00  0.00    -0.004 C 
HETATM    8  C8  UNL     1      -6.231   4.818  12.780  1.00  0.00     0.010 C 
HETATM    9  C9  UNL     1      -7.579   4.607  13.460  1.00  0.00     0.035 C 
HETATM   10  C10 UNL     1      -8.110   5.894  14.047  1.00  0.00    -0.069 C 
HETATM   11  C11 UNL     1      -9.335   6.327  13.699  1.00  0.00     0.030 C 
HETATM   12  C12 UNL     1      -9.921   7.552  14.309  1.00  0.00     0.032 C 
HETATM   13  N1  UNL     1     -10.980   8.179  13.897  1.00  0.00    -0.271 N 
ATOM     14  H1  UNL     1     -11.391   8.983  14.372  1.00  0.00     0.194 HD
HETATM   15  C21 UNL     1      -9.233   8.079  15.547  1.00  0.00     0.060 C 
HETATM   16  C22 UNL     1      -7.730   8.062  15.322  1.00  0.00     0.020 C 
HETATM   17  C23 UNL     1      -7.170   6.643  15.003  1.00  0.00    -0.016 C 
HETATM   18  C24 UNL     1      -7.073   5.847  16.324  1.00  0.00     0.020 C 
HETATM   19  C25 UNL     1      -5.768   6.803  14.301  1.00  0.00     0.002 C 
HETATM   20  C26 UNL     1      -4.711   7.544  15.164  1.00  0.00     0.007 C 
HETATM   21  C27 UNL     1      -3.358   7.708  14.447  1.00  0.00     0.014 C 
HETATM   22  C28 UNL     1      -2.809   6.361  13.947  1.00  0.00     0.003 C 
HETATM   23  C29 UNL     1      -2.456   5.462  15.168  1.00  0.00     0.020 C 
ENDROOT
BRANCH   3  24
HETATM   24  O1  UNL     1      -1.822   7.457  11.980  1.00  0.00    -0.377 OA
HETATM   25  H2  UNL     1      -1.552   8.294  12.393  1.00  0.00     0.211 HD
ENDBRANCH   3  24
BRANCH  13  26
HETATM   26  O2  UNL     1     -11.492   7.614  12.717  1.00  0.00    -0.271 OA
BRANCH  26  27
HETATM   27  C13 UNL     1     -12.795   7.094  12.961  1.00  0.00     0.303 C 
BRANCH  27  28
HETATM   28  C14 UNL     1     -13.806   8.163  13.379  1.00  0.00     0.244 C 
HETATM   29  O3  UNL     1     -14.234   8.245  14.528  1.00  0.00    -0.271 OA
HETATM   30  N2  UNL     1     -14.195   9.007  12.362  1.00  0.00    -0.344 N 
HETATM   31  H16 UNL     1     -14.049   8.614  11.432  1.00  0.00     0.163 HD
BRANCH  30  32
HETATM   32  C15 UNL     1     -15.298   9.956  12.529  1.00  0.00     0.186 C 
BRANCH  32  33
HETATM   33  C16 UNL     1     -16.338   9.720  11.420  1.00  0.00     0.163 C 
HETATM   34  O4  UNL     1     -17.177  10.518  11.030  1.00  0.00    -0.648 OA
BRANCH  33  35
HETATM   35  O5  UNL     1     -16.215   8.529  10.789  1.00  0.00    -0.775 OA
HETATM   36  H18 UNL     1     -16.939   8.540  10.129  1.00  0.00     0.167 HD
ENDBRANCH  33  35
ENDBRANCH  32  33
BRANCH  32  37
HETATM   37  C17 UNL     1     -14.761  11.408  12.484  1.00  0.00     0.014 C 
HETATM   38  C18 UNL     1     -13.398  11.519  13.189  1.00  0.00     0.012 C 
BRANCH  37  39
HETATM   39  C19 UNL     1     -15.736  12.461  13.058  1.00  0.00     0.002 C 
HETATM   40  C20 UNL     1     -16.073  13.612  12.121  1.00  0.00     0.005 C 
ENDBRANCH  37  39
ENDBRANCH  32  37
ENDBRANCH  30  32
ENDBRANCH  27  28
ENDBRANCH  26  27
ENDBRANCH  13  26
TORSDOF 9
ENDMDL
MODEL 5
REMARK minimizedAffinity -8.39113235
REMARK  9 active torsions:
REMARK  status: ('A' for Active; 'I' for Inactive)
REMARK    1  A    between atoms: C3_3  and  O1_4 
REMARK    2  A    between atoms: N1_14  and  O2_16 
REMARK    3  A    between atoms: O2_16  and  C13_17 
REMARK    4  A    between atoms: C13_17  and  C14_18 
REMARK       I    between atoms: C14_18  and  N2_20 
REMARK    5  A    between atoms: N2_20  and  C15_21 
REMARK    6  A    between atoms: C15_21  and  C16_22 
REMARK    7  A    between atoms: C15_21  and  C17_25 
REMARK    8  A    between atoms: C16_22  and  O5_24 
REMARK    9  A    between atoms: C17_25  and  C19_27 
ROOT
HETATM    1  C1  UNL     1       0.808   6.618  13.927  1.00  0.00     0.015 C 
HETATM    2  C2  UNL     1      -0.284   6.443  13.458  1.00  0.00    -0.078 C 
HETATM    3  C3  UNL     1      -1.620   6.242  12.875  1.00  0.00     0.128 C 
HETATM    4  C4  UNL     1      -1.763   4.854  12.201  1.00  0.00     0.052 C 
HETATM    5  C5  UNL     1      -3.229   4.415  12.417  1.00  0.00     0.010 C 
HETATM    6  C6  UNL     1      -3.908   5.634  13.033  1.00  0.00     0.002 C 
HETATM    7  C7  UNL     1      -5.230   5.441  13.788  1.00  0.00    -0.004 C 
HETATM    8  C8  UNL     1      -6.290   4.787  12.890  1.00  0.00     0.010 C 
HETATM    9  C9  UNL     1      -7.629   4.660  13.608  1.00  0.00     0.035 C 
HETATM   10  C10 UNL     1      -8.103   5.994  14.137  1.00  0.00    -0.069 C 
HETATM   11  C11 UNL     1      -9.320   6.450  13.792  1.00  0.00     0.030 C 
HETATM   12  C12 UNL     1      -9.851   7.725  14.348  1.00  0.00     0.032 C 
HETATM   13  N1  UNL     1     -10.898   8.366  13.926  1.00  0.00    -0.271 N 
ATOM     14  H1  UNL     1     -11.270   9.207  14.366  1.00  0.00     0.194 HD
HETATM   15  C21 UNL     1      -9.118   8.292  15.541  1.00  0.00     0.060 C 
HETATM   16  C22 UNL     1      -7.621   8.211  15.286  1.00  0.00     0.020 C 
HETATM   17  C23 UNL     1      -7.117   6.759  15.032  1.00  0.00    -0.016 C 
HETATM   18  C24 UNL     1      -7.016   6.030  16.391  1.00  0.00     0.020 C 
HETATM   19  C25 UNL     1      -5.727   6.833  14.292  1.00  0.00     0.002 C 
HETATM   20  C26 UNL     1      -4.626   7.581  15.092  1.00  0.00     0.007 C 
HETATM   21  C27 UNL     1      -3.285   7.660  14.339  1.00  0.00     0.014 C 
HETATM   22  C28 UNL     1      -2.793   6.270  13.900  1.00  0.00     0.003 C 
HETATM   23  C29 UNL     1      -2.443   5.425  15.159  1.00  0.00     0.020 C 
ENDROOT
BRANCH   3  24
HETATM   24  O1  UNL     1      -1.815   7.226  11.857  1.00  0.00    -0.377 OA
HETATM   25  H2  UNL     1      -1.507   8.074  12.219  1.00  0.00     0.211 HD
ENDBRANCH   3  24
BRANCH  13  26
HETATM   26  O2  UNL     1     -11.455   7.758  12.789  1.00  0.00    -0.271 OA
BRANCH  26  27
HETATM   27  C13 UNL     1     -12.601   7.001  13.164  1.00  0.00     0.303 C 
BRANCH  27  28
HETATM   28  C14 UNL     1     -13.922   7.683  12.807  1.00  0.00     0.244 C 
HETATM   29  O3  UNL     1     -14.115   8.880  13.006  1.00  0.00    -0.271 OA
HETATM   30  N2  UNL     1     -14.866   6.843  12.258  1.00  0.00    -0.344 N 
HETATM   31  H16 UNL     1     -14.711   5.860  12.479  1.00  0.00     0.163 HD
BRANCH  30  32
HETATM   32  C15 UNL     1     -16.248   7.277  12.042  1.00  0.00     0.186 C 
BRANCH  32  33
HETATM   33  C16 UNL     1     -16.260   8.781  11.717  1.00  0.00     0.163 C 
HETATM   34  O4  UNL     1     -15.838   9.307  10.700  1.00  0.00    -0.648 OA
BRANCH  33  35
HETATM   35  O5  UNL     1     -16.886   9.542  12.644  1.00  0.00    -0.775 OA
HETATM   36  H18 UNL     1     -16.803  10.453  12.292  1.00  0.00     0.167 HD
ENDBRANCH  33  35
ENDBRANCH  32  33
BRANCH  32  37
HETATM   37  C17 UNL     1     -17.103   6.976  13.299  1.00  0.00     0.014 C 
HETATM   38  C18 UNL     1     -16.540   7.693  14.538  1.00  0.00     0.012 C 
BRANCH  37  39
HETATM   39  C19 UNL     1     -17.278   5.470  13.598  1.00  0.00     0.002 C 
HETATM   40  C20 UNL     1     -18.375   4.774  12.804  1.00  0.00     0.005 C 
ENDBRANCH  37  39
ENDBRANCH  32  37
ENDBRANCH  30  32
ENDBRANCH  27  28
ENDBRANCH  26  27
ENDBRANCH  13  26
TORSDOF 9
ENDMDL
MODEL 6
REMARK minimizedAffinity -8.38665771
REMARK  9 active torsions:
REMARK  status: ('A' for Active; 'I' for Inactive)
REMARK    1  A    between atoms: C3_3  and  O1_4 
REMARK    2  A    between atoms: N1_14  and  O2_16 
REMARK    3  A    between atoms: O2_16  and  C13_17 
REMARK    4  A    between atoms: C13_17  and  C14_18 
REMARK       I    between atoms: C14_18  and  N2_20 
REMARK    5  A    between atoms: N2_20  and  C15_21 
REMARK    6  A    between atoms: C15_21  and  C16_22 
REMARK    7  A    between atoms: C15_21  and  C17_25 
REMARK    8  A    between atoms: C16_22  and  O5_24 
REMARK    9  A    between atoms: C17_25  and  C19_27 
ROOT
HETATM    1  C1  UNL     1      -8.215   5.289  15.756  1.00  0.00     0.015 C 
HETATM    2  C2  UNL     1      -7.456   5.902  15.054  1.00  0.00    -0.078 C 
HETATM    3  C3  UNL     1      -6.534   6.647  14.182  1.00  0.00     0.128 C 
HETATM    4  C4  UNL     1      -6.553   8.168  14.473  1.00  0.00     0.052 C 
HETATM    5  C5  UNL     1      -5.115   8.676  14.225  1.00  0.00     0.010 C 
HETATM    6  C6  UNL     1      -4.383   7.478  13.627  1.00  0.00     0.002 C 
HETATM    7  C7  UNL     1      -2.849   7.456  13.664  1.00  0.00    -0.004 C 
HETATM    8  C8  UNL     1      -2.260   8.690  12.965  1.00  0.00     0.010 C 
HETATM    9  C9  UNL     1      -0.737   8.639  12.932  1.00  0.00     0.035 C 
HETATM   10  C10 UNL     1      -0.239   7.360  12.300  1.00  0.00    -0.069 C 
HETATM   11  C11 UNL     1       0.609   7.420  11.257  1.00  0.00     0.030 C 
HETATM   12  C12 UNL     1       1.176   6.184  10.654  1.00  0.00     0.032 C 
HETATM   13  N1  UNL     1       1.816   6.107   9.527  1.00  0.00    -0.271 N 
ATOM     14  H1  UNL     1       2.243   5.254   9.168  1.00  0.00     0.194 HD
HETATM   15  C21 UNL     1       1.022   4.913  11.457  1.00  0.00     0.060 C 
HETATM   16  C22 UNL     1      -0.397   4.839  11.997  1.00  0.00     0.020 C 
HETATM   17  C23 UNL     1      -0.778   6.052  12.898  1.00  0.00    -0.016 C 
HETATM   18  C24 UNL     1      -0.141   5.847  14.291  1.00  0.00     0.020 C 
HETATM   19  C25 UNL     1      -2.350   6.148  12.972  1.00  0.00     0.002 C 
HETATM   20  C26 UNL     1      -3.032   4.887  13.566  1.00  0.00     0.007 C 
HETATM   21  C27 UNL     1      -4.568   4.995  13.606  1.00  0.00     0.014 C 
HETATM   22  C28 UNL     1      -5.032   6.266  14.340  1.00  0.00     0.003 C 
HETATM   23  C29 UNL     1      -4.646   6.163  15.844  1.00  0.00     0.020 C 
ENDROOT
BRANCH   3  24
HETATM   24  O1  UNL     1      -6.961   6.471  12.830  1.00  0.00    -0.377 OA
HETATM   25  H2  UNL     1      -7.166   5.528  12.716  1.00  0.00     0.211 HD
ENDBRANCH   3  24
BRANCH  13  26
HETATM   26  O2  UNL     1       1.847   7.345   8.863  1.00  0.00    -0.271 OA
BRANCH  26  27
HETATM   27  C13 UNL     1       3.195   7.785   8.735  1.00  0.00     0.303 C 
BRANCH  27  28
HETATM   28  C14 UNL     1       3.823   8.209  10.062  1.00  0.00     0.244 C 
HETATM   29  O3  UNL     1       3.145   8.556  11.027  1.00  0.00    -0.271 OA
HETATM   30  N2  UNL     1       5.200   8.177  10.076  1.00  0.00    -0.344 N 
HETATM   31  H16 UNL     1       5.616   8.223   9.146  1.00  0.00     0.163 HD
BRANCH  30  32
HETATM   32  C15 UNL     1       5.972   8.737  11.188  1.00  0.00     0.186 C 
BRANCH  32  33
HETATM   33  C16 UNL     1       6.667  10.028  10.720  1.00  0.00     0.163 C 
HETATM   34  O4  UNL     1       6.391  11.167  11.063  1.00  0.00    -0.648 OA
BRANCH  33  35
HETATM   35  O5  UNL     1       7.734   9.821   9.914  1.00  0.00    -0.775 OA
HETATM   36  H18 UNL     1       8.052  10.726   9.711  1.00  0.00     0.167 HD
ENDBRANCH  33  35
ENDBRANCH  32  33
BRANCH  32  37
HETATM   37  C17 UNL     1       7.010   7.702  11.690  1.00  0.00     0.014 C 
HETATM   38  C18 UNL     1       6.615   6.274  11.276  1.00  0.00     0.012 C 
BRANCH  37  39
HETATM   39  C19 UNL     1       7.269   7.754  13.213  1.00  0.00     0.002 C 
HETATM   40  C20 UNL     1       8.359   8.721  13.652  1.00  0.00     0.005 C 
ENDBRANCH  37  39
ENDBRANCH  32  37
ENDBRANCH  30  32
ENDBRANCH  27  28
ENDBRANCH  26  27
ENDBRANCH  13  26
TORSDOF 9
ENDMDL
MODEL 7
REMARK minimizedAffinity -8.19665909
REMARK  9 active torsions:
REMARK  status: ('A' for Active; 'I' for Inactive)
REMARK    1  A    between atoms: C3_3  and  O1_4 
REMARK    2  A    between atoms: N1_14  and  O2_16 
REMARK    3  A    between atoms: O2_16  and  C13_17 
REMARK    4  A    between atoms: C13_17  and  C14_18 
REMARK       I    between atoms: C14_18  and  N2_20 
REMARK    5  A    between atoms: N2_20  and  C15_21 
REMARK    6  A    between atoms: C15_21  and  C16_22 
REMARK    7  A    between atoms: C15_21  and  C17_25 
REMARK    8  A    between atoms: C16_22  and  O5_24 
REMARK    9  A    between atoms: C17_25  and  C19_27 
ROOT
HETATM    1  C1  UNL     1      -1.152   6.004  14.863  1.00  0.00     0.015 C 
HETATM    2  C2  UNL     1      -2.205   6.062  14.288  1.00  0.00    -0.078 C 
HETATM    3  C3  UNL     1      -3.490   6.146  13.574  1.00  0.00     0.128 C 
HETATM    4  C4  UNL     1      -3.908   4.788  12.958  1.00  0.00     0.052 C 
HETATM    5  C5  UNL     1      -5.450   4.730  13.036  1.00  0.00     0.010 C 
HETATM    6  C6  UNL     1      -5.861   6.119  13.514  1.00  0.00     0.002 C 
HETATM    7  C7  UNL     1      -7.255   6.306  14.130  1.00  0.00    -0.004 C 
HETATM    8  C8  UNL     1      -8.355   5.861  13.156  1.00  0.00     0.010 C 
HETATM    9  C9  UNL     1      -9.744   6.112  13.730  1.00  0.00     0.035 C 
HETATM   10  C10 UNL     1      -9.922   7.556  14.139  1.00  0.00    -0.069 C 
HETATM   11  C11 UNL     1     -10.952   8.265  13.643  1.00  0.00     0.030 C 
HETATM   12  C12 UNL     1     -11.201   9.667  14.075  1.00  0.00     0.032 C 
HETATM   13  N1  UNL     1     -12.014  10.508  13.512  1.00  0.00    -0.271 N 
ATOM     14  H1  UNL     1     -12.206  11.444  13.868  1.00  0.00     0.194 HD
HETATM   15  C21 UNL     1     -10.465  10.128  15.312  1.00  0.00     0.060 C 
HETATM   16  C22 UNL     1      -9.017   9.672  15.224  1.00  0.00     0.020 C 
HETATM   17  C23 UNL     1      -8.865   8.126  15.097  1.00  0.00    -0.016 C 
HETATM   18  C24 UNL     1      -9.074   7.497  16.493  1.00  0.00     0.020 C 
HETATM   19  C25 UNL     1      -7.437   7.809  14.509  1.00  0.00     0.002 C 
HETATM   20  C26 UNL     1      -6.265   8.328  15.386  1.00  0.00     0.007 C 
HETATM   21  C27 UNL     1      -4.882   8.026  14.779  1.00  0.00     0.014 C 
HETATM   22  C28 UNL     1      -4.709   6.530  14.464  1.00  0.00     0.003 C 
HETATM   23  C29 UNL     1      -4.697   5.721  15.794  1.00  0.00     0.020 C 
ENDROOT
BRANCH   3  24
HETATM   24  O1  UNL     1      -3.341   7.070  12.495  1.00  0.00    -0.377 OA
HETATM   25  H2  UNL     1      -2.869   7.843  12.846  1.00  0.00     0.211 HD
ENDBRANCH   3  24
BRANCH  13  26
HETATM   26  O2  UNL     1     -12.595   9.969  12.352  1.00  0.00    -0.271 OA
BRANCH  26  27
HETATM   27  C13 UNL     1     -13.948  10.404  12.250  1.00  0.00     0.303 C 
BRANCH  27  28
HETATM   28  C14 UNL     1     -14.957   9.365  12.739  1.00  0.00     0.244 C 
HETATM   29  O3  UNL     1     -15.848   9.644  13.539  1.00  0.00    -0.271 OA
HETATM   30  N2  UNL     1     -14.774   8.104  12.218  1.00  0.00    -0.344 N 
HETATM   31  H16 UNL     1     -13.827   7.941  11.874  1.00  0.00     0.163 HD
BRANCH  30  32
HETATM   32  C15 UNL     1     -15.516   6.947  12.724  1.00  0.00     0.186 C 
BRANCH  32  33
HETATM   33  C16 UNL     1     -17.025   7.226  12.609  1.00  0.00     0.163 C 
HETATM   34  O4  UNL     1     -17.865   7.048  13.478  1.00  0.00    -0.648 OA
BRANCH  33  35
HETATM   35  O5  UNL     1     -17.394   7.802  11.442  1.00  0.00    -0.775 OA
HETATM   36  H18 UNL     1     -18.365   7.908  11.531  1.00  0.00     0.167 HD
ENDBRANCH  33  35
ENDBRANCH  32  33
BRANCH  32  37
HETATM   37  C17 UNL     1     -15.118   6.660  14.193  1.00  0.00     0.014 C 
HETATM   38  C18 UNL     1     -13.610   6.383  14.316  1.00  0.00     0.012 C 
BRANCH  37  39
HETATM   39  C19 UNL     1     -15.917   5.515  14.853  1.00  0.00     0.002 C 
HETATM   40  C20 UNL     1     -15.317   4.125  14.688  1.00  0.00     0.005 C 
ENDBRANCH  37  39
ENDBRANCH  32  37
ENDBRANCH  30  32
ENDBRANCH  27  28
ENDBRANCH  26  27
ENDBRANCH  13  26
TORSDOF 9
ENDMDL
MODEL 8
REMARK minimizedAffinity -7.97442484
REMARK  9 active torsions:
REMARK  status: ('A' for Active; 'I' for Inactive)
REMARK    1  A    between atoms: C3_3  and  O1_4 
REMARK    2  A    between atoms: N1_14  and  O2_16 
REMARK    3  A    between atoms: O2_16  and  C13_17 
REMARK    4  A    between atoms: C13_17  and  C14_18 
REMARK       I    between atoms: C14_18  and  N2_20 
REMARK    5  A    between atoms: N2_20  and  C15_21 
REMARK    6  A    between atoms: C15_21  and  C16_22 
REMARK    7  A    between atoms: C15_21  and  C17_25 
REMARK    8  A    between atoms: C16_22  and  O5_24 
REMARK    9  A    between atoms: C17_25  and  C19_27 
ROOT
HETATM    1  C1  UNL     1       2.070   6.455   6.612  1.00  0.00     0.015 C 
HETATM    2  C2  UNL     1       1.966   6.942   7.706  1.00  0.00    -0.078 C 
HETATM    3  C3  UNL     1       1.836   7.552   9.038  1.00  0.00     0.128 C 
HETATM    4  C4  UNL     1       0.795   6.820   9.920  1.00  0.00     0.052 C 
HETATM    5  C5  UNL     1       1.316   6.906  11.372  1.00  0.00     0.010 C 
HETATM    6  C6  UNL     1       2.522   7.837  11.291  1.00  0.00     0.002 C 
HETATM    7  C7  UNL     1       3.552   7.810  12.429  1.00  0.00    -0.004 C 
HETATM    8  C8  UNL     1       2.891   8.108  13.782  1.00  0.00     0.010 C 
HETATM    9  C9  UNL     1       3.919   8.158  14.907  1.00  0.00     0.035 C 
HETATM   10  C10 UNL     1       5.023   9.144  14.605  1.00  0.00    -0.069 C 
HETATM   11  C11 UNL     1       5.298  10.122  15.487  1.00  0.00     0.030 C 
HETATM   12  C12 UNL     1       6.423  11.070  15.259  1.00  0.00     0.032 C 
HETATM   13  N1  UNL     1       6.642  12.169  15.915  1.00  0.00    -0.271 N 
ATOM     14  H1  UNL     1       7.455  12.768  15.773  1.00  0.00     0.194 HD
HETATM   15  C21 UNL     1       7.419  10.683  14.191  1.00  0.00     0.060 C 
HETATM   16  C22 UNL     1       6.665  10.188  12.967  1.00  0.00     0.020 C 
HETATM   17  C23 UNL     1       5.747   8.965  13.263  1.00  0.00    -0.016 C 
HETATM   18  C24 UNL     1       6.629   7.699  13.344  1.00  0.00     0.020 C 
HETATM   19  C25 UNL     1       4.664   8.863  12.122  1.00  0.00     0.002 C 
HETATM   20  C26 UNL     1       5.260   8.673  10.701  1.00  0.00     0.007 C 
HETATM   21  C27 UNL     1       4.184   8.600   9.602  1.00  0.00     0.014 C 
HETATM   22  C28 UNL     1       3.131   7.519   9.903  1.00  0.00     0.003 C 
HETATM   23  C29 UNL     1       3.800   6.115   9.837  1.00  0.00     0.020 C 
ENDROOT
BRANCH   3  24
HETATM   24  O1  UNL     1       1.375   8.895   8.870  1.00  0.00    -0.377 OA
HETATM   25  H2  UNL     1       1.895   9.285   8.148  1.00  0.00     0.211 HD
ENDBRANCH   3  24
BRANCH  13  26
HETATM   26  O2  UNL     1       5.620  12.431  16.842  1.00  0.00    -0.271 OA
BRANCH  26  27
HETATM   27  C13 UNL     1       6.184  12.602  18.139  1.00  0.00     0.303 C 
BRANCH  27  28
HETATM   28  C14 UNL     1       5.781  11.505  19.125  1.00  0.00     0.244 C 
HETATM   29  O3  UNL     1       6.401  10.448  19.218  1.00  0.00    -0.271 OA
HETATM   30  N2  UNL     1       4.668  11.801  19.881  1.00  0.00    -0.344 N 
HETATM   31  H16 UNL     1       4.072  12.515  19.463  1.00  0.00     0.163 HD
BRANCH  30  32
HETATM   32  C15 UNL     1       4.024  10.795  20.728  1.00  0.00     0.186 C 
BRANCH  32  33
HETATM   33  C16 UNL     1       2.626  10.482  20.165  1.00  0.00     0.163 C 
HETATM   34  O4  UNL     1       2.369   9.731  19.236  1.00  0.00    -0.648 OA
BRANCH  33  35
HETATM   35  O5  UNL     1       1.611  11.055  20.851  1.00  0.00    -0.775 OA
HETATM   36  H18 UNL     1       0.809  10.762  20.369  1.00  0.00     0.167 HD
ENDBRANCH  33  35
ENDBRANCH  32  33
BRANCH  32  37
HETATM   37  C17 UNL     1       3.928  11.309  22.187  1.00  0.00     0.014 C 
HETATM   38  C18 UNL     1       4.947  12.432  22.447  1.00  0.00     0.012 C 
BRANCH  37  39
HETATM   39  C19 UNL     1       4.078  10.205  23.257  1.00  0.00     0.002 C 
HETATM   40  C20 UNL     1       3.276   8.938  22.999  1.00  0.00     0.005 C 
ENDBRANCH  37  39
ENDBRANCH  32  37
ENDBRANCH  30  32
ENDBRANCH  27  28
ENDBRANCH  26  27
ENDBRANCH  13  26
TORSDOF 9
ENDMDL
MODEL 9
REMARK minimizedAffinity -7.95931196
REMARK  9 active torsions:
REMARK  status: ('A' for Active; 'I' for Inactive)
REMARK    1  A    between atoms: C3_3  and  O1_4 
REMARK    2  A    between atoms: N1_14  and  O2_16 
REMARK    3  A    between atoms: O2_16  and  C13_17 
REMARK    4  A    between atoms: C13_17  and  C14_18 
REMARK       I    between atoms: C14_18  and  N2_20 
REMARK    5  A    between atoms: N2_20  and  C15_21 
REMARK    6  A    between atoms: C15_21  and  C16_22 
REMARK    7  A    between atoms: C15_21  and  C17_25 
REMARK    8  A    between atoms: C16_22  and  O5_24 
REMARK    9  A    between atoms: C17_25  and  C19_27 
ROOT
HETATM    1  C1  UNL     1       2.336   8.039  12.416  1.00  0.00     0.015 C 
HETATM    2  C2  UNL     1       1.249   7.627  12.114  1.00  0.00    -0.078 C 
HETATM    3  C3  UNL     1      -0.085   7.136  11.734  1.00  0.00     0.128 C 
HETATM    4  C4  UNL     1      -0.030   5.729  11.087  1.00  0.00     0.052 C 
HETATM    5  C5  UNL     1      -1.323   5.002  11.518  1.00  0.00     0.010 C 
HETATM    6  C6  UNL     1      -2.147   6.072  12.228  1.00  0.00     0.002 C 
HETATM    7  C7  UNL     1      -3.276   5.631  13.170  1.00  0.00    -0.004 C 
HETATM    8  C8  UNL     1      -4.294   4.745  12.437  1.00  0.00     0.010 C 
HETATM    9  C9  UNL     1      -5.458   4.364  13.345  1.00  0.00     0.035 C 
HETATM   10  C10 UNL     1      -6.119   5.585  13.940  1.00  0.00    -0.069 C 
HETATM   11  C11 UNL     1      -7.442   5.769  13.779  1.00  0.00     0.030 C 
HETATM   12  C12 UNL     1      -8.142   6.921  14.409  1.00  0.00     0.032 C 
HETATM   13  N1  UNL     1      -9.350   7.318  14.147  1.00  0.00    -0.271 N 
ATOM     14  H1  UNL     1      -9.822   8.077  14.638  1.00  0.00     0.194 HD
HETATM   15  C21 UNL     1      -7.379   7.664  15.481  1.00  0.00     0.060 C 
HETATM   16  C22 UNL     1      -5.952   7.888  15.008  1.00  0.00     0.020 C 
HETATM   17  C23 UNL     1      -5.197   6.565  14.680  1.00  0.00    -0.016 C 
HETATM   18  C24 UNL     1      -4.750   5.914  16.009  1.00  0.00     0.020 C 
HETATM   19  C25 UNL     1      -3.975   6.904  13.744  1.00  0.00     0.002 C 
HETATM   20  C26 UNL     1      -2.952   7.887  14.373  1.00  0.00     0.007 C 
HETATM   21  C27 UNL     1      -1.780   8.221  13.430  1.00  0.00     0.014 C 
HETATM   22  C28 UNL     1      -1.076   6.951  12.921  1.00  0.00     0.003 C 
HETATM   23  C29 UNL     1      -0.378   6.235  14.114  1.00  0.00     0.020 C 
ENDROOT
BRANCH   3  24
HETATM   24  O1  UNL     1      -0.627   8.027  10.758  1.00  0.00    -0.377 OA
HETATM   25  H2  UNL     1      -0.455   8.931  11.071  1.00  0.00     0.211 HD
ENDBRANCH   3  24
BRANCH  13  26
HETATM   26  O2  UNL     1      -9.925   6.574  13.104  1.00  0.00    -0.271 OA
BRANCH  26  27
HETATM   27  C13 UNL     1     -11.026   7.293  12.555  1.00  0.00     0.303 C 
BRANCH  27  28
HETATM   28  C14 UNL     1     -12.315   7.138  13.364  1.00  0.00     0.244 C 
HETATM   29  O3  UNL     1     -12.369   6.454  14.384  1.00  0.00    -0.271 OA
HETATM   30  N2  UNL     1     -13.396   7.816  12.847  1.00  0.00    -0.344 N 
HETATM   31  H16 UNL     1     -13.304   8.029  11.853  1.00  0.00     0.163 HD
BRANCH  30  32
HETATM   32  C15 UNL     1     -14.749   7.622  13.372  1.00  0.00     0.186 C 
BRANCH  32  33
HETATM   33  C16 UNL     1     -15.687   7.228  12.217  1.00  0.00     0.163 C 
HETATM   34  O4  UNL     1     -15.709   7.721  11.100  1.00  0.00    -0.648 OA
BRANCH  33  35
HETATM   35  O5  UNL     1     -16.490   6.174  12.491  1.00  0.00    -0.775 OA
HETATM   36  H18 UNL     1     -17.011   6.059  11.669  1.00  0.00     0.167 HD
ENDBRANCH  33  35
ENDBRANCH  32  33
BRANCH  32  37
HETATM   37  C17 UNL     1     -15.241   8.918  14.066  1.00  0.00     0.014 C 
HETATM   38  C18 UNL     1     -16.754   8.863  14.337  1.00  0.00     0.012 C 
BRANCH  37  39
HETATM   39  C19 UNL     1     -14.891  10.215  13.302  1.00  0.00     0.002 C 
HETATM   40  C20 UNL     1     -15.827  11.389  13.556  1.00  0.00     0.005 C 
ENDBRANCH  37  39
ENDBRANCH  32  37
ENDBRANCH  30  32
ENDBRANCH  27  28
ENDBRANCH  26  27
ENDBRANCH  13  26
TORSDOF 9
ENDMDL
