MODEL 1
REMARK minimizedAffinity -8.00710583
REMARK  10 active torsions:
REMARK  status: ('A' for Active; 'I' for Inactive)
REMARK    1  A    between atoms: O1_1  and  C1_2 
REMARK    2  A    between atoms: C1_2  and  C2_3 
REMARK    3  A    between atoms: C3_5  and  C4_6 
REMARK    4  A    between atoms: C4_6  and  O2_7 
REMARK    5  A    between atoms: C4_6  and  C5_8 
REMARK    6  A    between atoms: C5_8  and  C6_9 
REMARK    7  A    between atoms: C6_9  and  C7_10 
REMARK    8  A    between atoms: C7_10  and  C8_11 
REMARK    9  A    between atoms: C17_22  and  O5_23 
REMARK   10  A    between atoms: C18_24  and  O6_25 
ROOT
HETATM    1  C4  UNL     1      -3.783   6.264  14.790  1.00  0.00     0.154 C 
ENDROOT
BRANCH   1   2
HETATM    2  C3  UNL     1      -5.296   6.393  14.472  1.00  0.00     0.280 C 
HETATM    3  N1  UNL     1      -5.740   5.623  13.282  1.00  0.00     0.102 N 
HETATM    4  C2  UNL     1      -6.598   4.519  13.778  1.00  0.00     0.275 C 
HETATM    5  H5  UNL     1      -4.957   5.248  12.749  1.00  0.00     0.317 HD
HETATM    6  C18 UNL     1      -7.296   5.121  14.994  1.00  0.00     0.184 C 
HETATM    7  C17 UNL     1      -6.166   5.911  15.653  1.00  0.00     0.184 C 
BRANCH   4   8
HETATM    8  C1  UNL     1      -7.588   4.078  12.694  1.00  0.00     0.202 C 
BRANCH   8   9
HETATM    9  O1  UNL     1      -8.803   3.622  13.295  1.00  0.00    -0.399 OA
HETATM   10  H1  UNL     1      -8.944   4.224  14.053  1.00  0.00     0.209 HD
ENDBRANCH   8   9
ENDBRANCH   4   8
BRANCH   6  11
HETATM   11  O6  UNL     1      -7.799   4.122  15.874  1.00  0.00    -0.391 OA
HETATM   12  H33 UNL     1      -8.011   4.577  16.711  1.00  0.00     0.210 HD
ENDBRANCH   6  11
BRANCH   7  13
HETATM   13  O5  UNL     1      -6.700   6.991  16.421  1.00  0.00    -0.391 OA
HETATM   14  H31 UNL     1      -7.229   7.551  15.824  1.00  0.00     0.210 HD
ENDBRANCH   7  13
ENDBRANCH   1   2
BRANCH   1  15
HETATM   15  O2  UNL     1      -3.592   6.037  16.192  1.00  0.00    -0.393 OA
HETATM   16  H8  UNL     1      -3.937   5.154  16.408  1.00  0.00     0.210 HD
ENDBRANCH   1  15
BRANCH   1  17
HETATM   17  C5  UNL     1      -3.044   5.151  14.027  1.00  0.00     0.034 C 
BRANCH  17  18
HETATM   18  C6  UNL     1      -2.183   5.668  12.874  1.00  0.00     0.005 C 
BRANCH  18  19
HETATM   19  C7  UNL     1      -0.685   5.391  13.042  1.00  0.00     0.032 C 
BRANCH  19  20
HETATM   20  C8  UNL     1       0.249   6.445  12.429  1.00  0.00     0.125 C 
HETATM   21  C9  UNL     1       1.405   6.855  13.347  1.00  0.00     0.032 C 
HETATM   22  C10 UNL     1       2.631   7.318  12.559  1.00  0.00     0.008 C 
HETATM   23  C11 UNL     1       2.213   7.892  11.213  1.00  0.00     0.068 C 
HETATM   24  C12 UNL     1       1.419   6.854  10.376  1.00  0.00     0.164 C 
HETATM   25  C13 UNL     1       2.329   6.038   9.430  1.00  0.00     0.068 C 
HETATM   26  O3  UNL     1       0.390   7.495   9.619  1.00  0.00    -0.355 OA
HETATM   27  O4  UNL     1       0.806   5.877  11.240  1.00  0.00    -0.350 OA
HETATM   28  C14 UNL     1       2.307   6.528   7.984  1.00  0.00     0.007 C 
HETATM   29  C15 UNL     1       2.107   8.028   7.918  1.00  0.00     0.026 C 
HETATM   30  C16 UNL     1       0.838   8.444   8.654  1.00  0.00     0.171 C 
ENDBRANCH  19  20
ENDBRANCH  18  19
ENDBRANCH  17  18
ENDBRANCH   1  17
TORSDOF 10
ENDMDL
MODEL 2
REMARK minimizedAffinity -7.84387541
REMARK  10 active torsions:
REMARK  status: ('A' for Active; 'I' for Inactive)
REMARK    1  A    between atoms: O1_1  and  C1_2 
REMARK    2  A    between atoms: C1_2  and  C2_3 
REMARK    3  A    between atoms: C3_5  and  C4_6 
REMARK    4  A    between atoms: C4_6  and  O2_7 
REMARK    5  A    between atoms: C4_6  and  C5_8 
REMARK    6  A    between atoms: C5_8  and  C6_9 
REMARK    7  A    between atoms: C6_9  and  C7_10 
REMARK    8  A    between atoms: C7_10  and  C8_11 
REMARK    9  A    between atoms: C17_22  and  O5_23 
REMARK   10  A    between atoms: C18_24  and  O6_25 
ROOT
HETATM    1  C4  UNL     1      -3.110   4.966  12.183  1.00  0.00     0.154 C 
ENDROOT
BRANCH   1   2
HETATM    2  C3  UNL     1      -3.843   3.658  12.584  1.00  0.00     0.280 C 
HETATM    3  N1  UNL     1      -5.198   3.866  13.156  1.00  0.00     0.102 N 
HETATM    4  C2  UNL     1      -6.169   3.342  12.163  1.00  0.00     0.275 C 
HETATM    5  H5  UNL     1      -5.390   4.847  13.351  1.00  0.00     0.317 HD
HETATM    6  C18 UNL     1      -5.437   2.165  11.526  1.00  0.00     0.184 C 
HETATM    7  C17 UNL     1      -4.019   2.714  11.375  1.00  0.00     0.184 C 
BRANCH   4   8
HETATM    8  C1  UNL     1      -7.470   2.918  12.856  1.00  0.00     0.202 C 
BRANCH   8   9
HETATM    9  O1  UNL     1      -7.772   1.556  12.541  1.00  0.00    -0.399 OA
HETATM   10  H1  UNL     1      -6.902   1.107  12.528  1.00  0.00     0.209 HD
ENDBRANCH   8   9
ENDBRANCH   4   8
BRANCH   6  11
HETATM   11  O6  UNL     1      -5.985   1.813  10.260  1.00  0.00    -0.391 OA
HETATM   12  H33 UNL     1      -5.330   1.228   9.833  1.00  0.00     0.210 HD
ENDBRANCH   6  11
BRANCH   7  13
HETATM   13  O5  UNL     1      -3.073   1.643  11.370  1.00  0.00    -0.391 OA
HETATM   14  H31 UNL     1      -3.178   1.145  12.200  1.00  0.00     0.210 HD
ENDBRANCH   7  13
ENDBRANCH   1   2
BRANCH   1  15
HETATM   15  O2  UNL     1      -2.825   5.748  13.350  1.00  0.00    -0.393 OA
HETATM   16  H8  UNL     1      -2.160   5.276  13.878  1.00  0.00     0.210 HD
ENDBRANCH   1  15
BRANCH   1  17
HETATM   17  C5  UNL     1      -1.793   4.771  11.413  1.00  0.00     0.034 C 
BRANCH  17  18
HETATM   18  C6  UNL     1      -0.712   4.056  12.222  1.00  0.00     0.005 C 
BRANCH  18  19
HETATM   19  C7  UNL     1       0.108   4.984  13.124  1.00  0.00     0.032 C 
BRANCH  19  20
HETATM   20  C8  UNL     1       0.764   6.178  12.414  1.00  0.00     0.125 C 
HETATM   21  C9  UNL     1       1.867   6.855  13.235  1.00  0.00     0.032 C 
HETATM   22  C10 UNL     1       2.918   7.523  12.347  1.00  0.00     0.008 C 
HETATM   23  C11 UNL     1       2.305   7.940  11.017  1.00  0.00     0.068 C 
HETATM   24  C12 UNL     1       1.690   6.727  10.271  1.00  0.00     0.164 C 
HETATM   25  C13 UNL     1       2.686   6.072   9.287  1.00  0.00     0.068 C 
HETATM   26  O3  UNL     1       0.505   7.111   9.571  1.00  0.00    -0.355 OA
HETATM   27  O4  UNL     1       1.348   5.684  11.205  1.00  0.00    -0.350 OA
HETATM   28  C14 UNL     1       2.471   6.483   7.832  1.00  0.00     0.007 C 
HETATM   29  C15 UNL     1       1.962   7.907   7.736  1.00  0.00     0.026 C 
HETATM   30  C16 UNL     1       0.684   8.087   8.549  1.00  0.00     0.171 C 
ENDBRANCH  19  20
ENDBRANCH  18  19
ENDBRANCH  17  18
ENDBRANCH   1  17
TORSDOF 10
ENDMDL
MODEL 3
REMARK minimizedAffinity -7.78997087
REMARK  10 active torsions:
REMARK  status: ('A' for Active; 'I' for Inactive)
REMARK    1  A    between atoms: O1_1  and  C1_2 
REMARK    2  A    between atoms: C1_2  and  C2_3 
REMARK    3  A    between atoms: C3_5  and  C4_6 
REMARK    4  A    between atoms: C4_6  and  O2_7 
REMARK    5  A    between atoms: C4_6  and  C5_8 
REMARK    6  A    between atoms: C5_8  and  C6_9 
REMARK    7  A    between atoms: C6_9  and  C7_10 
REMARK    8  A    between atoms: C7_10  and  C8_11 
REMARK    9  A    between atoms: C17_22  and  O5_23 
REMARK   10  A    between atoms: C18_24  and  O6_25 
ROOT
HETATM    1  C4  UNL     1      -4.677   7.330  14.920  1.00  0.00     0.154 C 
ENDROOT
BRANCH   1   2
HETATM    2  C3  UNL     1      -6.218   7.156  14.866  1.00  0.00     0.280 C 
HETATM    3  N1  UNL     1      -6.722   6.552  13.606  1.00  0.00     0.102 N 
HETATM    4  C2  UNL     1      -7.230   5.201  13.949  1.00  0.00     0.275 C 
HETATM    5  H5  UNL     1      -5.999   6.486  12.892  1.00  0.00     0.317 HD
HETATM    6  C18 UNL     1      -7.783   5.369  15.361  1.00  0.00     0.184 C 
HETATM    7  C17 UNL     1      -6.727   6.259  16.014  1.00  0.00     0.184 C 
BRANCH   4   8
HETATM    8  C1  UNL     1      -8.304   4.759  12.948  1.00  0.00     0.202 C 
BRANCH   8   9
HETATM    9  O1  UNL     1      -8.744   3.433  13.253  1.00  0.00    -0.399 OA
HETATM   10  H1  UNL     1      -8.756   3.396  14.231  1.00  0.00     0.209 HD
ENDBRANCH   8   9
ENDBRANCH   4   8
BRANCH   6  11
HETATM   11  O6  UNL     1      -7.896   4.126  16.046  1.00  0.00    -0.391 OA
HETATM   12  H33 UNL     1      -8.028   4.345  16.988  1.00  0.00     0.210 HD
ENDBRANCH   6  11
BRANCH   7  13
HETATM   13  O5  UNL     1      -7.306   7.009  17.084  1.00  0.00    -0.391 OA
HETATM   14  H31 UNL     1      -8.042   7.534  16.719  1.00  0.00     0.210 HD
ENDBRANCH   7  13
ENDBRANCH   1   2
BRANCH   1  15
HETATM   15  O2  UNL     1      -4.124   6.499  15.948  1.00  0.00    -0.393 OA
HETATM   16  H8  UNL     1      -4.230   5.571  15.681  1.00  0.00     0.210 HD
ENDBRANCH   1  15
BRANCH   1  17
HETATM   17  C5  UNL     1      -3.934   7.017  13.610  1.00  0.00     0.034 C 
BRANCH  17  18
HETATM   18  C6  UNL     1      -2.416   6.945  13.770  1.00  0.00     0.005 C 
BRANCH  18  19
HETATM   19  C7  UNL     1      -1.637   7.615  12.633  1.00  0.00     0.032 C 
BRANCH  19  20
HETATM   20  C8  UNL     1      -0.264   6.998  12.326  1.00  0.00     0.125 C 
HETATM   21  C9  UNL     1      -0.249   5.467  12.377  1.00  0.00     0.032 C 
HETATM   22  C10 UNL     1       0.821   4.870  11.461  1.00  0.00     0.008 C 
HETATM   23  C11 UNL     1       1.976   5.845  11.286  1.00  0.00     0.068 C 
HETATM   24  C12 UNL     1       1.493   7.200  10.705  1.00  0.00     0.164 C 
HETATM   25  C13 UNL     1       1.585   7.249   9.164  1.00  0.00     0.068 C 
HETATM   26  O3  UNL     1       2.235   8.285  11.267  1.00  0.00    -0.355 OA
HETATM   27  O4  UNL     1       0.097   7.403  11.002  1.00  0.00    -0.350 OA
HETATM   28  C14 UNL     1       2.813   7.996   8.646  1.00  0.00     0.007 C 
HETATM   29  C15 UNL     1       3.991   7.828   9.584  1.00  0.00     0.026 C 
HETATM   30  C16 UNL     1       3.634   8.276  10.997  1.00  0.00     0.171 C 
ENDBRANCH  19  20
ENDBRANCH  18  19
ENDBRANCH  17  18
ENDBRANCH   1  17
TORSDOF 10
ENDMDL
MODEL 4
REMARK minimizedAffinity -7.70273542
REMARK  10 active torsions:
REMARK  status: ('A' for Active; 'I' for Inactive)
REMARK    1  A    between atoms: O1_1  and  C1_2 
REMARK    2  A    between atoms: C1_2  and  C2_3 
REMARK    3  A    between atoms: C3_5  and  C4_6 
REMARK    4  A    between atoms: C4_6  and  O2_7 
REMARK    5  A    between atoms: C4_6  and  C5_8 
REMARK    6  A    between atoms: C5_8  and  C6_9 
REMARK    7  A    between atoms: C6_9  and  C7_10 
REMARK    8  A    between atoms: C7_10  and  C8_11 
REMARK    9  A    between atoms: C17_22  and  O5_23 
REMARK   10  A    between atoms: C18_24  and  O6_25 
ROOT
HETATM    1  C4  UNL     1      -5.254   4.631  13.107  1.00  0.00     0.154 C 
ENDROOT
BRANCH   1   2
HETATM    2  C3  UNL     1      -6.090   5.829  13.628  1.00  0.00     0.280 C 
HETATM    3  N1  UNL     1      -7.343   6.078  12.871  1.00  0.00     0.102 N 
HETATM    4  C2  UNL     1      -8.468   5.733  13.774  1.00  0.00     0.275 C 
HETATM    5  H5  UNL     1      -7.396   5.525  12.017  1.00  0.00     0.317 HD
HETATM    6  C18 UNL     1      -7.952   6.114  15.158  1.00  0.00     0.184 C 
HETATM    7  C17 UNL     1      -6.503   5.633  15.103  1.00  0.00     0.184 C 
BRANCH   4   8
HETATM    8  C1  UNL     1      -9.730   6.512  13.384  1.00  0.00     0.202 C 
BRANCH   8   9
HETATM    9  O1  UNL     1     -10.800   6.192  14.277  1.00  0.00    -0.399 OA
HETATM   10  H1  UNL     1     -10.372   6.104  15.153  1.00  0.00     0.209 HD
ENDBRANCH   8   9
ENDBRANCH   4   8
BRANCH   6  11
HETATM   11  O6  UNL     1      -8.667   5.457  16.199  1.00  0.00    -0.391 OA
HETATM   12  H33 UNL     1      -8.135   5.570  17.009  1.00  0.00     0.210 HD
ENDBRANCH   6  11
BRANCH   7  13
HETATM   13  O5  UNL     1      -5.696   6.390  16.007  1.00  0.00    -0.391 OA
HETATM   14  H31 UNL     1      -5.771   7.330  15.762  1.00  0.00     0.210 HD
ENDBRANCH   7  13
ENDBRANCH   1   2
BRANCH   1  15
HETATM   15  O2  UNL     1      -5.986   3.922  12.098  1.00  0.00    -0.393 OA
HETATM   16  H8  UNL     1      -6.061   4.494  11.316  1.00  0.00     0.210 HD
ENDBRANCH   1  15
BRANCH   1  17
HETATM   17  C5  UNL     1      -3.878   4.994  12.522  1.00  0.00     0.034 C 
BRANCH  17  18
HETATM   18  C6  UNL     1      -2.945   3.794  12.363  1.00  0.00     0.005 C 
BRANCH  18  19
HETATM   19  C7  UNL     1      -1.854   3.990  11.305  1.00  0.00     0.032 C 
BRANCH  19  20
HETATM   20  C8  UNL     1      -0.857   5.122  11.593  1.00  0.00     0.125 C 
HETATM   21  C9  UNL     1      -0.424   5.206  13.060  1.00  0.00     0.032 C 
HETATM   22  C10 UNL     1       0.974   5.804  13.216  1.00  0.00     0.008 C 
HETATM   23  C11 UNL     1       1.283   6.745  12.059  1.00  0.00     0.068 C 
HETATM   24  C12 UNL     1       1.178   6.018  10.693  1.00  0.00     0.164 C 
HETATM   25  C13 UNL     1       2.535   5.446  10.223  1.00  0.00     0.068 C 
HETATM   26  O3  UNL     1       0.652   6.892   9.693  1.00  0.00    -0.355 OA
HETATM   27  O4  UNL     1       0.308   4.874  10.800  1.00  0.00    -0.350 OA
HETATM   28  C14 UNL     1       3.238   6.313   9.181  1.00  0.00     0.007 C 
HETATM   29  C15 UNL     1       2.944   7.782   9.404  1.00  0.00     0.026 C 
HETATM   30  C16 UNL     1       1.441   8.045   9.408  1.00  0.00     0.171 C 
ENDBRANCH  19  20
ENDBRANCH  18  19
ENDBRANCH  17  18
ENDBRANCH   1  17
TORSDOF 10
ENDMDL
MODEL 5
REMARK minimizedAffinity -7.70239782
REMARK  10 active torsions:
REMARK  status: ('A' for Active; 'I' for Inactive)
REMARK    1  A    between atoms: O1_1  and  C1_2 
REMARK    2  A    between atoms: C1_2  and  C2_3 
REMARK    3  A    between atoms: C3_5  and  C4_6 
REMARK    4  A    between atoms: C4_6  and  O2_7 
REMARK    5  A    between atoms: C4_6  and  C5_8 
REMARK    6  A    between atoms: C5_8  and  C6_9 
REMARK    7  A    between atoms: C6_9  and  C7_10 
REMARK    8  A    between atoms: C7_10  and  C8_11 
REMARK    9  A    between atoms: C17_22  and  O5_23 
REMARK   10  A    between atoms: C18_24  and  O6_25 
ROOT
HETATM    1  C4  UNL     1       0.773   5.486  12.573  1.00  0.00     0.154 C 
ENDROOT
BRANCH   1   2
HETATM    2  C3  UNL     1       0.913   5.418  11.029  1.00  0.00     0.280 C 
HETATM    3  N1  UNL     1       0.512   6.661  10.322  1.00  0.00     0.102 N 
HETATM    4  C2  UNL     1       1.751   7.256   9.761  1.00  0.00     0.275 C 
HETATM    5  H5  UNL     1       0.051   7.327  10.940  1.00  0.00     0.317 HD
HETATM    6  C18 UNL     1       2.608   6.044   9.409  1.00  0.00     0.184 C 
HETATM    7  C17 UNL     1       2.368   5.123  10.605  1.00  0.00     0.184 C 
BRANCH   4   8
HETATM    8  C1  UNL     1       1.427   8.120   8.537  1.00  0.00     0.202 C 
BRANCH   8   9
HETATM    9  O1  UNL     1       0.265   8.915   8.791  1.00  0.00    -0.399 OA
HETATM   10  H1  UNL     1       0.347   9.177   9.731  1.00  0.00     0.209 HD
ENDBRANCH   8   9
ENDBRANCH   4   8
BRANCH   6  11
HETATM   11  O6  UNL     1       3.987   6.376   9.290  1.00  0.00    -0.391 OA
HETATM   12  H33 UNL     1       4.473   5.530   9.298  1.00  0.00     0.210 HD
ENDBRANCH   6  11
BRANCH   7  13
HETATM   13  O5  UNL     1       2.567   3.760  10.227  1.00  0.00    -0.391 OA
HETATM   14  H31 UNL     1       1.958   3.559   9.493  1.00  0.00     0.210 HD
ENDBRANCH   7  13
ENDBRANCH   1   2
BRANCH   1  15
HETATM   15  O2  UNL     1       1.880   6.202  13.136  1.00  0.00    -0.393 OA
HETATM   16  H8  UNL     1       1.809   7.133  12.868  1.00  0.00     0.210 HD
ENDBRANCH   1  15
BRANCH   1  17
HETATM   17  C5  UNL     1      -0.522   6.140  13.087  1.00  0.00     0.034 C 
BRANCH  17  18
HETATM   18  C6  UNL     1      -1.793   5.481  12.552  1.00  0.00     0.005 C 
BRANCH  18  19
HETATM   19  C7  UNL     1      -2.807   5.110  13.639  1.00  0.00     0.032 C 
BRANCH  19  20
HETATM   20  C8  UNL     1      -3.790   6.224  14.029  1.00  0.00     0.125 C 
HETATM   21  C9  UNL     1      -3.542   7.549  13.299  1.00  0.00     0.032 C 
HETATM   22  C10 UNL     1      -4.822   8.372  13.149  1.00  0.00     0.008 C 
HETATM   23  C11 UNL     1      -5.796   8.053  14.275  1.00  0.00     0.068 C 
HETATM   24  C12 UNL     1      -6.151   6.543  14.308  1.00  0.00     0.164 C 
HETATM   25  C13 UNL     1      -7.422   6.218  13.492  1.00  0.00     0.068 C 
HETATM   26  O3  UNL     1      -6.313   6.090  15.653  1.00  0.00    -0.355 OA
HETATM   27  O4  UNL     1      -5.103   5.769  13.690  1.00  0.00    -0.350 OA
HETATM   28  C14 UNL     1      -8.676   6.055  14.350  1.00  0.00     0.007 C 
HETATM   29  C15 UNL     1      -8.629   6.959  15.565  1.00  0.00     0.026 C 
HETATM   30  C16 UNL     1      -7.368   6.707  16.386  1.00  0.00     0.171 C 
ENDBRANCH  19  20
ENDBRANCH  18  19
ENDBRANCH  17  18
ENDBRANCH   1  17
TORSDOF 10
ENDMDL
MODEL 6
REMARK minimizedAffinity -7.66099072
REMARK  10 active torsions:
REMARK  status: ('A' for Active; 'I' for Inactive)
REMARK    1  A    between atoms: O1_1  and  C1_2 
REMARK    2  A    between atoms: C1_2  and  C2_3 
REMARK    3  A    between atoms: C3_5  and  C4_6 
REMARK    4  A    between atoms: C4_6  and  O2_7 
REMARK    5  A    between atoms: C4_6  and  C5_8 
REMARK    6  A    between atoms: C5_8  and  C6_9 
REMARK    7  A    between atoms: C6_9  and  C7_10 
REMARK    8  A    between atoms: C7_10  and  C8_11 
REMARK    9  A    between atoms: C17_22  and  O5_23 
REMARK   10  A    between atoms: C18_24  and  O6_25 
ROOT
HETATM    1  C4  UNL     1       0.491   5.760  12.178  1.00  0.00     0.154 C 
ENDROOT
BRANCH   1   2
HETATM    2  C3  UNL     1       0.888   5.686  10.679  1.00  0.00     0.280 C 
HETATM    3  N1  UNL     1       0.519   6.888   9.888  1.00  0.00     0.102 N 
HETATM    4  C2  UNL     1       1.787   7.567   9.523  1.00  0.00     0.275 C 
HETATM    5  H5  UNL     1      -0.084   7.523  10.408  1.00  0.00     0.317 HD
HETATM    6  C18 UNL     1       2.775   6.420   9.342  1.00  0.00     0.184 C 
HETATM    7  C17 UNL     1       2.410   5.497  10.505  1.00  0.00     0.184 C 
BRANCH   4   8
HETATM    8  C1  UNL     1       1.606   8.392   8.243  1.00  0.00     0.202 C 
BRANCH   8   9
HETATM    9  O1  UNL     1       2.880   8.692   7.668  1.00  0.00    -0.399 OA
HETATM   10  H1  UNL     1       3.413   7.885   7.815  1.00  0.00     0.209 HD
ENDBRANCH   8   9
ENDBRANCH   4   8
BRANCH   6  11
HETATM   11  O6  UNL     1       4.127   6.853   9.442  1.00  0.00    -0.391 OA
HETATM   12  H33 UNL     1       4.665   6.046   9.549  1.00  0.00     0.210 HD
ENDBRANCH   6  11
BRANCH   7  13
HETATM   13  O5  UNL     1       2.766   4.148  10.195  1.00  0.00    -0.391 OA
HETATM   14  H31 UNL     1       2.302   3.895   9.377  1.00  0.00     0.210 HD
ENDBRANCH   7  13
ENDBRANCH   1   2
BRANCH   1  15
HETATM   15  O2  UNL     1      -0.036   7.058  12.484  1.00  0.00    -0.393 OA
HETATM   16  H8  UNL     1      -0.888   7.156  12.027  1.00  0.00     0.210 HD
ENDBRANCH   1  15
BRANCH   1  17
HETATM   17  C5  UNL     1      -0.537   4.712  12.638  1.00  0.00     0.034 C 
BRANCH  17  18
HETATM   18  C6  UNL     1      -1.409   4.172  11.505  1.00  0.00     0.005 C 
BRANCH  18  19
HETATM   19  C7  UNL     1      -2.639   3.394  11.984  1.00  0.00     0.032 C 
BRANCH  19  20
HETATM   20  C8  UNL     1      -3.901   4.239  12.216  1.00  0.00     0.125 C 
HETATM   21  C9  UNL     1      -5.193   3.417  12.275  1.00  0.00     0.032 C 
HETATM   22  C10 UNL     1      -6.264   4.087  13.137  1.00  0.00     0.008 C 
HETATM   23  C11 UNL     1      -6.075   5.598  13.142  1.00  0.00     0.068 C 
HETATM   24  C12 UNL     1      -4.668   5.992  13.662  1.00  0.00     0.164 C 
HETATM   25  C13 UNL     1      -4.655   6.266  15.183  1.00  0.00     0.068 C 
HETATM   26  O3  UNL     1      -4.171   7.136  12.963  1.00  0.00    -0.355 OA
HETATM   27  O4  UNL     1      -3.741   4.905  13.472  1.00  0.00    -0.350 OA
HETATM   28  C14 UNL     1      -4.692   7.751  15.539  1.00  0.00     0.007 C 
HETATM   29  C15 UNL     1      -5.489   8.538  14.519  1.00  0.00     0.026 C 
HETATM   30  C16 UNL     1      -4.939   8.327  13.112  1.00  0.00     0.171 C 
ENDBRANCH  19  20
ENDBRANCH  18  19
ENDBRANCH  17  18
ENDBRANCH   1  17
TORSDOF 10
ENDMDL
MODEL 7
REMARK minimizedAffinity -7.57955551
REMARK  10 active torsions:
REMARK  status: ('A' for Active; 'I' for Inactive)
REMARK    1  A    between atoms: O1_1  and  C1_2 
REMARK    2  A    between atoms: C1_2  and  C2_3 
REMARK    3  A    between atoms: C3_5  and  C4_6 
REMARK    4  A    between atoms: C4_6  and  O2_7 
REMARK    5  A    between atoms: C4_6  and  C5_8 
REMARK    6  A    between atoms: C5_8  and  C6_9 
REMARK    7  A    between atoms: C6_9  and  C7_10 
REMARK    8  A    between atoms: C7_10  and  C8_11 
REMARK    9  A    between atoms: C17_22  and  O5_23 
REMARK   10  A    between atoms: C18_24  and  O6_25 
ROOT
HETATM    1  C4  UNL     1       0.922   5.962  12.919  1.00  0.00     0.154 C 
ENDROOT
BRANCH   1   2
HETATM    2  C3  UNL     1       1.871   6.756  11.981  1.00  0.00     0.280 C 
HETATM    3  N1  UNL     1       2.378   5.977  10.823  1.00  0.00     0.102 N 
HETATM    4  C2  UNL     1       1.749   6.553   9.608  1.00  0.00     0.275 C 
HETATM    5  H5  UNL     1       2.158   4.985  10.896  1.00  0.00     0.317 HD
HETATM    6  C18 UNL     1       1.620   8.037   9.936  1.00  0.00     0.184 C 
HETATM    7  C17 UNL     1       1.176   8.004  11.398  1.00  0.00     0.184 C 
BRANCH   4   8
HETATM    8  C1  UNL     1       2.626   6.299   8.376  1.00  0.00     0.202 C 
BRANCH   8   9
HETATM    9  O1  UNL     1       2.050   6.926   7.227  1.00  0.00    -0.399 OA
HETATM   10  H1  UNL     1       1.683   7.768   7.563  1.00  0.00     0.209 HD
ENDBRANCH   8   9
ENDBRANCH   4   8
BRANCH   6  11
HETATM   11  O6  UNL     1       0.647   8.684   9.123  1.00  0.00    -0.391 OA
HETATM   12  H33 UNL     1       0.466   9.545   9.547  1.00  0.00     0.210 HD
ENDBRANCH   6  11
BRANCH   7  13
HETATM   13  O5  UNL     1       1.564   9.210  12.059  1.00  0.00    -0.391 OA
HETATM   14  H31 UNL     1       2.531   9.299  11.980  1.00  0.00     0.210 HD
ENDBRANCH   7  13
ENDBRANCH   1   2
BRANCH   1  15
HETATM   15  O2  UNL     1       1.433   5.974  14.259  1.00  0.00    -0.393 OA
HETATM   16  H8  UNL     1       1.371   6.882  14.601  1.00  0.00     0.210 HD
ENDBRANCH   1  15
BRANCH   1  17
HETATM   17  C5  UNL     1      -0.530   6.466  12.963  1.00  0.00     0.034 C 
BRANCH  17  18
HETATM   18  C6  UNL     1      -1.081   6.620  14.381  1.00  0.00     0.005 C 
BRANCH  18  19
HETATM   19  C7  UNL     1      -2.160   5.593  14.744  1.00  0.00     0.032 C 
BRANCH  19  20
HETATM   20  C8  UNL     1      -3.566   5.901  14.207  1.00  0.00     0.125 C 
HETATM   21  C9  UNL     1      -4.063   4.893  13.165  1.00  0.00     0.032 C 
HETATM   22  C10 UNL     1      -5.589   4.783  13.152  1.00  0.00     0.008 C 
HETATM   23  C11 UNL     1      -6.220   6.087  13.618  1.00  0.00     0.068 C 
HETATM   24  C12 UNL     1      -5.740   6.474  15.041  1.00  0.00     0.164 C 
HETATM   25  C13 UNL     1      -6.683   5.948  16.147  1.00  0.00     0.068 C 
HETATM   26  O3  UNL     1      -5.603   7.892  15.161  1.00  0.00    -0.355 OA
HETATM   27  O4  UNL     1      -4.463   5.868  15.321  1.00  0.00    -0.350 OA
HETATM   28  C14 UNL     1      -7.643   7.005  16.688  1.00  0.00     0.007 C 
HETATM   29  C15 UNL     1      -8.035   7.993  15.609  1.00  0.00     0.026 C 
HETATM   30  C16 UNL     1      -6.802   8.642  14.988  1.00  0.00     0.171 C 
ENDBRANCH  19  20
ENDBRANCH  18  19
ENDBRANCH  17  18
ENDBRANCH   1  17
TORSDOF 10
ENDMDL
MODEL 8
REMARK minimizedAffinity -7.50311375
REMARK  10 active torsions:
REMARK  status: ('A' for Active; 'I' for Inactive)
REMARK    1  A    between atoms: O1_1  and  C1_2 
REMARK    2  A    between atoms: C1_2  and  C2_3 
REMARK    3  A    between atoms: C3_5  and  C4_6 
REMARK    4  A    between atoms: C4_6  and  O2_7 
REMARK    5  A    between atoms: C4_6  and  C5_8 
REMARK    6  A    between atoms: C5_8  and  C6_9 
REMARK    7  A    between atoms: C6_9  and  C7_10 
REMARK    8  A    between atoms: C7_10  and  C8_11 
REMARK    9  A    between atoms: C17_22  and  O5_23 
REMARK   10  A    between atoms: C18_24  and  O6_25 
ROOT
HETATM    1  C4  UNL     1      -4.728   2.620  11.335  1.00  0.00     0.154 C 
ENDROOT
BRANCH   1   2
HETATM    2  C3  UNL     1      -5.528   2.999  12.609  1.00  0.00     0.280 C 
HETATM    3  N1  UNL     1      -5.127   4.292  13.222  1.00  0.00     0.102 N 
HETATM    4  C2  UNL     1      -6.256   5.233  13.017  1.00  0.00     0.275 C 
HETATM    5  H5  UNL     1      -4.276   4.669  12.809  1.00  0.00     0.317 HD
HETATM    6  C18 UNL     1      -7.491   4.341  13.094  1.00  0.00     0.184 C 
HETATM    7  C17 UNL     1      -7.040   3.103  12.318  1.00  0.00     0.184 C 
BRANCH   4   8
HETATM    8  C1  UNL     1      -6.252   6.322  14.097  1.00  0.00     0.202 C 
BRANCH   8   9
HETATM    9  O1  UNL     1      -5.206   6.073  15.040  1.00  0.00    -0.399 OA
HETATM   10  H1  UNL     1      -4.463   5.733  14.500  1.00  0.00     0.209 HD
ENDBRANCH   8   9
ENDBRANCH   4   8
BRANCH   6  11
HETATM   11  O6  UNL     1      -8.627   4.941  12.479  1.00  0.00    -0.391 OA
HETATM   12  H33 UNL     1      -9.285   4.228  12.368  1.00  0.00     0.210 HD
ENDBRANCH   6  11
BRANCH   7  13
HETATM   13  O5  UNL     1      -7.766   1.954  12.757  1.00  0.00    -0.391 OA
HETATM   14  H31 UNL     1      -7.617   1.851  13.715  1.00  0.00     0.210 HD
ENDBRANCH   7  13
ENDBRANCH   1   2
BRANCH   1  15
HETATM   15  O2  UNL     1      -5.611   2.087  10.340  1.00  0.00    -0.393 OA
HETATM   16  H8  UNL     1      -6.190   2.804  10.030  1.00  0.00     0.210 HD
ENDBRANCH   1  15
BRANCH   1  17
HETATM   17  C5  UNL     1      -3.932   3.769  10.693  1.00  0.00     0.034 C 
BRANCH  17  18
HETATM   18  C6  UNL     1      -2.452   3.446  10.484  1.00  0.00     0.005 C 
BRANCH  18  19
HETATM   19  C7  UNL     1      -1.609   3.536  11.761  1.00  0.00     0.032 C 
BRANCH  19  20
HETATM   20  C8  UNL     1      -0.767   4.813  11.902  1.00  0.00     0.125 C 
HETATM   21  C9  UNL     1      -0.301   5.091  13.335  1.00  0.00     0.032 C 
HETATM   22  C10 UNL     1       1.007   5.882  13.373  1.00  0.00     0.008 C 
HETATM   23  C11 UNL     1       1.146   6.742  12.125  1.00  0.00     0.068 C 
HETATM   24  C12 UNL     1       1.096   5.882  10.834  1.00  0.00     0.164 C 
HETATM   25  C13 UNL     1       2.502   5.453  10.355  1.00  0.00     0.068 C 
HETATM   26  O3  UNL     1       0.423   6.581   9.785  1.00  0.00    -0.355 OA
HETATM   27  O4  UNL     1       0.394   4.648  11.081  1.00  0.00    -0.350 OA
HETATM   28  C14 UNL     1       3.045   6.305   9.210  1.00  0.00     0.007 C 
HETATM   29  C15 UNL     1       2.561   7.736   9.315  1.00  0.00     0.026 C 
HETATM   30  C16 UNL     1       1.038   7.797   9.364  1.00  0.00     0.171 C 
ENDBRANCH  19  20
ENDBRANCH  18  19
ENDBRANCH  17  18
ENDBRANCH   1  17
TORSDOF 10
ENDMDL
MODEL 9
REMARK minimizedAffinity -7.50281715
REMARK  10 active torsions:
REMARK  status: ('A' for Active; 'I' for Inactive)
REMARK    1  A    between atoms: O1_1  and  C1_2 
REMARK    2  A    between atoms: C1_2  and  C2_3 
REMARK    3  A    between atoms: C3_5  and  C4_6 
REMARK    4  A    between atoms: C4_6  and  O2_7 
REMARK    5  A    between atoms: C4_6  and  C5_8 
REMARK    6  A    between atoms: C5_8  and  C6_9 
REMARK    7  A    between atoms: C6_9  and  C7_10 
REMARK    8  A    between atoms: C7_10  and  C8_11 
REMARK    9  A    between atoms: C17_22  and  O5_23 
REMARK   10  A    between atoms: C18_24  and  O6_25 
ROOT
HETATM    1  C4  UNL     1      -0.221   7.599  11.858  1.00  0.00     0.154 C 
ENDROOT
BRANCH   1   2
HETATM    2  C3  UNL     1       0.184   6.788  10.598  1.00  0.00     0.280 C 
HETATM    3  N1  UNL     1       0.599   7.621   9.441  1.00  0.00     0.102 N 
HETATM    4  C2  UNL     1       2.055   7.404   9.255  1.00  0.00     0.275 C 
HETATM    5  H5  UNL     1       0.406   8.610   9.587  1.00  0.00     0.317 HD
HETATM    6  C18 UNL     1       2.261   5.950   9.664  1.00  0.00     0.184 C 
HETATM    7  C17 UNL     1       1.360   5.833  10.893  1.00  0.00     0.184 C 
BRANCH   4   8
HETATM    8  C1  UNL     1       2.456   7.665   7.798  1.00  0.00     0.202 C 
BRANCH   8   9
HETATM    9  O1  UNL     1       2.944   9.002   7.655  1.00  0.00    -0.399 OA
HETATM   10  H1  UNL     1       3.450   9.169   8.476  1.00  0.00     0.209 HD
ENDBRANCH   8   9
ENDBRANCH   4   8
BRANCH   6  11
HETATM   11  O6  UNL     1       3.616   5.671   9.998  1.00  0.00    -0.391 OA
HETATM   12  H33 UNL     1       3.613   4.811  10.460  1.00  0.00     0.210 HD
ENDBRANCH   6  11
BRANCH   7  13
HETATM   13  O5  UNL     1       0.939   4.479  11.071  1.00  0.00    -0.391 OA
HETATM   14  H31 UNL     1       0.478   4.199  10.260  1.00  0.00     0.210 HD
ENDBRANCH   7  13
ENDBRANCH   1   2
BRANCH   1  15
HETATM   15  O2  UNL     1      -0.415   8.977  11.514  1.00  0.00    -0.393 OA
HETATM   16  H8  UNL     1      -1.203   9.043  10.949  1.00  0.00     0.210 HD
ENDBRANCH   1  15
BRANCH   1  17
HETATM   17  C5  UNL     1      -1.490   7.109  12.576  1.00  0.00     0.034 C 
BRANCH  17  18
HETATM   18  C6  UNL     1      -1.273   5.844  13.406  1.00  0.00     0.005 C 
BRANCH  18  19
HETATM   19  C7  UNL     1      -2.345   5.610  14.477  1.00  0.00     0.032 C 
BRANCH  19  20
HETATM   20  C8  UNL     1      -3.788   5.887  14.031  1.00  0.00     0.125 C 
HETATM   21  C9  UNL     1      -4.343   4.846  13.053  1.00  0.00     0.032 C 
HETATM   22  C10 UNL     1      -5.864   4.718  13.149  1.00  0.00     0.008 C 
HETATM   23  C11 UNL     1      -6.480   6.027  13.625  1.00  0.00     0.068 C 
HETATM   24  C12 UNL     1      -5.907   6.457  15.001  1.00  0.00     0.164 C 
HETATM   25  C13 UNL     1      -6.763   5.949  16.182  1.00  0.00     0.068 C 
HETATM   26  O3  UNL     1      -5.780   7.879  15.074  1.00  0.00    -0.355 OA
HETATM   27  O4  UNL     1      -4.605   5.874  15.205  1.00  0.00    -0.350 OA
HETATM   28  C14 UNL     1      -7.698   7.009  16.763  1.00  0.00     0.007 C 
HETATM   29  C15 UNL     1      -8.177   7.963  15.688  1.00  0.00     0.026 C 
HETATM   30  C16 UNL     1      -6.999   8.610  14.966  1.00  0.00     0.171 C 
ENDBRANCH  19  20
ENDBRANCH  18  19
ENDBRANCH  17  18
ENDBRANCH   1  17
TORSDOF 10
ENDMDL
