MODEL 1
REMARK minimizedAffinity -8.8552103
REMARK CNNscore 0.576519132
REMARK CNNaffinity 7.55487394
REMARK  11 active torsions:
REMARK  status: ('A' for Active; 'I' for Inactive)
REMARK    1  A    between atoms: C3_3  and  O1_4 
REMARK    2  A    between atoms: N1_14  and  O2_16 
REMARK    3  A    between atoms: O2_16  and  C13_17 
REMARK    4  A    between atoms: C13_17  and  C14_18 
REMARK       I    between atoms: C14_18  and  N2_20 
REMARK    5  A    between atoms: N2_20  and  C15_21 
REMARK    6  A    between atoms: C15_21  and  C16_22 
REMARK    7  A    between atoms: C15_21  and  C19_27 
REMARK    8  A    between atoms: C16_22  and  O5_24 
REMARK    9  A    between atoms: O5_24  and  C17_25 
REMARK   10  A    between atoms: C19_27  and  O6_28 
REMARK   11  A    between atoms: C19_27  and  C20_29 
ROOT
HETATM    1  C1  UNL     1       1.824  43.458 -13.326  1.00  0.00     0.015 C 
HETATM    2  C2  UNL     1       2.094  44.616 -13.161  1.00  0.00    -0.078 C 
HETATM    3  C3  UNL     1       2.452  46.040 -12.960  1.00  0.00     0.128 C 
HETATM    4  C4  UNL     1       2.952  46.629 -14.278  1.00  0.00     0.052 C 
HETATM    5  C5  UNL     1       1.695  47.085 -15.019  1.00  0.00     0.010 C 
HETATM    6  C6  UNL     1       0.561  47.171 -13.974  1.00  0.00     0.002 C 
HETATM    7  C7  UNL     1      -0.297  48.450 -14.053  1.00  0.00    -0.004 C 
HETATM    8  C8  UNL     1      -1.094  48.525 -15.361  1.00  0.00     0.010 C 
HETATM    9  C9  UNL     1      -1.671  49.914 -15.578  1.00  0.00     0.035 C 
HETATM   10  C10 UNL     1      -0.506  50.832 -15.813  1.00  0.00    -0.069 C 
HETATM   11  C11 UNL     1      -0.339  51.407 -17.017  1.00  0.00     0.030 C 
HETATM   12  C12 UNL     1       0.862  52.233 -17.334  1.00  0.00     0.032 C 
HETATM   13  N1  UNL     1       1.044  52.922 -18.419  1.00  0.00    -0.271 N 
ATOM     14  H1  UNL     1       1.880  53.476 -18.607  1.00  0.00     0.194 HD
HETATM   15  C26 UNL     1       1.971  52.295 -16.303  1.00  0.00     0.060 C 
HETATM   16  C27 UNL     1       1.897  51.165 -15.281  1.00  0.00     0.020 C 
HETATM   17  C28 UNL     1       0.487  50.972 -14.664  1.00  0.00    -0.016 C 
HETATM   18  C29 UNL     1       0.108  52.262 -13.881  1.00  0.00     0.020 C 
HETATM   19  C30 UNL     1       0.427  49.765 -13.628  1.00  0.00     0.002 C 
HETATM   20  C31 UNL     1       1.756  49.491 -12.894  1.00  0.00     0.007 C 
HETATM   21  C32 UNL     1       1.651  48.311 -11.932  1.00  0.00     0.014 C 
HETATM   22  C33 UNL     1       1.237  46.956 -12.589  1.00  0.00     0.003 C 
HETATM   23  C34 UNL     1       0.274  46.266 -11.595  1.00  0.00     0.020 C 
ENDROOT
BRANCH   3  24
HETATM   24  O1  UNL     1       3.486  46.097 -11.989  1.00  0.00    -0.377 OA
HETATM   25  H2  UNL     1       3.177  45.595 -11.216  1.00  0.00     0.211 HD
ENDBRANCH   3  24
BRANCH  13  26
HETATM   26  O2  UNL     1      -0.040  52.819 -19.304  1.00  0.00    -0.271 OA
BRANCH  26  27
HETATM   27  C13 UNL     1       0.325  53.422 -20.542  1.00  0.00     0.303 C 
BRANCH  27  28
HETATM   28  C14 UNL     1       0.469  52.384 -21.651  1.00  0.00     0.244 C 
HETATM   29  O3  UNL     1       1.507  51.749 -21.827  1.00  0.00    -0.271 OA
HETATM   30  N2  UNL     1      -0.650  52.188 -22.421  1.00  0.00    -0.343 N 
HETATM   31  H16 UNL     1      -1.512  52.639 -22.131  1.00  0.00     0.163 HD
BRANCH  30  32
HETATM   32  C15 UNL     1      -0.694  51.174 -23.482  1.00  0.00     0.217 C 
BRANCH  32  33
HETATM   33  C16 UNL     1      -1.718  50.108 -23.094  1.00  0.00     0.284 C 
HETATM   34  O4  UNL     1      -1.530  49.252 -22.235  1.00  0.00    -0.263 OA
BRANCH  33  35
HETATM   35  O5  UNL     1      -2.864  50.262 -23.810  1.00  0.00    -0.320 OA
BRANCH  35  36
HETATM   36  C17 UNL     1      -3.623  49.069 -24.048  1.00  0.00     0.174 C 
HETATM   37  C18 UNL     1      -3.403  48.588 -25.470  1.00  0.00     0.034 C 
ENDBRANCH  35  36
ENDBRANCH  33  35
ENDBRANCH  32  33
BRANCH  32  38
HETATM   38  C19 UNL     1      -1.140  51.779 -24.832  1.00  0.00     0.183 C 
BRANCH  38  39
HETATM   39  O6  UNL     1      -1.607  53.126 -24.644  1.00  0.00    -0.388 OA
HETATM   40  H24 UNL     1      -1.405  53.623 -25.458  1.00  0.00     0.210 HD
ENDBRANCH  38  39
BRANCH  38  41
HETATM   41  C20 UNL     1      -0.055  51.777 -25.892  1.00  0.00    -0.027 A 
HETATM   42  C21 UNL     1       1.295  51.622 -25.543  1.00  0.00     0.010 A 
HETATM   43  C22 UNL     1       2.285  51.613 -26.526  1.00  0.00     0.001 A 
HETATM   44  C23 UNL     1       1.938  51.761 -27.868  1.00  0.00     0.000 A 
HETATM   45  C24 UNL     1       0.601  51.919 -28.227  1.00  0.00     0.001 A 
HETATM   46  C25 UNL     1      -0.391  51.927 -27.246  1.00  0.00     0.010 A 
ENDBRANCH  38  41
ENDBRANCH  32  38
ENDBRANCH  30  32
ENDBRANCH  27  28
ENDBRANCH  26  27
ENDBRANCH  13  26
TORSDOF 11
ENDMDL
MODEL 2
REMARK minimizedAffinity -7.55483866
REMARK CNNscore 0.41969943
REMARK CNNaffinity 5.90538073
REMARK  11 active torsions:
REMARK  status: ('A' for Active; 'I' for Inactive)
REMARK    1  A    between atoms: C3_3  and  O1_4 
REMARK    2  A    between atoms: N1_14  and  O2_16 
REMARK    3  A    between atoms: O2_16  and  C13_17 
REMARK    4  A    between atoms: C13_17  and  C14_18 
REMARK       I    between atoms: C14_18  and  N2_20 
REMARK    5  A    between atoms: N2_20  and  C15_21 
REMARK    6  A    between atoms: C15_21  and  C16_22 
REMARK    7  A    between atoms: C15_21  and  C19_27 
REMARK    8  A    between atoms: C16_22  and  O5_24 
REMARK    9  A    between atoms: O5_24  and  C17_25 
REMARK   10  A    between atoms: C19_27  and  O6_28 
REMARK   11  A    between atoms: C19_27  and  C20_29 
ROOT
HETATM    1  C1  UNL     1      -4.422  45.173 -32.227  1.00  0.00     0.015 C 
HETATM    2  C2  UNL     1      -5.574  45.505 -32.310  1.00  0.00    -0.078 C 
HETATM    3  C3  UNL     1      -6.997  45.899 -32.433  1.00  0.00     0.128 C 
HETATM    4  C4  UNL     1      -7.885  44.739 -31.982  1.00  0.00     0.052 C 
HETATM    5  C5  UNL     1      -8.009  44.891 -30.466  1.00  0.00     0.010 C 
HETATM    6  C6  UNL     1      -7.588  46.336 -30.121  1.00  0.00     0.002 C 
HETATM    7  C7  UNL     1      -8.523  47.065 -29.136  1.00  0.00    -0.004 C 
HETATM    8  C8  UNL     1      -8.513  46.414 -27.747  1.00  0.00     0.010 C 
HETATM    9  C9  UNL     1      -9.660  46.922 -26.890  1.00  0.00     0.035 C 
HETATM   10  C10 UNL     1     -10.925  46.412 -27.518  1.00  0.00    -0.069 C 
HETATM   11  C11 UNL     1     -11.678  45.508 -26.866  1.00  0.00     0.030 C 
HETATM   12  C12 UNL     1     -12.879  44.885 -27.494  1.00  0.00     0.032 C 
HETATM   13  N1  UNL     1     -13.728  44.104 -26.899  1.00  0.00    -0.271 N 
ATOM     14  H1  UNL     1     -14.540  43.691 -27.360  1.00  0.00     0.194 HD
HETATM   15  C26 UNL     1     -13.155  45.193 -28.952  1.00  0.00     0.060 C 
HETATM   16  C27 UNL     1     -11.935  45.742 -29.686  1.00  0.00     0.020 C 
HETATM   17  C28 UNL     1     -11.222  46.896 -28.932  1.00  0.00    -0.016 C 
HETATM   18  C29 UNL     1     -12.206  48.094 -28.814  1.00  0.00     0.020 C 
HETATM   19  C30 UNL     1      -9.932  47.428 -29.700  1.00  0.00     0.002 C 
HETATM   20  C31 UNL     1     -10.003  47.288 -31.235  1.00  0.00     0.007 C 
HETATM   21  C32 UNL     1      -8.735  47.789 -31.919  1.00  0.00     0.014 C 
HETATM   22  C33 UNL     1      -7.419  47.070 -31.482  1.00  0.00     0.003 C 
HETATM   23  C34 UNL     1      -6.331  48.167 -31.398  1.00  0.00     0.020 C 
ENDROOT
BRANCH   3  24
HETATM   24  O1  UNL     1      -7.252  46.194 -33.798  1.00  0.00    -0.377 OA
HETATM   25  H2  UNL     1      -6.579  46.837 -34.079  1.00  0.00     0.211 HD
ENDBRANCH   3  24
BRANCH  13  26
HETATM   26  O2  UNL     1     -13.403  43.891 -25.551  1.00  0.00    -0.271 OA
BRANCH  26  27
HETATM   27  C13 UNL     1     -14.583  43.503 -24.855  1.00  0.00     0.303 C 
BRANCH  27  28
HETATM   28  C14 UNL     1     -15.485  44.700 -24.567  1.00  0.00     0.244 C 
HETATM   29  O3  UNL     1     -15.119  45.859 -24.754  1.00  0.00    -0.271 OA
HETATM   30  N2  UNL     1     -16.743  44.392 -24.112  1.00  0.00    -0.343 N 
HETATM   31  H16 UNL     1     -17.025  43.417 -24.119  1.00  0.00     0.163 HD
BRANCH  30  32
HETATM   32  C15 UNL     1     -17.751  45.427 -23.858  1.00  0.00     0.217 C 
BRANCH  32  33
HETATM   33  C16 UNL     1     -18.779  45.394 -24.988  1.00  0.00     0.284 C 
HETATM   34  O4  UNL     1     -18.855  46.238 -25.876  1.00  0.00    -0.263 OA
BRANCH  33  35
HETATM   35  O5  UNL     1     -19.569  44.291 -24.884  1.00  0.00    -0.320 OA
BRANCH  35  36
HETATM   36  C17 UNL     1     -19.407  43.302 -25.911  1.00  0.00     0.174 C 
HETATM   37  C18 UNL     1     -19.123  43.976 -27.240  1.00  0.00     0.034 C 
ENDBRANCH  35  36
ENDBRANCH  33  35
ENDBRANCH  32  33
BRANCH  32  38
HETATM   38  C19 UNL     1     -18.506  45.177 -22.534  1.00  0.00     0.183 C 
BRANCH  38  39
HETATM   39  O6  UNL     1     -18.459  43.781 -22.190  1.00  0.00    -0.388 OA
HETATM   40  H24 UNL     1     -18.466  43.717 -21.218  1.00  0.00     0.210 HD
ENDBRANCH  38  39
BRANCH  38  41
HETATM   41  C20 UNL     1     -17.982  45.990 -21.366  1.00  0.00    -0.027 A 
HETATM   42  C21 UNL     1     -16.603  46.158 -21.164  1.00  0.00     0.010 A 
HETATM   43  C22 UNL     1     -16.131  46.915 -20.091  1.00  0.00     0.001 A 
HETATM   44  C23 UNL     1     -17.029  47.509 -19.207  1.00  0.00     0.000 A 
HETATM   45  C24 UNL     1     -18.399  47.346 -19.394  1.00  0.00     0.001 A 
HETATM   46  C25 UNL     1     -18.875  46.591 -20.467  1.00  0.00     0.010 A 
ENDBRANCH  38  41
ENDBRANCH  32  38
ENDBRANCH  30  32
ENDBRANCH  27  28
ENDBRANCH  26  27
ENDBRANCH  13  26
TORSDOF 11
ENDMDL
MODEL 3
REMARK minimizedAffinity -7.89129782
REMARK CNNscore 0.364449918
REMARK CNNaffinity 7.15068865
REMARK  11 active torsions:
REMARK  status: ('A' for Active; 'I' for Inactive)
REMARK    1  A    between atoms: C3_3  and  O1_4 
REMARK    2  A    between atoms: N1_14  and  O2_16 
REMARK    3  A    between atoms: O2_16  and  C13_17 
REMARK    4  A    between atoms: C13_17  and  C14_18 
REMARK       I    between atoms: C14_18  and  N2_20 
REMARK    5  A    between atoms: N2_20  and  C15_21 
REMARK    6  A    between atoms: C15_21  and  C16_22 
REMARK    7  A    between atoms: C15_21  and  C19_27 
REMARK    8  A    between atoms: C16_22  and  O5_24 
REMARK    9  A    between atoms: O5_24  and  C17_25 
REMARK   10  A    between atoms: C19_27  and  O6_28 
REMARK   11  A    between atoms: C19_27  and  C20_29 
ROOT
HETATM    1  C1  UNL     1       1.249  43.502 -13.258  1.00  0.00     0.015 C 
HETATM    2  C2  UNL     1       1.677  44.617 -13.131  1.00  0.00    -0.078 C 
HETATM    3  C3  UNL     1       2.228  45.984 -12.977  1.00  0.00     0.128 C 
HETATM    4  C4  UNL     1       2.710  46.492 -14.336  1.00  0.00     0.052 C 
HETATM    5  C5  UNL     1       1.475  47.102 -14.999  1.00  0.00     0.010 C 
HETATM    6  C6  UNL     1       0.435  47.343 -13.883  1.00  0.00     0.002 C 
HETATM    7  C7  UNL     1      -0.254  48.721 -13.926  1.00  0.00    -0.004 C 
HETATM    8  C8  UNL     1      -1.122  48.889 -15.180  1.00  0.00     0.010 C 
HETATM    9  C9  UNL     1      -1.528  50.339 -15.381  1.00  0.00     0.035 C 
HETATM   10  C10 UNL     1      -0.273  51.096 -15.707  1.00  0.00    -0.069 C 
HETATM   11  C11 UNL     1      -0.114  51.635 -16.929  1.00  0.00     0.030 C 
HETATM   12  C12 UNL     1       1.158  52.295 -17.339  1.00  0.00     0.032 C 
HETATM   13  N1  UNL     1       1.354  52.947 -18.445  1.00  0.00    -0.271 N 
ATOM     14  H1  UNL     1       2.240  53.386 -18.697  1.00  0.00     0.194 HD
HETATM   15  C26 UNL     1       2.333  52.221 -16.385  1.00  0.00     0.060 C 
HETATM   16  C27 UNL     1       2.184  51.118 -15.342  1.00  0.00     0.020 C 
HETATM   17  C28 UNL     1       0.805  51.116 -14.629  1.00  0.00    -0.016 C 
HETATM   18  C29 UNL     1       0.651  52.449 -13.845  1.00  0.00     0.020 C 
HETATM   19  C30 UNL     1       0.661  49.934 -13.571  1.00  0.00     0.002 C 
HETATM   20  C31 UNL     1       1.990  49.496 -12.922  1.00  0.00     0.007 C 
HETATM   21  C32 UNL     1       1.799  48.347 -11.936  1.00  0.00     0.014 C 
HETATM   22  C33 UNL     1       1.170  47.053 -12.542  1.00  0.00     0.003 C 
HETATM   23  C34 UNL     1       0.195  46.501 -11.475  1.00  0.00     0.020 C 
ENDROOT
BRANCH   3  24
HETATM   24  O1  UNL     1       3.325  45.913 -12.078  1.00  0.00    -0.377 OA
HETATM   25  H2  UNL     1       3.006  45.461 -11.278  1.00  0.00     0.211 HD
ENDBRANCH   3  24
BRANCH  13  26
HETATM   26  O2  UNL     1       0.208  52.978 -19.254  1.00  0.00    -0.271 OA
BRANCH  26  27
HETATM   27  C13 UNL     1       0.599  52.749 -20.604  1.00  0.00     0.303 C 
BRANCH  27  28
HETATM   28  C14 UNL     1      -0.281  51.698 -21.274  1.00  0.00     0.244 C 
HETATM   29  O3  UNL     1      -0.102  50.492 -21.114  1.00  0.00    -0.271 OA
HETATM   30  N2  UNL     1      -1.305  52.192 -22.044  1.00  0.00    -0.343 N 
HETATM   31  H16 UNL     1      -1.482  53.191 -22.015  1.00  0.00     0.163 HD
BRANCH  30  32
HETATM   32  C15 UNL     1      -2.281  51.311 -22.695  1.00  0.00     0.217 C 
BRANCH  32  33
HETATM   33  C16 UNL     1      -3.497  51.170 -21.780  1.00  0.00     0.284 C 
HETATM   34  O4  UNL     1      -4.460  51.931 -21.790  1.00  0.00    -0.263 OA
BRANCH  33  35
HETATM   35  O5  UNL     1      -3.370  50.075 -20.982  1.00  0.00    -0.320 OA
BRANCH  35  36
HETATM   36  C17 UNL     1      -3.014  48.853 -21.642  1.00  0.00     0.174 C 
HETATM   37  C18 UNL     1      -4.145  47.850 -21.523  1.00  0.00     0.034 C 
ENDBRANCH  35  36
ENDBRANCH  33  35
ENDBRANCH  32  33
BRANCH  32  38
HETATM   38  C19 UNL     1      -2.773  51.896 -24.037  1.00  0.00     0.183 C 
BRANCH  38  39
HETATM   39  O6  UNL     1      -1.885  52.938 -24.481  1.00  0.00    -0.388 OA
HETATM   40  H24 UNL     1      -1.892  52.934 -25.455  1.00  0.00     0.210 HD
ENDBRANCH  38  39
BRANCH  38  41
HETATM   41  C20 UNL     1      -2.913  50.866 -25.141  1.00  0.00    -0.027 A 
HETATM   42  C21 UNL     1      -2.894  49.492 -24.853  1.00  0.00     0.010 A 
HETATM   43  C22 UNL     1      -3.033  48.552 -25.874  1.00  0.00     0.001 A 
HETATM   44  C23 UNL     1      -3.189  48.972 -27.194  1.00  0.00     0.000 A 
HETATM   45  C24 UNL     1      -3.206  50.332 -27.493  1.00  0.00     0.001 A 
HETATM   46  C25 UNL     1      -3.069  51.276 -26.474  1.00  0.00     0.010 A 
ENDBRANCH  38  41
ENDBRANCH  32  38
ENDBRANCH  30  32
ENDBRANCH  27  28
ENDBRANCH  26  27
ENDBRANCH  13  26
TORSDOF 11
ENDMDL
MODEL 4
REMARK minimizedAffinity -8.26173878
REMARK CNNscore 0.339155465
REMARK CNNaffinity 7.15333986
REMARK  11 active torsions:
REMARK  status: ('A' for Active; 'I' for Inactive)
REMARK    1  A    between atoms: C3_3  and  O1_4 
REMARK    2  A    between atoms: N1_14  and  O2_16 
REMARK    3  A    between atoms: O2_16  and  C13_17 
REMARK    4  A    between atoms: C13_17  and  C14_18 
REMARK       I    between atoms: C14_18  and  N2_20 
REMARK    5  A    between atoms: N2_20  and  C15_21 
REMARK    6  A    between atoms: C15_21  and  C16_22 
REMARK    7  A    between atoms: C15_21  and  C19_27 
REMARK    8  A    between atoms: C16_22  and  O5_24 
REMARK    9  A    between atoms: O5_24  and  C17_25 
REMARK   10  A    between atoms: C19_27  and  O6_28 
REMARK   11  A    between atoms: C19_27  and  C20_29 
ROOT
HETATM    1  C1  UNL     1       1.862  43.490 -13.332  1.00  0.00     0.015 C 
HETATM    2  C2  UNL     1       2.128  44.650 -13.171  1.00  0.00    -0.078 C 
HETATM    3  C3  UNL     1       2.480  46.076 -12.973  1.00  0.00     0.128 C 
HETATM    4  C4  UNL     1       3.006  46.655 -14.286  1.00  0.00     0.052 C 
HETATM    5  C5  UNL     1       1.764  47.105 -15.055  1.00  0.00     0.010 C 
HETATM    6  C6  UNL     1       0.609  47.197 -14.033  1.00  0.00     0.002 C 
HETATM    7  C7  UNL     1      -0.248  48.474 -14.138  1.00  0.00    -0.004 C 
HETATM    8  C8  UNL     1      -1.019  48.539 -15.463  1.00  0.00     0.010 C 
HETATM    9  C9  UNL     1      -1.593  49.925 -15.701  1.00  0.00     0.035 C 
HETATM   10  C10 UNL     1      -0.424  50.843 -15.919  1.00  0.00    -0.069 C 
HETATM   11  C11 UNL     1      -0.233  51.409 -17.124  1.00  0.00     0.030 C 
HETATM   12  C12 UNL     1       0.972  52.234 -17.424  1.00  0.00     0.032 C 
HETATM   13  N1  UNL     1       1.176  52.915 -18.510  1.00  0.00    -0.271 N 
ATOM     14  H1  UNL     1       2.015  53.469 -18.686  1.00  0.00     0.194 HD
HETATM   15  C26 UNL     1       2.061  52.305 -16.372  1.00  0.00     0.060 C 
HETATM   16  C27 UNL     1       1.968  51.182 -15.343  1.00  0.00     0.020 C 
HETATM   17  C28 UNL     1       0.545  50.993 -14.752  1.00  0.00    -0.016 C 
HETATM   18  C29 UNL     1       0.150  52.288 -13.987  1.00  0.00     0.020 C 
HETATM   19  C30 UNL     1       0.467  49.793 -13.708  1.00  0.00     0.002 C 
HETATM   20  C31 UNL     1       1.781  49.526 -12.946  1.00  0.00     0.007 C 
HETATM   21  C32 UNL     1       1.658  48.353 -11.978  1.00  0.00     0.014 C 
HETATM   22  C33 UNL     1       1.258  46.993 -12.633  1.00  0.00     0.003 C 
HETATM   23  C34 UNL     1       0.276  46.309 -11.653  1.00  0.00     0.020 C 
ENDROOT
BRANCH   3  24
HETATM   24  O1  UNL     1       3.496  46.141 -11.982  1.00  0.00    -0.377 OA
HETATM   25  H2  UNL     1       3.171  45.644 -11.212  1.00  0.00     0.211 HD
ENDBRANCH   3  24
BRANCH  13  26
HETATM   26  O2  UNL     1       0.110  52.805 -19.415  1.00  0.00    -0.271 OA
BRANCH  26  27
HETATM   27  C13 UNL     1       0.432  53.544 -20.589  1.00  0.00     0.303 C 
BRANCH  27  28
HETATM   28  C14 UNL     1       0.273  52.697 -21.848  1.00  0.00     0.244 C 
HETATM   29  O3  UNL     1       1.071  51.813 -22.152  1.00  0.00    -0.271 OA
HETATM   30  N2  UNL     1      -0.840  52.972 -22.605  1.00  0.00    -0.343 N 
HETATM   31  H16 UNL     1      -1.529  53.612 -22.222  1.00  0.00     0.163 HD
BRANCH  30  32
HETATM   32  C15 UNL     1      -1.172  52.197 -23.806  1.00  0.00     0.217 C 
BRANCH  32  33
HETATM   33  C16 UNL     1      -0.119  52.481 -24.876  1.00  0.00     0.284 C 
HETATM   34  O4  UNL     1       0.947  51.882 -24.971  1.00  0.00    -0.263 OA
BRANCH  33  35
HETATM   35  O5  UNL     1      -0.543  53.466 -25.715  1.00  0.00    -0.320 OA
BRANCH  35  36
HETATM   36  C17 UNL     1      -0.908  53.050 -27.038  1.00  0.00     0.174 C 
HETATM   37  C18 UNL     1       0.337  52.749 -27.850  1.00  0.00     0.034 C 
ENDBRANCH  35  36
ENDBRANCH  33  35
ENDBRANCH  32  33
BRANCH  32  38
HETATM   38  C19 UNL     1      -1.157  50.678 -23.528  1.00  0.00     0.183 C 
BRANCH  38  39
HETATM   39  O6  UNL     1      -1.437  50.422 -22.141  1.00  0.00    -0.388 OA
HETATM   40  H24 UNL     1      -1.898  49.566 -22.087  1.00  0.00     0.210 HD
ENDBRANCH  38  39
BRANCH  38  41
HETATM   41  C20 UNL     1      -2.132  49.889 -24.381  1.00  0.00    -0.027 A 
HETATM   42  C21 UNL     1      -1.953  49.778 -25.768  1.00  0.00     0.010 A 
HETATM   43  C22 UNL     1      -2.850  49.043 -26.543  1.00  0.00     0.001 A 
HETATM   44  C23 UNL     1      -3.938  48.413 -25.941  1.00  0.00     0.000 A 
HETATM   45  C24 UNL     1      -4.129  48.518 -24.566  1.00  0.00     0.001 A 
HETATM   46  C25 UNL     1      -3.232  49.251 -23.788  1.00  0.00     0.010 A 
ENDBRANCH  38  41
ENDBRANCH  32  38
ENDBRANCH  30  32
ENDBRANCH  27  28
ENDBRANCH  26  27
ENDBRANCH  13  26
TORSDOF 11
ENDMDL
MODEL 5
REMARK minimizedAffinity -8.31852436
REMARK CNNscore 0.330043763
REMARK CNNaffinity 5.87921953
REMARK  11 active torsions:
REMARK  status: ('A' for Active; 'I' for Inactive)
REMARK    1  A    between atoms: C3_3  and  O1_4 
REMARK    2  A    between atoms: N1_14  and  O2_16 
REMARK    3  A    between atoms: O2_16  and  C13_17 
REMARK    4  A    between atoms: C13_17  and  C14_18 
REMARK       I    between atoms: C14_18  and  N2_20 
REMARK    5  A    between atoms: N2_20  and  C15_21 
REMARK    6  A    between atoms: C15_21  and  C16_22 
REMARK    7  A    between atoms: C15_21  and  C19_27 
REMARK    8  A    between atoms: C16_22  and  O5_24 
REMARK    9  A    between atoms: O5_24  and  C17_25 
REMARK   10  A    between atoms: C19_27  and  O6_28 
REMARK   11  A    between atoms: C19_27  and  C20_29 
ROOT
HETATM    1  C1  UNL     1      -6.154  40.934 -32.508  1.00  0.00     0.015 C 
HETATM    2  C2  UNL     1      -6.691  41.992 -32.698  1.00  0.00    -0.078 C 
HETATM    3  C3  UNL     1      -7.367  43.286 -32.948  1.00  0.00     0.128 C 
HETATM    4  C4  UNL     1      -8.765  43.256 -32.329  1.00  0.00     0.052 C 
HETATM    5  C5  UNL     1      -8.571  43.678 -30.873  1.00  0.00     0.010 C 
HETATM    6  C6  UNL     1      -7.189  44.363 -30.782  1.00  0.00     0.002 C 
HETATM    7  C7  UNL     1      -7.172  45.683 -29.986  1.00  0.00    -0.004 C 
HETATM    8  C8  UNL     1      -7.492  45.463 -28.502  1.00  0.00     0.010 C 
HETATM    9  C9  UNL     1      -7.793  46.775 -27.800  1.00  0.00     0.035 C 
HETATM   10  C10 UNL     1      -9.084  47.284 -28.375  1.00  0.00    -0.069 C 
HETATM   11  C11 UNL     1     -10.181  47.352 -27.600  1.00  0.00     0.030 C 
HETATM   12  C12 UNL     1     -11.511  47.740 -28.151  1.00  0.00     0.032 C 
HETATM   13  N1  UNL     1     -12.588  47.950 -27.458  1.00  0.00    -0.271 N 
ATOM     14  H1  UNL     1     -13.486  48.213 -27.868  1.00  0.00     0.194 HD
HETATM   15  C26 UNL     1     -11.629  47.923 -29.651  1.00  0.00     0.060 C 
HETATM   16  C27 UNL     1     -10.489  47.265 -30.422  1.00  0.00     0.020 C 
HETATM   17  C28 UNL     1      -9.081  47.605 -29.865  1.00  0.00    -0.016 C 
HETATM   18  C29 UNL     1      -8.847  49.136 -30.008  1.00  0.00     0.020 C 
HETATM   19  C30 UNL     1      -7.911  46.879 -30.664  1.00  0.00     0.002 C 
HETATM   20  C31 UNL     1      -8.229  46.605 -32.149  1.00  0.00     0.007 C 
HETATM   21  C32 UNL     1      -7.086  45.888 -32.861  1.00  0.00     0.014 C 
HETATM   22  C33 UNL     1      -6.686  44.509 -32.247  1.00  0.00     0.003 C 
HETATM   23  C34 UNL     1      -5.142  44.431 -32.320  1.00  0.00     0.020 C 
ENDROOT
BRANCH   3  24
HETATM   24  O1  UNL     1      -7.472  43.459 -34.354  1.00  0.00    -0.377 OA
HETATM   25  H2  UNL     1      -6.579  43.337 -34.720  1.00  0.00     0.211 HD
ENDBRANCH   3  24
BRANCH  13  26
HETATM   26  O2  UNL     1     -12.379  47.776 -26.082  1.00  0.00    -0.271 OA
BRANCH  26  27
HETATM   27  C13 UNL     1     -13.055  46.593 -25.666  1.00  0.00     0.303 C 
BRANCH  27  28
HETATM   28  C14 UNL     1     -14.128  46.896 -24.624  1.00  0.00     0.244 C 
HETATM   29  O3  UNL     1     -13.924  47.640 -23.667  1.00  0.00    -0.271 OA
HETATM   30  N2  UNL     1     -15.345  46.302 -24.845  1.00  0.00    -0.343 N 
HETATM   31  H16 UNL     1     -15.486  45.819 -25.727  1.00  0.00     0.163 HD
BRANCH  30  32
HETATM   32  C15 UNL     1     -16.500  46.551 -23.974  1.00  0.00     0.217 C 
BRANCH  32  33
HETATM   33  C16 UNL     1     -17.775  46.418 -24.805  1.00  0.00     0.284 C 
HETATM   34  O4  UNL     1     -18.587  47.322 -24.972  1.00  0.00    -0.263 OA
BRANCH  33  35
HETATM   35  O5  UNL     1     -17.864  45.173 -25.349  1.00  0.00    -0.320 OA
BRANCH  35  36
HETATM   36  C17 UNL     1     -18.154  45.120 -26.753  1.00  0.00     0.174 C 
HETATM   37  C18 UNL     1     -19.506  44.470 -26.978  1.00  0.00     0.034 C 
ENDBRANCH  35  36
ENDBRANCH  33  35
ENDBRANCH  32  33
BRANCH  32  38
HETATM   38  C19 UNL     1     -16.582  45.521 -22.825  1.00  0.00     0.183 C 
BRANCH  38  39
HETATM   39  O6  UNL     1     -15.273  45.001 -22.529  1.00  0.00    -0.388 OA
HETATM   40  H24 UNL     1     -15.250  44.788 -21.578  1.00  0.00     0.210 HD
ENDBRANCH  38  39
BRANCH  38  41
HETATM   41  C20 UNL     1     -17.193  46.070 -21.551  1.00  0.00    -0.027 A 
HETATM   42  C21 UNL     1     -18.563  45.919 -21.284  1.00  0.00     0.010 A 
HETATM   43  C22 UNL     1     -19.115  46.420 -20.105  1.00  0.00     0.001 A 
HETATM   44  C23 UNL     1     -18.307  47.080 -19.181  1.00  0.00     0.000 A 
HETATM   45  C24 UNL     1     -16.947  47.241 -19.437  1.00  0.00     0.001 A 
HETATM   46  C25 UNL     1     -16.391  46.739 -20.614  1.00  0.00     0.010 A 
ENDBRANCH  38  41
ENDBRANCH  32  38
ENDBRANCH  30  32
ENDBRANCH  27  28
ENDBRANCH  26  27
ENDBRANCH  13  26
TORSDOF 11
ENDMDL
MODEL 6
REMARK minimizedAffinity -7.29769897
REMARK CNNscore 0.322078049
REMARK CNNaffinity 5.83943367
REMARK  11 active torsions:
REMARK  status: ('A' for Active; 'I' for Inactive)
REMARK    1  A    between atoms: C3_3  and  O1_4 
REMARK    2  A    between atoms: N1_14  and  O2_16 
REMARK    3  A    between atoms: O2_16  and  C13_17 
REMARK    4  A    between atoms: C13_17  and  C14_18 
REMARK       I    between atoms: C14_18  and  N2_20 
REMARK    5  A    between atoms: N2_20  and  C15_21 
REMARK    6  A    between atoms: C15_21  and  C16_22 
REMARK    7  A    between atoms: C15_21  and  C19_27 
REMARK    8  A    between atoms: C16_22  and  O5_24 
REMARK    9  A    between atoms: O5_24  and  C17_25 
REMARK   10  A    between atoms: C19_27  and  O6_28 
REMARK   11  A    between atoms: C19_27  and  C20_29 
ROOT
HETATM    1  C1  UNL     1      -4.201  45.657 -31.896  1.00  0.00     0.015 C 
HETATM    2  C2  UNL     1      -5.375  45.836 -32.078  1.00  0.00    -0.078 C 
HETATM    3  C3  UNL     1      -6.824  46.038 -32.317  1.00  0.00     0.128 C 
HETATM    4  C4  UNL     1      -7.609  44.901 -31.665  1.00  0.00     0.052 C 
HETATM    5  C5  UNL     1      -7.823  45.338 -30.216  1.00  0.00     0.010 C 
HETATM    6  C6  UNL     1      -7.571  46.861 -30.161  1.00  0.00     0.002 C 
HETATM    7  C7  UNL     1      -8.623  47.664 -29.372  1.00  0.00    -0.004 C 
HETATM    8  C8  UNL     1      -8.616  47.310 -27.880  1.00  0.00     0.010 C 
HETATM    9  C9  UNL     1      -9.849  47.848 -27.177  1.00  0.00     0.035 C 
HETATM   10  C10 UNL     1     -11.023  47.086 -27.722  1.00  0.00    -0.069 C 
HETATM   11  C11 UNL     1     -11.711  46.253 -26.921  1.00  0.00     0.030 C 
HETATM   12  C12 UNL     1     -12.808  45.389 -27.442  1.00  0.00     0.032 C 
HETATM   13  N1  UNL     1     -13.602  44.653 -26.724  1.00  0.00    -0.271 N 
ATOM     14  H1  UNL     1     -14.343  44.070 -27.113  1.00  0.00     0.194 HD
HETATM   15  C26 UNL     1     -13.042  45.366 -28.939  1.00  0.00     0.060 C 
HETATM   16  C27 UNL     1     -11.850  45.889 -29.735  1.00  0.00     0.020 C 
HETATM   17  C28 UNL     1     -11.297  47.242 -29.214  1.00  0.00    -0.016 C 
HETATM   18  C29 UNL     1     -12.404  48.323 -29.370  1.00  0.00     0.020 C 
HETATM   19  C30 UNL     1     -10.032  47.749 -30.038  1.00  0.00     0.002 C 
HETATM   20  C31 UNL     1     -10.012  47.297 -31.513  1.00  0.00     0.007 C 
HETATM   21  C32 UNL     1      -8.769  47.789 -32.250  1.00  0.00     0.014 C 
HETATM   22  C33 UNL     1      -7.410  47.322 -31.639  1.00  0.00     0.003 C 
HETATM   23  C34 UNL     1      -6.446  48.526 -31.749  1.00  0.00     0.020 C 
ENDROOT
BRANCH   3  24
HETATM   24  O1  UNL     1      -7.039  46.023 -33.721  1.00  0.00    -0.377 OA
HETATM   25  H2  UNL     1      -6.423  46.667 -34.109  1.00  0.00     0.211 HD
ENDBRANCH   3  24
BRANCH  13  26
HETATM   26  O2  UNL     1     -13.323  44.752 -25.352  1.00  0.00    -0.271 OA
BRANCH  26  27
HETATM   27  C13 UNL     1     -14.415  45.408 -24.714  1.00  0.00     0.303 C 
BRANCH  27  28
HETATM   28  C14 UNL     1     -15.737  44.701 -24.994  1.00  0.00     0.244 C 
HETATM   29  O3  UNL     1     -15.853  43.478 -24.940  1.00  0.00    -0.271 OA
HETATM   30  N2  UNL     1     -16.795  45.526 -25.284  1.00  0.00    -0.343 N 
HETATM   31  H16 UNL     1     -16.663  46.526 -25.170  1.00  0.00     0.163 HD
BRANCH  30  32
HETATM   32  C15 UNL     1     -18.148  45.004 -25.507  1.00  0.00     0.217 C 
BRANCH  32  33
HETATM   33  C16 UNL     1     -19.154  45.980 -24.898  1.00  0.00     0.284 C 
HETATM   34  O4  UNL     1     -19.081  47.200 -25.001  1.00  0.00    -0.263 OA
BRANCH  33  35
HETATM   35  O5  UNL     1     -20.147  45.305 -24.256  1.00  0.00    -0.320 OA
BRANCH  35  36
HETATM   36  C17 UNL     1     -19.730  44.208 -23.431  1.00  0.00     0.174 C 
HETATM   37  C18 UNL     1     -20.937  43.564 -22.775  1.00  0.00     0.034 C 
ENDBRANCH  35  36
ENDBRANCH  33  35
ENDBRANCH  32  33
BRANCH  32  38
HETATM   38  C19 UNL     1     -18.472  44.879 -27.012  1.00  0.00     0.183 C 
BRANCH  38  39
HETATM   39  O6  UNL     1     -17.274  45.036 -27.794  1.00  0.00    -0.388 OA
HETATM   40  H24 UNL     1     -17.375  44.494 -28.597  1.00  0.00     0.210 HD
ENDBRANCH  38  39
BRANCH  38  41
HETATM   41  C20 UNL     1     -19.139  43.571 -27.390  1.00  0.00    -0.027 A 
HETATM   42  C21 UNL     1     -18.871  42.392 -26.678  1.00  0.00     0.010 A 
HETATM   43  C22 UNL     1     -19.496  41.194 -27.028  1.00  0.00     0.001 A 
HETATM   44  C23 UNL     1     -20.393  41.161 -28.094  1.00  0.00     0.000 A 
HETATM   45  C24 UNL     1     -20.664  42.323 -28.811  1.00  0.00     0.001 A 
HETATM   46  C25 UNL     1     -20.042  43.523 -28.463  1.00  0.00     0.010 A 
ENDBRANCH  38  41
ENDBRANCH  32  38
ENDBRANCH  30  32
ENDBRANCH  27  28
ENDBRANCH  26  27
ENDBRANCH  13  26
TORSDOF 11
ENDMDL
MODEL 7
REMARK minimizedAffinity -7.89849377
REMARK CNNscore 0.279927194
REMARK CNNaffinity 6.02934408
REMARK  11 active torsions:
REMARK  status: ('A' for Active; 'I' for Inactive)
REMARK    1  A    between atoms: C3_3  and  O1_4 
REMARK    2  A    between atoms: N1_14  and  O2_16 
REMARK    3  A    between atoms: O2_16  and  C13_17 
REMARK    4  A    between atoms: C13_17  and  C14_18 
REMARK       I    between atoms: C14_18  and  N2_20 
REMARK    5  A    between atoms: N2_20  and  C15_21 
REMARK    6  A    between atoms: C15_21  and  C16_22 
REMARK    7  A    between atoms: C15_21  and  C19_27 
REMARK    8  A    between atoms: C16_22  and  O5_24 
REMARK    9  A    between atoms: O5_24  and  C17_25 
REMARK   10  A    between atoms: C19_27  and  O6_28 
REMARK   11  A    between atoms: C19_27  and  C20_29 
ROOT
HETATM    1  C1  UNL     1      -5.688  40.641 -19.836  1.00  0.00     0.015 C 
HETATM    2  C2  UNL     1      -5.694  41.693 -19.256  1.00  0.00    -0.078 C 
HETATM    3  C3  UNL     1      -5.680  42.986 -18.532  1.00  0.00     0.128 C 
HETATM    4  C4  UNL     1      -4.706  43.942 -19.220  1.00  0.00     0.052 C 
HETATM    5  C5  UNL     1      -5.514  44.612 -20.331  1.00  0.00     0.010 C 
HETATM    6  C6  UNL     1      -7.006  44.388 -20.001  1.00  0.00     0.002 C 
HETATM    7  C7  UNL     1      -7.896  45.638 -20.147  1.00  0.00    -0.004 C 
HETATM    8  C8  UNL     1      -7.983  46.113 -21.603  1.00  0.00     0.010 C 
HETATM    9  C9  UNL     1      -8.579  47.507 -21.695  1.00  0.00     0.035 C 
HETATM   10  C10 UNL     1      -7.585  48.443 -21.070  1.00  0.00    -0.069 C 
HETATM   11  C11 UNL     1      -6.952  49.354 -21.830  1.00  0.00     0.030 C 
HETATM   12  C12 UNL     1      -5.875  50.226 -21.281  1.00  0.00     0.032 C 
HETATM   13  N1  UNL     1      -5.301  51.210 -21.905  1.00  0.00    -0.271 N 
ATOM     14  H1  UNL     1      -4.563  51.787 -21.500  1.00  0.00     0.194 HD
HETATM   15  C26 UNL     1      -5.405  49.963 -19.864  1.00  0.00     0.060 C 
HETATM   16  C27 UNL     1      -5.792  48.577 -19.357  1.00  0.00     0.020 C 
HETATM   17  C28 UNL     1      -7.283  48.220 -19.592  1.00  0.00    -0.016 C 
HETATM   18  C29 UNL     1      -8.165  49.215 -18.785  1.00  0.00     0.020 C 
HETATM   19  C30 UNL     1      -7.653  46.756 -19.086  1.00  0.00     0.002 C 
HETATM   20  C31 UNL     1      -6.805  46.261 -17.897  1.00  0.00     0.007 C 
HETATM   21  C32 UNL     1      -7.183  44.846 -17.468  1.00  0.00     0.014 C 
HETATM   22  C33 UNL     1      -7.041  43.758 -18.579  1.00  0.00     0.003 C 
HETATM   23  C34 UNL     1      -8.251  42.808 -18.415  1.00  0.00     0.020 C 
ENDROOT
BRANCH   3  24
HETATM   24  O1  UNL     1      -5.246  42.737 -17.203  1.00  0.00    -0.377 OA
HETATM   25  H2  UNL     1      -5.809  42.027 -16.850  1.00  0.00     0.211 HD
ENDBRANCH   3  24
BRANCH  13  26
HETATM   26  O2  UNL     1      -5.812  51.389 -23.199  1.00  0.00    -0.271 OA
BRANCH  26  27
HETATM   27  C13 UNL     1      -4.876  52.151 -23.955  1.00  0.00     0.303 C 
BRANCH  27  28
HETATM   28  C14 UNL     1      -3.728  51.285 -24.464  1.00  0.00     0.244 C 
HETATM   29  O3  UNL     1      -2.808  50.918 -23.736  1.00  0.00    -0.271 OA
HETATM   30  N2  UNL     1      -3.807  50.921 -25.785  1.00  0.00    -0.343 N 
HETATM   31  H16 UNL     1      -4.662  51.137 -26.288  1.00  0.00     0.163 HD
BRANCH  30  32
HETATM   32  C15 UNL     1      -2.818  50.031 -26.406  1.00  0.00     0.217 C 
BRANCH  32  33
HETATM   33  C16 UNL     1      -3.542  48.797 -26.942  1.00  0.00     0.284 C 
HETATM   34  O4  UNL     1      -3.454  48.392 -28.097  1.00  0.00    -0.263 OA
BRANCH  33  35
HETATM   35  O5  UNL     1      -4.267  48.202 -25.955  1.00  0.00    -0.320 OA
BRANCH  35  36
HETATM   36  C17 UNL     1      -5.678  48.097 -26.187  1.00  0.00     0.174 C 
HETATM   37  C18 UNL     1      -5.940  47.730 -27.635  1.00  0.00     0.034 C 
ENDBRANCH  35  36
ENDBRANCH  33  35
ENDBRANCH  32  33
BRANCH  32  38
HETATM   38  C19 UNL     1      -2.108  50.710 -27.598  1.00  0.00     0.183 C 
BRANCH  38  39
HETATM   39  O6  UNL     1      -2.831  51.885 -28.005  1.00  0.00    -0.388 OA
HETATM   40  H24 UNL     1      -2.183  52.523 -28.354  1.00  0.00     0.210 HD
ENDBRANCH  38  39
BRANCH  38  41
HETATM   41  C20 UNL     1      -0.667  51.091 -27.318  1.00  0.00    -0.027 A 
HETATM   42  C21 UNL     1      -0.086  50.846 -26.064  1.00  0.00     0.010 A 
HETATM   43  C22 UNL     1       1.243  51.192 -25.819  1.00  0.00     0.001 A 
HETATM   44  C23 UNL     1       2.005  51.789 -26.821  1.00  0.00     0.000 A 
HETATM   45  C24 UNL     1       1.439  52.041 -28.068  1.00  0.00     0.001 A 
HETATM   46  C25 UNL     1       0.110  51.695 -28.317  1.00  0.00     0.010 A 
ENDBRANCH  38  41
ENDBRANCH  32  38
ENDBRANCH  30  32
ENDBRANCH  27  28
ENDBRANCH  26  27
ENDBRANCH  13  26
TORSDOF 11
ENDMDL
MODEL 8
REMARK minimizedAffinity -7.62742376
REMARK CNNscore 0.267970324
REMARK CNNaffinity 6.0051465
REMARK  11 active torsions:
REMARK  status: ('A' for Active; 'I' for Inactive)
REMARK    1  A    between atoms: C3_3  and  O1_4 
REMARK    2  A    between atoms: N1_14  and  O2_16 
REMARK    3  A    between atoms: O2_16  and  C13_17 
REMARK    4  A    between atoms: C13_17  and  C14_18 
REMARK       I    between atoms: C14_18  and  N2_20 
REMARK    5  A    between atoms: N2_20  and  C15_21 
REMARK    6  A    between atoms: C15_21  and  C16_22 
REMARK    7  A    between atoms: C15_21  and  C19_27 
REMARK    8  A    between atoms: C16_22  and  O5_24 
REMARK    9  A    between atoms: O5_24  and  C17_25 
REMARK   10  A    between atoms: C19_27  and  O6_28 
REMARK   11  A    between atoms: C19_27  and  C20_29 
ROOT
HETATM    1  C1  UNL     1       0.940  51.159 -26.223  1.00  0.00     0.015 C 
HETATM    2  C2  UNL     1      -0.128  51.495 -25.789  1.00  0.00    -0.078 C 
HETATM    3  C3  UNL     1      -1.450  51.922 -25.274  1.00  0.00     0.128 C 
HETATM    4  C4  UNL     1      -2.553  51.192 -26.040  1.00  0.00     0.052 C 
HETATM    5  C5  UNL     1      -2.737  49.861 -25.311  1.00  0.00     0.010 C 
HETATM    6  C6  UNL     1      -2.090  50.017 -23.917  1.00  0.00     0.002 C 
HETATM    7  C7  UNL     1      -2.939  49.484 -22.746  1.00  0.00    -0.004 C 
HETATM    8  C8  UNL     1      -3.125  47.963 -22.817  1.00  0.00     0.010 C 
HETATM    9  C9  UNL     1      -4.213  47.494 -21.867  1.00  0.00     0.035 C 
HETATM   10  C10 UNL     1      -5.509  48.040 -22.393  1.00  0.00    -0.069 C 
HETATM   11  C11 UNL     1      -6.446  47.200 -22.867  1.00  0.00     0.030 C 
HETATM   12  C12 UNL     1      -7.698  47.698 -23.505  1.00  0.00     0.032 C 
HETATM   13  N1  UNL     1      -8.705  46.967 -23.875  1.00  0.00    -0.271 N 
ATOM     14  H1  UNL     1      -9.549  47.340 -24.313  1.00  0.00     0.194 HD
HETATM   15  C26 UNL     1      -7.830  49.190 -23.736  1.00  0.00     0.060 C 
HETATM   16  C27 UNL     1      -6.492  49.921 -23.683  1.00  0.00     0.020 C 
HETATM   17  C28 UNL     1      -5.632  49.559 -22.443  1.00  0.00    -0.016 C 
HETATM   18  C29 UNL     1      -6.396  50.003 -21.163  1.00  0.00     0.020 C 
HETATM   19  C30 UNL     1      -4.227  50.307 -22.428  1.00  0.00     0.002 C 
HETATM   20  C31 UNL     1      -4.231  51.682 -23.128  1.00  0.00     0.007 C 
HETATM   21  C32 UNL     1      -2.856  52.344 -23.106  1.00  0.00     0.014 C 
HETATM   22  C33 UNL     1      -1.715  51.521 -23.784  1.00  0.00     0.003 C 
HETATM   23  C34 UNL     1      -0.458  51.711 -22.903  1.00  0.00     0.020 C 
ENDROOT
BRANCH   3  24
HETATM   24  O1  UNL     1      -1.569  53.322 -25.486  1.00  0.00    -0.377 OA
HETATM   25  H2  UNL     1      -0.779  53.734 -25.099  1.00  0.00     0.211 HD
ENDBRANCH   3  24
BRANCH  13  26
HETATM   26  O2  UNL     1      -8.501  45.605 -23.606  1.00  0.00    -0.271 OA
BRANCH  26  27
HETATM   27  C13 UNL     1      -8.083  44.962 -24.806  1.00  0.00     0.303 C 
BRANCH  27  28
HETATM   28  C14 UNL     1      -9.129  45.097 -25.909  1.00  0.00     0.244 C 
HETATM   29  O3  UNL     1      -9.342  46.160 -26.487  1.00  0.00    -0.271 OA
HETATM   30  N2  UNL     1      -9.797  43.941 -26.229  1.00  0.00    -0.343 N 
HETATM   31  H16 UNL     1      -9.472  43.073 -25.815  1.00  0.00     0.163 HD
BRANCH  30  32
HETATM   32  C15 UNL     1     -10.782  43.889 -27.316  1.00  0.00     0.217 C 
BRANCH  32  33
HETATM   33  C16 UNL     1     -10.168  43.133 -28.494  1.00  0.00     0.284 C 
HETATM   34  O4  UNL     1      -9.198  43.524 -29.135  1.00  0.00    -0.263 OA
BRANCH  33  35
HETATM   35  O5  UNL     1     -10.830  41.962 -28.707  1.00  0.00    -0.320 OA
BRANCH  35  36
HETATM   36  C17 UNL     1     -11.143  41.657 -30.073  1.00  0.00     0.174 C 
HETATM   37  C18 UNL     1     -11.531  40.196 -30.202  1.00  0.00     0.034 C 
ENDBRANCH  35  36
ENDBRANCH  33  35
ENDBRANCH  32  33
BRANCH  32  38
HETATM   38  C19 UNL     1     -12.061  43.135 -26.893  1.00  0.00     0.183 C 
BRANCH  38  39
HETATM   39  O6  UNL     1     -12.119  43.017 -25.460  1.00  0.00    -0.388 OA
HETATM   40  H24 UNL     1     -13.059  43.021 -25.203  1.00  0.00     0.210 HD
ENDBRANCH  38  39
BRANCH  38  41
HETATM   41  C20 UNL     1     -13.343  43.777 -27.386  1.00  0.00    -0.027 A 
HETATM   42  C21 UNL     1     -14.417  42.993 -27.836  1.00  0.00     0.010 A 
HETATM   43  C22 UNL     1     -15.596  43.593 -28.280  1.00  0.00     0.001 A 
HETATM   44  C23 UNL     1     -15.715  44.982 -28.283  1.00  0.00     0.000 A 
HETATM   45  C24 UNL     1     -14.655  45.771 -27.842  1.00  0.00     0.001 A 
HETATM   46  C25 UNL     1     -13.475  45.174 -27.396  1.00  0.00     0.010 A 
ENDBRANCH  38  41
ENDBRANCH  32  38
ENDBRANCH  30  32
ENDBRANCH  27  28
ENDBRANCH  26  27
ENDBRANCH  13  26
TORSDOF 11
ENDMDL
MODEL 9
REMARK minimizedAffinity -9.6270113
REMARK CNNscore 0.242593288
REMARK CNNaffinity 6.73706198
REMARK  11 active torsions:
REMARK  status: ('A' for Active; 'I' for Inactive)
REMARK    1  A    between atoms: C3_3  and  O1_4 
REMARK    2  A    between atoms: N1_14  and  O2_16 
REMARK    3  A    between atoms: O2_16  and  C13_17 
REMARK    4  A    between atoms: C13_17  and  C14_18 
REMARK       I    between atoms: C14_18  and  N2_20 
REMARK    5  A    between atoms: N2_20  and  C15_21 
REMARK    6  A    between atoms: C15_21  and  C16_22 
REMARK    7  A    between atoms: C15_21  and  C19_27 
REMARK    8  A    between atoms: C16_22  and  O5_24 
REMARK    9  A    between atoms: O5_24  and  C17_25 
REMARK   10  A    between atoms: C19_27  and  O6_28 
REMARK   11  A    between atoms: C19_27  and  C20_29 
ROOT
HETATM    1  C1  UNL     1       0.227  54.325 -26.766  1.00  0.00     0.015 C 
HETATM    2  C2  UNL     1      -0.112  53.182 -26.618  1.00  0.00    -0.078 C 
HETATM    3  C3  UNL     1      -0.505  51.765 -26.436  1.00  0.00     0.128 C 
HETATM    4  C4  UNL     1      -0.056  51.286 -25.056  1.00  0.00     0.052 C 
HETATM    5  C5  UNL     1      -1.183  51.686 -24.103  1.00  0.00     0.010 C 
HETATM    6  C6  UNL     1      -2.428  51.971 -24.972  1.00  0.00     0.002 C 
HETATM    7  C7  UNL     1      -3.737  51.344 -24.453  1.00  0.00    -0.004 C 
HETATM    8  C8  UNL     1      -4.169  51.947 -23.110  1.00  0.00     0.010 C 
HETATM    9  C9  UNL     1      -5.257  51.115 -22.454  1.00  0.00     0.035 C 
HETATM   10  C10 UNL     1      -4.627  49.805 -22.075  1.00  0.00    -0.069 C 
HETATM   11  C11 UNL     1      -4.482  49.482 -20.777  1.00  0.00     0.030 C 
HETATM   12  C12 UNL     1      -3.761  48.250 -20.349  1.00  0.00     0.032 C 
HETATM   13  N1  UNL     1      -3.683  47.799 -19.134  1.00  0.00    -0.271 N 
ATOM     14  H1  UNL     1      -3.178  46.951 -18.873  1.00  0.00     0.194 HD
HETATM   15  C26 UNL     1      -3.064  47.430 -21.416  1.00  0.00     0.060 C 
HETATM   16  C27 UNL     1      -2.832  48.210 -22.707  1.00  0.00     0.020 C 
HETATM   17  C28 UNL     1      -4.092  48.955 -23.222  1.00  0.00    -0.016 C 
HETATM   18  C29 UNL     1      -5.184  47.903 -23.566  1.00  0.00     0.020 C 
HETATM   19  C30 UNL     1      -3.815  49.789 -24.550  1.00  0.00     0.002 C 
HETATM   20  C31 UNL     1      -2.709  49.202 -25.450  1.00  0.00     0.007 C 
HETATM   21  C32 UNL     1      -2.467  50.050 -26.695  1.00  0.00     0.014 C 
HETATM   22  C33 UNL     1      -2.053  51.531 -26.416  1.00  0.00     0.003 C 
HETATM   23  C34 UNL     1      -2.783  52.393 -27.473  1.00  0.00     0.020 C 
ENDROOT
BRANCH   3  24
HETATM   24  O1  UNL     1       0.144  51.000 -27.441  1.00  0.00    -0.377 OA
HETATM   25  H2  UNL     1      -0.061  51.420 -28.293  1.00  0.00     0.211 HD
ENDBRANCH   3  24
BRANCH  13  26
HETATM   26  O2  UNL     1      -4.372  48.610 -18.220  1.00  0.00    -0.271 OA
BRANCH  26  27
HETATM   27  C13 UNL     1      -3.582  48.740 -17.042  1.00  0.00     0.303 C 
BRANCH  27  28
HETATM   28  C14 UNL     1      -2.615  49.916 -17.141  1.00  0.00     0.244 C 
HETATM   29  O3  UNL     1      -2.924  51.053 -16.791  1.00  0.00    -0.271 OA
HETATM   30  N2  UNL     1      -1.366  49.611 -17.623  1.00  0.00    -0.343 N 
HETATM   31  H16 UNL     1      -1.134  48.632 -17.756  1.00  0.00     0.163 HD
BRANCH  30  32
HETATM   32  C15 UNL     1      -0.301  50.617 -17.711  1.00  0.00     0.217 C 
BRANCH  32  33
HETATM   33  C16 UNL     1      -0.699  51.656 -18.759  1.00  0.00     0.284 C 
HETATM   34  O4  UNL     1      -1.718  52.338 -18.703  1.00  0.00    -0.263 OA
BRANCH  33  35
HETATM   35  O5  UNL     1       0.245  51.735 -19.737  1.00  0.00    -0.320 OA
BRANCH  35  36
HETATM   36  C17 UNL     1       0.091  52.810 -20.674  1.00  0.00     0.174 C 
HETATM   37  C18 UNL     1       1.300  53.724 -20.619  1.00  0.00     0.034 C 
ENDBRANCH  35  36
ENDBRANCH  33  35
ENDBRANCH  32  33
BRANCH  32  38
HETATM   38  C19 UNL     1      -0.103  51.359 -16.371  1.00  0.00     0.183 C 
BRANCH  38  39
HETATM   39  O6  UNL     1      -0.635  50.578 -15.286  1.00  0.00    -0.388 OA
HETATM   40  H24 UNL     1      -0.099  50.770 -14.495  1.00  0.00     0.210 HD
ENDBRANCH  38  39
BRANCH  38  41
HETATM   41  C20 UNL     1       1.343  51.701 -16.068  1.00  0.00    -0.027 A 
HETATM   42  C21 UNL     1       2.028  51.076 -15.014  1.00  0.00     0.010 A 
HETATM   43  C22 UNL     1       3.361  51.391 -14.749  1.00  0.00     0.001 A 
HETATM   44  C23 UNL     1       4.023  52.336 -15.529  1.00  0.00     0.000 A 
HETATM   45  C24 UNL     1       3.354  52.967 -16.575  1.00  0.00     0.001 A 
HETATM   46  C25 UNL     1       2.021  52.653 -16.845  1.00  0.00     0.010 A 
ENDBRANCH  38  41
ENDBRANCH  32  38
ENDBRANCH  30  32
ENDBRANCH  27  28
ENDBRANCH  26  27
ENDBRANCH  13  26
TORSDOF 11
ENDMDL
