MODEL 1
REMARK minimizedAffinity -8.28941536
REMARK CNNscore 0.584907472
REMARK CNNaffinity 6.90590906
REMARK  11 active torsions:
REMARK  status: ('A' for Active; 'I' for Inactive)
REMARK    1  A    between atoms: C2_2  and  O1_4 
REMARK    2  A    between atoms: C2_2  and  C4_5 
REMARK    3  A    between atoms: C5_6  and  C6_7 
REMARK    4  A    between atoms: C6_7  and  C7_8 
REMARK    5  A    between atoms: C7_8  and  C8_9 
REMARK    6  A    between atoms: C7_8  and  C14_21 
REMARK    7  A    between atoms: C8_9  and  O3_11 
REMARK    8  A    between atoms: O3_11  and  C9_12 
REMARK    9  A    between atoms: C11_15  and  O5_16 
REMARK   10  A    between atoms: C12_17  and  O6_18 
REMARK   11  A    between atoms: C13_19  and  O7_20 
ROOT
HETATM    1  C7  UNL     1       1.776  53.671 -10.542  1.00  0.00     0.094 C 
ENDROOT
BRANCH   1   2
HETATM    2  C6  UNL     1       1.914  52.134 -10.610  1.00  0.00     0.042 C 
BRANCH   2   3
HETATM    3  C5  UNL     1       2.177  51.532 -11.964  1.00  0.00    -0.027 C 
HETATM    4  C4  UNL     1       3.296  50.853 -12.273  1.00  0.00     0.006 C 
BRANCH   4   5
HETATM    5  C2  UNL     1       3.619  50.215 -13.605  1.00  0.00     0.068 C 
HETATM    6  C1  UNL     1       2.609  49.106 -13.912  1.00  0.00     0.050 C 
HETATM    7  C3  UNL     1       3.611  51.278 -14.708  1.00  0.00     0.050 C 
BRANCH   5   8
HETATM    8  O1  UNL     1       4.919  49.631 -13.549  1.00  0.00    -0.387 OA
HETATM    9  H7  UNL     1       5.112  49.258 -14.426  1.00  0.00     0.211 HD
ENDBRANCH   5   8
ENDBRANCH   4   5
ENDBRANCH   2   3
ENDBRANCH   1   2
BRANCH   1  10
HETATM   10  C8  UNL     1       0.443  54.102  -9.936  1.00  0.00     0.266 C 
HETATM   11  O2  UNL     1       0.157  55.218  -9.526  1.00  0.00    -0.265 OA
BRANCH  10  12
HETATM   12  O3  UNL     1      -0.442  53.063  -9.957  1.00  0.00    -0.287 OA
BRANCH  12  13
HETATM   13  C9  UNL     1      -1.623  53.295 -10.743  1.00  0.00     0.300 C 
HETATM   14  O4  UNL     1      -2.739  53.433  -9.863  1.00  0.00    -0.355 OA
HETATM   15  C10 UNL     1      -3.916  53.827 -10.566  1.00  0.00     0.205 C 
HETATM   16  C11 UNL     1      -4.222  52.954 -11.794  1.00  0.00     0.173 C 
HETATM   17  C12 UNL     1      -3.307  51.719 -11.866  1.00  0.00     0.182 C 
HETATM   18  C13 UNL     1      -1.836  52.153 -11.776  1.00  0.00     0.205 C 
BRANCH  16  19
HETATM   19  O5  UNL     1      -4.097  53.745 -12.986  1.00  0.00    -0.391 OA
HETATM   20  H17 UNL     1      -3.185  53.654 -13.333  1.00  0.00     0.210 HD
ENDBRANCH  16  19
BRANCH  17  21
HETATM   21  O6  UNL     1      -3.623  50.784 -10.827  1.00  0.00    -0.390 OA
HETATM   22  H19 UNL     1      -4.538  50.496 -10.974  1.00  0.00     0.210 HD
ENDBRANCH  17  21
BRANCH  18  23
HETATM   23  O7  UNL     1      -1.431  52.615 -13.082  1.00  0.00    -0.388 OA
HETATM   24  H21 UNL     1      -0.495  52.903 -12.984  1.00  0.00     0.210 HD
ENDBRANCH  18  23
ENDBRANCH  12  13
ENDBRANCH  10  12
ENDBRANCH   1  10
BRANCH   1  25
HETATM   25  C14 UNL     1       3.068  54.416 -10.096  1.00  0.00     0.009 C 
HETATM   26  C15 UNL     1       2.980  55.961 -10.264  1.00  0.00     0.007 C 
HETATM   27  C16 UNL     1       3.939  56.585  -9.232  1.00  0.00     0.015 C 
HETATM   28  C17 UNL     1       4.838  55.421  -8.772  1.00  0.00    -0.013 C 
HETATM   29  C18 UNL     1       5.970  55.266  -9.837  1.00  0.00     0.021 C 
HETATM   30  C19 UNL     1       5.577  55.531  -7.444  1.00  0.00    -0.068 C 
HETATM   31  C23 UNL     1       3.781  54.242  -8.719  1.00  0.00    -0.028 C 
HETATM   32  C20 UNL     1       5.886  54.411  -6.740  1.00  0.00    -0.068 C 
HETATM   33  C35 UNL     1       6.001  56.917  -7.025  1.00  0.00     0.036 C 
HETATM   34  C21 UNL     1       5.455  53.021  -7.233  1.00  0.00     0.036 C 
HETATM   35  C25 UNL     1       6.655  54.471  -5.396  1.00  0.00    -0.015 C 
HETATM   36  C22 UNL     1       4.576  52.950  -8.505  1.00  0.00     0.015 C 
HETATM   37  C26 UNL     1       5.602  54.352  -4.271  1.00  0.00     0.020 C 
HETATM   38  C27 UNL     1       7.684  53.322  -5.296  1.00  0.00     0.021 C 
HETATM   39  C33 UNL     1       7.492  55.792  -5.313  1.00  0.00     0.013 C 
HETATM   40  C28 UNL     1       8.555  53.331  -4.050  1.00  0.00     0.080 C 
HETATM   41  C29 UNL     1       8.614  54.632  -3.287  1.00  0.00     0.135 C 
HETATM   42  O8  UNL     1       8.958  54.603  -2.100  1.00  0.00    -0.297 OA
HETATM   43  C30 UNL     1       8.363  55.959  -4.017  1.00  0.00     0.018 C 
HETATM   44  C31 UNL     1       9.759  56.492  -4.409  1.00  0.00     0.023 C 
HETATM   45  C32 UNL     1       7.752  56.947  -2.995  1.00  0.00     0.023 C 
HETATM   46  C34 UNL     1       6.618  57.012  -5.634  1.00  0.00     0.011 C 
HETATM   47  C24 UNL     1       2.763  54.392  -7.548  1.00  0.00     0.016 C 
ENDBRANCH   1  25
TORSDOF 11
ENDMDL
MODEL 2
REMARK minimizedAffinity -9.51431274
REMARK CNNscore 0.427413195
REMARK CNNaffinity 6.83508682
REMARK  11 active torsions:
REMARK  status: ('A' for Active; 'I' for Inactive)
REMARK    1  A    between atoms: C2_2  and  O1_4 
REMARK    2  A    between atoms: C2_2  and  C4_5 
REMARK    3  A    between atoms: C5_6  and  C6_7 
REMARK    4  A    between atoms: C6_7  and  C7_8 
REMARK    5  A    between atoms: C7_8  and  C8_9 
REMARK    6  A    between atoms: C7_8  and  C14_21 
REMARK    7  A    between atoms: C8_9  and  O3_11 
REMARK    8  A    between atoms: O3_11  and  C9_12 
REMARK    9  A    between atoms: C11_15  and  O5_16 
REMARK   10  A    between atoms: C12_17  and  O6_18 
REMARK   11  A    between atoms: C13_19  and  O7_20 
ROOT
HETATM    1  C7  UNL     1      -2.708  51.516 -22.766  1.00  0.00     0.094 C 
ENDROOT
BRANCH   1   2
HETATM    2  C6  UNL     1      -1.681  50.869 -21.811  1.00  0.00     0.042 C 
BRANCH   2   3
HETATM    3  C5  UNL     1      -0.590  51.758 -21.278  1.00  0.00    -0.027 C 
HETATM    4  C4  UNL     1      -0.609  52.307 -20.051  1.00  0.00     0.006 C 
BRANCH   4   5
HETATM    5  C2  UNL     1       0.454  53.198 -19.450  1.00  0.00     0.068 C 
HETATM    6  C1  UNL     1       1.044  52.539 -18.200  1.00  0.00     0.050 C 
HETATM    7  C3  UNL     1       1.547  53.477 -20.486  1.00  0.00     0.050 C 
BRANCH   5   8
HETATM    8  O1  UNL     1      -0.130  54.441 -19.064  1.00  0.00    -0.387 OA
HETATM    9  H7  UNL     1       0.580  55.004 -18.712  1.00  0.00     0.211 HD
ENDBRANCH   5   8
ENDBRANCH   4   5
ENDBRANCH   2   3
ENDBRANCH   1   2
BRANCH   1  10
HETATM   10  C8  UNL     1      -2.073  51.950 -24.084  1.00  0.00     0.266 C 
HETATM   11  O2  UNL     1      -2.087  53.075 -24.564  1.00  0.00    -0.265 OA
BRANCH  10  12
HETATM   12  O3  UNL     1      -1.418  50.899 -24.659  1.00  0.00    -0.287 OA
BRANCH  12  13
HETATM   13  C9  UNL     1      -0.770  51.205 -25.906  1.00  0.00     0.300 C 
HETATM   14  O4  UNL     1       0.616  51.440 -25.655  1.00  0.00    -0.355 OA
HETATM   15  C10 UNL     1       1.350  51.589 -26.870  1.00  0.00     0.205 C 
HETATM   16  C11 UNL     1       0.733  52.608 -27.843  1.00  0.00     0.173 C 
HETATM   17  C12 UNL     1      -0.422  53.394 -27.197  1.00  0.00     0.182 C 
HETATM   18  C13 UNL     1      -1.449  52.420 -26.600  1.00  0.00     0.205 C 
BRANCH  16  19
HETATM   19  O5  UNL     1       0.281  51.927 -29.024  1.00  0.00    -0.391 OA
HETATM   20  H17 UNL     1      -0.662  51.686 -28.911  1.00  0.00     0.210 HD
ENDBRANCH  16  19
BRANCH  17  21
HETATM   21  O6  UNL     1       0.066  54.293 -26.194  1.00  0.00    -0.390 OA
HETATM   22  H19 UNL     1       0.654  54.923 -26.639  1.00  0.00     0.210 HD
ENDBRANCH  17  21
BRANCH  18  23
HETATM   23  O7  UNL     1      -2.283  51.943 -27.677  1.00  0.00    -0.388 OA
HETATM   24  H21 UNL     1      -2.912  51.307 -27.265  1.00  0.00     0.210 HD
ENDBRANCH  18  23
ENDBRANCH  12  13
ENDBRANCH  10  12
ENDBRANCH   1  10
BRANCH   1  25
HETATM   25  C14 UNL     1      -4.090  50.798 -22.810  1.00  0.00     0.009 C 
HETATM   26  C15 UNL     1      -4.715  50.749 -24.234  1.00  0.00     0.007 C 
HETATM   27  C16 UNL     1      -5.642  49.519 -24.280  1.00  0.00     0.015 C 
HETATM   28  C17 UNL     1      -5.844  49.120 -22.806  1.00  0.00    -0.013 C 
HETATM   29  C18 UNL     1      -6.970  50.038 -22.231  1.00  0.00     0.021 C 
HETATM   30  C19 UNL     1      -6.300  47.704 -22.473  1.00  0.00    -0.068 C 
HETATM   31  C23 UNL     1      -4.390  49.380 -22.234  1.00  0.00    -0.028 C 
HETATM   32  C20 UNL     1      -5.956  47.138 -21.288  1.00  0.00    -0.068 C 
HETATM   33  C35 UNL     1      -7.200  47.036 -23.482  1.00  0.00     0.036 C 
HETATM   34  C21 UNL     1      -5.061  47.881 -20.284  1.00  0.00     0.036 C 
HETATM   35  C25 UNL     1      -6.413  45.709 -20.897  1.00  0.00    -0.015 C 
HETATM   36  C22 UNL     1      -4.489  49.254 -20.710  1.00  0.00     0.015 C 
HETATM   37  C26 UNL     1      -5.226  44.763 -21.187  1.00  0.00     0.020 C 
HETATM   38  C27 UNL     1      -6.802  45.644 -19.401  1.00  0.00     0.021 C 
HETATM   39  C33 UNL     1      -7.710  45.325 -21.684  1.00  0.00     0.013 C 
HETATM   40  C28 UNL     1      -7.345  44.306 -18.926  1.00  0.00     0.080 C 
HETATM   41  C29 UNL     1      -7.822  43.360 -20.000  1.00  0.00     0.135 C 
HETATM   42  O8  UNL     1      -7.896  42.155 -19.733  1.00  0.00    -0.297 OA
HETATM   43  C30 UNL     1      -8.312  43.915 -21.345  1.00  0.00     0.018 C 
HETATM   44  C31 UNL     1      -9.847  44.037 -21.213  1.00  0.00     0.023 C 
HETATM   45  C32 UNL     1      -8.017  42.848 -22.427  1.00  0.00     0.023 C 
HETATM   46  C34 UNL     1      -7.530  45.577 -23.187  1.00  0.00     0.011 C 
HETATM   47  C24 UNL     1      -3.342  48.344 -22.745  1.00  0.00     0.016 C 
ENDBRANCH   1  25
TORSDOF 11
ENDMDL
MODEL 3
REMARK minimizedAffinity -9.34221554
REMARK CNNscore 0.402959585
REMARK CNNaffinity 7.06485033
REMARK  11 active torsions:
REMARK  status: ('A' for Active; 'I' for Inactive)
REMARK    1  A    between atoms: C2_2  and  O1_4 
REMARK    2  A    between atoms: C2_2  and  C4_5 
REMARK    3  A    between atoms: C5_6  and  C6_7 
REMARK    4  A    between atoms: C6_7  and  C7_8 
REMARK    5  A    between atoms: C7_8  and  C8_9 
REMARK    6  A    between atoms: C7_8  and  C14_21 
REMARK    7  A    between atoms: C8_9  and  O3_11 
REMARK    8  A    between atoms: O3_11  and  C9_12 
REMARK    9  A    between atoms: C11_15  and  O5_16 
REMARK   10  A    between atoms: C12_17  and  O6_18 
REMARK   11  A    between atoms: C13_19  and  O7_20 
ROOT
HETATM    1  C7  UNL     1      -0.476  51.754 -21.599  1.00  0.00     0.094 C 
ENDROOT
BRANCH   1   2
HETATM    2  C6  UNL     1       0.360  52.685 -22.505  1.00  0.00     0.042 C 
BRANCH   2   3
HETATM    3  C5  UNL     1       0.231  52.485 -23.991  1.00  0.00    -0.027 C 
HETATM    4  C4  UNL     1       1.271  52.211 -24.799  1.00  0.00     0.006 C 
BRANCH   4   5
HETATM    5  C2  UNL     1       1.212  51.989 -26.293  1.00  0.00     0.068 C 
HETATM    6  C1  UNL     1       2.576  51.516 -26.806  1.00  0.00     0.050 C 
HETATM    7  C3  UNL     1       0.122  50.965 -26.626  1.00  0.00     0.050 C 
BRANCH   5   8
HETATM    8  O1  UNL     1       0.893  53.217 -26.944  1.00  0.00    -0.387 OA
HETATM    9  H7  UNL     1       0.830  53.038 -27.897  1.00  0.00     0.211 HD
ENDBRANCH   5   8
ENDBRANCH   4   5
ENDBRANCH   2   3
ENDBRANCH   1   2
BRANCH   1  10
HETATM   10  C8  UNL     1      -0.229  52.019 -20.117  1.00  0.00     0.266 C 
HETATM   11  O2  UNL     1       0.118  53.079 -19.614  1.00  0.00    -0.265 OA
BRANCH  10  12
HETATM   12  O3  UNL     1      -0.503  50.899 -19.386  1.00  0.00    -0.287 OA
BRANCH  12  13
HETATM   13  C9  UNL     1      -0.480  51.091 -17.962  1.00  0.00     0.300 C 
HETATM   14  O4  UNL     1       0.820  50.752 -17.476  1.00  0.00    -0.355 OA
HETATM   15  C10 UNL     1       0.962  51.074 -16.092  1.00  0.00     0.205 C 
HETATM   16  C11 UNL     1      -0.172  50.525 -15.211  1.00  0.00     0.173 C 
HETATM   17  C12 UNL     1      -1.095  49.570 -15.989  1.00  0.00     0.182 C 
HETATM   18  C13 UNL     1      -1.594  50.254 -17.271  1.00  0.00     0.205 C 
BRANCH  16  19
HETATM   19  O5  UNL     1      -0.925  51.619 -14.664  1.00  0.00    -0.391 OA
HETATM   20  H17 UNL     1      -1.679  51.814 -15.257  1.00  0.00     0.210 HD
ENDBRANCH  16  19
BRANCH  17  21
HETATM   21  O6  UNL     1      -0.423  48.344 -16.298  1.00  0.00    -0.390 OA
HETATM   22  H19 UNL     1      -0.191  47.926 -15.454  1.00  0.00     0.210 HD
ENDBRANCH  17  21
BRANCH  18  23
HETATM   23  O7  UNL     1      -2.685  51.127 -16.911  1.00  0.00    -0.388 OA
HETATM   24  H21 UNL     1      -2.965  51.563 -17.747  1.00  0.00     0.210 HD
ENDBRANCH  18  23
ENDBRANCH  12  13
ENDBRANCH  10  12
ENDBRANCH   1  10
BRANCH   1  25
HETATM   25  C14 UNL     1      -1.942  51.535 -22.078  1.00  0.00     0.009 C 
HETATM   26  C15 UNL     1      -2.140  51.788 -23.600  1.00  0.00     0.007 C 
HETATM   27  C16 UNL     1      -3.343  50.937 -24.050  1.00  0.00     0.015 C 
HETATM   28  C17 UNL     1      -4.050  50.529 -22.743  1.00  0.00    -0.013 C 
HETATM   29  C18 UNL     1      -4.961  51.725 -22.321  1.00  0.00     0.021 C 
HETATM   30  C19 UNL     1      -4.981  49.322 -22.745  1.00  0.00    -0.068 C 
HETATM   31  C23 UNL     1      -2.799  50.258 -21.809  1.00  0.00    -0.028 C 
HETATM   32  C20 UNL     1      -5.159  48.597 -21.611  1.00  0.00    -0.068 C 
HETATM   33  C35 UNL     1      -5.728  49.055 -24.028  1.00  0.00     0.036 C 
HETATM   34  C21 UNL     1      -4.394  48.937 -20.323  1.00  0.00     0.036 C 
HETATM   35  C25 UNL     1      -6.111  47.375 -21.559  1.00  0.00    -0.015 C 
HETATM   36  C22 UNL     1      -3.343  50.071 -20.390  1.00  0.00     0.015 C 
HETATM   37  C26 UNL     1      -5.231  46.113 -21.698  1.00  0.00     0.020 C 
HETATM   38  C27 UNL     1      -6.895  47.342 -20.226  1.00  0.00     0.021 C 
HETATM   39  C33 UNL     1      -7.198  47.491 -22.681  1.00  0.00     0.013 C 
HETATM   40  C28 UNL     1      -7.922  46.228 -20.100  1.00  0.00     0.080 C 
HETATM   41  C29 UNL     1      -8.348  45.565 -21.387  1.00  0.00     0.135 C 
HETATM   42  O8  UNL     1      -8.849  44.435 -21.330  1.00  0.00    -0.297 OA
HETATM   43  C30 UNL     1      -8.263  46.337 -22.710  1.00  0.00     0.018 C 
HETATM   44  C31 UNL     1      -9.666  46.948 -22.930  1.00  0.00     0.023 C 
HETATM   45  C32 UNL     1      -8.016  45.307 -23.839  1.00  0.00     0.023 C 
HETATM   46  C34 UNL     1      -6.546  47.769 -24.043  1.00  0.00     0.011 C 
HETATM   47  C24 UNL     1      -2.011  48.972 -22.207  1.00  0.00     0.016 C 
ENDBRANCH   1  25
TORSDOF 11
ENDMDL
MODEL 4
REMARK minimizedAffinity -10.0344582
REMARK CNNscore 0.346911073
REMARK CNNaffinity 7.40991545
REMARK  11 active torsions:
REMARK  status: ('A' for Active; 'I' for Inactive)
REMARK    1  A    between atoms: C2_2  and  O1_4 
REMARK    2  A    between atoms: C2_2  and  C4_5 
REMARK    3  A    between atoms: C5_6  and  C6_7 
REMARK    4  A    between atoms: C6_7  and  C7_8 
REMARK    5  A    between atoms: C7_8  and  C8_9 
REMARK    6  A    between atoms: C7_8  and  C14_21 
REMARK    7  A    between atoms: C8_9  and  O3_11 
REMARK    8  A    between atoms: O3_11  and  C9_12 
REMARK    9  A    between atoms: C11_15  and  O5_16 
REMARK   10  A    between atoms: C12_17  and  O6_18 
REMARK   11  A    between atoms: C13_19  and  O7_20 
ROOT
HETATM    1  C7  UNL     1       0.211  51.365 -20.695  1.00  0.00     0.094 C 
ENDROOT
BRANCH   1   2
HETATM    2  C6  UNL     1      -0.117  52.448 -21.746  1.00  0.00     0.042 C 
BRANCH   2   3
HETATM    3  C5  UNL     1       0.431  52.240 -23.133  1.00  0.00    -0.027 C 
HETATM    4  C4  UNL     1      -0.152  52.724 -24.244  1.00  0.00     0.006 C 
BRANCH   4   5
HETATM    5  C2  UNL     1       0.347  52.563 -25.662  1.00  0.00     0.068 C 
HETATM    6  C1  UNL     1       1.681  51.811 -25.664  1.00  0.00     0.050 C 
HETATM    7  C3  UNL     1      -0.697  51.820 -26.501  1.00  0.00     0.050 C 
BRANCH   5   8
HETATM    8  O1  UNL     1       0.559  53.849 -26.240  1.00  0.00    -0.387 OA
HETATM    9  H7  UNL     1       0.848  53.715 -27.158  1.00  0.00     0.211 HD
ENDBRANCH   5   8
ENDBRANCH   4   5
ENDBRANCH   2   3
ENDBRANCH   1   2
BRANCH   1  10
HETATM   10  C8  UNL     1       0.440  51.960 -19.309  1.00  0.00     0.266 C 
HETATM   11  O2  UNL     1       1.045  52.991 -19.049  1.00  0.00    -0.265 OA
BRANCH  10  12
HETATM   12  O3  UNL     1      -0.181  51.198 -18.361  1.00  0.00    -0.287 OA
BRANCH  12  13
HETATM   13  C9  UNL     1       0.587  50.983 -17.165  1.00  0.00     0.300 C 
HETATM   14  O4  UNL     1       0.237  49.711 -16.619  1.00  0.00    -0.355 OA
HETATM   15  C10 UNL     1       1.078  49.362 -15.520  1.00  0.00     0.205 C 
HETATM   16  C11 UNL     1       1.189  50.466 -14.454  1.00  0.00     0.173 C 
HETATM   17  C12 UNL     1       0.198  51.615 -14.709  1.00  0.00     0.182 C 
HETATM   18  C13 UNL     1       0.359  52.135 -16.146  1.00  0.00     0.205 C 
BRANCH  16  19
HETATM   19  O5  UNL     1       2.537  50.961 -14.418  1.00  0.00    -0.391 OA
HETATM   20  H17 UNL     1       2.608  51.735 -15.014  1.00  0.00     0.210 HD
ENDBRANCH  16  19
BRANCH  17  21
HETATM   21  O6  UNL     1      -1.150  51.193 -14.471  1.00  0.00    -0.390 OA
HETATM   22  H19 UNL     1      -1.207  50.940 -13.536  1.00  0.00     0.210 HD
ENDBRANCH  17  21
BRANCH  18  23
HETATM   23  O7  UNL     1       1.499  53.020 -16.170  1.00  0.00    -0.388 OA
HETATM   24  H21 UNL     1       1.585  53.317 -17.105  1.00  0.00     0.210 HD
ENDBRANCH  18  23
ENDBRANCH  12  13
ENDBRANCH  10  12
ENDBRANCH   1  10
BRANCH   1  25
HETATM   25  C14 UNL     1      -0.647  50.070 -20.813  1.00  0.00     0.009 C 
HETATM   26  C15 UNL     1      -0.926  49.387 -19.443  1.00  0.00     0.007 C 
HETATM   27  C16 UNL     1      -2.243  48.601 -19.589  1.00  0.00     0.015 C 
HETATM   28  C17 UNL     1      -2.487  48.515 -21.108  1.00  0.00    -0.013 C 
HETATM   29  C18 UNL     1      -1.632  47.324 -21.644  1.00  0.00     0.021 C 
HETATM   30  C19 UNL     1      -3.895  48.235 -21.621  1.00  0.00    -0.068 C 
HETATM   31  C23 UNL     1      -2.013  49.957 -21.559  1.00  0.00    -0.028 C 
HETATM   32  C20 UNL     1      -4.281  48.696 -22.839  1.00  0.00    -0.068 C 
HETATM   33  C35 UNL     1      -4.766  47.368 -20.747  1.00  0.00     0.036 C 
HETATM   34  C21 UNL     1      -3.337  49.550 -23.699  1.00  0.00     0.036 C 
HETATM   35  C25 UNL     1      -5.695  48.419 -23.411  1.00  0.00    -0.015 C 
HETATM   36  C22 UNL     1      -1.971  49.945 -23.090  1.00  0.00     0.015 C 
HETATM   37  C26 UNL     1      -6.539  49.688 -23.156  1.00  0.00     0.020 C 
HETATM   38  C27 UNL     1      -5.626  48.112 -24.925  1.00  0.00     0.021 C 
HETATM   39  C33 UNL     1      -6.301  47.136 -22.750  1.00  0.00     0.013 C 
HETATM   40  C28 UNL     1      -6.949  47.743 -25.577  1.00  0.00     0.080 C 
HETATM   41  C29 UNL     1      -8.058  47.323 -24.644  1.00  0.00     0.135 C 
HETATM   42  O8  UNL     1      -9.226  47.396 -25.046  1.00  0.00    -0.297 OA
HETATM   43  C30 UNL     1      -7.717  46.711 -23.278  1.00  0.00     0.018 C 
HETATM   44  C31 UNL     1      -7.742  45.179 -23.488  1.00  0.00     0.023 C 
HETATM   45  C32 UNL     1      -8.865  47.070 -22.304  1.00  0.00     0.023 C 
HETATM   46  C34 UNL     1      -6.208  47.215 -21.220  1.00  0.00     0.011 C 
HETATM   47  C24 UNL     1      -2.985  51.087 -21.103  1.00  0.00     0.016 C 
ENDBRANCH   1  25
TORSDOF 11
ENDMDL
MODEL 5
REMARK minimizedAffinity -8.29869843
REMARK CNNscore 0.332004935
REMARK CNNaffinity 6.03409052
REMARK  11 active torsions:
REMARK  status: ('A' for Active; 'I' for Inactive)
REMARK    1  A    between atoms: C2_2  and  O1_4 
REMARK    2  A    between atoms: C2_2  and  C4_5 
REMARK    3  A    between atoms: C5_6  and  C6_7 
REMARK    4  A    between atoms: C6_7  and  C7_8 
REMARK    5  A    between atoms: C7_8  and  C8_9 
REMARK    6  A    between atoms: C7_8  and  C14_21 
REMARK    7  A    between atoms: C8_9  and  O3_11 
REMARK    8  A    between atoms: O3_11  and  C9_12 
REMARK    9  A    between atoms: C11_15  and  O5_16 
REMARK   10  A    between atoms: C12_17  and  O6_18 
REMARK   11  A    between atoms: C13_19  and  O7_20 
ROOT
HETATM    1  C7  UNL     1      -8.156  46.868 -28.167  1.00  0.00     0.094 C 
ENDROOT
BRANCH   1   2
HETATM    2  C6  UNL     1      -7.515  46.998 -26.768  1.00  0.00     0.042 C 
BRANCH   2   3
HETATM    3  C5  UNL     1      -6.187  47.703 -26.690  1.00  0.00    -0.027 C 
HETATM    4  C4  UNL     1      -5.649  48.155 -25.543  1.00  0.00     0.006 C 
BRANCH   4   5
HETATM    5  C2  UNL     1      -4.320  48.859 -25.391  1.00  0.00     0.068 C 
HETATM    6  C1  UNL     1      -3.684  48.491 -24.047  1.00  0.00     0.050 C 
HETATM    7  C3  UNL     1      -3.395  48.482 -26.551  1.00  0.00     0.050 C 
BRANCH   5   8
HETATM    8  O1  UNL     1      -4.525  50.270 -25.416  1.00  0.00    -0.387 OA
HETATM    9  H7  UNL     1      -3.653  50.695 -25.349  1.00  0.00     0.211 HD
ENDBRANCH   5   8
ENDBRANCH   4   5
ENDBRANCH   2   3
ENDBRANCH   1   2
BRANCH   1  10
HETATM   10  C8  UNL     1      -7.584  45.692 -28.954  1.00  0.00     0.266 C 
HETATM   11  O2  UNL     1      -7.677  44.507 -28.664  1.00  0.00    -0.265 OA
BRANCH  10  12
HETATM   12  O3  UNL     1      -6.978  46.138 -30.093  1.00  0.00    -0.287 OA
BRANCH  12  13
HETATM   13  C9  UNL     1      -7.308  45.397 -31.280  1.00  0.00     0.300 C 
HETATM   14  O4  UNL     1      -8.389  44.513 -30.981  1.00  0.00    -0.355 OA
HETATM   15  C10 UNL     1      -8.875  43.864 -32.155  1.00  0.00     0.205 C 
HETATM   16  C11 UNL     1      -7.771  43.202 -32.996  1.00  0.00     0.173 C 
HETATM   17  C12 UNL     1      -6.414  43.206 -32.271  1.00  0.00     0.182 C 
HETATM   18  C13 UNL     1      -6.066  44.633 -31.820  1.00  0.00     0.205 C 
BRANCH  16  19
HETATM   19  O5  UNL     1      -7.669  43.872 -34.263  1.00  0.00    -0.391 OA
HETATM   20  H17 UNL     1      -6.991  44.576 -34.195  1.00  0.00     0.210 HD
ENDBRANCH  16  19
BRANCH  17  21
HETATM   21  O6  UNL     1      -6.426  42.311 -31.153  1.00  0.00    -0.390 OA
HETATM   22  H19 UNL     1      -6.583  41.421 -31.504  1.00  0.00     0.210 HD
ENDBRANCH  17  21
BRANCH  18  23
HETATM   23  O7  UNL     1      -5.537  45.341 -32.962  1.00  0.00    -0.388 OA
HETATM   24  H21 UNL     1      -5.346  46.253 -32.645  1.00  0.00     0.210 HD
ENDBRANCH  18  23
ENDBRANCH  12  13
ENDBRANCH  10  12
ENDBRANCH   1  10
BRANCH   1  25
HETATM   25  C14 UNL     1      -9.696  47.099 -28.195  1.00  0.00     0.009 C 
HETATM   26  C15 UNL     1     -10.365  46.640 -29.523  1.00  0.00     0.007 C 
HETATM   27  C16 UNL     1     -11.830  46.292 -29.195  1.00  0.00     0.015 C 
HETATM   28  C17 UNL     1     -12.086  46.917 -27.811  1.00  0.00    -0.013 C 
HETATM   29  C18 UNL     1     -12.421  48.425 -28.043  1.00  0.00     0.021 C 
HETATM   30  C19 UNL     1     -13.239  46.397 -26.960  1.00  0.00    -0.068 C 
HETATM   31  C23 UNL     1     -10.701  46.624 -27.100  1.00  0.00    -0.028 C 
HETATM   32  C20 UNL     1     -13.174  46.469 -25.605  1.00  0.00    -0.068 C 
HETATM   33  C35 UNL     1     -14.449  45.893 -27.707  1.00  0.00     0.036 C 
HETATM   34  C21 UNL     1     -11.926  47.023 -24.900  1.00  0.00     0.036 C 
HETATM   35  C25 UNL     1     -14.329  45.973 -24.700  1.00  0.00    -0.015 C 
HETATM   36  C22 UNL     1     -10.712  47.403 -25.781  1.00  0.00     0.015 C 
HETATM   37  C26 UNL     1     -13.935  44.565 -24.200  1.00  0.00     0.020 C 
HETATM   38  C27 UNL     1     -14.544  46.929 -23.504  1.00  0.00     0.021 C 
HETATM   39  C33 UNL     1     -15.679  45.985 -25.494  1.00  0.00     0.013 C 
HETATM   40  C28 UNL     1     -15.710  46.583 -22.592  1.00  0.00     0.080 C 
HETATM   41  C29 UNL     1     -16.741  45.638 -23.157  1.00  0.00     0.135 C 
HETATM   42  O8  UNL     1     -17.468  45.020 -22.370  1.00  0.00    -0.297 OA
HETATM   43  C30 UNL     1     -16.946  45.550 -24.676  1.00  0.00     0.018 C 
HETATM   44  C31 UNL     1     -18.113  46.512 -24.997  1.00  0.00     0.023 C 
HETATM   45  C32 UNL     1     -17.419  44.112 -25.002  1.00  0.00     0.023 C 
HETATM   46  C34 UNL     1     -15.527  45.258 -26.837  1.00  0.00     0.011 C 
HETATM   47  C24 UNL     1     -10.491  45.114 -26.777  1.00  0.00     0.016 C 
ENDBRANCH   1  25
TORSDOF 11
ENDMDL
MODEL 6
REMARK minimizedAffinity -10.1309719
REMARK CNNscore 0.29750365
REMARK CNNaffinity 7.07352781
REMARK  11 active torsions:
REMARK  status: ('A' for Active; 'I' for Inactive)
REMARK    1  A    between atoms: C2_2  and  O1_4 
REMARK    2  A    between atoms: C2_2  and  C4_5 
REMARK    3  A    between atoms: C5_6  and  C6_7 
REMARK    4  A    between atoms: C6_7  and  C7_8 
REMARK    5  A    between atoms: C7_8  and  C8_9 
REMARK    6  A    between atoms: C7_8  and  C14_21 
REMARK    7  A    between atoms: C8_9  and  O3_11 
REMARK    8  A    between atoms: O3_11  and  C9_12 
REMARK    9  A    between atoms: C11_15  and  O5_16 
REMARK   10  A    between atoms: C12_17  and  O6_18 
REMARK   11  A    between atoms: C13_19  and  O7_20 
ROOT
HETATM    1  C7  UNL     1      -3.339  49.752 -26.300  1.00  0.00     0.094 C 
ENDROOT
BRANCH   1   2
HETATM    2  C6  UNL     1      -1.822  49.556 -26.516  1.00  0.00     0.042 C 
BRANCH   2   3
HETATM    3  C5  UNL     1      -1.036  50.759 -26.963  1.00  0.00    -0.027 C 
HETATM    4  C4  UNL     1       0.220  51.019 -26.559  1.00  0.00     0.006 C 
BRANCH   4   5
HETATM    5  C2  UNL     1       1.070  52.199 -26.975  1.00  0.00     0.068 C 
HETATM    6  C1  UNL     1       2.495  51.733 -27.287  1.00  0.00     0.050 C 
HETATM    7  C3  UNL     1       0.445  52.889 -28.191  1.00  0.00     0.050 C 
BRANCH   5   8
HETATM    8  O1  UNL     1       1.132  53.140 -25.905  1.00  0.00    -0.387 OA
HETATM    9  H7  UNL     1       1.656  53.899 -26.211  1.00  0.00     0.211 HD
ENDBRANCH   5   8
ENDBRANCH   4   5
ENDBRANCH   2   3
ENDBRANCH   1   2
BRANCH   1  10
HETATM   10  C8  UNL     1      -4.159  48.622 -26.916  1.00  0.00     0.266 C 
HETATM   11  O2  UNL     1      -3.896  48.005 -27.939  1.00  0.00    -0.265 OA
BRANCH  10  12
HETATM   12  O3  UNL     1      -5.237  48.339 -26.128  1.00  0.00    -0.287 OA
BRANCH  12  13
HETATM   13  C9  UNL     1      -6.294  47.624 -26.790  1.00  0.00     0.300 C 
HETATM   14  O4  UNL     1      -6.521  48.222 -28.067  1.00  0.00    -0.355 OA
HETATM   15  C10 UNL     1      -7.446  47.463 -28.845  1.00  0.00     0.205 C 
HETATM   16  C11 UNL     1      -8.747  47.124 -28.098  1.00  0.00     0.173 C 
HETATM   17  C12 UNL     1      -8.848  47.862 -26.752  1.00  0.00     0.182 C 
HETATM   18  C13 UNL     1      -7.583  47.608 -25.920  1.00  0.00     0.205 C 
BRANCH  16  19
HETATM   19  O5  UNL     1      -8.829  45.703 -27.902  1.00  0.00    -0.391 OA
HETATM   20  H17 UNL     1      -8.445  45.481 -27.029  1.00  0.00     0.210 HD
ENDBRANCH  16  19
BRANCH  17  21
HETATM   21  O6  UNL     1      -9.050  49.267 -26.951  1.00  0.00    -0.390 OA
HETATM   22  H19 UNL     1      -9.892  49.369 -27.420  1.00  0.00     0.210 HD
ENDBRANCH  17  21
BRANCH  18  23
HETATM   23  O7  UNL     1      -7.716  46.312 -25.298  1.00  0.00    -0.388 OA
HETATM   24  H21 UNL     1      -6.883  46.172 -24.792  1.00  0.00     0.210 HD
ENDBRANCH  18  23
ENDBRANCH  12  13
ENDBRANCH  10  12
ENDBRANCH   1  10
BRANCH   1  25
HETATM   25  C14 UNL     1      -3.728  50.260 -24.880  1.00  0.00     0.009 C 
HETATM   26  C15 UNL     1      -5.237  50.072 -24.548  1.00  0.00     0.007 C 
HETATM   27  C16 UNL     1      -5.354  49.961 -23.016  1.00  0.00     0.015 C 
HETATM   28  C17 UNL     1      -4.004  50.474 -22.477  1.00  0.00    -0.013 C 
HETATM   29  C18 UNL     1      -4.086  52.033 -22.444  1.00  0.00     0.021 C 
HETATM   30  C19 UNL     1      -3.568  50.084 -21.070  1.00  0.00    -0.068 C 
HETATM   31  C23 UNL     1      -3.013  49.862 -23.551  1.00  0.00    -0.028 C 
HETATM   32  C20 UNL     1      -2.247  50.001 -20.764  1.00  0.00    -0.068 C 
HETATM   33  C35 UNL     1      -4.668  49.889 -20.057  1.00  0.00     0.036 C 
HETATM   34  C21 UNL     1      -1.169  50.242 -21.832  1.00  0.00     0.036 C 
HETATM   35  C25 UNL     1      -1.755  49.629 -19.342  1.00  0.00    -0.015 C 
HETATM   36  C22 UNL     1      -1.640  50.487 -23.285  1.00  0.00     0.015 C 
HETATM   37  C26 UNL     1      -1.389  48.128 -19.372  1.00  0.00     0.020 C 
HETATM   38  C27 UNL     1      -0.525  50.478 -18.944  1.00  0.00     0.021 C 
HETATM   39  C33 UNL     1      -2.859  49.969 -18.285  1.00  0.00     0.013 C 
HETATM   40  C28 UNL     1      -0.007  50.254 -17.532  1.00  0.00     0.080 C 
HETATM   41  C29 UNL     1      -0.955  49.576 -16.574  1.00  0.00     0.135 C 
HETATM   42  O8  UNL     1      -0.484  49.020 -15.574  1.00  0.00    -0.297 OA
HETATM   43  C30 UNL     1      -2.471  49.686 -16.790  1.00  0.00     0.018 C 
HETATM   44  C31 UNL     1      -2.933  50.872 -15.913  1.00  0.00     0.023 C 
HETATM   45  C32 UNL     1      -3.119  48.400 -16.223  1.00  0.00     0.023 C 
HETATM   46  C34 UNL     1      -4.211  49.371 -18.698  1.00  0.00     0.011 C 
HETATM   47  C24 UNL     1      -2.878  48.313 -23.440  1.00  0.00     0.016 C 
ENDBRANCH   1  25
TORSDOF 11
ENDMDL
MODEL 7
REMARK minimizedAffinity -8.031703
REMARK CNNscore 0.292887866
REMARK CNNaffinity 5.75601006
REMARK  11 active torsions:
REMARK  status: ('A' for Active; 'I' for Inactive)
REMARK    1  A    between atoms: C2_2  and  O1_4 
REMARK    2  A    between atoms: C2_2  and  C4_5 
REMARK    3  A    between atoms: C5_6  and  C6_7 
REMARK    4  A    between atoms: C6_7  and  C7_8 
REMARK    5  A    between atoms: C7_8  and  C8_9 
REMARK    6  A    between atoms: C7_8  and  C14_21 
REMARK    7  A    between atoms: C8_9  and  O3_11 
REMARK    8  A    between atoms: O3_11  and  C9_12 
REMARK    9  A    between atoms: C11_15  and  O5_16 
REMARK   10  A    between atoms: C12_17  and  O6_18 
REMARK   11  A    between atoms: C13_19  and  O7_20 
ROOT
HETATM    1  C7  UNL     1       6.735  67.428 -36.938  1.00  0.00     0.094 C 
ENDROOT
BRANCH   1   2
HETATM    2  C6  UNL     1       7.810  68.287 -36.235  1.00  0.00     0.042 C 
BRANCH   2   3
HETATM    3  C5  UNL     1       8.907  68.847 -37.100  1.00  0.00    -0.027 C 
HETATM    4  C4  UNL     1       8.953  68.698 -38.435  1.00  0.00     0.006 C 
BRANCH   4   5
HETATM    5  C2  UNL     1      10.015  69.242 -39.363  1.00  0.00     0.068 C 
HETATM    6  C1  UNL     1       9.724  68.810 -40.803  1.00  0.00     0.050 C 
HETATM    7  C3  UNL     1      10.071  70.769 -39.255  1.00  0.00     0.050 C 
BRANCH   5   8
HETATM    8  O1  UNL     1      11.287  68.715 -38.989  1.00  0.00    -0.387 OA
HETATM    9  H7  UNL     1      11.953  69.106 -39.580  1.00  0.00     0.211 HD
ENDBRANCH   5   8
ENDBRANCH   4   5
ENDBRANCH   2   3
ENDBRANCH   1   2
BRANCH   1  10
HETATM   10  C8  UNL     1       6.941  65.936 -36.693  1.00  0.00     0.266 C 
HETATM   11  O2  UNL     1       7.059  65.067 -37.545  1.00  0.00    -0.265 OA
BRANCH  10  12
HETATM   12  O3  UNL     1       7.033  65.688 -35.353  1.00  0.00    -0.287 OA
BRANCH  12  13
HETATM   13  C9  UNL     1       5.966  64.888 -34.816  1.00  0.00     0.300 C 
HETATM   14  O4  UNL     1       5.943  65.049 -33.397  1.00  0.00    -0.355 OA
HETATM   15  C10 UNL     1       4.807  64.411 -32.815  1.00  0.00     0.205 C 
HETATM   16  C11 UNL     1       4.626  62.949 -33.259  1.00  0.00     0.173 C 
HETATM   17  C12 UNL     1       5.832  62.438 -34.066  1.00  0.00     0.182 C 
HETATM   18  C13 UNL     1       6.127  63.398 -35.229  1.00  0.00     0.205 C 
BRANCH  16  19
HETATM   19  O5  UNL     1       3.417  62.830 -34.027  1.00  0.00    -0.391 OA
HETATM   20  H17 UNL     1       3.633  62.937 -34.977  1.00  0.00     0.210 HD
ENDBRANCH  16  19
BRANCH  17  21
HETATM   21  O6  UNL     1       6.984  62.288 -33.228  1.00  0.00    -0.390 OA
HETATM   22  H19 UNL     1       6.762  61.625 -32.556  1.00  0.00     0.210 HD
ENDBRANCH  17  21
BRANCH  18  23
HETATM   23  O7  UNL     1       5.200  63.100 -36.294  1.00  0.00    -0.388 OA
HETATM   24  H21 UNL     1       5.402  63.743 -37.011  1.00  0.00     0.210 HD
ENDBRANCH  18  23
ENDBRANCH  12  13
ENDBRANCH  10  12
ENDBRANCH   1  10
BRANCH   1  25
HETATM   25  C14 UNL     1       5.290  68.001 -36.847  1.00  0.00     0.009 C 
HETATM   26  C15 UNL     1       5.205  69.342 -36.063  1.00  0.00     0.007 C 
HETATM   27  C16 UNL     1       3.975  70.102 -36.596  1.00  0.00     0.015 C 
HETATM   28  C17 UNL     1       3.162  69.047 -37.370  1.00  0.00    -0.013 C 
HETATM   29  C18 UNL     1       2.313  68.261 -36.321  1.00  0.00     0.021 C 
HETATM   30  C19 UNL     1       2.150  69.504 -38.414  1.00  0.00    -0.068 C 
HETATM   31  C23 UNL     1       4.331  68.228 -38.057  1.00  0.00    -0.028 C 
HETATM   32  C20 UNL     1       1.851  68.705 -39.470  1.00  0.00    -0.068 C 
HETATM   33  C35 UNL     1       1.466  70.823 -38.151  1.00  0.00     0.036 C 
HETATM   34  C21 UNL     1       2.558  67.355 -39.668  1.00  0.00     0.036 C 
HETATM   35  C25 UNL     1       0.814  69.118 -40.545  1.00  0.00    -0.015 C 
HETATM   36  C22 UNL     1       3.688  66.984 -38.678  1.00  0.00     0.015 C 
HETATM   37  C26 UNL     1       1.610  69.664 -41.751  1.00  0.00     0.020 C 
HETATM   38  C27 UNL     1      -0.051  67.909 -40.972  1.00  0.00     0.021 C 
HETATM   39  C33 UNL     1      -0.190  70.162 -39.951  1.00  0.00     0.013 C 
HETATM   40  C28 UNL     1      -1.160  68.217 -41.965  1.00  0.00     0.080 C 
HETATM   41  C29 UNL     1      -1.551  69.668 -42.099  1.00  0.00     0.135 C 
HETATM   42  O8  UNL     1      -2.133  70.029 -43.128  1.00  0.00    -0.297 OA
HETATM   43  C30 UNL     1      -1.330  70.631 -40.924  1.00  0.00     0.018 C 
HETATM   44  C31 UNL     1      -2.670  70.668 -40.155  1.00  0.00     0.023 C 
HETATM   45  C32 UNL     1      -1.088  72.041 -41.514  1.00  0.00     0.023 C 
HETATM   46  C34 UNL     1       0.561  71.317 -39.274  1.00  0.00     0.011 C 
HETATM   47  C24 UNL     1       5.049  69.026 -39.188  1.00  0.00     0.016 C 
ENDBRANCH   1  25
TORSDOF 11
ENDMDL
MODEL 8
REMARK minimizedAffinity -9.50301456
REMARK CNNscore 0.26760596
REMARK CNNaffinity 6.48196936
REMARK  11 active torsions:
REMARK  status: ('A' for Active; 'I' for Inactive)
REMARK    1  A    between atoms: C2_2  and  O1_4 
REMARK    2  A    between atoms: C2_2  and  C4_5 
REMARK    3  A    between atoms: C5_6  and  C6_7 
REMARK    4  A    between atoms: C6_7  and  C7_8 
REMARK    5  A    between atoms: C7_8  and  C8_9 
REMARK    6  A    between atoms: C7_8  and  C14_21 
REMARK    7  A    between atoms: C8_9  and  O3_11 
REMARK    8  A    between atoms: O3_11  and  C9_12 
REMARK    9  A    between atoms: C11_15  and  O5_16 
REMARK   10  A    between atoms: C12_17  and  O6_18 
REMARK   11  A    between atoms: C13_19  and  O7_20 
ROOT
HETATM    1  C7  UNL     1      -2.415  50.659 -21.857  1.00  0.00     0.094 C 
ENDROOT
BRANCH   1   2
HETATM    2  C6  UNL     1      -0.946  50.269 -21.581  1.00  0.00     0.042 C 
BRANCH   2   3
HETATM    3  C5  UNL     1      -0.049  51.343 -21.024  1.00  0.00    -0.027 C 
HETATM    4  C4  UNL     1      -0.266  51.958 -19.848  1.00  0.00     0.006 C 
BRANCH   4   5
HETATM    5  C2  UNL     1       0.597  53.033 -19.226  1.00  0.00     0.068 C 
HETATM    6  C1  UNL     1       1.165  52.540 -17.892  1.00  0.00     0.050 C 
HETATM    7  C3  UNL     1       1.724  53.419 -20.188  1.00  0.00     0.050 C 
BRANCH   5   8
HETATM    8  O1  UNL     1      -0.197  54.190 -18.971  1.00  0.00    -0.387 OA
HETATM    9  H7  UNL     1       0.388  54.873 -18.602  1.00  0.00     0.211 HD
ENDBRANCH   5   8
ENDBRANCH   4   5
ENDBRANCH   2   3
ENDBRANCH   1   2
BRANCH   1  10
HETATM   10  C8  UNL     1      -2.530  51.753 -22.914  1.00  0.00     0.266 C 
HETATM   11  O2  UNL     1      -3.525  52.417 -23.169  1.00  0.00    -0.265 OA
BRANCH  10  12
HETATM   12  O3  UNL     1      -1.326  51.942 -23.530  1.00  0.00    -0.287 OA
BRANCH  12  13
HETATM   13  C9  UNL     1      -1.322  51.662 -24.940  1.00  0.00     0.300 C 
HETATM   14  O4  UNL     1      -0.072  51.064 -25.284  1.00  0.00    -0.355 OA
HETATM   15  C10 UNL     1      -0.061  50.611 -26.637  1.00  0.00     0.205 C 
HETATM   16  C11 UNL     1      -0.517  51.678 -27.647  1.00  0.00     0.173 C 
HETATM   17  C12 UNL     1      -0.680  53.060 -26.992  1.00  0.00     0.182 C 
HETATM   18  C13 UNL     1      -1.594  52.952 -25.762  1.00  0.00     0.205 C 
BRANCH  16  19
HETATM   19  O5  UNL     1      -1.749  51.261 -28.258  1.00  0.00    -0.391 OA
HETATM   20  H17 UNL     1      -2.498  51.635 -27.749  1.00  0.00     0.210 HD
ENDBRANCH  16  19
BRANCH  17  21
HETATM   21  O6  UNL     1       0.593  53.609 -26.629  1.00  0.00    -0.390 OA
HETATM   22  H19 UNL     1       1.100  53.716 -27.449  1.00  0.00     0.210 HD
ENDBRANCH  17  21
BRANCH  18  23
HETATM   23  O7  UNL     1      -2.960  52.936 -26.229  1.00  0.00    -0.388 OA
HETATM   24  H21 UNL     1      -3.516  52.845 -25.421  1.00  0.00     0.210 HD
ENDBRANCH  18  23
ENDBRANCH  12  13
ENDBRANCH  10  12
ENDBRANCH   1  10
BRANCH   1  25
HETATM   25  C14 UNL     1      -3.399  49.454 -21.927  1.00  0.00     0.009 C 
HETATM   26  C15 UNL     1      -2.685  48.072 -21.939  1.00  0.00     0.007 C 
HETATM   27  C16 UNL     1      -3.671  47.046 -21.347  1.00  0.00     0.015 C 
HETATM   28  C17 UNL     1      -5.040  47.752 -21.374  1.00  0.00    -0.013 C 
HETATM   29  C18 UNL     1      -5.616  47.582 -22.816  1.00  0.00     0.021 C 
HETATM   30  C19 UNL     1      -6.152  47.254 -20.459  1.00  0.00    -0.068 C 
HETATM   31  C23 UNL     1      -4.615  49.225 -20.975  1.00  0.00    -0.028 C 
HETATM   32  C20 UNL     1      -7.110  48.112 -20.020  1.00  0.00    -0.068 C 
HETATM   33  C35 UNL     1      -6.161  45.777 -20.156  1.00  0.00     0.036 C 
HETATM   34  C21 UNL     1      -7.067  49.604 -20.388  1.00  0.00     0.036 C 
HETATM   35  C25 UNL     1      -8.272  47.649 -19.105  1.00  0.00    -0.015 C 
HETATM   36  C22 UNL     1      -5.846  50.110 -21.193  1.00  0.00     0.015 C 
HETATM   37  C26 UNL     1      -7.888  48.038 -17.660  1.00  0.00     0.020 C 
HETATM   38  C27 UNL     1      -9.600  48.328 -19.513  1.00  0.00     0.021 C 
HETATM   39  C33 UNL     1      -8.515  46.112 -19.282  1.00  0.00     0.013 C 
HETATM   40  C28 UNL     1     -10.827  47.883 -18.733  1.00  0.00     0.080 C 
HETATM   41  C29 UNL     1     -10.700  46.586 -17.973  1.00  0.00     0.135 C 
HETATM   42  O8  UNL     1     -11.477  46.374 -17.035  1.00  0.00    -0.297 OA
HETATM   43  C30 UNL     1      -9.704  45.517 -18.445  1.00  0.00     0.018 C 
HETATM   44  C31 UNL     1     -10.517  44.550 -19.336  1.00  0.00     0.023 C 
HETATM   45  C32 UNL     1      -9.237  44.729 -17.198  1.00  0.00     0.023 C 
HETATM   46  C34 UNL     1      -7.202  45.332 -19.135  1.00  0.00     0.011 C 
HETATM   47  C24 UNL     1      -4.178  49.348 -19.484  1.00  0.00     0.016 C 
ENDBRANCH   1  25
TORSDOF 11
ENDMDL
MODEL 9
REMARK minimizedAffinity -10.1302176
REMARK CNNscore 0.267509401
REMARK CNNaffinity 6.51015615
REMARK  11 active torsions:
REMARK  status: ('A' for Active; 'I' for Inactive)
REMARK    1  A    between atoms: C2_2  and  O1_4 
REMARK    2  A    between atoms: C2_2  and  C4_5 
REMARK    3  A    between atoms: C5_6  and  C6_7 
REMARK    4  A    between atoms: C6_7  and  C7_8 
REMARK    5  A    between atoms: C7_8  and  C8_9 
REMARK    6  A    between atoms: C7_8  and  C14_21 
REMARK    7  A    between atoms: C8_9  and  O3_11 
REMARK    8  A    between atoms: O3_11  and  C9_12 
REMARK    9  A    between atoms: C11_15  and  O5_16 
REMARK   10  A    between atoms: C12_17  and  O6_18 
REMARK   11  A    between atoms: C13_19  and  O7_20 
ROOT
HETATM    1  C7  UNL     1      -5.617  48.625 -25.100  1.00  0.00     0.094 C 
ENDROOT
BRANCH   1   2
HETATM    2  C6  UNL     1      -4.256  48.406 -25.798  1.00  0.00     0.042 C 
BRANCH   2   3
HETATM    3  C5  UNL     1      -3.589  49.619 -26.387  1.00  0.00    -0.027 C 
HETATM    4  C4  UNL     1      -2.270  49.866 -26.288  1.00  0.00     0.006 C 
BRANCH   4   5
HETATM    5  C2  UNL     1      -1.535  51.055 -26.863  1.00  0.00     0.068 C 
HETATM    6  C1  UNL     1      -1.947  52.332 -26.125  1.00  0.00     0.050 C 
HETATM    7  C3  UNL     1      -0.023  50.832 -26.761  1.00  0.00     0.050 C 
BRANCH   5   8
HETATM    8  O1  UNL     1      -1.878  51.206 -28.239  1.00  0.00    -0.387 OA
HETATM    9  H7  UNL     1      -1.367  51.956 -28.589  1.00  0.00     0.211 HD
ENDBRANCH   5   8
ENDBRANCH   4   5
ENDBRANCH   2   3
ENDBRANCH   1   2
BRANCH   1  10
HETATM   10  C8  UNL     1      -6.711  47.735 -25.682  1.00  0.00     0.266 C 
HETATM   11  O2  UNL     1      -6.679  47.146 -26.754  1.00  0.00    -0.265 OA
BRANCH  10  12
HETATM   12  O3  UNL     1      -7.751  47.632 -24.803  1.00  0.00    -0.287 OA
BRANCH  12  13
HETATM   13  C9  UNL     1      -9.052  47.812 -25.388  1.00  0.00     0.300 C 
HETATM   14  O4  UNL     1      -9.529  46.544 -25.841  1.00  0.00    -0.355 OA
HETATM   15  C10 UNL     1     -10.883  46.622 -26.285  1.00  0.00     0.205 C 
HETATM   16  C11 UNL     1     -11.138  47.757 -27.291  1.00  0.00     0.173 C 
HETATM   17  C12 UNL     1      -9.830  48.420 -27.755  1.00  0.00     0.182 C 
HETATM   18  C13 UNL     1      -9.005  48.859 -26.536  1.00  0.00     0.205 C 
BRANCH  16  19
HETATM   19  O5  UNL     1     -12.016  48.729 -26.702  1.00  0.00    -0.391 OA
HETATM   20  H17 UNL     1     -11.476  49.428 -26.277  1.00  0.00     0.210 HD
ENDBRANCH  16  19
BRANCH  17  21
HETATM   21  O6  UNL     1      -9.072  47.534 -28.587  1.00  0.00    -0.390 OA
HETATM   22  H19 UNL     1      -9.614  47.345 -29.369  1.00  0.00     0.210 HD
ENDBRANCH  17  21
BRANCH  18  23
HETATM   23  O7  UNL     1      -9.550  50.107 -26.060  1.00  0.00    -0.388 OA
HETATM   24  H21 UNL     1      -9.015  50.348 -25.270  1.00  0.00     0.210 HD
ENDBRANCH  18  23
ENDBRANCH  12  13
ENDBRANCH  10  12
ENDBRANCH   1  10
BRANCH   1  25
HETATM   25  C14 UNL     1      -5.531  48.777 -23.552  1.00  0.00     0.009 C 
HETATM   26  C15 UNL     1      -6.003  47.511 -22.780  1.00  0.00     0.007 C 
HETATM   27  C16 UNL     1      -5.277  47.512 -21.421  1.00  0.00     0.015 C 
HETATM   28  C17 UNL     1      -4.721  48.941 -21.269  1.00  0.00    -0.013 C 
HETATM   29  C18 UNL     1      -5.885  49.831 -20.729  1.00  0.00     0.021 C 
HETATM   30  C19 UNL     1      -3.569  49.193 -20.304  1.00  0.00    -0.068 C 
HETATM   31  C23 UNL     1      -4.268  49.235 -22.758  1.00  0.00    -0.028 C 
HETATM   32  C20 UNL     1      -2.700  50.212 -20.531  1.00  0.00    -0.068 C 
HETATM   33  C35 UNL     1      -3.517  48.315 -19.079  1.00  0.00     0.036 C 
HETATM   34  C21 UNL     1      -2.823  51.095 -21.783  1.00  0.00     0.036 C 
HETATM   35  C25 UNL     1      -1.526  50.520 -19.568  1.00  0.00    -0.015 C 
HETATM   36  C22 UNL     1      -3.908  50.722 -22.821  1.00  0.00     0.015 C 
HETATM   37  C26 UNL     1      -0.259  49.890 -20.188  1.00  0.00     0.020 C 
HETATM   38  C27 UNL     1      -1.341  52.045 -19.393  1.00  0.00     0.021 C 
HETATM   39  C33 UNL     1      -1.846  49.970 -18.137  1.00  0.00     0.013 C 
HETATM   40  C28 UNL     1      -0.266  52.463 -18.402  1.00  0.00     0.080 C 
HETATM   41  C29 UNL     1       0.191  51.405 -17.428  1.00  0.00     0.135 C 
HETATM   42  O8  UNL     1       1.294  51.541 -16.886  1.00  0.00    -0.297 OA
HETATM   43  C30 UNL     1      -0.755  50.259 -17.044  1.00  0.00     0.018 C 
HETATM   44  C31 UNL     1      -1.451  50.710 -15.740  1.00  0.00     0.023 C 
HETATM   45  C32 UNL     1       0.117  49.025 -16.710  1.00  0.00     0.023 C 
HETATM   46  C34 UNL     1      -2.282  48.501 -18.203  1.00  0.00     0.011 C 
HETATM   47  C24 UNL     1      -3.018  48.408 -23.187  1.00  0.00     0.016 C 
ENDBRANCH   1  25
TORSDOF 11
ENDMDL
