MODEL 1
REMARK minimizedAffinity -7.88283157
REMARK  11 active torsions:
REMARK  status: ('A' for Active; 'I' for Inactive)
REMARK    1  A    between atoms: C5_5  and  C6_6 
REMARK    2  A    between atoms: C6_6  and  C8_8 
REMARK    3  A    between atoms: C8_8  and  O1_9 
REMARK    4  A    between atoms: O1_9  and  C9_10 
REMARK    5  A    between atoms: C9_10  and  C10_12 
REMARK    6  A    between atoms: C10_12  and  C11_13 
REMARK    7  A    between atoms: C17_20  and  O4_22 
REMARK    8  A    between atoms: C22_26  and  O5_28 
REMARK    9  A    between atoms: O5_28  and  C24_29 
REMARK   10  A    between atoms: C24_29  and  C25_31 
REMARK   11  A    between atoms: C25_31  and  C26_32 
ROOT
HETATM    1  C1  UNL     1      -3.323   1.009  11.961  1.00  0.00     0.015 C 
HETATM    2  C2  UNL     1      -3.518   2.311  11.690  1.00  0.00    -0.077 C 
HETATM    3  C3  UNL     1      -3.056   2.918  10.388  1.00  0.00     0.034 C 
HETATM    4  C4  UNL     1      -2.673   4.397  10.522  1.00  0.00     0.010 C 
HETATM    5  C5  UNL     1      -2.094   4.761  11.904  1.00  0.00    -0.001 C 
HETATM    6  C13 UNL     1      -3.204   4.533  12.979  1.00  0.00     0.037 C 
HETATM    7  C14 UNL     1      -4.145   3.261  12.688  1.00  0.00     0.090 C 
HETATM    8  C15 UNL     1      -5.634   3.553  12.234  1.00  0.00     0.138 C 
HETATM    9  O3  UNL     1      -5.900   3.951  11.096  1.00  0.00    -0.297 OA
HETATM   10  C16 UNL     1      -6.775   3.379  13.276  1.00  0.00     0.119 C 
HETATM   11  C17 UNL     1      -7.351   4.704  13.919  1.00  0.00     0.087 C 
HETATM   12  C18 UNL     1      -7.713   4.432  15.383  1.00  0.00     0.049 C 
HETATM   13  C19 UNL     1      -6.328   5.841  13.764  1.00  0.00     0.156 C 
HETATM   14  C20 UNL     1      -6.298   7.145  14.548  1.00  0.00     0.038 C 
HETATM   15  C21 UNL     1      -4.826   7.579  14.862  1.00  0.00     0.043 C 
HETATM   16  C22 UNL     1      -3.690   7.117  13.851  1.00  0.00     0.093 C 
HETATM   17  C23 UNL     1      -3.485   8.173  12.752  1.00  0.00     0.049 C 
HETATM   18  C28 UNL     1      -4.103   5.767  13.191  1.00  0.00     0.162 C 
HETATM   19  O7  UNL     1      -5.088   5.227  14.066  1.00  0.00    -0.374 OA
ENDROOT
BRANCH   5  20
HETATM   20  C6  UNL     1      -0.758   4.013  12.238  1.00  0.00     0.010 C 
HETATM   21  C7  UNL     1      -0.511   2.809  11.312  1.00  0.00     0.012 C 
BRANCH  20  22
HETATM   22  C8  UNL     1       0.468   4.948  12.136  1.00  0.00     0.183 C 
BRANCH  22  23
HETATM   23  O1  UNL     1       0.852   5.064  10.753  1.00  0.00    -0.321 OA
BRANCH  23  24
HETATM   24  C9  UNL     1       1.782   6.022  10.485  1.00  0.00     0.258 C 
HETATM   25  O2  UNL     1       2.860   6.135  11.052  1.00  0.00    -0.265 OA
BRANCH  24  26
HETATM   26  C10 UNL     1       1.289   6.901   9.362  1.00  0.00     0.111 C 
BRANCH  26  27
HETATM   27  C11 UNL     1       2.268   6.928   8.190  1.00  0.00     0.005 C 
HETATM   28  C12 UNL     1       2.823   8.325   7.962  1.00  0.00     0.005 C 
ENDBRANCH  26  27
ENDBRANCH  24  26
ENDBRANCH  23  24
ENDBRANCH  22  23
ENDBRANCH  20  22
ENDBRANCH   5  20
BRANCH  16  29
HETATM   29  O5  UNL     1      -2.439   6.885  14.556  1.00  0.00    -0.308 OA
BRANCH  29  30
HETATM   30  C24 UNL     1      -1.707   7.938  15.024  1.00  0.00     0.259 C 
HETATM   31  O6  UNL     1      -0.866   8.558  14.389  1.00  0.00    -0.265 OA
BRANCH  30  32
HETATM   32  C25 UNL     1      -2.065   8.193  16.468  1.00  0.00     0.111 C 
BRANCH  32  33
HETATM   33  C26 UNL     1      -2.548   9.616  16.731  1.00  0.00     0.005 C 
HETATM   34  C27 UNL     1      -2.531   9.973  18.211  1.00  0.00     0.005 C 
ENDBRANCH  32  33
ENDBRANCH  30  32
ENDBRANCH  29  30
ENDBRANCH  16  29
BRANCH  11  35
HETATM   35  O4  UNL     1      -8.558   5.091  13.254  1.00  0.00    -0.387 OA
HETATM   36  H28 UNL     1      -9.173   4.335  13.266  1.00  0.00     0.210 HD
ENDBRANCH  11  35
TORSDOF 11
ENDMDL
MODEL 2
REMARK minimizedAffinity -7.7555809
REMARK  11 active torsions:
REMARK  status: ('A' for Active; 'I' for Inactive)
REMARK    1  A    between atoms: C5_5  and  C6_6 
REMARK    2  A    between atoms: C6_6  and  C8_8 
REMARK    3  A    between atoms: C8_8  and  O1_9 
REMARK    4  A    between atoms: O1_9  and  C9_10 
REMARK    5  A    between atoms: C9_10  and  C10_12 
REMARK    6  A    between atoms: C10_12  and  C11_13 
REMARK    7  A    between atoms: C17_20  and  O4_22 
REMARK    8  A    between atoms: C22_26  and  O5_28 
REMARK    9  A    between atoms: O5_28  and  C24_29 
REMARK   10  A    between atoms: C24_29  and  C25_31 
REMARK   11  A    between atoms: C25_31  and  C26_32 
ROOT
HETATM    1  C1  UNL     1      -2.969   9.336  14.627  1.00  0.00     0.015 C 
HETATM    2  C2  UNL     1      -3.040   7.996  14.706  1.00  0.00    -0.077 C 
HETATM    3  C3  UNL     1      -2.036   7.204  15.507  1.00  0.00     0.034 C 
HETATM    4  C4  UNL     1      -1.788   5.803  14.935  1.00  0.00     0.010 C 
HETATM    5  C5  UNL     1      -1.927   5.729  13.401  1.00  0.00    -0.001 C 
HETATM    6  C13 UNL     1      -3.406   6.063  13.025  1.00  0.00     0.037 C 
HETATM    7  C14 UNL     1      -4.079   7.194  13.952  1.00  0.00     0.090 C 
HETATM    8  C15 UNL     1      -5.189   6.721  14.977  1.00  0.00     0.138 C 
HETATM    9  O3  UNL     1      -4.901   6.110  16.011  1.00  0.00    -0.297 OA
HETATM   10  C16 UNL     1      -6.680   6.993  14.632  1.00  0.00     0.119 C 
HETATM   11  C17 UNL     1      -7.515   5.764  14.091  1.00  0.00     0.087 C 
HETATM   12  C18 UNL     1      -8.514   6.263  13.040  1.00  0.00     0.049 C 
HETATM   13  C19 UNL     1      -6.560   4.694  13.539  1.00  0.00     0.156 C 
HETATM   14  C20 UNL     1      -6.924   3.553  12.599  1.00  0.00     0.038 C 
HETATM   15  C21 UNL     1      -5.778   3.287  11.566  1.00  0.00     0.043 C 
HETATM   16  C22 UNL     1      -4.293   3.645  12.005  1.00  0.00     0.093 C 
HETATM   17  C23 UNL     1      -3.618   2.430  12.664  1.00  0.00     0.049 C 
HETATM   18  C28 UNL     1      -4.323   4.824  13.022  1.00  0.00     0.162 C 
HETATM   19  O7  UNL     1      -5.593   5.438  12.821  1.00  0.00    -0.374 OA
ENDROOT
BRANCH   5  20
HETATM   20  C6  UNL     1      -0.887   6.618  12.636  1.00  0.00     0.010 C 
HETATM   21  C7  UNL     1       0.470   6.687  13.358  1.00  0.00     0.012 C 
BRANCH  20  22
HETATM   22  C8  UNL     1      -0.635   6.104  11.201  1.00  0.00     0.183 C 
BRANCH  22  23
HETATM   23  O1  UNL     1       0.406   6.897  10.599  1.00  0.00    -0.321 OA
BRANCH  23  24
HETATM   24  C9  UNL     1       1.481   6.197  10.144  1.00  0.00     0.258 C 
HETATM   25  O2  UNL     1       1.706   5.017  10.379  1.00  0.00    -0.265 OA
BRANCH  24  26
HETATM   26  C10 UNL     1       2.336   7.093   9.281  1.00  0.00     0.111 C 
BRANCH  26  27
HETATM   27  C11 UNL     1       2.452   6.563   7.852  1.00  0.00     0.005 C 
HETATM   28  C12 UNL     1       1.581   7.358   6.892  1.00  0.00     0.005 C 
ENDBRANCH  26  27
ENDBRANCH  24  26
ENDBRANCH  23  24
ENDBRANCH  22  23
ENDBRANCH  20  22
ENDBRANCH   5  20
BRANCH  16  29
HETATM   29  O5  UNL     1      -3.511   4.086  10.861  1.00  0.00    -0.308 OA
BRANCH  29  30
HETATM   30  C24 UNL     1      -2.558   3.270  10.323  1.00  0.00     0.259 C 
HETATM   31  O6  UNL     1      -2.478   2.947   9.146  1.00  0.00    -0.265 OA
BRANCH  30  32
HETATM   32  C25 UNL     1      -1.639   2.786  11.418  1.00  0.00     0.111 C 
BRANCH  32  33
HETATM   33  C26 UNL     1      -0.420   2.031  10.897  1.00  0.00     0.005 C 
HETATM   34  C27 UNL     1      -0.700   0.550  10.680  1.00  0.00     0.005 C 
ENDBRANCH  32  33
ENDBRANCH  30  32
ENDBRANCH  29  30
ENDBRANCH  16  29
BRANCH  11  35
HETATM   35  O4  UNL     1      -8.280   5.181  15.151  1.00  0.00    -0.387 OA
HETATM   36  H28 UNL     1      -8.815   5.881  15.567  1.00  0.00     0.210 HD
ENDBRANCH  11  35
TORSDOF 11
ENDMDL
MODEL 3
REMARK minimizedAffinity -7.59488058
REMARK  11 active torsions:
REMARK  status: ('A' for Active; 'I' for Inactive)
REMARK    1  A    between atoms: C5_5  and  C6_6 
REMARK    2  A    between atoms: C6_6  and  C8_8 
REMARK    3  A    between atoms: C8_8  and  O1_9 
REMARK    4  A    between atoms: O1_9  and  C9_10 
REMARK    5  A    between atoms: C9_10  and  C10_12 
REMARK    6  A    between atoms: C10_12  and  C11_13 
REMARK    7  A    between atoms: C17_20  and  O4_22 
REMARK    8  A    between atoms: C22_26  and  O5_28 
REMARK    9  A    between atoms: O5_28  and  C24_29 
REMARK   10  A    between atoms: C24_29  and  C25_31 
REMARK   11  A    between atoms: C25_31  and  C26_32 
ROOT
HETATM    1  C1  UNL     1      -9.085   6.346  13.096  1.00  0.00     0.015 C 
HETATM    2  C2  UNL     1      -7.974   5.897  13.705  1.00  0.00    -0.077 C 
HETATM    3  C3  UNL     1      -7.911   5.743  15.205  1.00  0.00     0.034 C 
HETATM    4  C4  UNL     1      -6.501   5.956  15.769  1.00  0.00     0.010 C 
HETATM    5  C5  UNL     1      -5.661   6.968  14.963  1.00  0.00    -0.001 C 
HETATM    6  C13 UNL     1      -5.441   6.392  13.528  1.00  0.00     0.037 C 
HETATM    7  C14 UNL     1      -6.703   5.583  12.945  1.00  0.00     0.090 C 
HETATM    8  C15 UNL     1      -6.562   4.009  12.832  1.00  0.00     0.138 C 
HETATM    9  O3  UNL     1      -6.613   3.280  13.828  1.00  0.00    -0.297 OA
HETATM   10  C16 UNL     1      -6.303   3.387  11.432  1.00  0.00     0.119 C 
HETATM   11  C17 UNL     1      -4.819   2.936  11.125  1.00  0.00     0.087 C 
HETATM   12  C18 UNL     1      -4.512   3.199   9.646  1.00  0.00     0.049 C 
HETATM   13  C19 UNL     1      -3.851   3.666  12.069  1.00  0.00     0.156 C 
HETATM   14  C20 UNL     1      -2.349   3.827  11.880  1.00  0.00     0.038 C 
HETATM   15  C21 UNL     1      -1.868   5.237  12.360  1.00  0.00     0.043 C 
HETATM   16  C22 UNL     1      -2.706   5.950  13.508  1.00  0.00     0.093 C 
HETATM   17  C23 UNL     1      -2.145   5.581  14.892  1.00  0.00     0.049 C 
HETATM   18  C28 UNL     1      -4.193   5.493  13.423  1.00  0.00     0.162 C 
HETATM   19  O7  UNL     1      -4.340   4.995  12.097  1.00  0.00    -0.374 OA
ENDROOT
BRANCH   5  20
HETATM   20  C6  UNL     1      -6.265   8.414  14.955  1.00  0.00     0.010 C 
HETATM   21  C7  UNL     1      -7.551   8.519  15.794  1.00  0.00     0.012 C 
BRANCH  20  22
HETATM   22  C8  UNL     1      -5.263   9.460  15.491  1.00  0.00     0.183 C 
BRANCH  22  23
HETATM   23  O1  UNL     1      -3.937   8.902  15.446  1.00  0.00    -0.321 OA
BRANCH  23  24
HETATM   24  C9  UNL     1      -3.139   9.210  16.505  1.00  0.00     0.258 C 
HETATM   25  O2  UNL     1      -2.273   8.482  16.971  1.00  0.00    -0.265 OA
BRANCH  24  26
HETATM   26  C10 UNL     1      -3.468  10.599  16.995  1.00  0.00     0.111 C 
BRANCH  26  27
HETATM   27  C11 UNL     1      -3.415  10.691  18.519  1.00  0.00     0.005 C 
HETATM   28  C12 UNL     1      -3.918  12.038  19.013  1.00  0.00     0.005 C 
ENDBRANCH  26  27
ENDBRANCH  24  26
ENDBRANCH  23  24
ENDBRANCH  22  23
ENDBRANCH  20  22
ENDBRANCH   5  20
BRANCH  16  29
HETATM   29  O5  UNL     1      -2.690   7.394  13.334  1.00  0.00    -0.308 OA
BRANCH  29  30
HETATM   30  C24 UNL     1      -1.505   8.056  13.188  1.00  0.00     0.259 C 
HETATM   31  O6  UNL     1      -0.646   8.176  14.051  1.00  0.00    -0.265 OA
BRANCH  30  32
HETATM   32  C25 UNL     1      -1.438   8.661  11.807  1.00  0.00     0.111 C 
BRANCH  32  33
HETATM   33  C26 UNL     1      -0.042   8.615  11.193  1.00  0.00     0.005 C 
HETATM   34  C27 UNL     1       0.102   7.507  10.157  1.00  0.00     0.005 C 
ENDBRANCH  32  33
ENDBRANCH  30  32
ENDBRANCH  29  30
ENDBRANCH  16  29
BRANCH  11  35
HETATM   35  O4  UNL     1      -4.677   1.527  11.337  1.00  0.00    -0.387 OA
HETATM   36  H28 UNL     1      -5.356   1.066  10.812  1.00  0.00     0.210 HD
ENDBRANCH  11  35
TORSDOF 11
ENDMDL
MODEL 4
REMARK minimizedAffinity -7.48481989
REMARK  11 active torsions:
REMARK  status: ('A' for Active; 'I' for Inactive)
REMARK    1  A    between atoms: C5_5  and  C6_6 
REMARK    2  A    between atoms: C6_6  and  C8_8 
REMARK    3  A    between atoms: C8_8  and  O1_9 
REMARK    4  A    between atoms: O1_9  and  C9_10 
REMARK    5  A    between atoms: C9_10  and  C10_12 
REMARK    6  A    between atoms: C10_12  and  C11_13 
REMARK    7  A    between atoms: C17_20  and  O4_22 
REMARK    8  A    between atoms: C22_26  and  O5_28 
REMARK    9  A    between atoms: O5_28  and  C24_29 
REMARK   10  A    between atoms: C24_29  and  C25_31 
REMARK   11  A    between atoms: C25_31  and  C26_32 
ROOT
HETATM    1  C1  UNL     1       1.643   9.246  12.806  1.00  0.00     0.015 C 
HETATM    2  C2  UNL     1       0.982   8.247  13.412  1.00  0.00    -0.077 C 
HETATM    3  C3  UNL     1       1.697   7.004  13.880  1.00  0.00     0.034 C 
HETATM    4  C4  UNL     1       0.810   5.753  13.843  1.00  0.00     0.010 C 
HETATM    5  C5  UNL     1      -0.242   5.778  12.715  1.00  0.00    -0.001 C 
HETATM    6  C13 UNL     1      -1.224   6.963  12.984  1.00  0.00     0.037 C 
HETATM    7  C14 UNL     1      -0.520   8.269  13.607  1.00  0.00     0.090 C 
HETATM    8  C15 UNL     1      -0.825   8.599  15.125  1.00  0.00     0.138 C 
HETATM    9  O3  UNL     1      -0.322   7.946  16.045  1.00  0.00    -0.297 OA
HETATM   10  C16 UNL     1      -1.825   9.744  15.449  1.00  0.00     0.119 C 
HETATM   11  C17 UNL     1      -3.283   9.306  15.879  1.00  0.00     0.087 C 
HETATM   12  C18 UNL     1      -4.292  10.317  15.322  1.00  0.00     0.049 C 
HETATM   13  C19 UNL     1      -3.554   7.872  15.399  1.00  0.00     0.156 C 
HETATM   14  C20 UNL     1      -4.916   7.207  15.257  1.00  0.00     0.038 C 
HETATM   15  C21 UNL     1      -4.961   6.278  13.997  1.00  0.00     0.043 C 
HETATM   16  C22 UNL     1      -3.594   5.629  13.512  1.00  0.00     0.093 C 
HETATM   17  C23 UNL     1      -3.379   4.261  14.183  1.00  0.00     0.049 C 
HETATM   18  C28 UNL     1      -2.411   6.571  13.886  1.00  0.00     0.162 C 
HETATM   19  O7  UNL     1      -3.017   7.844  14.089  1.00  0.00    -0.374 OA
ENDROOT
BRANCH   5  20
HETATM   20  C6  UNL     1       0.382   5.817  11.278  1.00  0.00     0.010 C 
HETATM   21  C7  UNL     1      -0.011   7.086  10.501  1.00  0.00     0.012 C 
BRANCH  20  22
HETATM   22  C8  UNL     1       1.925   5.744  11.318  1.00  0.00     0.183 C 
BRANCH  22  23
HETATM   23  O1  UNL     1       2.398   5.207  10.068  1.00  0.00    -0.321 OA
BRANCH  23  24
HETATM   24  C9  UNL     1       3.515   5.802   9.565  1.00  0.00     0.258 C 
HETATM   25  O2  UNL     1       4.665   5.462   9.807  1.00  0.00    -0.265 OA
BRANCH  24  26
HETATM   26  C10 UNL     1       3.113   6.924   8.639  1.00  0.00     0.111 C 
BRANCH  26  27
HETATM   27  C11 UNL     1       2.044   6.481   7.641  1.00  0.00     0.005 C 
HETATM   28  C12 UNL     1       2.030   7.373   6.410  1.00  0.00     0.005 C 
ENDBRANCH  26  27
ENDBRANCH  24  26
ENDBRANCH  23  24
ENDBRANCH  22  23
ENDBRANCH  20  22
ENDBRANCH   5  20
BRANCH  16  29
HETATM   29  O5  UNL     1      -3.582   5.479  12.065  1.00  0.00    -0.308 OA
BRANCH  29  30
HETATM   30  C24 UNL     1      -3.472   4.239  11.503  1.00  0.00     0.259 C 
HETATM   31  O6  UNL     1      -2.456   3.767  11.013  1.00  0.00    -0.265 OA
BRANCH  30  32
HETATM   32  C25 UNL     1      -4.817   3.555  11.536  1.00  0.00     0.111 C 
BRANCH  32  33
HETATM   33  C26 UNL     1      -4.725   2.034  11.467  1.00  0.00     0.005 C 
HETATM   34  C27 UNL     1      -6.088   1.375  11.297  1.00  0.00     0.005 C 
ENDBRANCH  32  33
ENDBRANCH  30  32
ENDBRANCH  29  30
ENDBRANCH  16  29
BRANCH  11  35
HETATM   35  O4  UNL     1      -3.406   9.335  17.305  1.00  0.00    -0.387 OA
HETATM   36  H28 UNL     1      -3.139  10.217  17.620  1.00  0.00     0.210 HD
ENDBRANCH  11  35
TORSDOF 11
ENDMDL
MODEL 5
REMARK minimizedAffinity -7.43138647
REMARK  11 active torsions:
REMARK  status: ('A' for Active; 'I' for Inactive)
REMARK    1  A    between atoms: C5_5  and  C6_6 
REMARK    2  A    between atoms: C6_6  and  C8_8 
REMARK    3  A    between atoms: C8_8  and  O1_9 
REMARK    4  A    between atoms: O1_9  and  C9_10 
REMARK    5  A    between atoms: C9_10  and  C10_12 
REMARK    6  A    between atoms: C10_12  and  C11_13 
REMARK    7  A    between atoms: C17_20  and  O4_22 
REMARK    8  A    between atoms: C22_26  and  O5_28 
REMARK    9  A    between atoms: O5_28  and  C24_29 
REMARK   10  A    between atoms: C24_29  and  C25_31 
REMARK   11  A    between atoms: C25_31  and  C26_32 
ROOT
HETATM    1  C1  UNL     1      -3.703   9.149  16.357  1.00  0.00     0.015 C 
HETATM    2  C2  UNL     1      -3.194   9.040  15.118  1.00  0.00    -0.077 C 
HETATM    3  C3  UNL     1      -4.067   9.185  13.896  1.00  0.00     0.034 C 
HETATM    4  C4  UNL     1      -3.576   8.350  12.708  1.00  0.00     0.010 C 
HETATM    5  C5  UNL     1      -2.874   7.041  13.122  1.00  0.00    -0.001 C 
HETATM    6  C13 UNL     1      -1.582   7.407  13.921  1.00  0.00     0.037 C 
HETATM    7  C14 UNL     1      -1.741   8.700  14.866  1.00  0.00     0.090 C 
HETATM    8  C15 UNL     1      -0.987  10.019  14.419  1.00  0.00     0.138 C 
HETATM    9  O3  UNL     1      -1.394  10.713  13.481  1.00  0.00    -0.297 OA
HETATM   10  C16 UNL     1       0.326  10.409  15.154  1.00  0.00     0.119 C 
HETATM   11  C17 UNL     1       1.678  10.101  14.394  1.00  0.00     0.087 C 
HETATM   12  C18 UNL     1       2.742   9.686  15.417  1.00  0.00     0.049 C 
HETATM   13  C19 UNL     1       1.436   9.027  13.322  1.00  0.00     0.156 C 
HETATM   14  C20 UNL     1       2.495   8.174  12.639  1.00  0.00     0.038 C 
HETATM   15  C21 UNL     1       1.977   6.716  12.399  1.00  0.00     0.043 C 
HETATM   16  C22 UNL     1       0.411   6.512  12.218  1.00  0.00     0.093 C 
HETATM   17  C23 UNL     1       0.023   6.610  10.732  1.00  0.00     0.049 C 
HETATM   18  C28 UNL     1      -0.350   7.612  13.016  1.00  0.00     0.162 C 
HETATM   19  O7  UNL     1       0.598   8.085  13.968  1.00  0.00    -0.374 OA
ENDROOT
BRANCH   5  20
HETATM   20  C6  UNL     1      -3.808   6.049  13.896  1.00  0.00     0.010 C 
HETATM   21  C7  UNL     1      -3.324   5.784  15.333  1.00  0.00     0.012 C 
BRANCH  20  22
HETATM   22  C8  UNL     1      -5.262   6.566  13.974  1.00  0.00     0.183 C 
BRANCH  22  23
HETATM   23  O1  UNL     1      -6.112   5.682  13.220  1.00  0.00    -0.321 OA
BRANCH  23  24
HETATM   24  C9  UNL     1      -7.117   5.097  13.929  1.00  0.00     0.258 C 
HETATM   25  O2  UNL     1      -7.294   5.219  15.133  1.00  0.00    -0.265 OA
BRANCH  24  26
HETATM   26  C10 UNL     1      -7.993   4.300  12.994  1.00  0.00     0.111 C 
BRANCH  26  27
HETATM   27  C11 UNL     1      -7.675   2.807  13.052  1.00  0.00     0.005 C 
HETATM   28  C12 UNL     1      -6.599   2.428  12.047  1.00  0.00     0.005 C 
ENDBRANCH  26  27
ENDBRANCH  24  26
ENDBRANCH  23  24
ENDBRANCH  22  23
ENDBRANCH  20  22
ENDBRANCH   5  20
BRANCH  16  29
HETATM   29  O5  UNL     1      -0.005   5.226  12.756  1.00  0.00    -0.308 OA
BRANCH  29  30
HETATM   30  C24 UNL     1      -0.192   4.160  11.923  1.00  0.00     0.259 C 
HETATM   31  O6  UNL     1       0.672   3.632  11.237  1.00  0.00    -0.265 OA
BRANCH  30  32
HETATM   32  C25 UNL     1      -1.647   3.760  11.943  1.00  0.00     0.111 C 
BRANCH  32  33
HETATM   33  C26 UNL     1      -2.145   3.217  10.608  1.00  0.00     0.005 C 
HETATM   34  C27 UNL     1      -3.570   3.655  10.295  1.00  0.00     0.005 C 
ENDBRANCH  32  33
ENDBRANCH  30  32
ENDBRANCH  29  30
ENDBRANCH  16  29
BRANCH  11  35
HETATM   35  O4  UNL     1       2.160  11.283  13.746  1.00  0.00    -0.387 OA
HETATM   36  H28 UNL     1       2.221  11.995  14.408  1.00  0.00     0.210 HD
ENDBRANCH  11  35
TORSDOF 11
ENDMDL
MODEL 6
REMARK minimizedAffinity -7.34654188
REMARK  11 active torsions:
REMARK  status: ('A' for Active; 'I' for Inactive)
REMARK    1  A    between atoms: C5_5  and  C6_6 
REMARK    2  A    between atoms: C6_6  and  C8_8 
REMARK    3  A    between atoms: C8_8  and  O1_9 
REMARK    4  A    between atoms: O1_9  and  C9_10 
REMARK    5  A    between atoms: C9_10  and  C10_12 
REMARK    6  A    between atoms: C10_12  and  C11_13 
REMARK    7  A    between atoms: C17_20  and  O4_22 
REMARK    8  A    between atoms: C22_26  and  O5_28 
REMARK    9  A    between atoms: O5_28  and  C24_29 
REMARK   10  A    between atoms: C24_29  and  C25_31 
REMARK   11  A    between atoms: C25_31  and  C26_32 
ROOT
HETATM    1  C1  UNL     1       2.308   9.267  12.044  1.00  0.00     0.015 C 
HETATM    2  C2  UNL     1       1.632   8.522  12.933  1.00  0.00    -0.077 C 
HETATM    3  C3  UNL     1       2.236   7.276  13.533  1.00  0.00     0.034 C 
HETATM    4  C4  UNL     1       1.189   6.212  13.884  1.00  0.00     0.010 C 
HETATM    5  C5  UNL     1      -0.034   6.219  12.945  1.00  0.00    -0.001 C 
HETATM    6  C13 UNL     1      -0.774   7.585  13.109  1.00  0.00     0.037 C 
HETATM    7  C14 UNL     1       0.208   8.838  13.340  1.00  0.00     0.090 C 
HETATM    8  C15 UNL     1       0.231   9.481  14.788  1.00  0.00     0.138 C 
HETATM    9  O3  UNL     1       0.794   8.925  15.736  1.00  0.00    -0.297 OA
HETATM   10  C16 UNL     1      -0.523  10.821  15.016  1.00  0.00     0.119 C 
HETATM   11  C17 UNL     1      -1.926  10.726  15.739  1.00  0.00     0.087 C 
HETATM   12  C18 UNL     1      -2.866  11.781  15.145  1.00  0.00     0.049 C 
HETATM   13  C19 UNL     1      -2.480   9.299  15.608  1.00  0.00     0.156 C 
HETATM   14  C20 UNL     1      -3.925   8.866  15.809  1.00  0.00     0.038 C 
HETATM   15  C21 UNL     1      -4.327   7.750  14.786  1.00  0.00     0.043 C 
HETATM   16  C22 UNL     1      -3.175   6.797  14.246  1.00  0.00     0.093 C 
HETATM   17  C23 UNL     1      -3.038   5.555  15.142  1.00  0.00     0.049 C 
HETATM   18  C28 UNL     1      -1.823   7.572  14.239  1.00  0.00     0.162 C 
HETATM   19  O7  UNL     1      -2.197   8.946  14.266  1.00  0.00    -0.374 OA
ENDROOT
BRANCH   5  20
HETATM   20  C6  UNL     1       0.321   5.893  11.454  1.00  0.00     0.010 C 
HETATM   21  C7  UNL     1      -0.047   7.042  10.498  1.00  0.00     0.012 C 
BRANCH  20  22
HETATM   22  C8  UNL     1       1.824   5.589  11.272  1.00  0.00     0.183 C 
BRANCH  22  23
HETATM   23  O1  UNL     1       2.048   5.133   9.925  1.00  0.00    -0.321 OA
BRANCH  23  24
HETATM   24  C9  UNL     1       3.285   5.395   9.419  1.00  0.00     0.258 C 
HETATM   25  O2  UNL     1       3.997   4.584   8.842  1.00  0.00    -0.265 OA
BRANCH  24  26
HETATM   26  C10 UNL     1       3.627   6.846   9.654  1.00  0.00     0.111 C 
BRANCH  26  27
HETATM   27  C11 UNL     1       2.977   7.758   8.616  1.00  0.00     0.005 C 
HETATM   28  C12 UNL     1       2.295   6.955   7.520  1.00  0.00     0.005 C 
ENDBRANCH  26  27
ENDBRANCH  24  26
ENDBRANCH  23  24
ENDBRANCH  22  23
ENDBRANCH  20  22
ENDBRANCH   5  20
BRANCH  16  29
HETATM   29  O5  UNL     1      -3.444   6.393  12.875  1.00  0.00    -0.308 OA
BRANCH  29  30
HETATM   30  C24 UNL     1      -3.614   5.074  12.567  1.00  0.00     0.259 C 
HETATM   31  O6  UNL     1      -2.746   4.323  12.146  1.00  0.00    -0.265 OA
BRANCH  30  32
HETATM   32  C25 UNL     1      -5.058   4.693  12.785  1.00  0.00     0.111 C 
BRANCH  32  33
HETATM   33  C26 UNL     1      -5.395   3.288  12.294  1.00  0.00     0.005 C 
HETATM   34  C27 UNL     1      -5.441   3.198  10.774  1.00  0.00     0.005 C 
ENDBRANCH  32  33
ENDBRANCH  30  32
ENDBRANCH  29  30
ENDBRANCH  16  29
BRANCH  11  35
HETATM   35  O4  UNL     1      -1.785  11.029  17.131  1.00  0.00    -0.387 OA
HETATM   36  H28 UNL     1      -1.344  11.893  17.217  1.00  0.00     0.210 HD
ENDBRANCH  11  35
TORSDOF 11
ENDMDL
MODEL 7
REMARK minimizedAffinity -7.30008459
REMARK  11 active torsions:
REMARK  status: ('A' for Active; 'I' for Inactive)
REMARK    1  A    between atoms: C5_5  and  C6_6 
REMARK    2  A    between atoms: C6_6  and  C8_8 
REMARK    3  A    between atoms: C8_8  and  O1_9 
REMARK    4  A    between atoms: O1_9  and  C9_10 
REMARK    5  A    between atoms: C9_10  and  C10_12 
REMARK    6  A    between atoms: C10_12  and  C11_13 
REMARK    7  A    between atoms: C17_20  and  O4_22 
REMARK    8  A    between atoms: C22_26  and  O5_28 
REMARK    9  A    between atoms: O5_28  and  C24_29 
REMARK   10  A    between atoms: C24_29  and  C25_31 
REMARK   11  A    between atoms: C25_31  and  C26_32 
ROOT
HETATM    1  C1  UNL     1      -9.283   6.295  13.524  1.00  0.00     0.015 C 
HETATM    2  C2  UNL     1      -8.170   5.791  14.082  1.00  0.00    -0.077 C 
HETATM    3  C3  UNL     1      -8.100   5.495  15.560  1.00  0.00     0.034 C 
HETATM    4  C4  UNL     1      -6.688   5.653  16.136  1.00  0.00     0.010 C 
HETATM    5  C5  UNL     1      -5.851   6.737  15.426  1.00  0.00    -0.001 C 
HETATM    6  C13 UNL     1      -5.637   6.302  13.941  1.00  0.00     0.037 C 
HETATM    7  C14 UNL     1      -6.902   5.551  13.290  1.00  0.00     0.090 C 
HETATM    8  C15 UNL     1      -6.762   3.996  13.027  1.00  0.00     0.138 C 
HETATM    9  O3  UNL     1      -6.808   3.174  13.948  1.00  0.00    -0.297 OA
HETATM   10  C16 UNL     1      -6.509   3.510  11.572  1.00  0.00     0.119 C 
HETATM   11  C17 UNL     1      -5.026   3.091  11.217  1.00  0.00     0.087 C 
HETATM   12  C18 UNL     1      -4.727   3.494   9.769  1.00  0.00     0.049 C 
HETATM   13  C19 UNL     1      -4.054   3.728  12.222  1.00  0.00     0.156 C 
HETATM   14  C20 UNL     1      -2.553   3.907  12.042  1.00  0.00     0.038 C 
HETATM   15  C21 UNL     1      -2.070   5.265  12.653  1.00  0.00     0.043 C 
HETATM   16  C22 UNL     1      -2.903   5.864  13.867  1.00  0.00     0.093 C 
HETATM   17  C23 UNL     1      -2.335   5.366  15.207  1.00  0.00     0.049 C 
HETATM   18  C28 UNL     1      -4.390   5.417  13.746  1.00  0.00     0.162 C 
HETATM   19  O7  UNL     1      -4.543   5.048  12.379  1.00  0.00    -0.374 OA
ENDROOT
BRANCH   5  20
HETATM   20  C6  UNL     1      -6.455   8.178  15.559  1.00  0.00     0.010 C 
HETATM   21  C7  UNL     1      -5.510   9.263  15.012  1.00  0.00     0.012 C 
BRANCH  20  22
HETATM   22  C8  UNL     1      -7.804   8.308  14.818  1.00  0.00     0.183 C 
BRANCH  22  23
HETATM   23  O1  UNL     1      -8.525   9.432  15.357  1.00  0.00    -0.321 OA
BRANCH  23  24
HETATM   24  C9  UNL     1      -9.752   9.144  15.873  1.00  0.00     0.258 C 
HETATM   25  O2  UNL     1     -10.043   9.177  17.060  1.00  0.00    -0.265 OA
BRANCH  24  26
HETATM   26  C10 UNL     1     -10.703   8.808  14.750  1.00  0.00     0.111 C 
BRANCH  26  27
HETATM   27  C11 UNL     1     -11.157  10.058  13.998  1.00  0.00     0.005 C 
HETATM   28  C12 UNL     1     -12.255   9.736  12.996  1.00  0.00     0.005 C 
ENDBRANCH  26  27
ENDBRANCH  24  26
ENDBRANCH  23  24
ENDBRANCH  22  23
ENDBRANCH  20  22
ENDBRANCH   5  20
BRANCH  16  29
HETATM   29  O5  UNL     1      -2.888   7.318  13.832  1.00  0.00    -0.308 OA
BRANCH  29  30
HETATM   30  C24 UNL     1      -1.708   7.991  13.687  1.00  0.00     0.259 C 
HETATM   31  O6  UNL     1      -0.595   7.531  13.901  1.00  0.00    -0.265 OA
BRANCH  30  32
HETATM   32  C25 UNL     1      -1.992   9.412  13.264  1.00  0.00     0.111 C 
BRANCH  32  33
HETATM   33  C26 UNL     1      -1.347  10.455  14.170  1.00  0.00     0.005 C 
HETATM   34  C27 UNL     1      -2.374  11.347  14.855  1.00  0.00     0.005 C 
ENDBRANCH  32  33
ENDBRANCH  30  32
ENDBRANCH  29  30
ENDBRANCH  16  29
BRANCH  11  35
HETATM   35  O4  UNL     1      -4.883   1.668  11.293  1.00  0.00    -0.387 OA
HETATM   36  H28 UNL     1      -5.565   1.259  10.730  1.00  0.00     0.210 HD
ENDBRANCH  11  35
TORSDOF 11
ENDMDL
MODEL 8
REMARK minimizedAffinity -7.23480463
REMARK  11 active torsions:
REMARK  status: ('A' for Active; 'I' for Inactive)
REMARK    1  A    between atoms: C5_5  and  C6_6 
REMARK    2  A    between atoms: C6_6  and  C8_8 
REMARK    3  A    between atoms: C8_8  and  O1_9 
REMARK    4  A    between atoms: O1_9  and  C9_10 
REMARK    5  A    between atoms: C9_10  and  C10_12 
REMARK    6  A    between atoms: C10_12  and  C11_13 
REMARK    7  A    between atoms: C17_20  and  O4_22 
REMARK    8  A    between atoms: C22_26  and  O5_28 
REMARK    9  A    between atoms: O5_28  and  C24_29 
REMARK   10  A    between atoms: C24_29  and  C25_31 
REMARK   11  A    between atoms: C25_31  and  C26_32 
ROOT
HETATM    1  C1  UNL     1       0.849   7.704  16.019  1.00  0.00     0.015 C 
HETATM    2  C2  UNL     1       1.298   8.227  14.865  1.00  0.00    -0.077 C 
HETATM    3  C3  UNL     1       0.434   9.140  14.031  1.00  0.00     0.034 C 
HETATM    4  C4  UNL     1       0.734   9.041  12.530  1.00  0.00     0.010 C 
HETATM    5  C5  UNL     1       1.199   7.639  12.086  1.00  0.00    -0.001 C 
HETATM    6  C13 UNL     1       2.556   7.322  12.793  1.00  0.00     0.037 C 
HETATM    7  C14 UNL     1       2.659   7.886  14.296  1.00  0.00     0.090 C 
HETATM    8  C15 UNL     1       3.627   9.115  14.541  1.00  0.00     0.138 C 
HETATM    9  O3  UNL     1       3.328  10.259  14.183  1.00  0.00    -0.297 OA
HETATM   10  C16 UNL     1       5.007   8.851  15.206  1.00  0.00     0.119 C 
HETATM   11  C17 UNL     1       6.261   8.831  14.242  1.00  0.00     0.087 C 
HETATM   12  C18 UNL     1       7.258   7.780  14.743  1.00  0.00     0.049 C 
HETATM   13  C19 UNL     1       5.800   8.571  12.799  1.00  0.00     0.156 C 
HETATM   14  C20 UNL     1       6.670   8.101  11.642  1.00  0.00     0.038 C 
HETATM   15  C21 UNL     1       5.890   7.105  10.719  1.00  0.00     0.043 C 
HETATM   16  C22 UNL     1       4.309   7.251  10.648  1.00  0.00     0.093 C 
HETATM   17  C23 UNL     1       3.907   8.204   9.510  1.00  0.00     0.049 C 
HETATM   18  C28 UNL     1       3.780   7.820  11.999  1.00  0.00     0.162 C 
HETATM   19  O7  UNL     1       4.822   7.555  12.932  1.00  0.00    -0.374 OA
ENDROOT
BRANCH   5  20
HETATM   20  C6  UNL     1       0.120   6.523  12.310  1.00  0.00     0.010 C 
HETATM   21  C7  UNL     1       0.624   5.394  13.226  1.00  0.00     0.012 C 
BRANCH  20  22
HETATM   22  C8  UNL     1      -1.177   7.091  12.927  1.00  0.00     0.183 C 
BRANCH  22  23
HETATM   23  O1  UNL     1      -1.679   6.155  13.900  1.00  0.00    -0.321 OA
BRANCH  23  24
HETATM   24  C9  UNL     1      -2.866   5.568  13.585  1.00  0.00     0.258 C 
HETATM   25  O2  UNL     1      -3.006   4.633  12.808  1.00  0.00    -0.265 OA
BRANCH  24  26
HETATM   26  C10 UNL     1      -3.977   6.230  14.364  1.00  0.00     0.111 C 
BRANCH  26  27
HETATM   27  C11 UNL     1      -5.044   6.818  13.442  1.00  0.00     0.005 C 
HETATM   28  C12 UNL     1      -4.780   8.286  13.152  1.00  0.00     0.005 C 
ENDBRANCH  26  27
ENDBRANCH  24  26
ENDBRANCH  23  24
ENDBRANCH  22  23
ENDBRANCH  20  22
ENDBRANCH   5  20
BRANCH  16  29
HETATM   29  O5  UNL     1       3.681   5.954  10.455  1.00  0.00    -0.308 OA
BRANCH  29  30
HETATM   30  C24 UNL     1       3.488   5.464   9.195  1.00  0.00     0.259 C 
HETATM   31  O6  UNL     1       4.162   4.597   8.657  1.00  0.00    -0.265 OA
BRANCH  30  32
HETATM   32  C25 UNL     1       2.336   6.193   8.547  1.00  0.00     0.111 C 
BRANCH  32  33
HETATM   33  C26 UNL     1       2.361   6.133   7.023  1.00  0.00     0.005 C 
HETATM   34  C27 UNL     1       1.649   7.317   6.381  1.00  0.00     0.005 C 
ENDBRANCH  32  33
ENDBRANCH  30  32
ENDBRANCH  29  30
ENDBRANCH  16  29
BRANCH  11  35
HETATM   35  O4  UNL     1       6.932  10.095  14.280  1.00  0.00    -0.387 OA
HETATM   36  H28 UNL     1       7.139  10.308  15.208  1.00  0.00     0.210 HD
ENDBRANCH  11  35
TORSDOF 11
ENDMDL
MODEL 9
REMARK minimizedAffinity -7.21882057
REMARK  11 active torsions:
REMARK  status: ('A' for Active; 'I' for Inactive)
REMARK    1  A    between atoms: C5_5  and  C6_6 
REMARK    2  A    between atoms: C6_6  and  C8_8 
REMARK    3  A    between atoms: C8_8  and  O1_9 
REMARK    4  A    between atoms: O1_9  and  C9_10 
REMARK    5  A    between atoms: C9_10  and  C10_12 
REMARK    6  A    between atoms: C10_12  and  C11_13 
REMARK    7  A    between atoms: C17_20  and  O4_22 
REMARK    8  A    between atoms: C22_26  and  O5_28 
REMARK    9  A    between atoms: O5_28  and  C24_29 
REMARK   10  A    between atoms: C24_29  and  C25_31 
REMARK   11  A    between atoms: C25_31  and  C26_32 
ROOT
HETATM    1  C1  UNL     1       1.399   6.189  13.970  1.00  0.00     0.015 C 
HETATM    2  C2  UNL     1       0.226   6.566  13.434  1.00  0.00    -0.077 C 
HETATM    3  C3  UNL     1      -0.015   7.990  12.998  1.00  0.00     0.034 C 
HETATM    4  C4  UNL     1      -1.483   8.414  13.125  1.00  0.00     0.010 C 
HETATM    5  C5  UNL     1      -2.226   7.724  14.287  1.00  0.00    -0.001 C 
HETATM    6  C13 UNL     1      -2.271   6.189  14.000  1.00  0.00     0.037 C 
HETATM    7  C14 UNL     1      -0.944   5.616  13.293  1.00  0.00     0.090 C 
HETATM    8  C15 UNL     1      -1.063   5.188  11.773  1.00  0.00     0.138 C 
HETATM    9  O3  UNL     1      -1.128   6.024  10.866  1.00  0.00    -0.297 OA
HETATM   10  C16 UNL     1      -1.151   3.673  11.434  1.00  0.00     0.119 C 
HETATM   11  C17 UNL     1      -2.586   3.113  11.077  1.00  0.00     0.087 C 
HETATM   12  C18 UNL     1      -2.715   1.686  11.623  1.00  0.00     0.049 C 
HETATM   13  C19 UNL     1      -3.663   4.058  11.632  1.00  0.00     0.156 C 
HETATM   14  C20 UNL     1      -5.132   3.727  11.853  1.00  0.00     0.038 C 
HETATM   15  C21 UNL     1      -5.674   4.409  13.155  1.00  0.00     0.043 C 
HETATM   16  C22 UNL     1      -4.982   5.762  13.620  1.00  0.00     0.093 C 
HETATM   17  C23 UNL     1      -5.702   6.974  13.005  1.00  0.00     0.049 C 
HETATM   18  C28 UNL     1      -3.493   5.767  13.160  1.00  0.00     0.162 C 
HETATM   19  O7  UNL     1      -3.187   4.397  12.922  1.00  0.00    -0.374 OA
ENDROOT
BRANCH   5  20
HETATM   20  C6  UNL     1      -1.632   8.064  15.697  1.00  0.00     0.010 C 
HETATM   21  C7  UNL     1      -0.239   7.445  15.913  1.00  0.00     0.012 C 
BRANCH  20  22
HETATM   22  C8  UNL     1      -1.513   9.587  15.921  1.00  0.00     0.183 C 
BRANCH  22  23
HETATM   23  O1  UNL     1      -2.566  10.013  16.806  1.00  0.00    -0.321 OA
BRANCH  23  24
HETATM   24  C9  UNL     1      -2.153  10.574  17.976  1.00  0.00     0.258 C 
HETATM   25  O2  UNL     1      -0.989  10.793  18.280  1.00  0.00    -0.265 OA
BRANCH  24  26
HETATM   26  C10 UNL     1      -3.356  10.911  18.823  1.00  0.00     0.111 C 
BRANCH  26  27
HETATM   27  C11 UNL     1      -3.887  12.312  18.524  1.00  0.00     0.005 C 
HETATM   28  C12 UNL     1      -4.724  12.846  19.675  1.00  0.00     0.005 C 
ENDBRANCH  26  27
ENDBRANCH  24  26
ENDBRANCH  23  24
ENDBRANCH  22  23
ENDBRANCH  20  22
ENDBRANCH   5  20
BRANCH  16  29
HETATM   29  O5  UNL     1      -4.983   5.867  15.070  1.00  0.00    -0.308 OA
BRANCH  29  30
HETATM   30  C24 UNL     1      -5.757   6.805  15.691  1.00  0.00     0.259 C 
HETATM   31  O6  UNL     1      -5.515   8.003  15.750  1.00  0.00    -0.265 OA
BRANCH  30  32
HETATM   32  C25 UNL     1      -6.941   6.128  16.338  1.00  0.00     0.111 C 
BRANCH  32  33
HETATM   33  C26 UNL     1      -8.258   6.387  15.613  1.00  0.00     0.005 C 
HETATM   34  C27 UNL     1      -9.084   7.480  16.278  1.00  0.00     0.005 C 
ENDBRANCH  32  33
ENDBRANCH  30  32
ENDBRANCH  29  30
ENDBRANCH  16  29
BRANCH  11  35
HETATM   35  O4  UNL     1      -2.745   3.033   9.656  1.00  0.00    -0.387 OA
HETATM   36  H28 UNL     1      -2.007   2.514   9.291  1.00  0.00     0.210 HD
ENDBRANCH  11  35
TORSDOF 11
ENDMDL
