MODEL 1
REMARK minimizedAffinity -9.78346348
REMARK  9 active torsions:
REMARK  status: ('A' for Active; 'I' for Inactive)
REMARK    1  A    between atoms: C2_2  and  C3_3 
REMARK    2  A    between atoms: C2_2  and  C9_12 
REMARK    3  A    between atoms: C3_3  and  C4_4 
REMARK    4  A    between atoms: C4_4  and  C5_5 
REMARK    5  A    between atoms: C5_5  and  O1_6 
REMARK    6  A    between atoms: C5_5  and  C6_7 
REMARK    7  A    between atoms: C6_7  and  O2_9 
REMARK    8  A    between atoms: C6_7  and  C8_10 
REMARK    9  A    between atoms: C8_10  and  O3_11 
ROOT
HETATM    1  C9  UNL     1       1.207   6.611  12.372  1.00  0.00    -0.002 C 
HETATM    2  C10 UNL     1       1.047   5.420  11.382  1.00  0.00     0.007 C 
HETATM    3  C11 UNL     1      -0.416   4.950  11.451  1.00  0.00     0.015 C 
HETATM    4  C12 UNL     1      -0.984   5.602  12.724  1.00  0.00    -0.005 C 
HETATM    5  C13 UNL     1      -0.553   4.702  13.925  1.00  0.00     0.021 C 
HETATM    6  C14 UNL     1      -2.485   5.776  12.902  1.00  0.00    -0.000 C 
HETATM    7  C15 UNL     1      -3.020   6.803  13.608  1.00  0.00    -0.060 C 
HETATM    8  C16 UNL     1      -2.077   7.847  14.243  1.00  0.00     0.036 C 
HETATM    9  C17 UNL     1      -0.561   7.722  13.976  1.00  0.00     0.015 C 
HETATM   10  C18 UNL     1      -0.275   7.011  12.651  1.00  0.00    -0.028 C 
HETATM   11  C19 UNL     1      -0.795   7.902  11.478  1.00  0.00     0.016 C 
HETATM   12  C20 UNL     1      -4.558   7.064  13.743  1.00  0.00    -0.014 C 
HETATM   13  C21 UNL     1      -4.829   8.369  12.937  1.00  0.00     0.020 C 
HETATM   14  C22 UNL     1      -4.966   7.324  15.222  1.00  0.00     0.021 C 
HETATM   15  C23 UNL     1      -5.422   6.072  15.949  1.00  0.00     0.080 C 
HETATM   16  C24 UNL     1      -6.685   5.533  15.320  1.00  0.00     0.135 C 
HETATM   17  O4  UNL     1      -7.524   4.956  16.013  1.00  0.00    -0.297 OA
HETATM   18  C25 UNL     1      -6.872   5.721  13.807  1.00  0.00     0.018 C 
HETATM   19  C26 UNL     1      -7.821   6.915  13.586  1.00  0.00     0.023 C 
HETATM   20  C27 UNL     1      -7.613   4.479  13.254  1.00  0.00     0.023 C 
HETATM   21  C28 UNL     1      -5.467   5.920  13.111  1.00  0.00     0.020 C 
HETATM   22  C29 UNL     1      -4.720   4.581  13.023  1.00  0.00     0.090 C 
HETATM   23  C30 UNL     1      -3.389   4.735  12.355  1.00  0.00     0.157 C 
HETATM   24  O5  UNL     1      -3.044   3.976  11.455  1.00  0.00    -0.293 OA
ENDROOT
BRANCH   1  25
HETATM   25  C2  UNL     1       2.223   7.673  11.844  1.00  0.00    -0.014 C 
HETATM   26  C1  UNL     1       2.598   8.698  12.919  1.00  0.00     0.010 C 
BRANCH  25  27
HETATM   27  C3  UNL     1       3.504   6.969  11.310  1.00  0.00     0.007 C 
BRANCH  27  28
HETATM   28  C4  UNL     1       3.789   7.245   9.824  1.00  0.00     0.035 C 
BRANCH  28  29
HETATM   29  C5  UNL     1       2.700   6.772   8.843  1.00  0.00     0.154 C 
BRANCH  29  30
HETATM   30  O1  UNL     1       3.239   5.685   8.076  1.00  0.00    -0.392 OA
HETATM   31  H10 UNL     1       3.663   6.107   7.301  1.00  0.00     0.210 HD
ENDBRANCH  29  30
BRANCH  29  32
HETATM   32  C6  UNL     1       2.101   7.830   7.876  1.00  0.00     0.101 C 
HETATM   33  C7  UNL     1       1.769   7.181   6.522  1.00  0.00     0.051 C 
BRANCH  32  34
HETATM   34  O2  UNL     1       3.106   8.828   7.602  1.00  0.00    -0.385 OA
HETATM   35  H14 UNL     1       2.621   9.552   7.153  1.00  0.00     0.210 HD
ENDBRANCH  32  34
BRANCH  32  36
HETATM   36  C8  UNL     1       0.860   8.531   8.460  1.00  0.00     0.204 C 
BRANCH  36  37
HETATM   37  O3  UNL     1      -0.291   8.187   7.680  1.00  0.00    -0.398 OA
HETATM   38  H17 UNL     1      -1.055   8.628   8.092  1.00  0.00     0.209 HD
ENDBRANCH  36  37
ENDBRANCH  32  36
ENDBRANCH  29  32
ENDBRANCH  28  29
ENDBRANCH  27  28
ENDBRANCH  25  27
ENDBRANCH   1  25
TORSDOF 9
ENDMDL
MODEL 2
REMARK minimizedAffinity -9.70022297
REMARK  9 active torsions:
REMARK  status: ('A' for Active; 'I' for Inactive)
REMARK    1  A    between atoms: C2_2  and  C3_3 
REMARK    2  A    between atoms: C2_2  and  C9_12 
REMARK    3  A    between atoms: C3_3  and  C4_4 
REMARK    4  A    between atoms: C4_4  and  C5_5 
REMARK    5  A    between atoms: C5_5  and  O1_6 
REMARK    6  A    between atoms: C5_5  and  C6_7 
REMARK    7  A    between atoms: C6_7  and  O2_9 
REMARK    8  A    between atoms: C6_7  and  C8_10 
REMARK    9  A    between atoms: C8_10  and  O3_11 
ROOT
HETATM    1  C9  UNL     1      -2.986   7.617  15.236  1.00  0.00    -0.002 C 
HETATM    2  C10 UNL     1      -2.299   8.809  15.966  1.00  0.00     0.007 C 
HETATM    3  C11 UNL     1      -0.979   9.106  15.233  1.00  0.00     0.015 C 
HETATM    4  C12 UNL     1      -0.732   7.874  14.345  1.00  0.00    -0.005 C 
HETATM    5  C13 UNL     1      -0.078   6.785  15.253  1.00  0.00     0.021 C 
HETATM    6  C14 UNL     1       0.189   7.962  13.137  1.00  0.00    -0.000 C 
HETATM    7  C15 UNL     1       0.006   7.207  12.025  1.00  0.00    -0.060 C 
HETATM    8  C16 UNL     1      -1.189   6.233  11.970  1.00  0.00     0.036 C 
HETATM    9  C17 UNL     1      -2.178   6.219  13.157  1.00  0.00     0.015 C 
HETATM   10  C18 UNL     1      -2.210   7.567  13.884  1.00  0.00    -0.028 C 
HETATM   11  C19 UNL     1      -2.791   8.647  12.918  1.00  0.00     0.016 C 
HETATM   12  C20 UNL     1       0.879   7.330  10.731  1.00  0.00    -0.014 C 
HETATM   13  C21 UNL     1      -0.064   7.937   9.651  1.00  0.00     0.020 C 
HETATM   14  C22 UNL     1       1.349   5.935  10.225  1.00  0.00     0.021 C 
HETATM   15  C23 UNL     1       2.717   5.535  10.746  1.00  0.00     0.080 C 
HETATM   16  C24 UNL     1       3.773   6.480  10.221  1.00  0.00     0.135 C 
HETATM   17  O4  UNL     1       4.914   6.071   9.999  1.00  0.00    -0.297 OA
HETATM   18  C25 UNL     1       3.376   7.945   9.988  1.00  0.00     0.018 C 
HETATM   19  C26 UNL     1       3.111   8.138   8.482  1.00  0.00     0.023 C 
HETATM   20  C27 UNL     1       4.597   8.835  10.325  1.00  0.00     0.023 C 
HETATM   21  C28 UNL     1       2.123   8.312  10.880  1.00  0.00     0.020 C 
HETATM   22  C29 UNL     1       2.544   8.482  12.348  1.00  0.00     0.090 C 
HETATM   23  C30 UNL     1       1.380   8.844  13.216  1.00  0.00     0.157 C 
HETATM   24  O5  UNL     1       1.452   9.777  14.010  1.00  0.00    -0.293 OA
ENDROOT
BRANCH   1  25
HETATM   25  C2  UNL     1      -4.542   7.750  15.246  1.00  0.00    -0.014 C 
HETATM   26  C1  UNL     1      -5.043   8.749  14.199  1.00  0.00     0.010 C 
BRANCH  25  27
HETATM   27  C3  UNL     1      -5.199   6.358  15.011  1.00  0.00     0.007 C 
BRANCH  27  28
HETATM   28  C4  UNL     1      -6.432   6.098  15.892  1.00  0.00     0.035 C 
BRANCH  28  29
HETATM   29  C5  UNL     1      -7.583   5.333  15.209  1.00  0.00     0.154 C 
BRANCH  29  30
HETATM   30  O1  UNL     1      -7.894   4.190  16.019  1.00  0.00    -0.392 OA
HETATM   31  H10 UNL     1      -7.310   3.478  15.688  1.00  0.00     0.210 HD
ENDBRANCH  29  30
BRANCH  29  32
HETATM   32  C6  UNL     1      -7.363   4.873  13.742  1.00  0.00     0.101 C 
HETATM   33  C7  UNL     1      -7.530   3.348  13.635  1.00  0.00     0.051 C 
BRANCH  32  34
HETATM   34  O2  UNL     1      -5.998   5.151  13.369  1.00  0.00    -0.385 OA
HETATM   35  H14 UNL     1      -5.973   5.020  12.398  1.00  0.00     0.210 HD
ENDBRANCH  32  34
BRANCH  32  36
HETATM   36  C8  UNL     1      -8.298   5.592  12.749  1.00  0.00     0.204 C 
BRANCH  36  37
HETATM   37  O3  UNL     1      -9.538   5.893  13.398  1.00  0.00    -0.398 OA
HETATM   38  H17 UNL     1     -10.090   6.365  12.749  1.00  0.00     0.209 HD
ENDBRANCH  36  37
ENDBRANCH  32  36
ENDBRANCH  29  32
ENDBRANCH  28  29
ENDBRANCH  27  28
ENDBRANCH  25  27
ENDBRANCH   1  25
TORSDOF 9
ENDMDL
MODEL 3
REMARK minimizedAffinity -9.33752823
REMARK  9 active torsions:
REMARK  status: ('A' for Active; 'I' for Inactive)
REMARK    1  A    between atoms: C2_2  and  C3_3 
REMARK    2  A    between atoms: C2_2  and  C9_12 
REMARK    3  A    between atoms: C3_3  and  C4_4 
REMARK    4  A    between atoms: C4_4  and  C5_5 
REMARK    5  A    between atoms: C5_5  and  O1_6 
REMARK    6  A    between atoms: C5_5  and  C6_7 
REMARK    7  A    between atoms: C6_7  and  O2_9 
REMARK    8  A    between atoms: C6_7  and  C8_10 
REMARK    9  A    between atoms: C8_10  and  O3_11 
ROOT
HETATM    1  C9  UNL     1      -3.819   7.205  14.512  1.00  0.00    -0.002 C 
HETATM    2  C10 UNL     1      -3.391   5.848  15.144  1.00  0.00     0.007 C 
HETATM    3  C11 UNL     1      -2.110   5.384  14.429  1.00  0.00     0.015 C 
HETATM    4  C12 UNL     1      -2.023   6.256  13.165  1.00  0.00    -0.005 C 
HETATM    5  C13 UNL     1      -2.955   5.601  12.097  1.00  0.00     0.021 C 
HETATM    6  C14 UNL     1      -0.696   6.445  12.444  1.00  0.00    -0.000 C 
HETATM    7  C15 UNL     1      -0.390   7.581  11.768  1.00  0.00    -0.060 C 
HETATM    8  C16 UNL     1      -1.414   8.734  11.739  1.00  0.00     0.036 C 
HETATM    9  C17 UNL     1      -2.717   8.577  12.554  1.00  0.00     0.015 C 
HETATM   10  C18 UNL     1      -2.529   7.634  13.746  1.00  0.00    -0.028 C 
HETATM   11  C19 UNL     1      -1.528   8.284  14.752  1.00  0.00     0.016 C 
HETATM   12  C20 UNL     1       0.995   7.846  11.087  1.00  0.00    -0.014 C 
HETATM   13  C21 UNL     1       1.661   8.974  11.928  1.00  0.00     0.020 C 
HETATM   14  C22 UNL     1       0.824   8.373   9.632  1.00  0.00     0.021 C 
HETATM   15  C23 UNL     1       0.861   7.275   8.586  1.00  0.00     0.080 C 
HETATM   16  C24 UNL     1       2.219   6.614   8.569  1.00  0.00     0.135 C 
HETATM   17  O4  UNL     1       2.678   6.168   7.515  1.00  0.00    -0.297 OA
HETATM   18  C25 UNL     1       2.987   6.514   9.895  1.00  0.00     0.018 C 
HETATM   19  C26 UNL     1       4.044   7.636   9.924  1.00  0.00     0.023 C 
HETATM   20  C27 UNL     1       3.777   5.183   9.895  1.00  0.00     0.023 C 
HETATM   21  C28 UNL     1       1.978   6.594  11.109  1.00  0.00     0.020 C 
HETATM   22  C29 UNL     1       1.214   5.270  11.257  1.00  0.00     0.090 C 
HETATM   23  C30 UNL     1       0.260   5.311  12.409  1.00  0.00     0.157 C 
HETATM   24  O5  UNL     1       0.225   4.399  13.231  1.00  0.00    -0.293 OA
ENDROOT
BRANCH   1  25
HETATM   25  C2  UNL     1      -4.462   8.160  15.567  1.00  0.00    -0.014 C 
HETATM   26  C1  UNL     1      -4.206   9.635  15.243  1.00  0.00     0.010 C 
BRANCH  25  27
HETATM   27  C3  UNL     1      -5.994   7.896  15.665  1.00  0.00     0.007 C 
BRANCH  27  28
HETATM   28  C4  UNL     1      -6.364   6.404  15.699  1.00  0.00     0.035 C 
BRANCH  28  29
HETATM   29  C5  UNL     1      -7.747   6.053  15.117  1.00  0.00     0.154 C 
BRANCH  29  30
HETATM   30  O1  UNL     1      -8.512   5.415  16.151  1.00  0.00    -0.392 OA
HETATM   31  H10 UNL     1      -8.306   4.461  16.067  1.00  0.00     0.210 HD
ENDBRANCH  29  30
BRANCH  29  32
HETATM   32  C6  UNL     1      -7.781   5.169  13.840  1.00  0.00     0.101 C 
HETATM   33  C7  UNL     1      -8.893   5.650  12.893  1.00  0.00     0.051 C 
BRANCH  32  34
HETATM   34  O2  UNL     1      -8.135   3.823  14.217  1.00  0.00    -0.385 OA
HETATM   35  H14 UNL     1      -7.956   3.285  13.418  1.00  0.00     0.210 HD
ENDBRANCH  32  34
BRANCH  32  36
HETATM   36  C8  UNL     1      -6.425   5.133  13.109  1.00  0.00     0.204 C 
BRANCH  36  37
HETATM   37  O3  UNL     1      -6.085   3.775  12.806  1.00  0.00    -0.398 OA
HETATM   38  H17 UNL     1      -5.238   3.795  12.326  1.00  0.00     0.209 HD
ENDBRANCH  36  37
ENDBRANCH  32  36
ENDBRANCH  29  32
ENDBRANCH  28  29
ENDBRANCH  27  28
ENDBRANCH  25  27
ENDBRANCH   1  25
TORSDOF 9
ENDMDL
MODEL 4
REMARK minimizedAffinity -9.15335655
REMARK  9 active torsions:
REMARK  status: ('A' for Active; 'I' for Inactive)
REMARK    1  A    between atoms: C2_2  and  C3_3 
REMARK    2  A    between atoms: C2_2  and  C9_12 
REMARK    3  A    between atoms: C3_3  and  C4_4 
REMARK    4  A    between atoms: C4_4  and  C5_5 
REMARK    5  A    between atoms: C5_5  and  O1_6 
REMARK    6  A    between atoms: C5_5  and  C6_7 
REMARK    7  A    between atoms: C6_7  and  O2_9 
REMARK    8  A    between atoms: C6_7  and  C8_10 
REMARK    9  A    between atoms: C8_10  and  O3_11 
ROOT
HETATM    1  C9  UNL     1       0.690   7.273  13.276  1.00  0.00    -0.002 C 
HETATM    2  C10 UNL     1       0.818   6.011  12.373  1.00  0.00     0.007 C 
HETATM    3  C11 UNL     1      -0.565   5.341  12.309  1.00  0.00     0.015 C 
HETATM    4  C12 UNL     1      -1.372   5.984  13.450  1.00  0.00    -0.005 C 
HETATM    5  C13 UNL     1      -0.979   5.233  14.762  1.00  0.00     0.021 C 
HETATM    6  C14 UNL     1      -2.893   5.952  13.438  1.00  0.00    -0.000 C 
HETATM    7  C15 UNL     1      -3.646   6.935  13.992  1.00  0.00    -0.060 C 
HETATM    8  C16 UNL     1      -2.941   8.140  14.647  1.00  0.00     0.036 C 
HETATM    9  C17 UNL     1      -1.400   8.218  14.569  1.00  0.00     0.015 C 
HETATM   10  C18 UNL     1      -0.856   7.473  13.347  1.00  0.00    -0.028 C 
HETATM   11  C19 UNL     1      -1.339   8.203  12.054  1.00  0.00     0.016 C 
HETATM   12  C20 UNL     1      -5.211   6.980  13.925  1.00  0.00    -0.014 C 
HETATM   13  C21 UNL     1      -5.550   8.179  12.992  1.00  0.00     0.020 C 
HETATM   14  C22 UNL     1      -5.834   7.271  15.322  1.00  0.00     0.021 C 
HETATM   15  C23 UNL     1      -6.205   6.016  16.089  1.00  0.00     0.080 C 
HETATM   16  C24 UNL     1      -7.294   5.262  15.362  1.00  0.00     0.135 C 
HETATM   17  O4  UNL     1      -8.129   4.616  15.997  1.00  0.00    -0.297 OA
HETATM   18  C25 UNL     1      -7.312   5.326  13.827  1.00  0.00     0.018 C 
HETATM   19  C26 UNL     1      -8.377   6.355  13.402  1.00  0.00     0.023 C 
HETATM   20  C27 UNL     1      -7.802   3.958  13.294  1.00  0.00     0.023 C 
HETATM   21  C28 UNL     1      -5.869   5.679  13.286  1.00  0.00     0.020 C 
HETATM   22  C29 UNL     1      -4.944   4.458  13.393  1.00  0.00     0.090 C 
HETATM   23  C30 UNL     1      -3.573   4.760  12.875  1.00  0.00     0.157 C 
HETATM   24  O5  UNL     1      -3.017   4.002  12.085  1.00  0.00    -0.293 OA
ENDROOT
BRANCH   1  25
HETATM   25  C2  UNL     1       1.612   8.434  12.786  1.00  0.00    -0.014 C 
HETATM   26  C1  UNL     1       2.794   8.671  13.730  1.00  0.00     0.010 C 
BRANCH  25  27
HETATM   27  C3  UNL     1       2.131   8.135  11.349  1.00  0.00     0.007 C 
BRANCH  27  28
HETATM   28  C4  UNL     1       3.215   7.046  11.296  1.00  0.00     0.035 C 
BRANCH  28  29
HETATM   29  C5  UNL     1       3.781   6.743   9.895  1.00  0.00     0.154 C 
BRANCH  29  30
HETATM   30  O1  UNL     1       3.847   7.980   9.170  1.00  0.00    -0.392 OA
HETATM   31  H10 UNL     1       2.976   8.063   8.730  1.00  0.00     0.210 HD
ENDBRANCH  29  30
BRANCH  29  32
HETATM   32  C6  UNL     1       3.031   5.688   9.036  1.00  0.00     0.101 C 
HETATM   33  C7  UNL     1       2.549   6.323   7.720  1.00  0.00     0.051 C 
BRANCH  32  34
HETATM   34  O2  UNL     1       1.841   5.278   9.739  1.00  0.00    -0.385 OA
HETATM   35  H14 UNL     1       1.521   4.492   9.249  1.00  0.00     0.210 HD
ENDBRANCH  32  34
BRANCH  32  36
HETATM   36  C8  UNL     1       3.888   4.439   8.752  1.00  0.00     0.204 C 
BRANCH  36  37
HETATM   37  O3  UNL     1       3.474   3.373   9.614  1.00  0.00    -0.398 OA
HETATM   38  H17 UNL     1       4.019   2.598   9.390  1.00  0.00     0.209 HD
ENDBRANCH  36  37
ENDBRANCH  32  36
ENDBRANCH  29  32
ENDBRANCH  28  29
ENDBRANCH  27  28
ENDBRANCH  25  27
ENDBRANCH   1  25
TORSDOF 9
ENDMDL
MODEL 5
REMARK minimizedAffinity -9.10190678
REMARK  9 active torsions:
REMARK  status: ('A' for Active; 'I' for Inactive)
REMARK    1  A    between atoms: C2_2  and  C3_3 
REMARK    2  A    between atoms: C2_2  and  C9_12 
REMARK    3  A    between atoms: C3_3  and  C4_4 
REMARK    4  A    between atoms: C4_4  and  C5_5 
REMARK    5  A    between atoms: C5_5  and  O1_6 
REMARK    6  A    between atoms: C5_5  and  C6_7 
REMARK    7  A    between atoms: C6_7  and  O2_9 
REMARK    8  A    between atoms: C6_7  and  C8_10 
REMARK    9  A    between atoms: C8_10  and  O3_11 
ROOT
HETATM    1  C9  UNL     1      -1.926   7.225  12.546  1.00  0.00    -0.002 C 
HETATM    2  C10 UNL     1      -1.808   5.846  11.832  1.00  0.00     0.007 C 
HETATM    3  C11 UNL     1      -0.322   5.612  11.514  1.00  0.00     0.015 C 
HETATM    4  C12 UNL     1       0.345   6.986  11.693  1.00  0.00    -0.005 C 
HETATM    5  C13 UNL     1       0.104   7.784  10.373  1.00  0.00     0.021 C 
HETATM    6  C14 UNL     1       1.844   7.095  11.932  1.00  0.00    -0.000 C 
HETATM    7  C15 UNL     1       2.394   8.094  12.667  1.00  0.00    -0.060 C 
HETATM    8  C16 UNL     1       1.469   9.153  13.302  1.00  0.00     0.036 C 
HETATM    9  C17 UNL     1      -0.058   8.983  13.140  1.00  0.00     0.015 C 
HETATM   10  C18 UNL     1      -0.447   7.514  12.953  1.00  0.00    -0.028 C 
HETATM   11  C19 UNL     1      -0.114   6.732  14.262  1.00  0.00     0.016 C 
HETATM   12  C20 UNL     1       3.920   8.192  13.005  1.00  0.00    -0.014 C 
HETATM   13  C21 UNL     1       4.023   7.926  14.536  1.00  0.00     0.020 C 
HETATM   14  C22 UNL     1       4.475   9.621  12.731  1.00  0.00     0.021 C 
HETATM   15  C23 UNL     1       5.081   9.775  11.348  1.00  0.00     0.080 C 
HETATM   16  C24 UNL     1       6.295   8.888  11.207  1.00  0.00     0.135 C 
HETATM   17  O4  UNL     1       7.239   9.238  10.497  1.00  0.00    -0.297 OA
HETATM   18  C25 UNL     1       6.301   7.551  11.965  1.00  0.00     0.018 C 
HETATM   19  C26 UNL     1       7.148   7.726  13.240  1.00  0.00     0.023 C 
HETATM   20  C27 UNL     1       7.046   6.509  11.097  1.00  0.00     0.023 C 
HETATM   21  C28 UNL     1       4.818   7.100  12.273  1.00  0.00     0.020 C 
HETATM   22  C29 UNL     1       4.145   6.569  10.999  1.00  0.00     0.090 C 
HETATM   23  C30 UNL     1       2.741   6.121  11.263  1.00  0.00     0.157 C 
HETATM   24  O5  UNL     1       2.343   5.030  10.866  1.00  0.00    -0.293 OA
ENDROOT
BRANCH   1  25
HETATM   25  C2  UNL     1      -3.054   7.226  13.625  1.00  0.00    -0.014 C 
HETATM   26  C1  UNL     1      -3.579   8.637  13.911  1.00  0.00     0.010 C 
BRANCH  25  27
HETATM   27  C3  UNL     1      -4.225   6.304  13.176  1.00  0.00     0.007 C 
BRANCH  27  28
HETATM   28  C4  UNL     1      -4.846   5.488  14.322  1.00  0.00     0.035 C 
BRANCH  28  29
HETATM   29  C5  UNL     1      -6.157   6.054  14.901  1.00  0.00     0.154 C 
BRANCH  29  30
HETATM   30  O1  UNL     1      -5.980   6.217  16.316  1.00  0.00    -0.392 OA
HETATM   31  H10 UNL     1      -6.252   5.362  16.707  1.00  0.00     0.210 HD
ENDBRANCH  29  30
BRANCH  29  32
HETATM   32  C6  UNL     1      -7.459   5.247  14.641  1.00  0.00     0.101 C 
HETATM   33  C7  UNL     1      -8.543   6.167  14.055  1.00  0.00     0.051 C 
BRANCH  32  34
HETATM   34  O2  UNL     1      -7.975   4.779  15.904  1.00  0.00    -0.385 OA
HETATM   35  H14 UNL     1      -8.670   4.132  15.665  1.00  0.00     0.210 HD
ENDBRANCH  32  34
BRANCH  32  36
HETATM   36  C8  UNL     1      -7.228   4.029  13.725  1.00  0.00     0.204 C 
BRANCH  36  37
HETATM   37  O3  UNL     1      -8.484   3.403  13.441  1.00  0.00    -0.398 OA
HETATM   38  H17 UNL     1      -8.300   2.656  12.844  1.00  0.00     0.209 HD
ENDBRANCH  36  37
ENDBRANCH  32  36
ENDBRANCH  29  32
ENDBRANCH  28  29
ENDBRANCH  27  28
ENDBRANCH  25  27
ENDBRANCH   1  25
TORSDOF 9
ENDMDL
MODEL 6
REMARK minimizedAffinity -9.06997585
REMARK  9 active torsions:
REMARK  status: ('A' for Active; 'I' for Inactive)
REMARK    1  A    between atoms: C2_2  and  C3_3 
REMARK    2  A    between atoms: C2_2  and  C9_12 
REMARK    3  A    between atoms: C3_3  and  C4_4 
REMARK    4  A    between atoms: C4_4  and  C5_5 
REMARK    5  A    between atoms: C5_5  and  O1_6 
REMARK    6  A    between atoms: C5_5  and  C6_7 
REMARK    7  A    between atoms: C6_7  and  O2_9 
REMARK    8  A    between atoms: C6_7  and  C8_10 
REMARK    9  A    between atoms: C8_10  and  O3_11 
ROOT
HETATM    1  C9  UNL     1      -1.741   6.516  12.314  1.00  0.00    -0.002 C 
HETATM    2  C10 UNL     1      -1.493   5.188  11.538  1.00  0.00     0.007 C 
HETATM    3  C11 UNL     1       0.007   5.113  11.209  1.00  0.00     0.015 C 
HETATM    4  C12 UNL     1       0.539   6.536  11.451  1.00  0.00    -0.005 C 
HETATM    5  C13 UNL     1       0.215   7.366  10.168  1.00  0.00     0.021 C 
HETATM    6  C14 UNL     1       2.022   6.779  11.694  1.00  0.00    -0.000 C 
HETATM    7  C15 UNL     1       2.476   7.792  12.473  1.00  0.00    -0.060 C 
HETATM    8  C16 UNL     1       1.455   8.727  13.156  1.00  0.00     0.036 C 
HETATM    9  C17 UNL     1      -0.049   8.417  12.987  1.00  0.00     0.015 C 
HETATM   10  C18 UNL     1      -0.295   6.927  12.733  1.00  0.00    -0.028 C 
HETATM   11  C19 UNL     1       0.119   6.123  14.006  1.00  0.00     0.016 C 
HETATM   12  C20 UNL     1       3.987   8.022  12.815  1.00  0.00    -0.014 C 
HETATM   13  C21 UNL     1       4.122   7.699  14.332  1.00  0.00     0.020 C 
HETATM   14  C22 UNL     1       4.399   9.509  12.606  1.00  0.00     0.021 C 
HETATM   15  C23 UNL     1       4.981   9.784  11.231  1.00  0.00     0.080 C 
HETATM   16  C24 UNL     1       6.274   9.025  11.050  1.00  0.00     0.135 C 
HETATM   17  O4  UNL     1       7.176   9.497  10.356  1.00  0.00    -0.297 OA
HETATM   18  C25 UNL     1       6.413   7.663  11.746  1.00  0.00     0.018 C 
HETATM   19  C26 UNL     1       7.245   7.861  13.027  1.00  0.00     0.023 C 
HETATM   20  C27 UNL     1       7.252   6.738  10.830  1.00  0.00     0.023 C 
HETATM   21  C28 UNL     1       4.982   7.057  12.033  1.00  0.00     0.020 C 
HETATM   22  C29 UNL     1       4.358   6.521  10.737  1.00  0.00     0.090 C 
HETATM   23  C30 UNL     1       3.005   5.928  10.981  1.00  0.00     0.157 C 
HETATM   24  O5  UNL     1       2.712   4.822  10.534  1.00  0.00    -0.293 OA
ENDROOT
BRANCH   1  25
HETATM   25  C2  UNL     1      -2.858   6.358  13.393  1.00  0.00    -0.014 C 
HETATM   26  C1  UNL     1      -4.040   7.300  13.142  1.00  0.00     0.010 C 
BRANCH  25  27
HETATM   27  C3  UNL     1      -3.355   4.883  13.438  1.00  0.00     0.007 C 
BRANCH  27  28
HETATM   28  C4  UNL     1      -4.189   4.472  12.214  1.00  0.00     0.035 C 
BRANCH  28  29
HETATM   29  C5  UNL     1      -4.514   2.970  12.110  1.00  0.00     0.154 C 
BRANCH  29  30
HETATM   30  O1  UNL     1      -3.514   2.357  11.283  1.00  0.00    -0.392 OA
HETATM   31  H10 UNL     1      -3.861   2.430  10.370  1.00  0.00     0.210 HD
ENDBRANCH  29  30
BRANCH  29  32
HETATM   32  C6  UNL     1      -5.922   2.579  11.581  1.00  0.00     0.101 C 
HETATM   33  C7  UNL     1      -5.961   1.080  11.239  1.00  0.00     0.051 C 
BRANCH  32  34
HETATM   34  O2  UNL     1      -6.161   3.276  10.342  1.00  0.00    -0.385 OA
HETATM   35  H14 UNL     1      -7.114   3.142  10.160  1.00  0.00     0.210 HD
ENDBRANCH  32  34
BRANCH  32  36
HETATM   36  C8  UNL     1      -7.047   2.939  12.570  1.00  0.00     0.204 C 
BRANCH  36  37
HETATM   37  O3  UNL     1      -7.979   1.854  12.645  1.00  0.00    -0.398 OA
HETATM   38  H17 UNL     1      -8.659   2.108  13.295  1.00  0.00     0.209 HD
ENDBRANCH  36  37
ENDBRANCH  32  36
ENDBRANCH  29  32
ENDBRANCH  28  29
ENDBRANCH  27  28
ENDBRANCH  25  27
ENDBRANCH   1  25
TORSDOF 9
ENDMDL
MODEL 7
REMARK minimizedAffinity -8.97309589
REMARK  9 active torsions:
REMARK  status: ('A' for Active; 'I' for Inactive)
REMARK    1  A    between atoms: C2_2  and  C3_3 
REMARK    2  A    between atoms: C2_2  and  C9_12 
REMARK    3  A    between atoms: C3_3  and  C4_4 
REMARK    4  A    between atoms: C4_4  and  C5_5 
REMARK    5  A    between atoms: C5_5  and  O1_6 
REMARK    6  A    between atoms: C5_5  and  C6_7 
REMARK    7  A    between atoms: C6_7  and  O2_9 
REMARK    8  A    between atoms: C6_7  and  C8_10 
REMARK    9  A    between atoms: C8_10  and  O3_11 
ROOT
HETATM    1  C9  UNL     1      -3.452   6.250  14.515  1.00  0.00    -0.002 C 
HETATM    2  C10 UNL     1      -2.928   7.214  15.620  1.00  0.00     0.007 C 
HETATM    3  C11 UNL     1      -1.527   7.690  15.198  1.00  0.00     0.015 C 
HETATM    4  C12 UNL     1      -1.103   6.729  14.074  1.00  0.00    -0.005 C 
HETATM    5  C13 UNL     1      -0.547   5.443  14.763  1.00  0.00     0.021 C 
HETATM    6  C14 UNL     1      -0.018   7.127  13.084  1.00  0.00    -0.000 C 
HETATM    7  C15 UNL     1      -0.005   6.684  11.802  1.00  0.00    -0.060 C 
HETATM    8  C16 UNL     1      -1.139   5.756  11.318  1.00  0.00     0.036 C 
HETATM    9  C17 UNL     1      -2.290   5.436  12.297  1.00  0.00     0.015 C 
HETATM   10  C18 UNL     1      -2.483   6.550  13.329  1.00  0.00    -0.028 C 
HETATM   11  C19 UNL     1      -2.958   7.843  12.593  1.00  0.00     0.016 C 
HETATM   12  C20 UNL     1       1.045   7.136  10.731  1.00  0.00    -0.014 C 
HETATM   13  C21 UNL     1       0.248   8.001   9.710  1.00  0.00     0.020 C 
HETATM   14  C22 UNL     1       1.639   5.919   9.964  1.00  0.00     0.021 C 
HETATM   15  C23 UNL     1       2.931   5.399  10.569  1.00  0.00     0.080 C 
HETATM   16  C24 UNL     1       4.014   6.448  10.470  1.00  0.00     0.135 C 
HETATM   17  O4  UNL     1       5.190   6.111  10.328  1.00  0.00    -0.297 OA
HETATM   18  C25 UNL     1       3.597   7.923  10.560  1.00  0.00     0.018 C 
HETATM   19  C26 UNL     1       3.550   8.498   9.131  1.00  0.00     0.023 C 
HETATM   20  C27 UNL     1       4.719   8.697  11.295  1.00  0.00     0.023 C 
HETATM   21  C28 UNL     1       2.213   8.047  11.314  1.00  0.00     0.020 C 
HETATM   22  C29 UNL     1       2.405   7.833  12.823  1.00  0.00     0.090 C 
HETATM   23  C30 UNL     1       1.112   7.958  13.566  1.00  0.00     0.157 C 
HETATM   24  O5  UNL     1       1.029   8.655  14.573  1.00  0.00    -0.293 OA
ENDROOT
BRANCH   1  25
HETATM   25  C2  UNL     1      -4.996   6.375  14.320  1.00  0.00    -0.014 C 
HETATM   26  C1  UNL     1      -5.530   5.380  13.285  1.00  0.00     0.010 C 
BRANCH  25  27
HETATM   27  C3  UNL     1      -5.725   6.169  15.680  1.00  0.00     0.007 C 
BRANCH  27  28
HETATM   28  C4  UNL     1      -6.613   7.354  16.093  1.00  0.00     0.035 C 
BRANCH  28  29
HETATM   29  C5  UNL     1      -7.681   7.771  15.063  1.00  0.00     0.154 C 
BRANCH  29  30
HETATM   30  O1  UNL     1      -7.656   9.202  14.956  1.00  0.00    -0.392 OA
HETATM   31  H10 UNL     1      -8.283   9.519  15.638  1.00  0.00     0.210 HD
ENDBRANCH  29  30
BRANCH  29  32
HETATM   32  C6  UNL     1      -9.140   7.305  15.320  1.00  0.00     0.101 C 
HETATM   33  C7  UNL     1      -9.905   8.376  16.116  1.00  0.00     0.051 C 
BRANCH  32  34
HETATM   34  O2  UNL     1      -9.112   6.132  16.158  1.00  0.00    -0.385 OA
HETATM   35  H14 UNL     1     -10.026   5.781  16.127  1.00  0.00     0.210 HD
ENDBRANCH  32  34
BRANCH  32  36
HETATM   36  C8  UNL     1      -9.889   6.959  14.018  1.00  0.00     0.204 C 
BRANCH  36  37
HETATM   37  O3  UNL     1      -9.407   5.710  13.510  1.00  0.00    -0.398 OA
HETATM   38  H17 UNL     1      -9.918   5.515  12.705  1.00  0.00     0.209 HD
ENDBRANCH  36  37
ENDBRANCH  32  36
ENDBRANCH  29  32
ENDBRANCH  28  29
ENDBRANCH  27  28
ENDBRANCH  25  27
ENDBRANCH   1  25
TORSDOF 9
ENDMDL
MODEL 8
REMARK minimizedAffinity -8.87461567
REMARK  9 active torsions:
REMARK  status: ('A' for Active; 'I' for Inactive)
REMARK    1  A    between atoms: C2_2  and  C3_3 
REMARK    2  A    between atoms: C2_2  and  C9_12 
REMARK    3  A    between atoms: C3_3  and  C4_4 
REMARK    4  A    between atoms: C4_4  and  C5_5 
REMARK    5  A    between atoms: C5_5  and  O1_6 
REMARK    6  A    between atoms: C5_5  and  C6_7 
REMARK    7  A    between atoms: C6_7  and  O2_9 
REMARK    8  A    between atoms: C6_7  and  C8_10 
REMARK    9  A    between atoms: C8_10  and  O3_11 
ROOT
HETATM    1  C9  UNL     1      -2.050   5.119  13.076  1.00  0.00    -0.002 C 
HETATM    2  C10 UNL     1      -3.519   5.190  12.566  1.00  0.00     0.007 C 
HETATM    3  C11 UNL     1      -4.154   6.464  13.147  1.00  0.00     0.015 C 
HETATM    4  C12 UNL     1      -3.198   6.909  14.267  1.00  0.00    -0.005 C 
HETATM    5  C13 UNL     1      -3.549   6.060  15.529  1.00  0.00     0.021 C 
HETATM    6  C14 UNL     1      -3.204   8.347  14.765  1.00  0.00    -0.000 C 
HETATM    7  C15 UNL     1      -2.090   8.957  15.243  1.00  0.00    -0.060 C 
HETATM    8  C16 UNL     1      -0.761   8.175  15.270  1.00  0.00     0.036 C 
HETATM    9  C17 UNL     1      -0.737   6.751  14.671  1.00  0.00     0.015 C 
HETATM   10  C18 UNL     1      -1.810   6.571  13.594  1.00  0.00    -0.028 C 
HETATM   11  C19 UNL     1      -1.470   7.498  12.384  1.00  0.00     0.016 C 
HETATM   12  C20 UNL     1      -2.038  10.459  15.685  1.00  0.00    -0.014 C 
HETATM   13  C21 UNL     1      -1.149  11.171  14.624  1.00  0.00     0.020 C 
HETATM   14  C22 UNL     1      -1.348  10.622  17.071  1.00  0.00     0.021 C 
HETATM   15  C23 UNL     1      -2.325  10.629  18.232  1.00  0.00     0.080 C 
HETATM   16  C24 UNL     1      -3.235  11.832  18.142  1.00  0.00     0.135 C 
HETATM   17  O4  UNL     1      -3.657  12.366  19.169  1.00  0.00    -0.297 OA
HETATM   18  C25 UNL     1      -3.612  12.345  16.745  1.00  0.00     0.018 C 
HETATM   19  C26 UNL     1      -2.728  13.567  16.428  1.00  0.00     0.023 C 
HETATM   20  C27 UNL     1      -5.066  12.873  16.802  1.00  0.00     0.023 C 
HETATM   21  C28 UNL     1      -3.454  11.185  15.684  1.00  0.00     0.020 C 
HETATM   22  C29 UNL     1      -4.610  10.182  15.812  1.00  0.00     0.090 C 
HETATM   23  C30 UNL     1      -4.495   9.077  14.809  1.00  0.00     0.157 C 
HETATM   24  O5  UNL     1      -5.457   8.747  14.122  1.00  0.00    -0.293 OA
ENDROOT
BRANCH   1  25
HETATM   25  C2  UNL     1      -1.094   4.496  12.010  1.00  0.00    -0.014 C 
HETATM   26  C1  UNL     1      -1.862   3.812  10.875  1.00  0.00     0.010 C 
BRANCH  25  27
HETATM   27  C3  UNL     1      -0.153   5.592  11.429  1.00  0.00     0.007 C 
BRANCH  27  28
HETATM   28  C4  UNL     1       1.337   5.342  11.711  1.00  0.00     0.035 C 
BRANCH  28  29
HETATM   29  C5  UNL     1       2.246   5.288  10.467  1.00  0.00     0.154 C 
BRANCH  29  30
HETATM   30  O1  UNL     1       2.685   3.932  10.300  1.00  0.00    -0.392 OA
HETATM   31  H10 UNL     1       3.508   3.865  10.825  1.00  0.00     0.210 HD
ENDBRANCH  29  30
BRANCH  29  32
HETATM   32  C6  UNL     1       3.481   6.230  10.444  1.00  0.00     0.101 C 
HETATM   33  C7  UNL     1       3.390   7.193   9.248  1.00  0.00     0.051 C 
BRANCH  32  34
HETATM   34  O2  UNL     1       4.665   5.436  10.226  1.00  0.00    -0.385 OA
HETATM   35  H14 UNL     1       5.411   6.045  10.409  1.00  0.00     0.210 HD
ENDBRANCH  32  34
BRANCH  32  36
HETATM   36  C8  UNL     1       3.653   7.014  11.759  1.00  0.00     0.204 C 
BRANCH  36  37
HETATM   37  O3  UNL     1       4.945   6.740  12.311  1.00  0.00    -0.398 OA
HETATM   38  H17 UNL     1       5.025   7.269  13.124  1.00  0.00     0.209 HD
ENDBRANCH  36  37
ENDBRANCH  32  36
ENDBRANCH  29  32
ENDBRANCH  28  29
ENDBRANCH  27  28
ENDBRANCH  25  27
ENDBRANCH   1  25
TORSDOF 9
ENDMDL
MODEL 9
REMARK minimizedAffinity -8.85182953
REMARK  9 active torsions:
REMARK  status: ('A' for Active; 'I' for Inactive)
REMARK    1  A    between atoms: C2_2  and  C3_3 
REMARK    2  A    between atoms: C2_2  and  C9_12 
REMARK    3  A    between atoms: C3_3  and  C4_4 
REMARK    4  A    between atoms: C4_4  and  C5_5 
REMARK    5  A    between atoms: C5_5  and  O1_6 
REMARK    6  A    between atoms: C5_5  and  C6_7 
REMARK    7  A    between atoms: C6_7  and  O2_9 
REMARK    8  A    between atoms: C6_7  and  C8_10 
REMARK    9  A    between atoms: C8_10  and  O3_11 
ROOT
HETATM    1  C9  UNL     1      -2.668   5.404  12.516  1.00  0.00    -0.002 C 
HETATM    2  C10 UNL     1      -1.473   4.680  13.204  1.00  0.00     0.007 C 
HETATM    3  C11 UNL     1      -0.892   5.637  14.259  1.00  0.00     0.015 C 
HETATM    4  C12 UNL     1      -1.492   7.013  13.921  1.00  0.00    -0.005 C 
HETATM    5  C13 UNL     1      -0.623   7.618  12.774  1.00  0.00     0.021 C 
HETATM    6  C14 UNL     1      -1.551   8.112  14.971  1.00  0.00    -0.000 C 
HETATM    7  C15 UNL     1      -2.531   9.050  14.990  1.00  0.00    -0.060 C 
HETATM    8  C16 UNL     1      -3.640   8.996  13.920  1.00  0.00     0.036 C 
HETATM    9  C17 UNL     1      -3.633   7.821  12.917  1.00  0.00     0.015 C 
HETATM   10  C18 UNL     1      -2.952   6.580  13.502  1.00  0.00    -0.028 C 
HETATM   11  C19 UNL     1      -3.806   6.053  14.698  1.00  0.00     0.016 C 
HETATM   12  C20 UNL     1      -2.673  10.144  16.102  1.00  0.00    -0.014 C 
HETATM   13  C21 UNL     1      -3.957   9.763  16.896  1.00  0.00     0.020 C 
HETATM   14  C22 UNL     1      -2.894  11.557  15.488  1.00  0.00     0.021 C 
HETATM   15  C23 UNL     1      -1.607  12.341  15.306  1.00  0.00     0.080 C 
HETATM   16  C24 UNL     1      -0.976  12.630  16.647  1.00  0.00     0.135 C 
HETATM   17  O4  UNL     1      -0.333  13.667  16.819  1.00  0.00    -0.297 OA
HETATM   18  C25 UNL     1      -1.157  11.592  17.765  1.00  0.00     0.018 C 
HETATM   19  C26 UNL     1      -2.275  12.086  18.703  1.00  0.00     0.023 C 
HETATM   20  C27 UNL     1       0.136  11.571  18.617  1.00  0.00     0.023 C 
HETATM   21  C28 UNL     1      -1.465  10.174  17.139  1.00  0.00     0.020 C 
HETATM   22  C29 UNL     1      -0.188   9.562  16.546  1.00  0.00     0.090 C 
HETATM   23  C30 UNL     1      -0.446   8.210  15.957  1.00  0.00     0.157 C 
HETATM   24  O5  UNL     1       0.281   7.258  16.222  1.00  0.00    -0.293 OA
ENDROOT
BRANCH   1  25
HETATM   25  C2  UNL     1      -3.807   4.408  12.132  1.00  0.00    -0.014 C 
HETATM   26  C1  UNL     1      -3.280   2.987  11.906  1.00  0.00     0.010 C 
BRANCH  25  27
HETATM   27  C3  UNL     1      -4.905   4.398  13.236  1.00  0.00     0.007 C 
BRANCH  27  28
HETATM   28  C4  UNL     1      -6.339   4.357  12.683  1.00  0.00     0.035 C 
BRANCH  28  29
HETATM   29  C5  UNL     1      -7.457   4.459  13.738  1.00  0.00     0.154 C 
BRANCH  29  30
HETATM   30  O1  UNL     1      -8.531   3.599  13.328  1.00  0.00    -0.392 OA
HETATM   31  H10 UNL     1      -9.102   4.157  12.762  1.00  0.00     0.210 HD
ENDBRANCH  29  30
BRANCH  29  32
HETATM   32  C6  UNL     1      -8.026   5.873  14.041  1.00  0.00     0.101 C 
HETATM   33  C7  UNL     1      -9.271   6.139  13.179  1.00  0.00     0.051 C 
BRANCH  32  34
HETATM   34  O2  UNL     1      -7.051   6.859  13.645  1.00  0.00    -0.385 OA
HETATM   35  H14 UNL     1      -7.377   7.700  14.028  1.00  0.00     0.210 HD
ENDBRANCH  32  34
BRANCH  32  36
HETATM   36  C8  UNL     1      -8.348   6.074  15.535  1.00  0.00     0.204 C 
BRANCH  36  37
HETATM   37  O3  UNL     1      -8.333   4.806  16.199  1.00  0.00    -0.398 OA
HETATM   38  H17 UNL     1      -8.516   4.976  17.140  1.00  0.00     0.209 HD
ENDBRANCH  36  37
ENDBRANCH  32  36
ENDBRANCH  29  32
ENDBRANCH  28  29
ENDBRANCH  27  28
ENDBRANCH  25  27
ENDBRANCH   1  25
TORSDOF 9
ENDMDL
