MODEL 1
REMARK minimizedAffinity -7.94516373
REMARK  7 active torsions:
REMARK  status: ('A' for Active; 'I' for Inactive)
REMARK       I    between atoms: C1_2  and  N1_3 
REMARK    1  A    between atoms: C1_2  and  C8_12 
REMARK    2  A    between atoms: N1_3  and  C2_4 
REMARK    3  A    between atoms: C2_4  and  C3_5 
REMARK    4  A    between atoms: C14_19  and  C15_20 
REMARK    5  A    between atoms: C15_20  and  N4_21 
REMARK    6  A    between atoms: C17_23  and  C18_24 
REMARK    7  A    between atoms: C18_24  and  C19_25 
ROOT
HETATM    1  C8  UNL     1      12.829  34.163  18.865  1.00  0.00     0.110 C 
HETATM    2  C9  UNL     1      12.624  35.474  18.085  1.00  0.00     0.287 C 
HETATM    3  N3  UNL     1      13.914  36.201  17.921  1.00  0.00     0.095 N 
HETATM    4  C10 UNL     1      14.349  36.662  19.257  1.00  0.00     0.273 C 
HETATM    5  C11 UNL     1      14.498  35.496  20.243  1.00  0.00     0.036 C 
HETATM    6  C12 UNL     1      14.234  34.169  19.511  1.00  0.00     0.004 C 
HETATM    7  C13 UNL     1      15.257  34.133  18.354  1.00  0.00     0.043 C 
HETATM    8  C14 UNL     1      14.912  35.247  17.332  1.00  0.00     0.242 C 
ENDROOT
BRANCH   8   9
HETATM    9  C15 UNL     1      16.187  35.924  16.793  1.00  0.00     0.181 C 
BRANCH   9  10
HETATM   10  N4  UNL     1      16.431  35.623  15.400  1.00  0.00    -0.283 N 
HETATM   11  C16 UNL     1      17.623  35.397  14.781  1.00  0.00     0.134 A 
HETATM   12  C17 UNL     1      17.272  35.128  13.477  1.00  0.00     0.041 A 
HETATM   13  N5  UNL     1      15.908  35.189  13.357  1.00  0.00    -0.287 N 
HETATM   14  N6  UNL     1      15.401  35.486  14.546  1.00  0.00    -0.020 NA
ATOM     15  H5  UNL     1      15.375  35.034  12.501  1.00  0.00     0.184 HD
BRANCH  12  16
HETATM   16  C18 UNL     1      18.133  34.816  12.307  1.00  0.00     0.064 C 
BRANCH  16  17
HETATM   17  C19 UNL     1      17.755  33.499  11.604  1.00  0.00    -0.009 C 
HETATM   18  C20 UNL     1      17.681  32.359  12.635  1.00  0.00     0.005 C 
HETATM   19  C21 UNL     1      17.346  31.020  11.980  1.00  0.00     0.000 C 
HETATM   20  C22 UNL     1      18.329  30.680  10.866  1.00  0.00     0.000 C 
HETATM   21  C23 UNL     1      18.411  31.799   9.833  1.00  0.00     0.000 C 
HETATM   22  C24 UNL     1      18.746  33.142  10.482  1.00  0.00     0.005 C 
ENDBRANCH  16  17
ENDBRANCH  12  16
ENDBRANCH   9  10
ENDBRANCH   8   9
BRANCH   1  23
HETATM   23  C1  UNL     1      11.702  33.826  19.832  1.00  0.00     0.224 C 
HETATM   24  O1  UNL     1      11.420  32.657  20.088  1.00  0.00    -0.273 OA
HETATM   25  N1  UNL     1      11.057  34.882  20.428  1.00  0.00    -0.356 N 
HETATM   26  H1  UNL     1      11.188  35.814  20.063  1.00  0.00     0.162 HD
BRANCH  25  27
HETATM   27  C2  UNL     1       9.906  34.678  21.283  1.00  0.00     0.162 C 
BRANCH  27  28
HETATM   28  C3  UNL     1       8.635  34.958  20.541  1.00  0.00    -0.025 A 
HETATM   29  C4  UNL     1       8.541  35.992  19.605  1.00  0.00     0.011 A 
HETATM   30  C5  UNL     1       7.346  36.199  18.923  1.00  0.00     0.018 A 
HETATM   31  C6  UNL     1       6.281  35.358  19.193  1.00  0.00     0.087 A 
HETATM   32  N2  UNL     1       6.336  34.342  20.081  1.00  0.00    -0.375 N 
HETATM   33  C7  UNL     1       7.509  34.163  20.732  1.00  0.00     0.096 A 
ATOM     34  H2  UNL     1       5.532  33.738  20.254  1.00  0.00     0.164 HD
ENDBRANCH  27  28
ENDBRANCH  25  27
ENDBRANCH   1  23
TORSDOF 7
ENDMDL
MODEL 2
REMARK minimizedAffinity -7.67281914
REMARK  7 active torsions:
REMARK  status: ('A' for Active; 'I' for Inactive)
REMARK       I    between atoms: C1_2  and  N1_3 
REMARK    1  A    between atoms: C1_2  and  C8_12 
REMARK    2  A    between atoms: N1_3  and  C2_4 
REMARK    3  A    between atoms: C2_4  and  C3_5 
REMARK    4  A    between atoms: C14_19  and  C15_20 
REMARK    5  A    between atoms: C15_20  and  N4_21 
REMARK    6  A    between atoms: C17_23  and  C18_24 
REMARK    7  A    between atoms: C18_24  and  C19_25 
ROOT
HETATM    1  C8  UNL     1      11.834  35.063  17.826  1.00  0.00     0.110 C 
HETATM    2  C9  UNL     1      12.445  36.133  16.904  1.00  0.00     0.287 C 
HETATM    3  N3  UNL     1      13.905  36.286  17.163  1.00  0.00     0.095 N 
HETATM    4  C10 UNL     1      14.068  36.866  18.513  1.00  0.00     0.273 C 
HETATM    5  C11 UNL     1      13.407  35.996  19.592  1.00  0.00     0.036 C 
HETATM    6  C12 UNL     1      12.844  34.719  18.946  1.00  0.00     0.004 C 
HETATM    7  C13 UNL     1      14.053  34.042  18.263  1.00  0.00     0.043 C 
HETATM    8  C14 UNL     1      14.535  34.926  17.083  1.00  0.00     0.242 C 
ENDROOT
BRANCH   8   9
HETATM    9  C15 UNL     1      16.073  34.950  16.996  1.00  0.00     0.181 C 
BRANCH   9  10
HETATM   10  N4  UNL     1      16.551  35.089  15.639  1.00  0.00    -0.283 N 
HETATM   11  C16 UNL     1      17.720  34.638  15.105  1.00  0.00     0.134 A 
HETATM   12  C17 UNL     1      17.645  35.012  13.781  1.00  0.00     0.041 A 
HETATM   13  N5  UNL     1      16.454  35.654  13.563  1.00  0.00    -0.287 N 
HETATM   14  N6  UNL     1      15.787  35.688  14.708  1.00  0.00    -0.020 NA
ATOM     15  H5  UNL     1      16.136  36.038  12.673  1.00  0.00     0.184 HD
BRANCH  12  16
HETATM   16  C18 UNL     1      18.625  34.816  12.682  1.00  0.00     0.064 C 
BRANCH  16  17
HETATM   17  C19 UNL     1      18.602  33.394  12.090  1.00  0.00    -0.009 C 
HETATM   18  C20 UNL     1      17.213  32.765  12.292  1.00  0.00     0.005 C 
HETATM   19  C21 UNL     1      17.150  31.338  11.755  1.00  0.00     0.000 C 
HETATM   20  C22 UNL     1      18.235  30.460  12.368  1.00  0.00     0.000 C 
HETATM   21  C23 UNL     1      19.620  31.068  12.174  1.00  0.00     0.000 C 
HETATM   22  C24 UNL     1      19.689  32.497  12.709  1.00  0.00     0.005 C 
ENDBRANCH  16  17
ENDBRANCH  12  16
ENDBRANCH   9  10
ENDBRANCH   8   9
BRANCH   1  23
HETATM   23  C1  UNL     1      10.436  35.396  18.331  1.00  0.00     0.224 C 
HETATM   24  O1  UNL     1       9.474  35.402  17.565  1.00  0.00    -0.273 OA
HETATM   25  N1  UNL     1      10.302  35.640  19.676  1.00  0.00    -0.356 N 
HETATM   26  H1  UNL     1      11.126  35.805  20.235  1.00  0.00     0.162 HD
BRANCH  25  27
HETATM   27  C2  UNL     1       9.039  36.065  20.243  1.00  0.00     0.162 C 
BRANCH  27  28
HETATM   28  C3  UNL     1       8.783  35.374  21.549  1.00  0.00    -0.025 A 
HETATM   29  C4  UNL     1       9.640  34.383  22.038  1.00  0.00     0.011 A 
HETATM   30  C5  UNL     1       9.374  33.786  23.267  1.00  0.00     0.018 A 
HETATM   31  C6  UNL     1       8.260  34.206  23.973  1.00  0.00     0.087 A 
HETATM   32  N2  UNL     1       7.417  35.167  23.539  1.00  0.00    -0.375 N 
HETATM   33  C7  UNL     1       7.697  35.730  22.342  1.00  0.00     0.096 A 
ATOM     34  H2  UNL     1       6.606  35.454  24.088  1.00  0.00     0.164 HD
ENDBRANCH  27  28
ENDBRANCH  25  27
ENDBRANCH   1  23
TORSDOF 7
ENDMDL
MODEL 3
REMARK minimizedAffinity -7.54549789
REMARK  7 active torsions:
REMARK  status: ('A' for Active; 'I' for Inactive)
REMARK       I    between atoms: C1_2  and  N1_3 
REMARK    1  A    between atoms: C1_2  and  C8_12 
REMARK    2  A    between atoms: N1_3  and  C2_4 
REMARK    3  A    between atoms: C2_4  and  C3_5 
REMARK    4  A    between atoms: C14_19  and  C15_20 
REMARK    5  A    between atoms: C15_20  and  N4_21 
REMARK    6  A    between atoms: C17_23  and  C18_24 
REMARK    7  A    between atoms: C18_24  and  C19_25 
ROOT
HETATM    1  C8  UNL     1      11.570  35.962  18.314  1.00  0.00     0.110 C 
HETATM    2  C9  UNL     1      12.417  36.337  19.542  1.00  0.00     0.287 C 
HETATM    3  N3  UNL     1      13.860  36.052  19.298  1.00  0.00     0.095 N 
HETATM    4  C10 UNL     1      14.025  34.586  19.203  1.00  0.00     0.273 C 
HETATM    5  C11 UNL     1      13.151  33.983  18.094  1.00  0.00     0.036 C 
HETATM    6  C12 UNL     1      12.425  35.113  17.345  1.00  0.00     0.004 C 
HETATM    7  C13 UNL     1      13.545  36.035  16.814  1.00  0.00     0.043 C 
HETATM    8  C14 UNL     1      14.253  36.720  18.013  1.00  0.00     0.242 C 
ENDROOT
BRANCH   8   9
HETATM    9  C15 UNL     1      15.774  36.805  17.788  1.00  0.00     0.181 C 
BRANCH   9  10
HETATM   10  N4  UNL     1      16.122  36.990  16.397  1.00  0.00    -0.283 N 
HETATM   11  C16 UNL     1      16.847  36.166  15.591  1.00  0.00     0.134 A 
HETATM   12  C17 UNL     1      16.840  36.806  14.371  1.00  0.00     0.041 A 
HETATM   13  N5  UNL     1      16.118  37.966  14.478  1.00  0.00    -0.287 N 
HETATM   14  N6  UNL     1      15.675  38.065  15.724  1.00  0.00    -0.020 NA
ATOM     15  H5  UNL     1      15.951  38.638  13.728  1.00  0.00     0.184 HD
BRANCH  12  16
HETATM   16  C18 UNL     1      17.475  36.411  13.088  1.00  0.00     0.064 C 
BRANCH  16  17
HETATM   17  C19 UNL     1      17.720  34.896  12.969  1.00  0.00    -0.009 C 
HETATM   18  C20 UNL     1      19.097  34.637  12.331  1.00  0.00     0.005 C 
HETATM   19  C21 UNL     1      19.372  33.145  12.156  1.00  0.00     0.000 C 
HETATM   20  C22 UNL     1      18.268  32.461  11.357  1.00  0.00     0.000 C 
HETATM   21  C23 UNL     1      16.897  32.706  11.978  1.00  0.00     0.000 C 
HETATM   22  C24 UNL     1      16.615  34.197  12.156  1.00  0.00     0.005 C 
ENDBRANCH  16  17
ENDBRANCH  12  16
ENDBRANCH   9  10
ENDBRANCH   8   9
BRANCH   1  23
HETATM   23  C1  UNL     1      10.217  35.348  18.650  1.00  0.00     0.224 C 
HETATM   24  O1  UNL     1       9.321  35.299  17.809  1.00  0.00    -0.273 OA
HETATM   25  N1  UNL     1      10.069  34.819  19.909  1.00  0.00    -0.356 N 
HETATM   26  H1  UNL     1      10.750  35.036  20.622  1.00  0.00     0.162 HD
BRANCH  25  27
HETATM   27  C2  UNL     1       8.795  34.304  20.366  1.00  0.00     0.162 C 
BRANCH  27  28
HETATM   28  C3  UNL     1       8.510  34.754  21.766  1.00  0.00    -0.025 A 
HETATM   29  C4  UNL     1       9.274  34.312  22.851  1.00  0.00     0.011 A 
HETATM   30  C5  UNL     1       8.987  34.777  24.131  1.00  0.00     0.018 A 
HETATM   31  C6  UNL     1       7.947  35.677  24.286  1.00  0.00     0.087 A 
HETATM   32  N2  UNL     1       7.194  36.134  23.262  1.00  0.00    -0.375 N 
HETATM   33  C7  UNL     1       7.493  35.666  22.028  1.00  0.00     0.096 A 
ATOM     34  H2  UNL     1       6.436  36.800  23.411  1.00  0.00     0.164 HD
ENDBRANCH  27  28
ENDBRANCH  25  27
ENDBRANCH   1  23
TORSDOF 7
ENDMDL
MODEL 4
REMARK minimizedAffinity -7.16933537
REMARK  7 active torsions:
REMARK  status: ('A' for Active; 'I' for Inactive)
REMARK       I    between atoms: C1_2  and  N1_3 
REMARK    1  A    between atoms: C1_2  and  C8_12 
REMARK    2  A    between atoms: N1_3  and  C2_4 
REMARK    3  A    between atoms: C2_4  and  C3_5 
REMARK    4  A    between atoms: C14_19  and  C15_20 
REMARK    5  A    between atoms: C15_20  and  N4_21 
REMARK    6  A    between atoms: C17_23  and  C18_24 
REMARK    7  A    between atoms: C18_24  and  C19_25 
ROOT
HETATM    1  C8  UNL     1      13.466  57.496   3.477  1.00  0.00     0.110 C 
HETATM    2  C9  UNL     1      13.236  58.858   2.799  1.00  0.00     0.287 C 
HETATM    3  N3  UNL     1      13.708  58.833   1.385  1.00  0.00     0.095 N 
HETATM    4  C10 UNL     1      15.181  58.702   1.400  1.00  0.00     0.273 C 
HETATM    5  C11 UNL     1      15.636  57.444   2.153  1.00  0.00     0.036 C 
HETATM    6  C12 UNL     1      14.403  56.639   2.595  1.00  0.00     0.004 C 
HETATM    7  C13 UNL     1      13.630  56.332   1.292  1.00  0.00     0.043 C 
HETATM    8  C14 UNL     1      13.073  57.655   0.706  1.00  0.00     0.242 C 
ENDROOT
BRANCH   8   9
HETATM    9  C15 UNL     1      13.190  57.677  -0.831  1.00  0.00     0.181 C 
BRANCH   9  10
HETATM   10  N4  UNL     1      11.960  57.298  -1.488  1.00  0.00    -0.283 N 
HETATM   11  C16 UNL     1      11.652  57.376  -2.812  1.00  0.00     0.134 A 
HETATM   12  C17 UNL     1      10.379  56.854  -2.887  1.00  0.00     0.041 A 
HETATM   13  N5  UNL     1       9.975  56.476  -1.633  1.00  0.00    -0.287 N 
HETATM   14  N6  UNL     1      10.957  56.745  -0.783  1.00  0.00    -0.020 NA
ATOM     15  H5  UNL     1       9.075  56.060  -1.395  1.00  0.00     0.184 HD
BRANCH  12  16
HETATM   16  C18 UNL     1       9.490  56.682  -4.065  1.00  0.00     0.064 C 
BRANCH  16  17
HETATM   17  C19 UNL     1       9.698  57.755  -5.149  1.00  0.00    -0.009 C 
HETATM   18  C20 UNL     1       8.549  58.778  -5.101  1.00  0.00     0.005 C 
HETATM   19  C21 UNL     1       8.690  59.844  -6.184  1.00  0.00     0.000 C 
HETATM   20  C22 UNL     1       8.802  59.223  -7.571  1.00  0.00     0.000 C 
HETATM   21  C23 UNL     1       9.940  58.209  -7.637  1.00  0.00     0.000 C 
HETATM   22  C24 UNL     1       9.805  57.138  -6.555  1.00  0.00     0.005 C 
ENDBRANCH  16  17
ENDBRANCH  12  16
ENDBRANCH   9  10
ENDBRANCH   8   9
BRANCH   1  23
HETATM   23  C1  UNL     1      13.899  57.587   4.935  1.00  0.00     0.224 C 
HETATM   24  O1  UNL     1      14.652  56.748   5.423  1.00  0.00    -0.273 OA
HETATM   25  N1  UNL     1      13.443  58.667   5.652  1.00  0.00    -0.356 N 
HETATM   26  H1  UNL     1      12.692  59.229   5.281  1.00  0.00     0.162 HD
BRANCH  25  27
HETATM   27  C2  UNL     1      13.710  58.797   7.070  1.00  0.00     0.162 C 
BRANCH  27  28
HETATM   28  C3  UNL     1      12.531  59.390   7.780  1.00  0.00    -0.025 A 
HETATM   29  C4  UNL     1      12.121  58.931   9.036  1.00  0.00     0.011 A 
HETATM   30  C5  UNL     1      11.035  59.529   9.668  1.00  0.00     0.018 A 
HETATM   31  C6  UNL     1      10.395  60.575   9.026  1.00  0.00     0.087 A 
HETATM   32  N2  UNL     1      10.768  61.052   7.819  1.00  0.00    -0.375 N 
HETATM   33  C7  UNL     1      11.826  60.453   7.226  1.00  0.00     0.096 A 
ATOM     34  H2  UNL     1      10.275  61.828   7.375  1.00  0.00     0.164 HD
ENDBRANCH  27  28
ENDBRANCH  25  27
ENDBRANCH   1  23
TORSDOF 7
ENDMDL
MODEL 5
REMARK minimizedAffinity -7.12308836
REMARK  7 active torsions:
REMARK  status: ('A' for Active; 'I' for Inactive)
REMARK       I    between atoms: C1_2  and  N1_3 
REMARK    1  A    between atoms: C1_2  and  C8_12 
REMARK    2  A    between atoms: N1_3  and  C2_4 
REMARK    3  A    between atoms: C2_4  and  C3_5 
REMARK    4  A    between atoms: C14_19  and  C15_20 
REMARK    5  A    between atoms: C15_20  and  N4_21 
REMARK    6  A    between atoms: C17_23  and  C18_24 
REMARK    7  A    between atoms: C18_24  and  C19_25 
ROOT
HETATM    1  C8  UNL     1      17.289  49.134   4.585  1.00  0.00     0.110 C 
HETATM    2  C9  UNL     1      18.275  48.334   3.716  1.00  0.00     0.287 C 
HETATM    3  N3  UNL     1      18.316  46.905   4.137  1.00  0.00     0.095 N 
HETATM    4  C10 UNL     1      18.922  46.846   5.485  1.00  0.00     0.273 C 
HETATM    5  C11 UNL     1      18.144  47.696   6.499  1.00  0.00     0.036 C 
HETATM    6  C12 UNL     1      16.899  48.290   5.821  1.00  0.00     0.004 C 
HETATM    7  C13 UNL     1      16.103  47.074   5.296  1.00  0.00     0.043 C 
HETATM    8  C14 UNL     1      16.907  46.389   4.160  1.00  0.00     0.242 C 
ENDROOT
BRANCH   8   9
HETATM    9  C15 UNL     1      16.801  44.854   4.250  1.00  0.00     0.181 C 
BRANCH   9  10
HETATM   10  N4  UNL     1      17.121  44.200   3.001  1.00  0.00    -0.283 N 
HETATM   11  C16 UNL     1      18.183  43.396   2.716  1.00  0.00     0.134 A 
HETATM   12  C17 UNL     1      17.975  43.026   1.406  1.00  0.00     0.041 A 
HETATM   13  N5  UNL     1      16.814  43.599   0.956  1.00  0.00    -0.287 N 
HETATM   14  N6  UNL     1      16.294  44.311   1.946  1.00  0.00    -0.020 NA
ATOM     15  H5  UNL     1      16.419  43.495   0.021  1.00  0.00     0.184 HD
BRANCH  12  16
HETATM   16  C18 UNL     1      18.799  42.162   0.521  1.00  0.00     0.064 C 
BRANCH  16  17
HETATM   17  C19 UNL     1      18.356  40.688   0.521  1.00  0.00    -0.009 C 
HETATM   18  C20 UNL     1      19.532  39.788   0.937  1.00  0.00     0.005 C 
HETATM   19  C21 UNL     1      19.154  38.309   0.917  1.00  0.00     0.000 C 
HETATM   20  C22 UNL     1      18.606  37.889  -0.443  1.00  0.00     0.000 C 
HETATM   21  C23 UNL     1      17.436  38.770  -0.869  1.00  0.00     0.000 C 
HETATM   22  C24 UNL     1      17.809  40.252  -0.850  1.00  0.00     0.005 C 
ENDBRANCH  16  17
ENDBRANCH  12  16
ENDBRANCH   9  10
ENDBRANCH   8   9
BRANCH   1  23
HETATM   23  C1  UNL     1      17.752  50.547   4.919  1.00  0.00     0.224 C 
HETATM   24  O1  UNL     1      18.947  50.833   4.928  1.00  0.00    -0.273 OA
HETATM   25  N1  UNL     1      16.773  51.480   5.160  1.00  0.00    -0.356 N 
HETATM   26  H1  UNL     1      15.825  51.175   5.322  1.00  0.00     0.162 HD
BRANCH  25  27
HETATM   27  C2  UNL     1      17.102  52.825   5.585  1.00  0.00     0.162 C 
BRANCH  27  28
HETATM   28  C3  UNL     1      16.199  53.826   4.931  1.00  0.00    -0.025 A 
HETATM   29  C4  UNL     1      14.827  53.864   5.197  1.00  0.00     0.011 A 
HETATM   30  C5  UNL     1      14.032  54.828   4.584  1.00  0.00     0.018 A 
HETATM   31  C6  UNL     1      14.638  55.731   3.727  1.00  0.00     0.087 A 
HETATM   32  N2  UNL     1      15.960  55.732   3.454  1.00  0.00    -0.375 N 
HETATM   33  C7  UNL     1      16.710  54.785   4.062  1.00  0.00     0.096 A 
ATOM     34  H2  UNL     1      16.375  56.415   2.819  1.00  0.00     0.164 HD
ENDBRANCH  27  28
ENDBRANCH  25  27
ENDBRANCH   1  23
TORSDOF 7
ENDMDL
MODEL 6
REMARK minimizedAffinity -7.09280968
REMARK  7 active torsions:
REMARK  status: ('A' for Active; 'I' for Inactive)
REMARK       I    between atoms: C1_2  and  N1_3 
REMARK    1  A    between atoms: C1_2  and  C8_12 
REMARK    2  A    between atoms: N1_3  and  C2_4 
REMARK    3  A    between atoms: C2_4  and  C3_5 
REMARK    4  A    between atoms: C14_19  and  C15_20 
REMARK    5  A    between atoms: C15_20  and  N4_21 
REMARK    6  A    between atoms: C17_23  and  C18_24 
REMARK    7  A    between atoms: C18_24  and  C19_25 
ROOT
HETATM    1  C8  UNL     1      17.923  48.561   4.525  1.00  0.00     0.110 C 
HETATM    2  C9  UNL     1      18.727  47.335   4.992  1.00  0.00     0.287 C 
HETATM    3  N3  UNL     1      17.870  46.116   5.017  1.00  0.00     0.095 N 
HETATM    4  C10 UNL     1      16.862  46.291   6.084  1.00  0.00     0.273 C 
HETATM    5  C11 UNL     1      16.015  47.553   5.869  1.00  0.00     0.036 C 
HETATM    6  C12 UNL     1      16.415  48.217   4.541  1.00  0.00     0.004 C 
HETATM    7  C13 UNL     1      16.192  47.135   3.462  1.00  0.00     0.043 C 
HETATM    8  C14 UNL     1      17.212  45.985   3.674  1.00  0.00     0.242 C 
ENDROOT
BRANCH   8   9
HETATM    9  C15 UNL     1      16.563  44.610   3.424  1.00  0.00     0.181 C 
BRANCH   9  10
HETATM   10  N4  UNL     1      17.439  43.511   3.762  1.00  0.00    -0.283 N 
HETATM   11  C16 UNL     1      18.444  42.973   3.018  1.00  0.00     0.134 A 
HETATM   12  C17 UNL     1      18.963  41.987   3.829  1.00  0.00     0.041 A 
HETATM   13  N5  UNL     1      18.274  41.971   5.013  1.00  0.00    -0.287 N 
HETATM   14  N6  UNL     1      17.346  42.916   4.965  1.00  0.00    -0.020 NA
ATOM     15  H5  UNL     1      18.446  41.340   5.796  1.00  0.00     0.184 HD
BRANCH  12  16
HETATM   16  C18 UNL     1      20.075  41.035   3.573  1.00  0.00     0.064 C 
BRANCH  16  17
HETATM   17  C19 UNL     1      19.596  39.647   3.107  1.00  0.00    -0.009 C 
HETATM   18  C20 UNL     1      20.340  38.548   3.886  1.00  0.00     0.005 C 
HETATM   19  C21 UNL     1      19.927  37.150   3.433  1.00  0.00     0.000 C 
HETATM   20  C22 UNL     1      20.113  36.969   1.931  1.00  0.00     0.000 C 
HETATM   21  C23 UNL     1      19.379  38.049   1.144  1.00  0.00     0.000 C 
HETATM   22  C24 UNL     1      19.788  39.452   1.593  1.00  0.00     0.005 C 
ENDBRANCH  16  17
ENDBRANCH  12  16
ENDBRANCH   9  10
ENDBRANCH   8   9
BRANCH   1  23
HETATM   23  C1  UNL     1      18.273  49.854   5.250  1.00  0.00     0.224 C 
HETATM   24  O1  UNL     1      19.242  49.911   6.004  1.00  0.00    -0.273 OA
HETATM   25  N1  UNL     1      17.487  50.949   4.983  1.00  0.00    -0.356 N 
HETATM   26  H1  UNL     1      16.605  50.823   4.509  1.00  0.00     0.162 HD
BRANCH  25  27
HETATM   27  C2  UNL     1      17.669  52.198   5.693  1.00  0.00     0.162 C 
BRANCH  27  28
HETATM   28  C3  UNL     1      16.805  53.273   5.108  1.00  0.00    -0.025 A 
HETATM   29  C4  UNL     1      15.414  53.262   5.256  1.00  0.00     0.011 A 
HETATM   30  C5  UNL     1      14.655  54.296   4.715  1.00  0.00     0.018 A 
HETATM   31  C6  UNL     1      15.312  55.314   4.048  1.00  0.00     0.087 A 
HETATM   32  N2  UNL     1      16.653  55.365   3.894  1.00  0.00    -0.375 N 
HETATM   33  C7  UNL     1      17.368  54.349   4.428  1.00  0.00     0.096 A 
ATOM     34  H2  UNL     1      17.105  56.134   3.398  1.00  0.00     0.164 HD
ENDBRANCH  27  28
ENDBRANCH  25  27
ENDBRANCH   1  23
TORSDOF 7
ENDMDL
MODEL 7
REMARK minimizedAffinity -7.07305431
REMARK  7 active torsions:
REMARK  status: ('A' for Active; 'I' for Inactive)
REMARK       I    between atoms: C1_2  and  N1_3 
REMARK    1  A    between atoms: C1_2  and  C8_12 
REMARK    2  A    between atoms: N1_3  and  C2_4 
REMARK    3  A    between atoms: C2_4  and  C3_5 
REMARK    4  A    between atoms: C14_19  and  C15_20 
REMARK    5  A    between atoms: C15_20  and  N4_21 
REMARK    6  A    between atoms: C17_23  and  C18_24 
REMARK    7  A    between atoms: C18_24  and  C19_25 
ROOT
HETATM    1  C8  UNL     1      13.494  51.451  -2.608  1.00  0.00     0.110 C 
HETATM    2  C9  UNL     1      14.536  52.153  -3.496  1.00  0.00     0.287 C 
HETATM    3  N3  UNL     1      14.104  53.542  -3.823  1.00  0.00     0.095 N 
HETATM    4  C10 UNL     1      12.915  53.453  -4.698  1.00  0.00     0.273 C 
HETATM    5  C11 UNL     1      11.776  52.665  -4.035  1.00  0.00     0.036 C 
HETATM    6  C12 UNL     1      12.187  52.277  -2.605  1.00  0.00     0.004 C 
HETATM    7  C13 UNL     1      12.506  53.613  -1.897  1.00  0.00     0.043 C 
HETATM    8  C14 UNL     1      13.773  54.240  -2.537  1.00  0.00     0.242 C 
ENDROOT
BRANCH   8   9
HETATM    9  C15 UNL     1      13.633  55.768  -2.669  1.00  0.00     0.181 C 
BRANCH   9  10
HETATM   10  N4  UNL     1      13.436  56.422  -1.395  1.00  0.00    -0.283 N 
HETATM   11  C16 UNL     1      14.148  56.262  -0.245  1.00  0.00     0.134 A 
HETATM   12  C17 UNL     1      13.558  57.143   0.634  1.00  0.00     0.041 A 
HETATM   13  N5  UNL     1      12.538  57.798  -0.004  1.00  0.00    -0.287 N 
HETATM   14  N6  UNL     1      12.477  57.354  -1.252  1.00  0.00    -0.020 NA
ATOM     15  H5  UNL     1      11.930  58.506   0.409  1.00  0.00     0.184 HD
BRANCH  12  16
HETATM   16  C18 UNL     1      13.879  57.422   2.057  1.00  0.00     0.064 C 
BRANCH  16  17
HETATM   17  C19 UNL     1      14.475  56.211   2.798  1.00  0.00    -0.009 C 
HETATM   18  C20 UNL     1      13.550  55.799   3.957  1.00  0.00     0.005 C 
HETATM   19  C21 UNL     1      14.117  54.622   4.748  1.00  0.00     0.000 C 
HETATM   20  C22 UNL     1      15.524  54.915   5.257  1.00  0.00     0.000 C 
HETATM   21  C23 UNL     1      16.455  55.323   4.119  1.00  0.00     0.000 C 
HETATM   22  C24 UNL     1      15.893  56.499   3.323  1.00  0.00     0.005 C 
ENDBRANCH  16  17
ENDBRANCH  12  16
ENDBRANCH   9  10
ENDBRANCH   8   9
BRANCH   1  23
HETATM   23  C1  UNL     1      13.294  49.974  -2.925  1.00  0.00     0.224 C 
HETATM   24  O1  UNL     1      13.394  49.558  -4.078  1.00  0.00    -0.273 OA
HETATM   25  N1  UNL     1      13.045  49.138  -1.864  1.00  0.00    -0.356 N 
HETATM   26  H1  UNL     1      12.792  49.533  -0.971  1.00  0.00     0.162 HD
BRANCH  25  27
HETATM   27  C2  UNL     1      12.739  47.737  -2.064  1.00  0.00     0.162 C 
BRANCH  27  28
HETATM   28  C3  UNL     1      11.557  47.327  -1.239  1.00  0.00    -0.025 A 
HETATM   29  C4  UNL     1      10.489  48.198  -0.999  1.00  0.00     0.011 A 
HETATM   30  C5  UNL     1       9.402  47.765  -0.247  1.00  0.00     0.018 A 
HETATM   31  C6  UNL     1       9.412  46.468   0.237  1.00  0.00     0.087 A 
HETATM   32  N2  UNL     1      10.419  45.595   0.018  1.00  0.00    -0.375 N 
HETATM   33  C7  UNL     1      11.465  46.041  -0.715  1.00  0.00     0.096 A 
ATOM     34  H2  UNL     1      10.393  44.645   0.388  1.00  0.00     0.164 HD
ENDBRANCH  27  28
ENDBRANCH  25  27
ENDBRANCH   1  23
TORSDOF 7
ENDMDL
MODEL 8
REMARK minimizedAffinity -7.03348923
REMARK  7 active torsions:
REMARK  status: ('A' for Active; 'I' for Inactive)
REMARK       I    between atoms: C1_2  and  N1_3 
REMARK    1  A    between atoms: C1_2  and  C8_12 
REMARK    2  A    between atoms: N1_3  and  C2_4 
REMARK    3  A    between atoms: C2_4  and  C3_5 
REMARK    4  A    between atoms: C14_19  and  C15_20 
REMARK    5  A    between atoms: C15_20  and  N4_21 
REMARK    6  A    between atoms: C17_23  and  C18_24 
REMARK    7  A    between atoms: C18_24  and  C19_25 
ROOT
HETATM    1  C8  UNL     1      17.460  32.568  12.696  1.00  0.00     0.110 C 
HETATM    2  C9  UNL     1      18.552  33.197  13.578  1.00  0.00     0.287 C 
HETATM    3  N3  UNL     1      18.401  34.679  13.633  1.00  0.00     0.095 N 
HETATM    4  C10 UNL     1      18.697  35.215  12.287  1.00  0.00     0.273 C 
HETATM    5  C11 UNL     1      17.780  34.609  11.216  1.00  0.00     0.036 C 
HETATM    6  C12 UNL     1      16.754  33.680  11.886  1.00  0.00     0.004 C 
HETATM    7  C13 UNL     1      16.007  34.569  12.906  1.00  0.00     0.043 C 
HETATM    8  C14 UNL     1      16.988  34.986  14.034  1.00  0.00     0.242 C 
ENDROOT
BRANCH   8   9
HETATM    9  C15 UNL     1      16.759  36.450  14.458  1.00  0.00     0.181 C 
BRANCH   9  10
HETATM   10  N4  UNL     1      16.045  36.561  15.710  1.00  0.00    -0.283 N 
HETATM   11  C16 UNL     1      15.373  35.590  16.388  1.00  0.00     0.134 A 
HETATM   12  C17 UNL     1      14.919  36.231  17.520  1.00  0.00     0.041 A 
HETATM   13  N5  UNL     1      15.332  37.537  17.492  1.00  0.00    -0.287 N 
HETATM   14  N6  UNL     1      16.030  37.727  16.380  1.00  0.00    -0.020 NA
ATOM     15  H5  UNL     1      15.137  38.242  18.203  1.00  0.00     0.184 HD
BRANCH  12  16
HETATM   16  C18 UNL     1      14.107  35.706  18.647  1.00  0.00     0.064 C 
BRANCH  16  17
HETATM   17  C19 UNL     1      12.633  36.150  18.598  1.00  0.00    -0.009 C 
HETATM   18  C20 UNL     1      11.994  35.998  19.989  1.00  0.00     0.005 C 
HETATM   19  C21 UNL     1      10.518  36.390  19.984  1.00  0.00     0.000 C 
HETATM   20  C22 UNL     1       9.733  35.606  18.939  1.00  0.00     0.000 C 
HETATM   21  C23 UNL     1      10.353  35.749  17.552  1.00  0.00     0.000 C 
HETATM   22  C24 UNL     1      11.830  35.358  17.551  1.00  0.00     0.005 C 
ENDBRANCH  16  17
ENDBRANCH  12  16
ENDBRANCH   9  10
ENDBRANCH   8   9
BRANCH   1  23
HETATM   23  C1  UNL     1      17.936  31.392  11.852  1.00  0.00     0.224 C 
HETATM   24  O1  UNL     1      17.526  30.254  12.068  1.00  0.00    -0.273 OA
HETATM   25  N1  UNL     1      18.801  31.676  10.823  1.00  0.00    -0.356 N 
HETATM   26  H1  UNL     1      19.253  32.577  10.789  1.00  0.00     0.162 HD
BRANCH  25  27
HETATM   27  C2  UNL     1      19.394  30.623  10.025  1.00  0.00     0.162 C 
BRANCH  27  28
HETATM   28  C3  UNL     1      18.701  30.504   8.701  1.00  0.00    -0.025 A 
HETATM   29  C4  UNL     1      18.470  31.619   7.889  1.00  0.00     0.011 A 
HETATM   30  C5  UNL     1      17.845  31.456   6.656  1.00  0.00     0.018 A 
HETATM   31  C6  UNL     1      17.476  30.179   6.270  1.00  0.00     0.087 A 
HETATM   32  N2  UNL     1      17.692  29.078   7.022  1.00  0.00    -0.375 N 
HETATM   33  C7  UNL     1      18.300  29.264   8.215  1.00  0.00     0.096 A 
ATOM     34  H2  UNL     1      17.409  28.151   6.704  1.00  0.00     0.164 HD
ENDBRANCH  27  28
ENDBRANCH  25  27
ENDBRANCH   1  23
TORSDOF 7
ENDMDL
MODEL 9
REMARK minimizedAffinity -7.02403402
REMARK  7 active torsions:
REMARK  status: ('A' for Active; 'I' for Inactive)
REMARK       I    between atoms: C1_2  and  N1_3 
REMARK    1  A    between atoms: C1_2  and  C8_12 
REMARK    2  A    between atoms: N1_3  and  C2_4 
REMARK    3  A    between atoms: C2_4  and  C3_5 
REMARK    4  A    between atoms: C14_19  and  C15_20 
REMARK    5  A    between atoms: C15_20  and  N4_21 
REMARK    6  A    between atoms: C17_23  and  C18_24 
REMARK    7  A    between atoms: C18_24  and  C19_25 
ROOT
HETATM    1  C8  UNL     1      16.224  54.340   4.699  1.00  0.00     0.110 C 
HETATM    2  C9  UNL     1      14.745  54.455   5.105  1.00  0.00     0.287 C 
HETATM    3  N3  UNL     1      14.231  55.831   4.854  1.00  0.00     0.095 N 
HETATM    4  C10 UNL     1      14.915  56.749   5.791  1.00  0.00     0.273 C 
HETATM    5  C11 UNL     1      16.441  56.694   5.632  1.00  0.00     0.036 C 
HETATM    6  C12 UNL     1      16.801  55.756   4.468  1.00  0.00     0.004 C 
HETATM    7  C13 UNL     1      16.073  56.339   3.236  1.00  0.00     0.043 C 
HETATM    8  C14 UNL     1      14.541  56.189   3.431  1.00  0.00     0.242 C 
ENDROOT
BRANCH   8   9
HETATM    9  C15 UNL     1      13.791  57.433   2.918  1.00  0.00     0.181 C 
BRANCH   9  10
HETATM   10  N4  UNL     1      13.286  57.264   1.574  1.00  0.00    -0.283 N 
HETATM   11  C16 UNL     1      13.418  56.186   0.752  1.00  0.00     0.134 A 
HETATM   12  C17 UNL     1      12.722  56.547  -0.381  1.00  0.00     0.041 A 
HETATM   13  N5  UNL     1      12.196  57.800  -0.204  1.00  0.00    -0.287 N 
HETATM   14  N6  UNL     1      12.541  58.227   1.003  1.00  0.00    -0.020 NA
ATOM     15  H5  UNL     1      11.635  58.315  -0.884  1.00  0.00     0.184 HD
BRANCH  12  16
HETATM   16  C18 UNL     1      12.511  55.796  -1.645  1.00  0.00     0.064 C 
BRANCH  16  17
HETATM   17  C19 UNL     1      13.338  54.500  -1.732  1.00  0.00    -0.009 C 
HETATM   18  C20 UNL     1      14.559  54.718  -2.641  1.00  0.00     0.005 C 
HETATM   19  C21 UNL     1      15.393  53.448  -2.790  1.00  0.00     0.000 C 
HETATM   20  C22 UNL     1      14.551  52.279  -3.288  1.00  0.00     0.000 C 
HETATM   21  C23 UNL     1      13.336  52.047  -2.395  1.00  0.00     0.000 C 
HETATM   22  C24 UNL     1      12.497  53.315  -2.241  1.00  0.00     0.005 C 
ENDBRANCH  16  17
ENDBRANCH  12  16
ENDBRANCH   9  10
ENDBRANCH   8   9
BRANCH   1  23
HETATM   23  C1  UNL     1      17.063  53.471   5.627  1.00  0.00     0.224 C 
HETATM   24  O1  UNL     1      17.759  53.976   6.505  1.00  0.00    -0.273 OA
HETATM   25  N1  UNL     1      16.966  52.110   5.462  1.00  0.00    -0.356 N 
HETATM   26  H1  UNL     1      16.536  51.741   4.627  1.00  0.00     0.162 HD
BRANCH  25  27
HETATM   27  C2  UNL     1      17.796  51.198   6.220  1.00  0.00     0.162 C 
BRANCH  27  28
HETATM   28  C3  UNL     1      17.617  49.790   5.739  1.00  0.00    -0.025 A 
HETATM   29  C4  UNL     1      17.917  48.691   6.550  1.00  0.00     0.011 A 
HETATM   30  C5  UNL     1      17.711  47.402   6.068  1.00  0.00     0.018 A 
HETATM   31  C6  UNL     1      17.203  47.252   4.789  1.00  0.00     0.087 A 
HETATM   32  N2  UNL     1      16.891  48.288   3.981  1.00  0.00    -0.375 N 
HETATM   33  C7  UNL     1      17.101  49.530   4.473  1.00  0.00     0.096 A 
ATOM     34  H2  UNL     1      16.515  48.141   3.044  1.00  0.00     0.164 HD
ENDBRANCH  27  28
ENDBRANCH  25  27
ENDBRANCH   1  23
TORSDOF 7
ENDMDL
