MODEL 1
REMARK minimizedAffinity -6.94855595
REMARK CNNscore 0.703483582
REMARK CNNaffinity 6.61157274
REMARK  8 active torsions:
REMARK  status: ('A' for Active; 'I' for Inactive)
REMARK    1  A    between atoms: C2_2  and  C3_3 
REMARK    2  A    between atoms: C2_2  and  C9_12 
REMARK    3  A    between atoms: C3_3  and  C4_4 
REMARK    4  A    between atoms: C4_4  and  O1_5 
REMARK    5  A    between atoms: C4_4  and  C5_6 
REMARK    6  A    between atoms: C5_6  and  O2_7 
REMARK    7  A    between atoms: C5_6  and  C6_8 
REMARK    8  A    between atoms: C6_8  and  O3_11 
ROOT
HETATM    1  C9  UNL     1       2.100  55.005  -9.786  1.00  0.00     0.097 A 
HETATM    2  C10 UNL     1       2.924  55.939 -10.621  1.00  0.00     0.042 A 
HETATM    3  C11 UNL     1       3.743  56.810  -9.644  1.00  0.00     0.016 A 
HETATM    4  C12 UNL     1       3.499  56.302  -8.181  1.00  0.00    -0.002 A 
HETATM    5  C13 UNL     1       2.917  57.495  -7.384  1.00  0.00     0.019 C 
HETATM    6  C14 UNL     1       2.420  55.229  -8.329  1.00  0.00     0.101 A 
HETATM    7  C15 UNL     1       2.141  54.300  -7.191  1.00  0.00     0.042 C 
HETATM    8  C16 UNL     1       3.410  53.778  -6.520  1.00  0.00     0.009 C 
HETATM    9  C17 UNL     1       4.394  54.919  -6.171  1.00  0.00     0.003 C 
HETATM   10  C18 UNL     1       5.535  54.511  -5.121  1.00  0.00    -0.035 C 
HETATM   11  C19 UNL     1       4.796  54.372  -3.754  1.00  0.00     0.016 C 
HETATM   12  C20 UNL     1       6.176  53.139  -5.447  1.00  0.00     0.017 C 
HETATM   13  C21 UNL     1       7.330  52.742  -4.544  1.00  0.00     0.080 C 
HETATM   14  C22 UNL     1       8.387  53.814  -4.517  1.00  0.00     0.135 C 
HETATM   15  O4  UNL     1       9.568  53.522  -4.706  1.00  0.00    -0.297 OA
HETATM   16  C23 UNL     1       7.942  55.233  -4.152  1.00  0.00     0.017 C 
HETATM   17  C24 UNL     1       9.125  56.202  -4.412  1.00  0.00     0.023 C 
HETATM   18  C25 UNL     1       7.694  55.284  -2.627  1.00  0.00     0.023 C 
HETATM   19  C26 UNL     1       6.655  55.627  -4.992  1.00  0.00     0.009 C 
HETATM   20  C27 UNL     1       7.044  56.193  -6.380  1.00  0.00     0.007 C 
HETATM   21  C28 UNL     1       5.841  56.737  -7.147  1.00  0.00     0.011 C 
HETATM   22  C29 UNL     1       4.811  55.648  -7.506  1.00  0.00    -0.029 C 
HETATM   23  C30 UNL     1       5.471  54.678  -8.531  1.00  0.00     0.016 C 
HETATM   24  O5  UNL     1       1.189  55.696  -8.930  1.00  0.00    -0.362 OA
ENDROOT
BRANCH   1  25
HETATM   25  C2  UNL     1       1.538  53.720 -10.369  1.00  0.00     0.022 C 
HETATM   26  C1  UNL     1       2.638  52.943 -11.100  1.00  0.00     0.013 C 
BRANCH  25  27
HETATM   27  C3  UNL     1       0.317  54.016 -11.273  1.00  0.00     0.041 C 
BRANCH  27  28
HETATM   28  C4  UNL     1      -1.068  53.734 -10.655  1.00  0.00     0.150 C 
BRANCH  28  29
HETATM   29  O1  UNL     1      -0.838  53.203  -9.332  1.00  0.00    -0.393 OA
HETATM   30  H8  UNL     1      -0.427  53.919  -8.809  1.00  0.00     0.210 HD
ENDBRANCH  28  29
BRANCH  28  31
HETATM   31  C5  UNL     1      -1.888  52.673 -11.433  1.00  0.00     0.180 C 
BRANCH  31  32
HETATM   32  O2  UNL     1      -1.616  51.384 -10.858  1.00  0.00    -0.390 OA
HETATM   33  H10 UNL     1      -1.463  51.571  -9.909  1.00  0.00     0.210 HD
ENDBRANCH  31  32
BRANCH  31  34
HETATM   34  C6  UNL     1      -3.421  52.955 -11.452  1.00  0.00     0.079 C 
HETATM   35  C7  UNL     1      -3.845  54.100 -10.524  1.00  0.00     0.048 C 
HETATM   36  C8  UNL     1      -4.187  51.679 -11.070  1.00  0.00     0.048 C 
BRANCH  34  37
HETATM   37  O3  UNL     1      -3.792  53.306 -12.792  1.00  0.00    -0.388 OA
HETATM   38  H17 UNL     1      -4.763  53.331 -12.833  1.00  0.00     0.210 HD
ENDBRANCH  34  37
ENDBRANCH  31  34
ENDBRANCH  28  31
ENDBRANCH  27  28
ENDBRANCH  25  27
ENDBRANCH   1  25
TORSDOF 8
ENDMDL
MODEL 2
REMARK minimizedAffinity -7.08874083
REMARK CNNscore 0.308345169
REMARK CNNaffinity 5.22503138
REMARK  8 active torsions:
REMARK  status: ('A' for Active; 'I' for Inactive)
REMARK    1  A    between atoms: C2_2  and  C3_3 
REMARK    2  A    between atoms: C2_2  and  C9_12 
REMARK    3  A    between atoms: C3_3  and  C4_4 
REMARK    4  A    between atoms: C4_4  and  O1_5 
REMARK    5  A    between atoms: C4_4  and  C5_6 
REMARK    6  A    between atoms: C5_6  and  O2_7 
REMARK    7  A    between atoms: C5_6  and  C6_8 
REMARK    8  A    between atoms: C6_8  and  O3_11 
ROOT
HETATM    1  C9  UNL     1     -12.249  46.311 -26.977  1.00  0.00     0.097 A 
HETATM    2  C10 UNL     1     -12.112  47.772 -26.669  1.00  0.00     0.042 A 
HETATM    3  C11 UNL     1     -10.609  48.113 -26.768  1.00  0.00     0.016 A 
HETATM    4  C12 UNL     1      -9.832  46.847 -27.272  1.00  0.00    -0.002 A 
HETATM    5  C13 UNL     1      -8.790  46.498 -26.182  1.00  0.00     0.019 C 
HETATM    6  C14 UNL     1     -10.892  45.746 -27.317  1.00  0.00     0.101 A 
HETATM    7  C15 UNL     1     -10.601  44.469 -28.039  1.00  0.00     0.042 C 
HETATM    8  C16 UNL     1      -9.913  44.686 -29.385  1.00  0.00     0.009 C 
HETATM    9  C17 UNL     1      -8.695  45.633 -29.269  1.00  0.00     0.003 C 
HETATM   10  C18 UNL     1      -7.699  45.586 -30.524  1.00  0.00    -0.035 C 
HETATM   11  C19 UNL     1      -6.975  44.209 -30.416  1.00  0.00     0.016 C 
HETATM   12  C20 UNL     1      -8.451  45.613 -31.878  1.00  0.00     0.017 C 
HETATM   13  C21 UNL     1      -7.559  45.669 -33.104  1.00  0.00     0.080 C 
HETATM   14  C22 UNL     1      -6.600  46.827 -33.021  1.00  0.00     0.135 C 
HETATM   15  O4  UNL     1      -6.487  47.604 -33.970  1.00  0.00    -0.297 OA
HETATM   16  C23 UNL     1      -5.724  46.929 -31.770  1.00  0.00     0.017 C 
HETATM   17  C24 UNL     1      -4.997  48.299 -31.787  1.00  0.00     0.023 C 
HETATM   18  C25 UNL     1      -4.605  45.867 -31.876  1.00  0.00     0.023 C 
HETATM   19  C26 UNL     1      -6.617  46.744 -30.471  1.00  0.00     0.009 C 
HETATM   20  C27 UNL     1      -7.254  48.087 -30.035  1.00  0.00     0.007 C 
HETATM   21  C28 UNL     1      -7.981  47.981 -28.697  1.00  0.00     0.011 C 
HETATM   22  C29 UNL     1      -9.196  47.033 -28.743  1.00  0.00    -0.029 C 
HETATM   23  C30 UNL     1     -10.270  47.669 -29.676  1.00  0.00     0.016 C 
HETATM   24  O5  UNL     1     -11.541  45.488 -26.049  1.00  0.00    -0.362 OA
ENDROOT
BRANCH   1  25
HETATM   25  C2  UNL     1     -13.576  45.725 -27.428  1.00  0.00     0.022 C 
HETATM   26  C1  UNL     1     -13.842  46.081 -28.895  1.00  0.00     0.013 C 
BRANCH  25  27
HETATM   27  C3  UNL     1     -14.721  46.175 -26.489  1.00  0.00     0.041 C 
BRANCH  27  28
HETATM   28  C4  UNL     1     -15.674  45.064 -26.001  1.00  0.00     0.150 C 
BRANCH  28  29
HETATM   29  O1  UNL     1     -15.241  43.836 -26.627  1.00  0.00    -0.393 OA
HETATM   30  H8  UNL     1     -14.355  43.636 -26.270  1.00  0.00     0.210 HD
ENDBRANCH  28  29
BRANCH  28  31
HETATM   31  C5  UNL     1     -17.150  45.290 -26.416  1.00  0.00     0.180 C 
BRANCH  31  32
HETATM   32  O2  UNL     1     -17.575  44.161 -27.200  1.00  0.00    -0.390 OA
HETATM   33  H10 UNL     1     -17.075  43.406 -26.825  1.00  0.00     0.210 HD
ENDBRANCH  31  32
BRANCH  31  34
HETATM   34  C6  UNL     1     -18.113  45.516 -25.211  1.00  0.00     0.079 C 
HETATM   35  C7  UNL     1     -19.596  45.388 -25.578  1.00  0.00     0.048 C 
HETATM   36  C8  UNL     1     -17.858  46.901 -24.596  1.00  0.00     0.048 C 
BRANCH  34  37
HETATM   37  O3  UNL     1     -17.814  44.531 -24.212  1.00  0.00    -0.388 OA
HETATM   38  H17 UNL     1     -18.305  44.767 -23.407  1.00  0.00     0.210 HD
ENDBRANCH  34  37
ENDBRANCH  31  34
ENDBRANCH  28  31
ENDBRANCH  27  28
ENDBRANCH  25  27
ENDBRANCH   1  25
TORSDOF 8
ENDMDL
MODEL 3
REMARK minimizedAffinity -7.90659571
REMARK CNNscore 0.305080652
REMARK CNNaffinity 5.75395775
REMARK  8 active torsions:
REMARK  status: ('A' for Active; 'I' for Inactive)
REMARK    1  A    between atoms: C2_2  and  C3_3 
REMARK    2  A    between atoms: C2_2  and  C9_12 
REMARK    3  A    between atoms: C3_3  and  C4_4 
REMARK    4  A    between atoms: C4_4  and  O1_5 
REMARK    5  A    between atoms: C4_4  and  C5_6 
REMARK    6  A    between atoms: C5_6  and  O2_7 
REMARK    7  A    between atoms: C5_6  and  C6_8 
REMARK    8  A    between atoms: C6_8  and  O3_11 
ROOT
HETATM    1  C9  UNL     1       6.696  66.882 -35.911  1.00  0.00     0.097 A 
HETATM    2  C10 UNL     1       7.382  68.198 -36.130  1.00  0.00     0.042 A 
HETATM    3  C11 UNL     1       6.836  68.774 -37.455  1.00  0.00     0.016 A 
HETATM    4  C12 UNL     1       5.697  67.836 -37.987  1.00  0.00    -0.002 A 
HETATM    5  C13 UNL     1       6.135  67.351 -39.390  1.00  0.00     0.019 C 
HETATM    6  C14 UNL     1       5.705  66.648 -37.024  1.00  0.00     0.101 A 
HETATM    7  C15 UNL     1       4.558  65.689 -37.024  1.00  0.00     0.042 C 
HETATM    8  C16 UNL     1       3.199  66.382 -37.099  1.00  0.00     0.009 C 
HETATM    9  C17 UNL     1       3.142  67.428 -38.238  1.00  0.00     0.003 C 
HETATM   10  C18 UNL     1       1.661  67.892 -38.637  1.00  0.00    -0.035 C 
HETATM   11  C19 UNL     1       1.037  66.666 -39.372  1.00  0.00     0.016 C 
HETATM   12  C20 UNL     1       0.780  68.191 -37.399  1.00  0.00     0.017 C 
HETATM   13  C21 UNL     1      -0.604  68.728 -37.713  1.00  0.00     0.080 C 
HETATM   14  C22 UNL     1      -0.523  69.944 -38.597  1.00  0.00     0.135 C 
HETATM   15  O4  UNL     1      -1.139  70.967 -38.297  1.00  0.00    -0.297 OA
HETATM   16  C23 UNL     1       0.264  69.814 -39.904  1.00  0.00     0.017 C 
HETATM   17  C24 UNL     1       0.414  71.225 -40.531  1.00  0.00     0.023 C 
HETATM   18  C25 UNL     1      -0.595  69.008 -40.906  1.00  0.00     0.023 C 
HETATM   19  C26 UNL     1       1.669  69.135 -39.622  1.00  0.00     0.009 C 
HETATM   20  C27 UNL     1       2.721  70.186 -39.188  1.00  0.00     0.007 C 
HETATM   21  C28 UNL     1       4.124  69.594 -39.071  1.00  0.00     0.011 C 
HETATM   22  C29 UNL     1       4.240  68.528 -37.964  1.00  0.00    -0.029 C 
HETATM   23  C30 UNL     1       4.041  69.235 -36.590  1.00  0.00     0.016 C 
HETATM   24  O5  UNL     1       6.968  65.944 -36.954  1.00  0.00    -0.362 OA
ENDROOT
BRANCH   1  25
HETATM   25  C2  UNL     1       6.620  66.257 -34.529  1.00  0.00     0.022 C 
HETATM   26  C1  UNL     1       6.931  67.305 -33.455  1.00  0.00     0.013 C 
BRANCH  25  27
HETATM   27  C3  UNL     1       7.542  65.017 -34.436  1.00  0.00     0.041 C 
BRANCH  27  28
HETATM   28  C4  UNL     1       6.843  63.674 -34.143  1.00  0.00     0.150 C 
BRANCH  28  29
HETATM   29  O1  UNL     1       7.691  62.634 -34.679  1.00  0.00    -0.393 OA
HETATM   30  H8  UNL     1       8.518  62.650 -34.161  1.00  0.00     0.210 HD
ENDBRANCH  28  29
BRANCH  28  31
HETATM   31  C5  UNL     1       5.461  63.532 -34.831  1.00  0.00     0.180 C 
BRANCH  31  32
HETATM   32  O2  UNL     1       5.503  62.383 -35.694  1.00  0.00    -0.390 OA
HETATM   33  H10 UNL     1       6.109  61.762 -35.237  1.00  0.00     0.210 HD
ENDBRANCH  31  32
BRANCH  31  34
HETATM   34  C6  UNL     1       4.271  63.426 -33.830  1.00  0.00     0.079 C 
HETATM   35  C7  UNL     1       4.430  64.316 -32.591  1.00  0.00     0.048 C 
HETATM   36  C8  UNL     1       4.092  61.965 -33.389  1.00  0.00     0.048 C 
BRANCH  34  37
HETATM   37  O3  UNL     1       3.077  63.827 -34.516  1.00  0.00    -0.388 OA
HETATM   38  H17 UNL     1       2.321  63.615 -33.943  1.00  0.00     0.210 HD
ENDBRANCH  34  37
ENDBRANCH  31  34
ENDBRANCH  28  31
ENDBRANCH  27  28
ENDBRANCH  25  27
ENDBRANCH   1  25
TORSDOF 8
ENDMDL
MODEL 4
REMARK minimizedAffinity -7.75276327
REMARK CNNscore 0.299589068
REMARK CNNaffinity 6.28730965
REMARK  8 active torsions:
REMARK  status: ('A' for Active; 'I' for Inactive)
REMARK    1  A    between atoms: C2_2  and  C3_3 
REMARK    2  A    between atoms: C2_2  and  C9_12 
REMARK    3  A    between atoms: C3_3  and  C4_4 
REMARK    4  A    between atoms: C4_4  and  O1_5 
REMARK    5  A    between atoms: C4_4  and  C5_6 
REMARK    6  A    between atoms: C5_6  and  O2_7 
REMARK    7  A    between atoms: C5_6  and  C6_8 
REMARK    8  A    between atoms: C6_8  and  O3_11 
ROOT
HETATM    1  C9  UNL     1       1.127  53.723 -10.379  1.00  0.00     0.097 A 
HETATM    2  C10 UNL     1       2.246  53.000 -11.068  1.00  0.00     0.042 A 
HETATM    3  C11 UNL     1       3.502  53.889 -10.938  1.00  0.00     0.016 A 
HETATM    4  C12 UNL     1       3.160  55.126 -10.036  1.00  0.00    -0.002 A 
HETATM    5  C13 UNL     1       3.421  56.390 -10.890  1.00  0.00     0.019 C 
HETATM    6  C14 UNL     1       1.657  55.001  -9.779  1.00  0.00     0.101 A 
HETATM    7  C15 UNL     1       1.021  55.827  -8.707  1.00  0.00     0.042 C 
HETATM    8  C16 UNL     1       1.841  55.874  -7.420  1.00  0.00     0.009 C 
HETATM    9  C17 UNL     1       3.322  56.230  -7.689  1.00  0.00     0.003 C 
HETATM   10  C18 UNL     1       4.138  56.692  -6.388  1.00  0.00    -0.035 C 
HETATM   11  C19 UNL     1       3.584  58.109  -6.045  1.00  0.00     0.016 C 
HETATM   12  C20 UNL     1       3.871  55.779  -5.166  1.00  0.00     0.017 C 
HETATM   13  C21 UNL     1       4.689  56.108  -3.931  1.00  0.00     0.080 C 
HETATM   14  C22 UNL     1       6.161  56.131  -4.249  1.00  0.00     0.135 C 
HETATM   15  O4  UNL     1       6.954  55.502  -3.548  1.00  0.00    -0.297 OA
HETATM   16  C23 UNL     1       6.619  57.033  -5.398  1.00  0.00     0.017 C 
HETATM   17  C24 UNL     1       8.110  56.727  -5.700  1.00  0.00     0.023 C 
HETATM   18  C25 UNL     1       6.591  58.497  -4.904  1.00  0.00     0.023 C 
HETATM   19  C26 UNL     1       5.696  56.800  -6.667  1.00  0.00     0.009 C 
HETATM   20  C27 UNL     1       6.197  55.604  -7.513  1.00  0.00     0.007 C 
HETATM   21  C28 UNL     1       5.434  55.457  -8.827  1.00  0.00     0.011 C 
HETATM   22  C29 UNL     1       3.943  55.122  -8.625  1.00  0.00    -0.029 C 
HETATM   23  C30 UNL     1       3.848  53.697  -8.003  1.00  0.00     0.016 C 
HETATM   24  O5  UNL     1       0.844  54.989 -10.976  1.00  0.00    -0.362 OA
ENDROOT
BRANCH   1  25
HETATM   25  C2  UNL     1      -0.108  52.981  -9.900  1.00  0.00     0.022 C 
HETATM   26  C1  UNL     1       0.062  51.472 -10.113  1.00  0.00     0.013 C 
BRANCH  25  27
HETATM   27  C3  UNL     1      -1.381  53.538 -10.582  1.00  0.00     0.041 C 
BRANCH  27  28
HETATM   28  C4  UNL     1      -2.284  52.502 -11.283  1.00  0.00     0.150 C 
BRANCH  28  29
HETATM   29  O1  UNL     1      -2.553  53.009 -12.609  1.00  0.00    -0.393 OA
HETATM   30  H8  UNL     1      -1.700  53.020 -13.084  1.00  0.00     0.210 HD
ENDBRANCH  28  29
BRANCH  28  31
HETATM   31  C5  UNL     1      -3.654  52.304 -10.586  1.00  0.00     0.180 C 
BRANCH  31  32
HETATM   32  O2  UNL     1      -4.637  53.074 -11.299  1.00  0.00    -0.390 OA
HETATM   33  H10 UNL     1      -4.332  53.052 -12.230  1.00  0.00     0.210 HD
ENDBRANCH  31  32
BRANCH  31  34
HETATM   34  C6  UNL     1      -4.094  50.812 -10.481  1.00  0.00     0.079 C 
HETATM   35  C7  UNL     1      -3.550  50.098  -9.237  1.00  0.00     0.048 C 
HETATM   36  C8  UNL     1      -3.652  50.051 -11.740  1.00  0.00     0.048 C 
BRANCH  34  37
HETATM   37  O3  UNL     1      -5.527  50.774 -10.425  1.00  0.00    -0.388 OA
HETATM   38  H17 UNL     1      -5.802  49.846 -10.514  1.00  0.00     0.210 HD
ENDBRANCH  34  37
ENDBRANCH  31  34
ENDBRANCH  28  31
ENDBRANCH  27  28
ENDBRANCH  25  27
ENDBRANCH   1  25
TORSDOF 8
ENDMDL
MODEL 5
REMARK minimizedAffinity -8.40135479
REMARK CNNscore 0.251423955
REMARK CNNaffinity 6.4453907
REMARK  8 active torsions:
REMARK  status: ('A' for Active; 'I' for Inactive)
REMARK    1  A    between atoms: C2_2  and  C3_3 
REMARK    2  A    between atoms: C2_2  and  C9_12 
REMARK    3  A    between atoms: C3_3  and  C4_4 
REMARK    4  A    between atoms: C4_4  and  O1_5 
REMARK    5  A    between atoms: C4_4  and  C5_6 
REMARK    6  A    between atoms: C5_6  and  O2_7 
REMARK    7  A    between atoms: C5_6  and  C6_8 
REMARK    8  A    between atoms: C6_8  and  O3_11 
ROOT
HETATM    1  C9  UNL     1      -2.893  50.278 -23.970  1.00  0.00     0.097 A 
HETATM    2  C10 UNL     1      -1.507  50.440 -23.421  1.00  0.00     0.042 A 
HETATM    3  C11 UNL     1      -1.604  50.250 -21.891  1.00  0.00     0.016 A 
HETATM    4  C12 UNL     1      -3.071  49.839 -21.522  1.00  0.00    -0.002 A 
HETATM    5  C13 UNL     1      -3.606  50.915 -20.546  1.00  0.00     0.019 C 
HETATM    6  C14 UNL     1      -3.836  49.940 -22.842  1.00  0.00     0.101 A 
HETATM    7  C15 UNL     1      -5.198  49.332 -22.955  1.00  0.00     0.042 C 
HETATM    8  C16 UNL     1      -5.288  47.945 -22.323  1.00  0.00     0.009 C 
HETATM    9  C17 UNL     1      -4.709  47.923 -20.888  1.00  0.00     0.003 C 
HETATM   10  C18 UNL     1      -5.130  46.639 -20.025  1.00  0.00    -0.035 C 
HETATM   11  C19 UNL     1      -6.640  46.848 -19.697  1.00  0.00     0.016 C 
HETATM   12  C20 UNL     1      -5.005  45.320 -20.827  1.00  0.00     0.017 C 
HETATM   13  C21 UNL     1      -5.298  44.059 -20.034  1.00  0.00     0.080 C 
HETATM   14  C22 UNL     1      -4.446  43.993 -18.793  1.00  0.00     0.135 C 
HETATM   15  O4  UNL     1      -3.810  42.972 -18.534  1.00  0.00    -0.297 OA
HETATM   16  C23 UNL     1      -4.490  45.194 -17.844  1.00  0.00     0.017 C 
HETATM   17  C24 UNL     1      -3.380  45.018 -16.775  1.00  0.00     0.023 C 
HETATM   18  C25 UNL     1      -5.825  45.145 -17.065  1.00  0.00     0.023 C 
HETATM   19  C26 UNL     1      -4.316  46.538 -18.668  1.00  0.00     0.009 C 
HETATM   20  C27 UNL     1      -2.818  46.870 -18.887  1.00  0.00     0.007 C 
HETATM   21  C28 UNL     1      -2.611  48.240 -19.528  1.00  0.00     0.011 C 
HETATM   22  C29 UNL     1      -3.187  48.333 -20.955  1.00  0.00    -0.029 C 
HETATM   23  C30 UNL     1      -2.357  47.386 -21.873  1.00  0.00     0.016 C 
HETATM   24  O5  UNL     1      -3.802  51.251 -23.454  1.00  0.00    -0.362 OA
ENDROOT
BRANCH   1  25
HETATM   25  C2  UNL     1      -3.123  49.938 -25.431  1.00  0.00     0.022 C 
HETATM   26  C1  UNL     1      -3.240  48.421 -25.612  1.00  0.00     0.013 C 
BRANCH  25  27
HETATM   27  C3  UNL     1      -2.019  50.560 -26.320  1.00  0.00     0.041 C 
BRANCH  27  28
HETATM   28  C4  UNL     1      -2.244  52.022 -26.758  1.00  0.00     0.150 C 
BRANCH  28  29
HETATM   29  O1  UNL     1      -2.507  51.999 -28.178  1.00  0.00    -0.393 OA
HETATM   30  H8  UNL     1      -3.352  51.526 -28.300  1.00  0.00     0.210 HD
ENDBRANCH  28  29
BRANCH  28  31
HETATM   31  C5  UNL     1      -1.007  52.930 -26.540  1.00  0.00     0.180 C 
BRANCH  31  32
HETATM   32  O2  UNL     1      -0.990  53.345 -25.163  1.00  0.00    -0.390 OA
HETATM   33  H10 UNL     1      -1.378  52.587 -24.679  1.00  0.00     0.210 HD
ENDBRANCH  31  32
BRANCH  31  34
HETATM   34  C6  UNL     1       0.343  52.255 -26.928  1.00  0.00     0.079 C 
HETATM   35  C7  UNL     1       0.585  52.190 -28.441  1.00  0.00     0.048 C 
HETATM   36  C8  UNL     1       0.400  50.836 -26.342  1.00  0.00     0.048 C 
BRANCH  34  37
HETATM   37  O3  UNL     1       1.406  53.016 -26.338  1.00  0.00    -0.388 OA
HETATM   38  H17 UNL     1       2.230  52.511 -26.451  1.00  0.00     0.210 HD
ENDBRANCH  34  37
ENDBRANCH  31  34
ENDBRANCH  28  31
ENDBRANCH  27  28
ENDBRANCH  25  27
ENDBRANCH   1  25
TORSDOF 8
ENDMDL
MODEL 6
REMARK minimizedAffinity -9.81969452
REMARK CNNscore 0.217820451
REMARK CNNaffinity 6.19126892
REMARK  8 active torsions:
REMARK  status: ('A' for Active; 'I' for Inactive)
REMARK    1  A    between atoms: C2_2  and  C3_3 
REMARK    2  A    between atoms: C2_2  and  C9_12 
REMARK    3  A    between atoms: C3_3  and  C4_4 
REMARK    4  A    between atoms: C4_4  and  O1_5 
REMARK    5  A    between atoms: C4_4  and  C5_6 
REMARK    6  A    between atoms: C5_6  and  O2_7 
REMARK    7  A    between atoms: C5_6  and  C6_8 
REMARK    8  A    between atoms: C6_8  and  O3_11 
ROOT
HETATM    1  C9  UNL     1      -6.574  48.955 -21.422  1.00  0.00     0.097 A 
HETATM    2  C10 UNL     1      -6.292  50.033 -20.418  1.00  0.00     0.042 A 
HETATM    3  C11 UNL     1      -4.784  50.351 -20.512  1.00  0.00     0.016 A 
HETATM    4  C12 UNL     1      -4.162  49.527 -21.692  1.00  0.00    -0.002 A 
HETATM    5  C13 UNL     1      -3.049  48.640 -21.083  1.00  0.00     0.019 C 
HETATM    6  C14 UNL     1      -5.306  48.631 -22.171  1.00  0.00     0.101 A 
HETATM    7  C15 UNL     1      -5.188  47.921 -23.482  1.00  0.00     0.042 C 
HETATM    8  C16 UNL     1      -4.620  48.803 -24.592  1.00  0.00     0.009 C 
HETATM    9  C17 UNL     1      -3.325  49.527 -24.153  1.00  0.00     0.003 C 
HETATM   10  C18 UNL     1      -2.463  50.132 -25.362  1.00  0.00    -0.035 C 
HETATM   11  C19 UNL     1      -1.843  48.892 -26.077  1.00  0.00     0.016 C 
HETATM   12  C20 UNL     1      -3.339  50.879 -26.398  1.00  0.00     0.017 C 
HETATM   13  C21 UNL     1      -2.570  51.557 -27.517  1.00  0.00     0.080 C 
HETATM   14  C22 UNL     1      -1.519  52.483 -26.963  1.00  0.00     0.135 C 
HETATM   15  O4  UNL     1      -1.437  53.641 -27.374  1.00  0.00    -0.297 OA
HETATM   16  C23 UNL     1      -0.520  51.897 -25.962  1.00  0.00     0.017 C 
HETATM   17  C24 UNL     1       0.308  53.060 -25.354  1.00  0.00     0.023 C 
HETATM   18  C25 UNL     1       0.496  51.033 -26.743  1.00  0.00     0.023 C 
HETATM   19  C26 UNL     1      -1.293  51.072 -24.850  1.00  0.00     0.009 C 
HETATM   20  C27 UNL     1      -1.776  51.994 -23.703  1.00  0.00     0.007 C 
HETATM   21  C28 UNL     1      -2.376  51.212 -22.537  1.00  0.00     0.011 C 
HETATM   22  C29 UNL     1      -3.660  50.449 -22.918  1.00  0.00    -0.029 C 
HETATM   23  C30 UNL     1      -4.766  51.498 -23.242  1.00  0.00     0.016 C 
HETATM   24  O5  UNL     1      -5.846  47.756 -21.154  1.00  0.00    -0.362 OA
ENDROOT
BRANCH   1  25
HETATM   25  C2  UNL     1      -7.980  48.715 -21.942  1.00  0.00     0.022 C 
HETATM   26  C1  UNL     1      -8.803  47.936 -20.910  1.00  0.00     0.013 C 
BRANCH  25  27
HETATM   27  C3  UNL     1      -7.943  48.017 -23.323  1.00  0.00     0.041 C 
BRANCH  27  28
HETATM   28  C4  UNL     1      -7.927  48.948 -24.553  1.00  0.00     0.150 C 
BRANCH  28  29
HETATM   29  O1  UNL     1      -7.977  50.303 -24.054  1.00  0.00    -0.393 OA
HETATM   30  H8  UNL     1      -7.146  50.454 -23.565  1.00  0.00     0.210 HD
ENDBRANCH  28  29
BRANCH  28  31
HETATM   31  C5  UNL     1      -9.150  48.761 -25.486  1.00  0.00     0.180 C 
BRANCH  31  32
HETATM   32  O2  UNL     1      -9.712  50.057 -25.755  1.00  0.00    -0.390 OA
HETATM   33  H10 UNL     1      -8.940  50.660 -25.750  1.00  0.00     0.210 HD
ENDBRANCH  31  32
BRANCH  31  34
HETATM   34  C6  UNL     1      -8.818  48.018 -26.815  1.00  0.00     0.079 C 
HETATM   35  C7  UNL     1      -9.806  46.895 -27.153  1.00  0.00     0.048 C 
HETATM   36  C8  UNL     1      -7.396  47.441 -26.745  1.00  0.00     0.048 C 
BRANCH  34  37
HETATM   37  O3  UNL     1      -8.851  48.977 -27.881  1.00  0.00    -0.388 OA
HETATM   38  H17 UNL     1      -8.496  48.547 -28.677  1.00  0.00     0.210 HD
ENDBRANCH  34  37
ENDBRANCH  31  34
ENDBRANCH  28  31
ENDBRANCH  27  28
ENDBRANCH  25  27
ENDBRANCH   1  25
TORSDOF 8
ENDMDL
MODEL 7
REMARK minimizedAffinity -7.45497465
REMARK CNNscore 0.216491386
REMARK CNNaffinity 6.07919836
REMARK  8 active torsions:
REMARK  status: ('A' for Active; 'I' for Inactive)
REMARK    1  A    between atoms: C2_2  and  C3_3 
REMARK    2  A    between atoms: C2_2  and  C9_12 
REMARK    3  A    between atoms: C3_3  and  C4_4 
REMARK    4  A    between atoms: C4_4  and  O1_5 
REMARK    5  A    between atoms: C4_4  and  C5_6 
REMARK    6  A    between atoms: C5_6  and  O2_7 
REMARK    7  A    between atoms: C5_6  and  C6_8 
REMARK    8  A    between atoms: C6_8  and  O3_11 
ROOT
HETATM    1  C9  UNL     1       1.216  53.629 -10.468  1.00  0.00     0.097 A 
HETATM    2  C10 UNL     1       2.385  52.949 -11.115  1.00  0.00     0.042 A 
HETATM    3  C11 UNL     1       3.600  53.888 -10.949  1.00  0.00     0.016 A 
HETATM    4  C12 UNL     1       3.179  55.114 -10.067  1.00  0.00    -0.002 A 
HETATM    5  C13 UNL     1       3.419  56.383 -10.920  1.00  0.00     0.019 C 
HETATM    6  C14 UNL     1       1.675  54.931  -9.859  1.00  0.00     0.101 A 
HETATM    7  C15 UNL     1       0.971  55.737  -8.814  1.00  0.00     0.042 C 
HETATM    8  C16 UNL     1       1.745  55.822  -7.501  1.00  0.00     0.009 C 
HETATM    9  C17 UNL     1       3.220  56.235  -7.722  1.00  0.00     0.003 C 
HETATM   10  C18 UNL     1       3.972  56.736  -6.398  1.00  0.00    -0.035 C 
HETATM   11  C19 UNL     1       3.352  58.131  -6.083  1.00  0.00     0.016 C 
HETATM   12  C20 UNL     1       3.701  55.819  -5.180  1.00  0.00     0.017 C 
HETATM   13  C21 UNL     1       4.464  56.186  -3.921  1.00  0.00     0.080 C 
HETATM   14  C22 UNL     1       5.943  56.265  -4.190  1.00  0.00     0.135 C 
HETATM   15  O4  UNL     1       6.737  55.672  -3.459  1.00  0.00    -0.297 OA
HETATM   16  C23 UNL     1       6.404  57.179  -5.329  1.00  0.00     0.017 C 
HETATM   17  C24 UNL     1       7.915  56.931  -5.579  1.00  0.00     0.023 C 
HETATM   18  C25 UNL     1       6.302  58.644  -4.845  1.00  0.00     0.023 C 
HETATM   19  C26 UNL     1       5.533  56.904  -6.626  1.00  0.00     0.009 C 
HETATM   20  C27 UNL     1       6.110  55.724  -7.448  1.00  0.00     0.007 C 
HETATM   21  C28 UNL     1       5.397  55.541  -8.785  1.00  0.00     0.011 C 
HETATM   22  C29 UNL     1       3.914  55.148  -8.631  1.00  0.00    -0.029 C 
HETATM   23  C30 UNL     1       3.854  53.723  -8.003  1.00  0.00     0.016 C 
HETATM   24  O5  UNL     1       0.904  54.881 -11.082  1.00  0.00    -0.362 OA
ENDROOT
BRANCH   1  25
HETATM   25  C2  UNL     1      -0.004  52.842 -10.026  1.00  0.00     0.022 C 
HETATM   26  C1  UNL     1       0.244  52.201  -8.656  1.00  0.00     0.013 C 
BRANCH  25  27
HETATM   27  C3  UNL     1      -0.408  51.806 -11.103  1.00  0.00     0.041 C 
BRANCH  27  28
HETATM   28  C4  UNL     1      -0.802  52.377 -12.480  1.00  0.00     0.150 C 
BRANCH  28  29
HETATM   29  O1  UNL     1      -2.177  52.808 -12.379  1.00  0.00    -0.393 OA
HETATM   30  H8  UNL     1      -2.194  53.547 -11.742  1.00  0.00     0.210 HD
ENDBRANCH  28  29
BRANCH  28  31
HETATM   31  C5  UNL     1      -0.736  51.334 -13.625  1.00  0.00     0.180 C 
BRANCH  31  32
HETATM   32  O2  UNL     1      -1.968  51.397 -14.363  1.00  0.00    -0.390 OA
HETATM   33  H10 UNL     1      -2.233  52.339 -14.309  1.00  0.00     0.210 HD
ENDBRANCH  31  32
BRANCH  31  34
HETATM   34  C6  UNL     1       0.485  51.521 -14.575  1.00  0.00     0.079 C 
HETATM   35  C7  UNL     1       0.175  51.201 -16.043  1.00  0.00     0.048 C 
HETATM   36  C8  UNL     1       1.653  50.644 -14.098  1.00  0.00     0.048 C 
BRANCH  34  37
HETATM   37  O3  UNL     1       0.904  52.890 -14.496  1.00  0.00    -0.388 OA
HETATM   38  H17 UNL     1       1.752  52.968 -14.966  1.00  0.00     0.210 HD
ENDBRANCH  34  37
ENDBRANCH  31  34
ENDBRANCH  28  31
ENDBRANCH  27  28
ENDBRANCH  25  27
ENDBRANCH   1  25
TORSDOF 8
ENDMDL
MODEL 8
REMARK minimizedAffinity -7.93160295
REMARK CNNscore 0.201670378
REMARK CNNaffinity 5.20396852
REMARK  8 active torsions:
REMARK  status: ('A' for Active; 'I' for Inactive)
REMARK    1  A    between atoms: C2_2  and  C3_3 
REMARK    2  A    between atoms: C2_2  and  C9_12 
REMARK    3  A    between atoms: C3_3  and  C4_4 
REMARK    4  A    between atoms: C4_4  and  O1_5 
REMARK    5  A    between atoms: C4_4  and  C5_6 
REMARK    6  A    between atoms: C5_6  and  O2_7 
REMARK    7  A    between atoms: C5_6  and  C6_8 
REMARK    8  A    between atoms: C6_8  and  O3_11 
ROOT
HETATM    1  C9  UNL     1       7.471  64.046 -34.710  1.00  0.00     0.097 A 
HETATM    2  C10 UNL     1       6.566  62.874 -34.951  1.00  0.00     0.042 A 
HETATM    3  C11 UNL     1       5.120  63.372 -34.737  1.00  0.00     0.016 A 
HETATM    4  C12 UNL     1       5.147  64.919 -34.482  1.00  0.00    -0.002 A 
HETATM    5  C13 UNL     1       4.506  65.155 -33.093  1.00  0.00     0.019 C 
HETATM    6  C14 UNL     1       6.635  65.265 -34.408  1.00  0.00     0.101 A 
HETATM    7  C15 UNL     1       7.065  66.695 -34.479  1.00  0.00     0.042 C 
HETATM    8  C16 UNL     1       6.324  67.491 -35.551  1.00  0.00     0.009 C 
HETATM    9  C17 UNL     1       4.791  67.301 -35.459  1.00  0.00     0.003 C 
HETATM   10  C18 UNL     1       3.940  68.396 -36.263  1.00  0.00    -0.035 C 
HETATM   11  C19 UNL     1       4.094  69.713 -35.441  1.00  0.00     0.016 C 
HETATM   12  C20 UNL     1       4.505  68.662 -37.680  1.00  0.00     0.017 C 
HETATM   13  C21 UNL     1       3.686  69.618 -38.527  1.00  0.00     0.080 C 
HETATM   14  C22 UNL     1       2.252  69.164 -38.618  1.00  0.00     0.135 C 
HETATM   15  O4  UNL     1       1.698  69.085 -39.715  1.00  0.00    -0.297 OA
HETATM   16  C23 UNL     1       1.509  68.909 -37.304  1.00  0.00     0.017 C 
HETATM   17  C24 UNL     1       0.150  68.235 -37.629  1.00  0.00     0.023 C 
HETATM   18  C25 UNL     1       1.152  70.277 -36.678  1.00  0.00     0.023 C 
HETATM   19  C26 UNL     1       2.402  68.015 -36.345  1.00  0.00     0.009 C 
HETATM   20  C27 UNL     1       2.214  66.508 -36.649  1.00  0.00     0.007 C 
HETATM   21  C28 UNL     1       2.928  65.614 -35.638  1.00  0.00     0.011 C 
HETATM   22  C29 UNL     1       4.461  65.773 -35.667  1.00  0.00    -0.029 C 
HETATM   23  C30 UNL     1       4.977  65.235 -37.035  1.00  0.00     0.016 C 
HETATM   24  O5  UNL     1       7.364  64.555 -33.379  1.00  0.00    -0.362 OA
ENDROOT
BRANCH   1  25
HETATM   25  C2  UNL     1       8.884  64.073 -35.264  1.00  0.00     0.022 C 
HETATM   26  C1  UNL     1       8.921  64.840 -36.590  1.00  0.00     0.013 C 
BRANCH  25  27
HETATM   27  C3  UNL     1       9.451  62.638 -35.391  1.00  0.00     0.041 C 
BRANCH  27  28
HETATM   28  C4  UNL     1      10.818  62.387 -34.722  1.00  0.00     0.150 C 
BRANCH  28  29
HETATM   29  O1  UNL     1      10.633  62.583 -33.302  1.00  0.00    -0.393 OA
HETATM   30  H8  UNL     1      10.028  61.880 -32.998  1.00  0.00     0.210 HD
ENDBRANCH  28  29
BRANCH  28  31
HETATM   31  C5  UNL     1      11.921  63.378 -35.177  1.00  0.00     0.180 C 
BRANCH  31  32
HETATM   32  O2  UNL     1      12.853  63.540 -34.094  1.00  0.00    -0.390 OA
HETATM   33  H10 UNL     1      12.857  62.668 -33.647  1.00  0.00     0.210 HD
ENDBRANCH  31  32
BRANCH  31  34
HETATM   34  C6  UNL     1      12.658  62.941 -36.478  1.00  0.00     0.079 C 
HETATM   35  C7  UNL     1      14.053  62.356 -36.226  1.00  0.00     0.048 C 
HETATM   36  C8  UNL     1      12.773  64.138 -37.435  1.00  0.00     0.048 C 
BRANCH  34  37
HETATM   37  O3  UNL     1      11.863  61.937 -37.124  1.00  0.00    -0.388 OA
HETATM   38  H17 UNL     1      12.245  61.779 -38.004  1.00  0.00     0.210 HD
ENDBRANCH  34  37
ENDBRANCH  31  34
ENDBRANCH  28  31
ENDBRANCH  27  28
ENDBRANCH  25  27
ENDBRANCH   1  25
TORSDOF 8
ENDMDL
MODEL 9
REMARK minimizedAffinity -9.4545002
REMARK CNNscore 0.198589757
REMARK CNNaffinity 5.88989067
REMARK  8 active torsions:
REMARK  status: ('A' for Active; 'I' for Inactive)
REMARK    1  A    between atoms: C2_2  and  C3_3 
REMARK    2  A    between atoms: C2_2  and  C9_12 
REMARK    3  A    between atoms: C3_3  and  C4_4 
REMARK    4  A    between atoms: C4_4  and  O1_5 
REMARK    5  A    between atoms: C4_4  and  C5_6 
REMARK    6  A    between atoms: C5_6  and  O2_7 
REMARK    7  A    between atoms: C5_6  and  C6_8 
REMARK    8  A    between atoms: C6_8  and  O3_11 
ROOT
HETATM    1  C9  UNL     1      -1.999  51.327 -23.554  1.00  0.00     0.097 A 
HETATM    2  C10 UNL     1      -2.969  52.418 -23.897  1.00  0.00     0.042 A 
HETATM    3  C11 UNL     1      -4.363  51.762 -24.003  1.00  0.00     0.016 A 
HETATM    4  C12 UNL     1      -4.249  50.254 -23.590  1.00  0.00    -0.002 A 
HETATM    5  C13 UNL     1      -4.725  49.419 -24.803  1.00  0.00     0.019 C 
HETATM    6  C14 UNL     1      -2.749  50.029 -23.390  1.00  0.00     0.101 A 
HETATM    7  C15 UNL     1      -2.274  48.793 -22.696  1.00  0.00     0.042 C 
HETATM    8  C16 UNL     1      -3.095  48.449 -21.455  1.00  0.00     0.009 C 
HETATM    9  C17 UNL     1      -4.615  48.460 -21.745  1.00  0.00     0.003 C 
HETATM   10  C18 UNL     1      -5.506  47.726 -20.631  1.00  0.00    -0.035 C 
HETATM   11  C19 UNL     1      -5.212  46.205 -20.816  1.00  0.00     0.016 C 
HETATM   12  C20 UNL     1      -5.087  48.110 -19.191  1.00  0.00     0.017 C 
HETATM   13  C21 UNL     1      -5.956  47.522 -18.094  1.00  0.00     0.080 C 
HETATM   14  C22 UNL     1      -7.407  47.857 -18.319  1.00  0.00     0.135 C 
HETATM   15  O4  UNL     1      -8.080  48.333 -17.404  1.00  0.00    -0.297 OA
HETATM   16  C23 UNL     1      -8.013  47.491 -19.677  1.00  0.00     0.017 C 
HETATM   17  C24 UNL     1      -9.424  48.127 -19.774  1.00  0.00     0.023 C 
HETATM   18  C25 UNL     1      -8.246  45.963 -19.705  1.00  0.00     0.023 C 
HETATM   19  C26 UNL     1      -7.057  47.983 -20.843  1.00  0.00     0.009 C 
HETATM   20  C27 UNL     1      -7.335  49.462 -21.209  1.00  0.00     0.007 C 
HETATM   21  C28 UNL     1      -6.551  49.917 -22.437  1.00  0.00     0.011 C 
HETATM   22  C29 UNL     1      -5.025  49.908 -22.218  1.00  0.00    -0.029 C 
HETATM   23  C30 UNL     1      -4.683  50.998 -21.159  1.00  0.00     0.016 C 
HETATM   24  O5  UNL     1      -1.942  50.312 -24.557  1.00  0.00    -0.362 OA
ENDROOT
BRANCH   1  25
HETATM   25  C2  UNL     1      -0.654  51.644 -22.924  1.00  0.00     0.022 C 
HETATM   26  C1  UNL     1      -0.834  52.027 -21.451  1.00  0.00     0.013 C 
BRANCH  25  27
HETATM   27  C3  UNL     1       0.090  52.732 -23.736  1.00  0.00     0.041 C 
BRANCH  27  28
HETATM   28  C4  UNL     1       0.246  52.463 -25.247  1.00  0.00     0.150 C 
BRANCH  28  29
HETATM   29  O1  UNL     1       1.646  52.630 -25.561  1.00  0.00    -0.393 OA
HETATM   30  H8  UNL     1       2.126  51.923 -25.089  1.00  0.00     0.210 HD
ENDBRANCH  28  29
BRANCH  28  31
HETATM   31  C5  UNL     1      -0.541  53.459 -26.136  1.00  0.00     0.180 C 
BRANCH  31  32
HETATM   32  O2  UNL     1       0.252  54.649 -26.289  1.00  0.00    -0.390 OA
HETATM   33  H10 UNL     1       1.177  54.326 -26.275  1.00  0.00     0.210 HD
ENDBRANCH  31  32
BRANCH  31  34
HETATM   34  C6  UNL     1      -0.938  52.880 -27.527  1.00  0.00     0.079 C 
HETATM   35  C7  UNL     1      -1.624  51.510 -27.448  1.00  0.00     0.048 C 
HETATM   36  C8  UNL     1       0.308  52.775 -28.420  1.00  0.00     0.048 C 
BRANCH  34  37
HETATM   37  O3  UNL     1      -1.847  53.799 -28.149  1.00  0.00    -0.388 OA
HETATM   38  H17 UNL     1      -1.972  53.514 -29.070  1.00  0.00     0.210 HD
ENDBRANCH  34  37
ENDBRANCH  31  34
ENDBRANCH  28  31
ENDBRANCH  27  28
ENDBRANCH  25  27
ENDBRANCH   1  25
TORSDOF 8
ENDMDL
