MODEL 1
REMARK minimizedAffinity -11.586112
REMARK  5 active torsions:
REMARK  status: ('A' for Active; 'I' for Inactive)
REMARK    1  A    between atoms: N1_2  and  C2_3 
REMARK    2  A    between atoms: C4_5  and  N3_29 
REMARK    3  A    between atoms: C5_7  and  N2_12 
REMARK    4  A    between atoms: C7_9  and  O2_10 
REMARK    5  A    between atoms: C28_35  and  O4_36 
ROOT
HETATM    1  C2  UNL     1      -5.011  49.008 -22.200  1.00  0.00     0.257 C 
HETATM    2  C3  UNL     1      -3.494  49.092 -21.987  1.00  0.00     0.092 C 
HETATM    3  C4  UNL     1      -2.714  48.906 -23.294  1.00  0.00     0.234 C 
HETATM    4  O1  UNL     1      -3.510  48.514 -24.409  1.00  0.00    -0.333 OA
HETATM    5  C5  UNL     1      -4.707  49.281 -24.689  1.00  0.00     0.168 C 
HETATM    6  C6  UNL     1      -5.608  48.163 -25.261  1.00  0.00     0.074 C 
HETATM    7  C7  UNL     1      -5.380  49.890 -23.413  1.00  0.00     0.209 C 
ENDROOT
BRANCH   1   8
HETATM    8  N1  UNL     1      -5.777  49.452 -21.016  1.00  0.00     0.086 N 
HETATM    9  C1  UNL     1      -4.941  49.915 -19.918  1.00  0.00     0.307 C 
HETATM   10  H4  UNL     1      -6.417  50.198 -21.303  1.00  0.00     0.316 HD
ENDBRANCH   1   8
BRANCH   7  11
HETATM   11  O2  UNL     1      -4.892  51.217 -23.106  1.00  0.00    -0.384 OA
HETATM   12  C8  UNL     1      -4.815  52.060 -24.249  1.00  0.00     0.202 C 
ENDBRANCH   7  11
BRANCH   3  13
HETATM   13  N3  UNL     1      -1.816  49.998 -23.655  1.00  0.00    -0.316 N 
HETATM   14  C24 UNL     1      -1.663  50.501 -24.939  1.00  0.00     0.048 A 
HETATM   15  C19 UNL     1      -0.832  51.630 -24.849  1.00  0.00     0.004 A 
HETATM   16  C23 UNL     1      -2.194  50.063 -26.166  1.00  0.00     0.030 A 
HETATM   17  C18 UNL     1      -0.479  51.798 -23.475  1.00  0.00     0.022 A 
HETATM   18  C20 UNL     1      -0.532  52.329 -26.038  1.00  0.00     0.014 A 
HETATM   19  C17 UNL     1       0.272  52.668 -22.671  1.00  0.00     0.057 A 
HETATM   20  C25 UNL     1      -1.092  50.761 -22.791  1.00  0.00     0.077 A 
HETATM   21  C16 UNL     1       0.443  52.535 -21.257  1.00  0.00     0.020 A 
HETATM   22  C27 UNL     1       1.025  53.861 -23.080  1.00  0.00     0.255 A 
HETATM   23  C15 UNL     1      -0.137  51.479 -20.536  1.00  0.00     0.017 A 
HETATM   24  C28 UNL     1       1.347  53.631 -20.775  1.00  0.00     0.257 A 
HETATM   25  C14 UNL     1      -0.124  51.007 -19.195  1.00  0.00     0.004 A 
HETATM   26  C26 UNL     1      -0.909  50.590 -21.253  1.00  0.00     0.077 A 
HETATM   27  C9  UNL     1      -0.864  49.809 -19.153  1.00  0.00     0.049 A 
HETATM   28  C13 UNL     1       0.496  51.478 -18.017  1.00  0.00     0.014 A 
HETATM   29  N2  UNL     1      -1.395  49.607 -20.427  1.00  0.00    -0.308 N 
HETATM   30  C10 UNL     1      -0.933  49.063 -17.961  1.00  0.00     0.030 A 
HETATM   31  C11 UNL     1      -0.304  49.552 -16.811  1.00  0.00     0.002 A 
HETATM   32  C12 UNL     1       0.393  50.750 -16.832  1.00  0.00     0.001 A 
HETATM   33  N4  UNL     1       1.579  54.405 -21.945  1.00  0.00    -0.326 N 
HETATM   34  H24 UNL     1       2.181  55.214 -21.980  1.00  0.00     0.165 HD
HETATM   35  O3  UNL     1       1.154  54.314 -24.200  1.00  0.00    -0.268 OA
HETATM   36  C21 UNL     1      -1.055  51.896 -27.262  1.00  0.00     0.001 A 
HETATM   37  C22 UNL     1      -1.875  50.777 -27.322  1.00  0.00     0.002 A 
BRANCH  24  38
HETATM   38  O4  UNL     1       0.737  54.486 -19.843  1.00  0.00    -0.372 OA
HETATM   39  H26 UNL     1      -0.192  54.565 -20.118  1.00  0.00     0.212 HD
ENDBRANCH  24  38
ENDBRANCH   3  13
TORSDOF 5
ENDMDL
MODEL 2
REMARK minimizedAffinity -11.1977568
REMARK  5 active torsions:
REMARK  status: ('A' for Active; 'I' for Inactive)
REMARK    1  A    between atoms: N1_2  and  C2_3 
REMARK    2  A    between atoms: C4_5  and  N3_29 
REMARK    3  A    between atoms: C5_7  and  N2_12 
REMARK    4  A    between atoms: C7_9  and  O2_10 
REMARK    5  A    between atoms: C28_35  and  O4_36 
ROOT
HETATM    1  C2  UNL     1      -2.515  48.033 -18.592  1.00  0.00     0.257 C 
HETATM    2  C3  UNL     1      -1.210  48.383 -19.319  1.00  0.00     0.092 C 
HETATM    3  C4  UNL     1      -1.463  49.086 -20.658  1.00  0.00     0.234 C 
HETATM    4  O1  UNL     1      -2.829  49.121 -21.061  1.00  0.00    -0.333 OA
HETATM    5  C5  UNL     1      -3.807  49.589 -20.099  1.00  0.00     0.168 C 
HETATM    6  C6  UNL     1      -5.019  48.724 -20.514  1.00  0.00     0.074 C 
HETATM    7  C7  UNL     1      -3.430  49.277 -18.612  1.00  0.00     0.209 C 
ENDROOT
BRANCH   1   8
HETATM    8  N1  UNL     1      -2.291  47.608 -17.194  1.00  0.00     0.086 N 
HETATM    9  C1  UNL     1      -3.483  47.089 -16.541  1.00  0.00     0.307 C 
HETATM   10  H4  UNL     1      -1.553  46.898 -17.183  1.00  0.00     0.316 HD
ENDBRANCH   1   8
BRANCH   7  11
HETATM   11  O2  UNL     1      -2.670  50.343 -17.996  1.00  0.00    -0.384 OA
HETATM   12  C8  UNL     1      -3.171  50.720 -16.719  1.00  0.00     0.202 C 
ENDBRANCH   7  11
BRANCH   3  13
HETATM   13  N3  UNL     1      -0.843  50.399 -20.808  1.00  0.00    -0.316 N 
HETATM   14  C24 UNL     1      -0.195  51.086 -19.792  1.00  0.00     0.048 A 
HETATM   15  C19 UNL     1       0.387  52.228 -20.365  1.00  0.00     0.004 A 
HETATM   16  C23 UNL     1      -0.065  50.791 -18.422  1.00  0.00     0.030 A 
HETATM   17  C18 UNL     1       0.071  52.221 -21.758  1.00  0.00     0.022 A 
HETATM   18  C20 UNL     1       1.118  53.094 -19.522  1.00  0.00     0.014 A 
HETATM   19  C17 UNL     1       0.308  52.994 -22.904  1.00  0.00     0.057 A 
HETATM   20  C25 UNL     1      -0.700  51.090 -21.972  1.00  0.00     0.077 A 
HETATM   21  C16 UNL     1      -0.195  52.700 -24.210  1.00  0.00     0.020 A 
HETATM   22  C27 UNL     1       1.091  54.233 -23.019  1.00  0.00     0.255 A 
HETATM   23  C15 UNL     1      -1.006  51.580 -24.458  1.00  0.00     0.017 A 
HETATM   24  C28 UNL     1       0.239  53.785 -25.151  1.00  0.00     0.257 A 
HETATM   25  C14 UNL     1      -1.714  51.035 -25.563  1.00  0.00     0.004 A 
HETATM   26  C26 UNL     1      -1.268  50.757 -23.384  1.00  0.00     0.077 A 
HETATM   27  C9  UNL     1      -2.425  49.909 -25.105  1.00  0.00     0.049 A 
HETATM   28  C13 UNL     1      -1.845  51.435 -26.911  1.00  0.00     0.014 A 
HETATM   29  N2  UNL     1      -2.080  49.718 -23.767  1.00  0.00    -0.308 N 
HETATM   30  C10 UNL     1      -3.302  49.227 -25.971  1.00  0.00     0.030 A 
HETATM   31  C11 UNL     1      -3.415  49.649 -27.300  1.00  0.00     0.002 A 
HETATM   32  C12 UNL     1      -2.689  50.732 -27.771  1.00  0.00     0.001 A 
HETATM   33  N4  UNL     1       1.061  54.614 -24.339  1.00  0.00    -0.326 N 
HETATM   34  H24 UNL     1       1.497  55.467 -24.658  1.00  0.00     0.165 HD
HETATM   35  O3  UNL     1       1.670  54.833 -22.136  1.00  0.00    -0.268 OA
HETATM   36  C21 UNL     1       1.248  52.808 -18.159  1.00  0.00     0.001 A 
HETATM   37  C22 UNL     1       0.663  51.670 -17.619  1.00  0.00     0.002 A 
BRANCH  24  38
HETATM   38  O4  UNL     1       1.050  53.320 -26.200  1.00  0.00    -0.372 OA
HETATM   39  H26 UNL     1       1.597  52.612 -25.824  1.00  0.00     0.212 HD
ENDBRANCH  24  38
ENDBRANCH   3  13
TORSDOF 5
ENDMDL
MODEL 3
REMARK minimizedAffinity -11.1975889
REMARK  5 active torsions:
REMARK  status: ('A' for Active; 'I' for Inactive)
REMARK    1  A    between atoms: N1_2  and  C2_3 
REMARK    2  A    between atoms: C4_5  and  N3_29 
REMARK    3  A    between atoms: C5_7  and  N2_12 
REMARK    4  A    between atoms: C7_9  and  O2_10 
REMARK    5  A    between atoms: C28_35  and  O4_36 
ROOT
HETATM    1  C2  UNL     1      -4.193  50.231 -20.715  1.00  0.00     0.257 C 
HETATM    2  C3  UNL     1      -2.945  49.838 -21.515  1.00  0.00     0.092 C 
HETATM    3  C4  UNL     1      -3.295  49.075 -22.799  1.00  0.00     0.234 C 
HETATM    4  O1  UNL     1      -4.669  48.719 -22.920  1.00  0.00    -0.333 OA
HETATM    5  C5  UNL     1      -5.659  49.756 -22.712  1.00  0.00     0.168 C 
HETATM    6  C6  UNL     1      -6.800  48.912 -22.098  1.00  0.00     0.074 C 
HETATM    7  C7  UNL     1      -5.216  50.856 -21.689  1.00  0.00     0.209 C 
ENDROOT
BRANCH   1   8
HETATM    8  N1  UNL     1      -3.895  51.191 -19.631  1.00  0.00     0.086 N 
HETATM    9  C1  UNL     1      -3.090  50.629 -18.556  1.00  0.00     0.307 C 
HETATM   10  H4  UNL     1      -3.416  52.000 -20.035  1.00  0.00     0.316 HD
ENDBRANCH   1   8
BRANCH   7  11
HETATM   11  O2  UNL     1      -4.539  51.965 -22.324  1.00  0.00    -0.384 OA
HETATM   12  C8  UNL     1      -5.097  52.311 -23.585  1.00  0.00     0.202 C 
ENDBRANCH   7  11
BRANCH   3  13
HETATM   13  N3  UNL     1      -2.800  49.666 -24.039  1.00  0.00    -0.316 N 
HETATM   14  C24 UNL     1      -3.248  49.326 -25.307  1.00  0.00     0.048 A 
HETATM   15  C19 UNL     1      -2.643  50.211 -26.214  1.00  0.00     0.004 A 
HETATM   16  C23 UNL     1      -4.142  48.323 -25.727  1.00  0.00     0.030 A 
HETATM   17  C18 UNL     1      -1.809  51.095 -25.464  1.00  0.00     0.022 A 
HETATM   18  C20 UNL     1      -2.952  50.070 -27.585  1.00  0.00     0.014 A 
HETATM   19  C17 UNL     1      -0.953  52.185 -25.680  1.00  0.00     0.057 A 
HETATM   20  C25 UNL     1      -1.928  50.705 -24.141  1.00  0.00     0.077 A 
HETATM   21  C16 UNL     1      -0.220  52.867 -24.658  1.00  0.00     0.020 A 
HETATM   22  C27 UNL     1      -0.624  52.845 -26.951  1.00  0.00     0.255 A 
HETATM   23  C15 UNL     1      -0.290  52.478 -23.310  1.00  0.00     0.017 A 
HETATM   24  C28 UNL     1       0.612  53.941 -25.295  1.00  0.00     0.257 A 
HETATM   25  C14 UNL     1       0.324  52.859 -22.087  1.00  0.00     0.004 A 
HETATM   26  C26 UNL     1      -1.129  51.426 -23.013  1.00  0.00     0.077 A 
HETATM   27  C9  UNL     1      -0.136  51.984 -21.083  1.00  0.00     0.049 A 
HETATM   28  C13 UNL     1       1.274  53.851 -21.757  1.00  0.00     0.014 A 
HETATM   29  N2  UNL     1      -1.086  51.147 -21.669  1.00  0.00    -0.308 N 
HETATM   30  C10 UNL     1       0.391  52.064 -19.780  1.00  0.00     0.030 A 
HETATM   31  C11 UNL     1       1.334  53.054 -19.483  1.00  0.00     0.002 A 
HETATM   32  C12 UNL     1       1.765  53.945 -20.455  1.00  0.00     0.001 A 
HETATM   33  N4  UNL     1       0.236  53.878 -26.665  1.00  0.00    -0.326 N 
HETATM   34  H24 UNL     1       0.638  54.455 -27.390  1.00  0.00     0.165 HD
HETATM   35  O3  UNL     1      -1.021  52.561 -28.063  1.00  0.00    -0.268 OA
HETATM   36  C21 UNL     1      -3.837  49.073 -28.009  1.00  0.00     0.001 A 
HETATM   37  C22 UNL     1      -4.422  48.212 -27.090  1.00  0.00     0.002 A 
BRANCH  24  38
HETATM   38  O4  UNL     1       0.289  55.233 -24.849  1.00  0.00    -0.372 OA
HETATM   39  H26 UNL     1      -0.672  55.237 -24.708  1.00  0.00     0.212 HD
ENDBRANCH  24  38
ENDBRANCH   3  13
TORSDOF 5
ENDMDL
MODEL 4
REMARK minimizedAffinity -10.6376667
REMARK  5 active torsions:
REMARK  status: ('A' for Active; 'I' for Inactive)
REMARK    1  A    between atoms: N1_2  and  C2_3 
REMARK    2  A    between atoms: C4_5  and  N3_29 
REMARK    3  A    between atoms: C5_7  and  N2_12 
REMARK    4  A    between atoms: C7_9  and  O2_10 
REMARK    5  A    between atoms: C28_35  and  O4_36 
ROOT
HETATM    1  C2  UNL     1      -5.024  48.201 -19.854  1.00  0.00     0.257 C 
HETATM    2  C3  UNL     1      -3.501  48.278 -20.018  1.00  0.00     0.092 C 
HETATM    3  C4  UNL     1      -3.052  47.944 -21.446  1.00  0.00     0.234 C 
HETATM    4  O1  UNL     1      -4.089  47.456 -22.293  1.00  0.00    -0.333 OA
HETATM    5  C5  UNL     1      -5.323  48.214 -22.359  1.00  0.00     0.168 C 
HETATM    6  C6  UNL     1      -6.328  47.061 -22.583  1.00  0.00     0.074 C 
HETATM    7  C7  UNL     1      -5.676  48.962 -21.030  1.00  0.00     0.209 C 
ENDROOT
BRANCH   1   8
HETATM    8  N1  UNL     1      -5.488  48.778 -18.575  1.00  0.00     0.086 N 
HETATM    9  C1  UNL     1      -6.861  48.430 -18.239  1.00  0.00     0.307 C 
HETATM   10  H4  UNL     1      -4.859  48.466 -17.830  1.00  0.00     0.316 HD
ENDBRANCH   1   8
BRANCH   7  11
HETATM   11  O2  UNL     1      -5.137  50.304 -20.987  1.00  0.00    -0.384 OA
HETATM   12  C8  UNL     1      -5.208  50.973 -22.239  1.00  0.00     0.202 C 
ENDBRANCH   7  11
BRANCH   3  13
HETATM   13  N3  UNL     1      -2.273  48.977 -22.121  1.00  0.00    -0.316 N 
HETATM   14  C24 UNL     1      -2.342  49.256 -23.478  1.00  0.00     0.048 A 
HETATM   15  C19 UNL     1      -1.561  50.400 -23.709  1.00  0.00     0.004 A 
HETATM   16  C23 UNL     1      -3.033  48.603 -24.516  1.00  0.00     0.030 A 
HETATM   17  C18 UNL     1      -1.010  50.807 -22.456  1.00  0.00     0.022 A 
HETATM   18  C20 UNL     1      -1.479  50.891 -25.030  1.00  0.00     0.014 A 
HETATM   19  C17 UNL     1      -0.186  51.817 -21.936  1.00  0.00     0.057 A 
HETATM   20  C25 UNL     1      -1.461  49.890 -21.521  1.00  0.00     0.077 A 
HETATM   21  C16 UNL     1       0.205  51.931 -20.566  1.00  0.00     0.020 A 
HETATM   22  C27 UNL     1       0.439  52.938 -22.652  1.00  0.00     0.255 A 
HETATM   23  C15 UNL     1      -0.207  51.002 -19.596  1.00  0.00     0.017 A 
HETATM   24  C28 UNL     1       1.120  53.112 -20.421  1.00  0.00     0.257 A 
HETATM   25  C14 UNL     1       0.033  50.767 -18.215  1.00  0.00     0.004 A 
HETATM   26  C26 UNL     1      -1.037  49.989 -20.024  1.00  0.00     0.077 A 
HETATM   27  C9  UNL     1      -0.635  49.579 -17.859  1.00  0.00     0.049 A 
HETATM   28  C13 UNL     1       0.803  51.444 -17.246  1.00  0.00     0.014 A 
HETATM   29  N2  UNL     1      -1.345  49.151 -18.981  1.00  0.00    -0.308 N 
HETATM   30  C10 UNL     1      -0.486  49.046 -16.564  1.00  0.00     0.030 A 
HETATM   31  C11 UNL     1       0.288  49.737 -15.625  1.00  0.00     0.002 A 
HETATM   32  C12 UNL     1       0.917  50.927 -15.955  1.00  0.00     0.001 A 
HETATM   33  N4  UNL     1       1.133  53.678 -21.725  1.00  0.00    -0.326 N 
HETATM   34  H24 UNL     1       1.685  54.481 -21.989  1.00  0.00     0.165 HD
HETATM   35  O3  UNL     1       0.373  53.195 -23.837  1.00  0.00    -0.268 OA
HETATM   36  C21 UNL     1      -2.162  50.245 -26.067  1.00  0.00     0.001 A 
HETATM   37  C22 UNL     1      -2.928  49.116 -25.809  1.00  0.00     0.002 A 
BRANCH  24  38
HETATM   38  O4  UNL     1       0.620  54.101 -19.559  1.00  0.00    -0.372 OA
HETATM   39  H26 UNL     1      -0.342  54.113 -19.692  1.00  0.00     0.212 HD
ENDBRANCH  24  38
ENDBRANCH   3  13
TORSDOF 5
ENDMDL
MODEL 5
REMARK minimizedAffinity -10.0938854
REMARK  5 active torsions:
REMARK  status: ('A' for Active; 'I' for Inactive)
REMARK    1  A    between atoms: N1_2  and  C2_3 
REMARK    2  A    between atoms: C4_5  and  N3_29 
REMARK    3  A    between atoms: C5_7  and  N2_12 
REMARK    4  A    between atoms: C7_9  and  O2_10 
REMARK    5  A    between atoms: C28_35  and  O4_36 
ROOT
HETATM    1  C2  UNL     1      -4.346  46.813 -21.875  1.00  0.00     0.257 C 
HETATM    2  C3  UNL     1      -2.946  46.937 -21.262  1.00  0.00     0.092 C 
HETATM    3  C4  UNL     1      -2.188  48.161 -21.790  1.00  0.00     0.234 C 
HETATM    4  O1  UNL     1      -2.833  48.840 -22.864  1.00  0.00    -0.333 OA
HETATM    5  C5  UNL     1      -4.229  49.193 -22.701  1.00  0.00     0.168 C 
HETATM    6  C6  UNL     1      -4.706  49.065 -24.166  1.00  0.00     0.074 C 
HETATM    7  C7  UNL     1      -5.033  48.195 -21.802  1.00  0.00     0.209 C 
ENDROOT
BRANCH   1   8
HETATM    8  N1  UNL     1      -5.183  45.810 -21.184  1.00  0.00     0.086 N 
HETATM    9  C1  UNL     1      -6.589  45.863 -21.556  1.00  0.00     0.307 C 
HETATM   10  H4  UNL     1      -4.807  44.879 -21.383  1.00  0.00     0.316 HD
ENDBRANCH   1   8
BRANCH   7  11
HETATM   11  O2  UNL     1      -5.022  48.573 -20.405  1.00  0.00    -0.384 OA
HETATM   12  C8  UNL     1      -5.263  49.960 -20.201  1.00  0.00     0.202 C 
ENDBRANCH   7  11
BRANCH   3  13
HETATM   13  N3  UNL     1      -1.732  49.108 -20.777  1.00  0.00    -0.316 N 
HETATM   14  C24 UNL     1      -1.774  48.878 -19.409  1.00  0.00     0.048 A 
HETATM   15  C19 UNL     1      -1.116  49.951 -18.786  1.00  0.00     0.004 A 
HETATM   16  C23 UNL     1      -2.326  47.813 -18.673  1.00  0.00     0.030 A 
HETATM   17  C18 UNL     1      -0.677  50.843 -19.811  1.00  0.00     0.022 A 
HETATM   18  C20 UNL     1      -1.020  49.942 -17.377  1.00  0.00     0.014 A 
HETATM   19  C17 UNL     1       0.019  52.054 -19.938  1.00  0.00     0.057 A 
HETATM   20  C25 UNL     1      -1.098  50.289 -21.009  1.00  0.00     0.077 A 
HETATM   21  C16 UNL     1       0.288  52.719 -21.175  1.00  0.00     0.020 A 
HETATM   22  C27 UNL     1       0.604  52.882 -18.874  1.00  0.00     0.255 A 
HETATM   23  C15 UNL     1      -0.151  52.204 -22.406  1.00  0.00     0.017 A 
HETATM   24  C28 UNL     1       1.013  54.002 -20.887  1.00  0.00     0.257 A 
HETATM   25  C14 UNL     1      -0.131  52.609 -23.768  1.00  0.00     0.004 A 
HETATM   26  C26 UNL     1      -0.827  51.003 -22.368  1.00  0.00     0.077 A 
HETATM   27  C9  UNL     1      -0.843  51.649 -24.513  1.00  0.00     0.049 A 
HETATM   28  C13 UNL     1       0.396  53.742 -24.425  1.00  0.00     0.014 A 
HETATM   29  N2  UNL     1      -1.207  50.629 -23.632  1.00  0.00    -0.308 N 
HETATM   30  C10 UNL     1      -1.073  51.849 -25.888  1.00  0.00     0.030 A 
HETATM   31  C11 UNL     1      -0.543  52.984 -26.511  1.00  0.00     0.002 A 
HETATM   32  C12 UNL     1       0.193  53.915 -25.794  1.00  0.00     0.001 A 
HETATM   33  N4  UNL     1       1.207  53.959 -19.479  1.00  0.00    -0.326 N 
HETATM   34  H24 UNL     1       1.644  54.696 -18.945  1.00  0.00     0.165 HD
HETATM   35  O3  UNL     1       0.582  52.682 -17.677  1.00  0.00    -0.268 OA
HETATM   36  C21 UNL     1      -1.569  48.888 -16.639  1.00  0.00     0.001 A 
HETATM   37  C22 UNL     1      -2.213  47.839 -17.282  1.00  0.00     0.002 A 
BRANCH  24  38
HETATM   38  O4  UNL     1       2.291  54.060 -21.467  1.00  0.00    -0.372 OA
HETATM   39  H26 UNL     1       2.648  53.158 -21.424  1.00  0.00     0.212 HD
ENDBRANCH  24  38
ENDBRANCH   3  13
TORSDOF 5
ENDMDL
MODEL 6
REMARK minimizedAffinity -9.9579401
REMARK  5 active torsions:
REMARK  status: ('A' for Active; 'I' for Inactive)
REMARK    1  A    between atoms: N1_2  and  C2_3 
REMARK    2  A    between atoms: C4_5  and  N3_29 
REMARK    3  A    between atoms: C5_7  and  N2_12 
REMARK    4  A    between atoms: C7_9  and  O2_10 
REMARK    5  A    between atoms: C28_35  and  O4_36 
ROOT
HETATM    1  C2  UNL     1      -3.001  50.002 -19.001  1.00  0.00     0.257 C 
HETATM    2  C3  UNL     1      -4.091  50.422 -19.995  1.00  0.00     0.092 C 
HETATM    3  C4  UNL     1      -3.546  50.589 -21.419  1.00  0.00     0.234 C 
HETATM    4  O1  UNL     1      -2.127  50.506 -21.523  1.00  0.00    -0.333 OA
HETATM    5  C5  UNL     1      -1.467  49.375 -20.903  1.00  0.00     0.168 C 
HETATM    6  C6  UNL     1      -0.134  50.040 -20.493  1.00  0.00     0.074 C 
HETATM    7  C7  UNL     1      -2.197  48.840 -19.626  1.00  0.00     0.209 C 
ENDROOT
BRANCH   1   8
HETATM    8  N1  UNL     1      -3.553  49.576 -17.698  1.00  0.00     0.086 N 
HETATM    9  C1  UNL     1      -3.066  50.358 -16.571  1.00  0.00     0.307 C 
HETATM   10  H4  UNL     1      -4.574  49.631 -17.743  1.00  0.00     0.316 HD
ENDBRANCH   1   8
BRANCH   7  11
HETATM   11  O2  UNL     1      -3.161  47.804 -19.929  1.00  0.00    -0.384 OA
HETATM   12  C8  UNL     1      -2.701  46.884 -20.910  1.00  0.00     0.202 C 
ENDBRANCH   7  11
BRANCH   3  13
HETATM   13  N3  UNL     1      -4.191  49.773 -22.442  1.00  0.00    -0.316 N 
HETATM   14  C24 UNL     1      -5.335  49.015 -22.239  1.00  0.00     0.048 A 
HETATM   15  C19 UNL     1      -5.721  48.500 -23.488  1.00  0.00     0.004 A 
HETATM   16  C23 UNL     1      -6.066  48.750 -21.066  1.00  0.00     0.030 A 
HETATM   17  C18 UNL     1      -4.777  48.961 -24.455  1.00  0.00     0.022 A 
HETATM   18  C20 UNL     1      -6.878  47.693 -23.544  1.00  0.00     0.014 A 
HETATM   19  C17 UNL     1      -4.538  48.866 -25.835  1.00  0.00     0.057 A 
HETATM   20  C25 UNL     1      -3.851  49.719 -23.758  1.00  0.00     0.077 A 
HETATM   21  C16 UNL     1      -3.434  49.466 -26.518  1.00  0.00     0.020 A 
HETATM   22  C27 UNL     1      -5.331  48.156 -26.848  1.00  0.00     0.255 A 
HETATM   23  C15 UNL     1      -2.459  50.214 -25.840  1.00  0.00     0.017 A 
HETATM   24  C28 UNL     1      -3.507  49.096 -27.971  1.00  0.00     0.257 A 
HETATM   25  C14 UNL     1      -1.239  50.868 -26.165  1.00  0.00     0.004 A 
HETATM   26  C26 UNL     1      -2.634  50.372 -24.482  1.00  0.00     0.077 A 
HETATM   27  C9  UNL     1      -0.688  51.369 -24.969  1.00  0.00     0.049 A 
HETATM   28  C13 UNL     1      -0.533  51.035 -27.375  1.00  0.00     0.014 A 
HETATM   29  N2  UNL     1      -1.604  51.106 -23.950  1.00  0.00    -0.308 N 
HETATM   30  C10 UNL     1       0.581  51.979 -24.978  1.00  0.00     0.030 A 
HETATM   31  C11 UNL     1       1.261  52.127 -26.192  1.00  0.00     0.002 A 
HETATM   32  C12 UNL     1       0.708  51.672 -27.380  1.00  0.00     0.001 A 
HETATM   33  N4  UNL     1      -4.724  48.365 -28.063  1.00  0.00    -0.326 N 
HETATM   34  H24 UNL     1      -5.065  47.937 -28.911  1.00  0.00     0.165 HD
HETATM   35  O3  UNL     1      -6.339  47.501 -26.680  1.00  0.00    -0.268 OA
HETATM   36  C21 UNL     1      -7.607  47.423 -22.380  1.00  0.00     0.001 A 
HETATM   37  C22 UNL     1      -7.203  47.946 -21.159  1.00  0.00     0.002 A 
BRANCH  24  38
HETATM   38  O4  UNL     1      -3.641  50.206 -28.821  1.00  0.00    -0.372 OA
HETATM   39  H26 UNL     1      -4.199  50.844 -28.346  1.00  0.00     0.212 HD
ENDBRANCH  24  38
ENDBRANCH   3  13
TORSDOF 5
ENDMDL
MODEL 7
REMARK minimizedAffinity -9.93022823
REMARK  5 active torsions:
REMARK  status: ('A' for Active; 'I' for Inactive)
REMARK    1  A    between atoms: N1_2  and  C2_3 
REMARK    2  A    between atoms: C4_5  and  N3_29 
REMARK    3  A    between atoms: C5_7  and  N2_12 
REMARK    4  A    between atoms: C7_9  and  O2_10 
REMARK    5  A    between atoms: C28_35  and  O4_36 
ROOT
HETATM    1  C2  UNL     1      -5.676  48.072 -19.857  1.00  0.00     0.257 C 
HETATM    2  C3  UNL     1      -5.819  49.036 -21.041  1.00  0.00     0.092 C 
HETATM    3  C4  UNL     1      -4.582  49.923 -21.221  1.00  0.00     0.234 C 
HETATM    4  O1  UNL     1      -3.624  49.823 -20.171  1.00  0.00    -0.333 OA
HETATM    5  C5  UNL     1      -3.192  48.499 -19.772  1.00  0.00     0.168 C 
HETATM    6  C6  UNL     1      -2.944  48.744 -18.266  1.00  0.00     0.074 C 
HETATM    7  C7  UNL     1      -4.290  47.396 -19.946  1.00  0.00     0.209 C 
ENDROOT
BRANCH   1   8
HETATM    8  N1  UNL     1      -6.730  47.035 -19.836  1.00  0.00     0.086 N 
HETATM    9  C1  UNL     1      -6.680  46.172 -18.666  1.00  0.00     0.307 C 
HETATM   10  H4  UNL     1      -7.642  47.497 -19.888  1.00  0.00     0.316 HD
ENDBRANCH   1   8
BRANCH   7  11
HETATM   11  O2  UNL     1      -4.238  46.760 -21.245  1.00  0.00    -0.384 OA
HETATM   12  C8  UNL     1      -2.913  46.467 -21.669  1.00  0.00     0.202 C 
ENDBRANCH   7  11
BRANCH   3  13
HETATM   13  N3  UNL     1      -3.932  49.845 -22.525  1.00  0.00    -0.316 N 
HETATM   14  C24 UNL     1      -4.468  49.208 -23.636  1.00  0.00     0.048 A 
HETATM   15  C19 UNL     1      -3.621  49.480 -24.722  1.00  0.00     0.004 A 
HETATM   16  C23 UNL     1      -5.631  48.428 -23.774  1.00  0.00     0.030 A 
HETATM   17  C18 UNL     1      -2.551  50.295 -24.242  1.00  0.00     0.022 A 
HETATM   18  C20 UNL     1      -3.963  48.940 -25.982  1.00  0.00     0.014 A 
HETATM   19  C17 UNL     1      -1.398  50.929 -24.729  1.00  0.00     0.057 A 
HETATM   20  C25 UNL     1      -2.780  50.472 -22.888  1.00  0.00     0.077 A 
HETATM   21  C16 UNL     1      -0.486  51.694 -23.937  1.00  0.00     0.020 A 
HETATM   22  C27 UNL     1      -0.885  50.949 -26.107  1.00  0.00     0.255 A 
HETATM   23  C15 UNL     1      -0.669  51.867 -22.555  1.00  0.00     0.017 A 
HETATM   24  C28 UNL     1       0.637  52.166 -24.813  1.00  0.00     0.257 A 
HETATM   25  C14 UNL     1       0.038  52.475 -21.483  1.00  0.00     0.004 A 
HETATM   26  C26 UNL     1      -1.792  51.291 -22.003  1.00  0.00     0.077 A 
HETATM   27  C9  UNL     1      -0.668  52.205 -20.294  1.00  0.00     0.049 A 
HETATM   28  C13 UNL     1       1.250  53.196 -21.418  1.00  0.00     0.014 A 
HETATM   29  N2  UNL     1      -1.834  51.526 -20.651  1.00  0.00    -0.308 N 
HETATM   30  C10 UNL     1      -0.138  52.603 -19.051  1.00  0.00     0.030 A 
HETATM   31  C11 UNL     1       1.068  53.312 -19.018  1.00  0.00     0.002 A 
HETATM   32  C12 UNL     1       1.751  53.616 -20.186  1.00  0.00     0.001 A 
HETATM   33  N4  UNL     1       0.255  51.716 -26.107  1.00  0.00    -0.326 N 
HETATM   34  H24 UNL     1       0.813  51.842 -26.938  1.00  0.00     0.165 HD
HETATM   35  O3  UNL     1      -1.355  50.404 -27.085  1.00  0.00    -0.268 OA
HETATM   36  C21 UNL     1      -5.116  48.161 -26.125  1.00  0.00     0.001 A 
HETATM   37  C22 UNL     1      -5.937  47.910 -25.034  1.00  0.00     0.002 A 
BRANCH  24  38
HETATM   38  O4  UNL     1       0.733  53.566 -24.887  1.00  0.00    -0.372 OA
HETATM   39  H26 UNL     1      -0.179  53.900 -24.865  1.00  0.00     0.212 HD
ENDBRANCH  24  38
ENDBRANCH   3  13
TORSDOF 5
ENDMDL
MODEL 8
REMARK minimizedAffinity -9.78170872
REMARK  5 active torsions:
REMARK  status: ('A' for Active; 'I' for Inactive)
REMARK    1  A    between atoms: N1_2  and  C2_3 
REMARK    2  A    between atoms: C4_5  and  N3_29 
REMARK    3  A    between atoms: C5_7  and  N2_12 
REMARK    4  A    between atoms: C7_9  and  O2_10 
REMARK    5  A    between atoms: C28_35  and  O4_36 
ROOT
HETATM    1  C2  UNL     1      -3.470  48.851 -18.623  1.00  0.00     0.257 C 
HETATM    2  C3  UNL     1      -3.757  50.009 -19.587  1.00  0.00     0.092 C 
HETATM    3  C4  UNL     1      -2.707  51.123 -19.486  1.00  0.00     0.234 C 
HETATM    4  O1  UNL     1      -1.782  50.969 -18.414  1.00  0.00    -0.333 OA
HETATM    5  C5  UNL     1      -1.117  49.690 -18.271  1.00  0.00     0.168 C 
HETATM    6  C6  UNL     1      -0.970  49.639 -16.732  1.00  0.00     0.074 C 
HETATM    7  C7  UNL     1      -1.977  48.473 -18.751  1.00  0.00     0.209 C 
ENDROOT
BRANCH   1   8
HETATM    8  N1  UNL     1      -4.305  47.663 -18.897  1.00  0.00     0.086 N 
HETATM    9  C1  UNL     1      -5.484  47.568 -18.050  1.00  0.00     0.307 C 
HETATM   10  H4  UNL     1      -4.586  47.682 -19.882  1.00  0.00     0.316 HD
ENDBRANCH   1   8
BRANCH   7  11
HETATM   11  O2  UNL     1      -1.763  48.157 -20.147  1.00  0.00    -0.384 OA
HETATM   12  C8  UNL     1      -0.419  48.360 -20.564  1.00  0.00     0.202 C 
ENDBRANCH   7  11
BRANCH   3  13
HETATM   13  N3  UNL     1      -2.013  51.451 -20.727  1.00  0.00    -0.316 N 
HETATM   14  C24 UNL     1      -0.856  52.213 -20.806  1.00  0.00     0.048 A 
HETATM   15  C19 UNL     1      -0.423  52.177 -22.141  1.00  0.00     0.004 A 
HETATM   16  C23 UNL     1      -0.153  52.919 -19.812  1.00  0.00     0.030 A 
HETATM   17  C18 UNL     1      -1.350  51.376 -22.875  1.00  0.00     0.022 A 
HETATM   18  C20 UNL     1       0.755  52.880 -22.475  1.00  0.00     0.014 A 
HETATM   19  C17 UNL     1      -1.548  50.911 -24.183  1.00  0.00     0.057 A 
HETATM   20  C25 UNL     1      -2.314  50.974 -21.966  1.00  0.00     0.077 A 
HETATM   21  C16 UNL     1      -2.646  50.100 -24.608  1.00  0.00     0.020 A 
HETATM   22  C27 UNL     1      -0.709  51.144 -25.367  1.00  0.00     0.255 A 
HETATM   23  C15 UNL     1      -3.659  49.699 -23.721  1.00  0.00     0.017 A 
HETATM   24  C28 UNL     1      -2.523  49.853 -26.083  1.00  0.00     0.257 A 
HETATM   25  C14 UNL     1      -4.885  48.984 -23.800  1.00  0.00     0.004 A 
HETATM   26  C26 UNL     1      -3.526  50.100 -22.409  1.00  0.00     0.077 A 
HETATM   27  C9  UNL     1      -5.482  49.013 -22.525  1.00  0.00     0.049 A 
HETATM   28  C13 UNL     1      -5.561  48.352 -24.865  1.00  0.00     0.014 A 
HETATM   29  N2  UNL     1      -4.589  49.653 -21.664  1.00  0.00    -0.308 N 
HETATM   30  C10 UNL     1      -6.765  48.466 -22.332  1.00  0.00     0.030 A 
HETATM   31  C11 UNL     1      -7.414  47.849 -23.408  1.00  0.00     0.002 A 
HETATM   32  C12 UNL     1      -6.817  47.781 -24.658  1.00  0.00     0.001 A 
HETATM   33  N4  UNL     1      -1.287  50.471 -26.417  1.00  0.00    -0.326 N 
HETATM   34  H24 UNL     1      -0.911  50.518 -27.353  1.00  0.00     0.165 HD
HETATM   35  O3  UNL     1       0.310  51.800 -25.441  1.00  0.00    -0.268 OA
HETATM   36  C21 UNL     1       1.457  53.587 -21.493  1.00  0.00     0.001 A 
HETATM   37  C22 UNL     1       1.006  53.604 -20.180  1.00  0.00     0.002 A 
BRANCH  24  38
HETATM   38  O4  UNL     1      -2.393  48.493 -26.410  1.00  0.00    -0.372 OA
HETATM   39  H26 UNL     1      -1.865  48.094 -25.699  1.00  0.00     0.212 HD
ENDBRANCH  24  38
ENDBRANCH   3  13
TORSDOF 5
ENDMDL
MODEL 9
REMARK minimizedAffinity -9.77119637
REMARK  5 active torsions:
REMARK  status: ('A' for Active; 'I' for Inactive)
REMARK    1  A    between atoms: N1_2  and  C2_3 
REMARK    2  A    between atoms: C4_5  and  N3_29 
REMARK    3  A    between atoms: C5_7  and  N2_12 
REMARK    4  A    between atoms: C7_9  and  O2_10 
REMARK    5  A    between atoms: C28_35  and  O4_36 
ROOT
HETATM    1  C2  UNL     1      -0.637  51.968 -26.741  1.00  0.00     0.257 C 
HETATM    2  C3  UNL     1      -1.030  50.485 -26.721  1.00  0.00     0.092 C 
HETATM    3  C4  UNL     1      -1.238  49.958 -25.296  1.00  0.00     0.234 C 
HETATM    4  O1  UNL     1      -0.860  50.868 -24.267  1.00  0.00    -0.333 OA
HETATM    5  C5  UNL     1      -1.369  52.224 -24.341  1.00  0.00     0.168 C 
HETATM    6  C6  UNL     1      -0.182  52.986 -23.708  1.00  0.00     0.074 C 
HETATM    7  C7  UNL     1      -1.595  52.735 -25.803  1.00  0.00     0.209 C 
ENDROOT
BRANCH   1   8
HETATM    8  N1  UNL     1      -0.700  52.554 -28.096  1.00  0.00     0.086 N 
HETATM    9  C1  UNL     1      -0.414  53.981 -28.131  1.00  0.00     0.307 C 
HETATM   10  H4  UNL     1      -0.040  52.054 -28.699  1.00  0.00     0.316 HD
ENDBRANCH   1   8
BRANCH   7  11
HETATM   11  O2  UNL     1      -2.932  52.464 -26.286  1.00  0.00    -0.384 OA
HETATM   12  C8  UNL     1      -3.905  52.436 -25.249  1.00  0.00     0.202 C 
ENDBRANCH   7  11
BRANCH   3  13
HETATM   13  N3  UNL     1      -2.550  49.381 -25.022  1.00  0.00    -0.316 N 
HETATM   14  C24 UNL     1      -3.470  49.018 -25.995  1.00  0.00     0.048 A 
HETATM   15  C19 UNL     1      -4.533  48.370 -25.344  1.00  0.00     0.004 A 
HETATM   16  C23 UNL     1      -3.450  49.197 -27.391  1.00  0.00     0.030 A 
HETATM   17  C18 UNL     1      -4.236  48.353 -23.947  1.00  0.00     0.022 A 
HETATM   18  C20 UNL     1      -5.603  47.895 -26.132  1.00  0.00     0.014 A 
HETATM   19  C17 UNL     1      -4.799  47.891 -22.748  1.00  0.00     0.057 A 
HETATM   20  C25 UNL     1      -3.021  49.002 -23.803  1.00  0.00     0.077 A 
HETATM   21  C16 UNL     1      -4.222  48.062 -21.451  1.00  0.00     0.020 A 
HETATM   22  C27 UNL     1      -6.060  47.159 -22.558  1.00  0.00     0.255 A 
HETATM   23  C15 UNL     1      -3.007  48.743 -21.264  1.00  0.00     0.017 A 
HETATM   24  C28 UNL     1      -5.146  47.470 -20.428  1.00  0.00     0.257 A 
HETATM   25  C14 UNL     1      -2.203  49.149 -20.164  1.00  0.00     0.004 A 
HETATM   26  C26 UNL     1      -2.379  49.210 -22.398  1.00  0.00     0.077 A 
HETATM   27  C9  UNL     1      -1.124  49.896 -20.674  1.00  0.00     0.049 A 
HETATM   28  C13 UNL     1      -2.330  48.981 -18.768  1.00  0.00     0.014 A 
HETATM   29  N2  UNL     1      -1.219  49.864 -22.066  1.00  0.00    -0.308 N 
HETATM   30  C10 UNL     1      -0.215  50.516 -19.794  1.00  0.00     0.030 A 
HETATM   31  C11 UNL     1      -0.369  50.336 -18.415  1.00  0.00     0.002 A 
HETATM   32  C12 UNL     1      -1.406  49.569 -17.905  1.00  0.00     0.001 A 
HETATM   33  N4  UNL     1      -6.183  46.898 -21.214  1.00  0.00    -0.326 N 
HETATM   34  H24 UNL     1      -6.996  46.438 -20.833  1.00  0.00     0.165 HD
HETATM   35  O3  UNL     1      -6.864  46.829 -23.406  1.00  0.00    -0.268 OA
HETATM   36  C21 UNL     1      -5.590  48.073 -27.520  1.00  0.00     0.001 A 
HETATM   37  C22 UNL     1      -4.526  48.716 -28.138  1.00  0.00     0.002 A 
BRANCH  24  38
HETATM   38  O4  UNL     1      -4.568  46.418 -19.698  1.00  0.00    -0.372 OA
HETATM   39  H26 UNL     1      -3.994  45.942 -20.321  1.00  0.00     0.212 HD
ENDBRANCH  24  38
ENDBRANCH   3  13
TORSDOF 5
ENDMDL
