MODEL 1
REMARK minimizedAffinity -7.11311626
REMARK CNNscore 0.451785147
REMARK CNNaffinity 6.53154993
REMARK  7 active torsions:
REMARK  status: ('A' for Active; 'I' for Inactive)
REMARK    1  A    between atoms: C2_2  and  C4_4 
REMARK    2  A    between atoms: C7_7  and  O1_9 
REMARK    3  A    between atoms: C9_10  and  C10_11 
REMARK    4  A    between atoms: C11_12  and  C12_13 
REMARK    5  A    between atoms: C14_15  and  C15_16 
REMARK    6  A    between atoms: C24_26  and  C26_28 
REMARK    7  A    between atoms: C29_32  and  O4_34 
ROOT
HETATM    1  C15 UNL     1      -0.587  52.616 -11.831  1.00  0.00     0.149 C 
HETATM    2  C16 UNL     1       0.689  52.382 -12.643  1.00  0.00     0.054 C 
HETATM    3  C17 UNL     1       0.805  50.843 -12.841  1.00  0.00     0.050 C 
HETATM    4  C18 UNL     1      -0.585  50.380 -12.363  1.00  0.00     0.272 C 
HETATM    5  O2  UNL     1      -1.517  50.422 -13.440  1.00  0.00    -0.360 OA
HETATM    6  C19 UNL     1      -1.682  49.177 -14.113  1.00  0.00     0.171 C 
HETATM    7  C20 UNL     1      -0.410  48.360 -14.322  1.00  0.00     0.027 C 
HETATM    8  C21 UNL     1       0.786  49.122 -14.890  1.00  0.00     0.012 C 
HETATM    9  C22 UNL     1       1.047  50.556 -14.365  1.00  0.00     0.032 C 
HETATM   10  C23 UNL     1       2.452  51.019 -14.803  1.00  0.00    -0.066 C 
HETATM   11  C24 UNL     1       2.653  51.895 -15.823  1.00  0.00    -0.021 C 
HETATM   12  C25 UNL     1       1.576  52.520 -16.677  1.00  0.00     0.052 C 
HETATM   13  C27 UNL     1       3.552  50.423 -13.940  1.00  0.00     0.038 C 
HETATM   14  C28 UNL     1       3.332  50.688 -12.451  1.00  0.00     0.042 C 
HETATM   15  C29 UNL     1       1.945  50.233 -11.955  1.00  0.00     0.067 C 
HETATM   16  C30 UNL     1       1.825  50.531 -10.451  1.00  0.00     0.047 C 
HETATM   17  O5  UNL     1      -0.990  51.331 -11.368  1.00  0.00    -0.351 OA
ENDROOT
BRANCH   1  18
HETATM   18  C14 UNL     1      -0.385  53.593 -10.699  1.00  0.00     0.011 C 
HETATM   19  C12 UNL     1      -1.290  54.371 -10.065  1.00  0.00    -0.064 C 
HETATM   20  C13 UNL     1      -2.745  54.445 -10.457  1.00  0.00     0.048 C 
BRANCH  19  21
HETATM   21  C11 UNL     1      -0.824  55.211  -8.964  1.00  0.00     0.003 C 
HETATM   22  C10 UNL     1      -0.019  54.839  -7.952  1.00  0.00    -0.018 C 
BRANCH  22  23
HETATM   23  C9  UNL     1       0.444  55.737  -6.821  1.00  0.00     0.050 C 
HETATM   24  C4  UNL     1       1.998  55.810  -6.675  1.00  0.00     0.024 C 
HETATM   25  C5  UNL     1       2.232  55.999  -5.170  1.00  0.00     0.013 C 
HETATM   26  C6  UNL     1       1.158  55.113  -4.549  1.00  0.00     0.039 C 
HETATM   27  C7  UNL     1      -0.091  55.423  -5.384  1.00  0.00     0.062 C 
HETATM   28  C8  UNL     1      -1.149  54.329  -5.242  1.00  0.00     0.046 C 
BRANCH  24  29
HETATM   29  C2  UNL     1       2.666  56.848  -7.565  1.00  0.00    -0.088 C 
HETATM   30  C1  UNL     1       2.803  58.125  -7.159  1.00  0.00     0.014 C 
HETATM   31  C3  UNL     1       3.185  56.418  -8.911  1.00  0.00     0.043 C 
ENDBRANCH  24  29
BRANCH  27  32
HETATM   32  O1  UNL     1      -0.667  56.628  -4.849  1.00  0.00    -0.390 OA
HETATM   33  H14 UNL     1      -1.472  56.821  -5.361  1.00  0.00     0.210 HD
ENDBRANCH  27  32
ENDBRANCH  22  23
ENDBRANCH  19  21
ENDBRANCH   1  18
BRANCH  15  34
HETATM   34  O4  UNL     1       1.904  48.803 -12.082  1.00  0.00    -0.389 OA
HETATM   35  H44 UNL     1       2.591  48.420 -11.507  1.00  0.00     0.210 HD
ENDBRANCH  15  34
BRANCH  11  36
HETATM   36  C26 UNL     1       4.024  52.348 -16.232  1.00  0.00     0.265 C 
HETATM   37  O3  UNL     1       4.379  53.518 -16.165  1.00  0.00    -0.302 OA
ENDBRANCH  11  36
TORSDOF 7
ENDMDL
MODEL 2
REMARK minimizedAffinity -7.44645691
REMARK CNNscore 0.32667163
REMARK CNNaffinity 6.00116158
REMARK  7 active torsions:
REMARK  status: ('A' for Active; 'I' for Inactive)
REMARK    1  A    between atoms: C2_2  and  C4_4 
REMARK    2  A    between atoms: C7_7  and  O1_9 
REMARK    3  A    between atoms: C9_10  and  C10_11 
REMARK    4  A    between atoms: C11_12  and  C12_13 
REMARK    5  A    between atoms: C14_15  and  C15_16 
REMARK    6  A    between atoms: C24_26  and  C26_28 
REMARK    7  A    between atoms: C29_32  and  O4_34 
ROOT
HETATM    1  C15 UNL     1      -9.064  45.636 -26.045  1.00  0.00     0.149 C 
HETATM    2  C16 UNL     1     -10.519  46.108 -26.036  1.00  0.00     0.054 C 
HETATM    3  C17 UNL     1     -11.159  45.579 -27.352  1.00  0.00     0.050 C 
HETATM    4  C18 UNL     1     -10.067  44.607 -27.838  1.00  0.00     0.272 C 
HETATM    5  O2  UNL     1     -10.258  43.319 -27.258  1.00  0.00    -0.360 OA
HETATM    6  C19 UNL     1     -10.988  42.414 -28.082  1.00  0.00     0.171 C 
HETATM    7  C20 UNL     1     -12.160  43.014 -28.852  1.00  0.00     0.027 C 
HETATM    8  C21 UNL     1     -13.115  43.887 -28.040  1.00  0.00     0.012 C 
HETATM    9  C22 UNL     1     -12.502  44.850 -26.993  1.00  0.00     0.032 C 
HETATM   10  C23 UNL     1     -13.574  45.855 -26.524  1.00  0.00    -0.066 C 
HETATM   11  C24 UNL     1     -14.203  45.753 -25.323  1.00  0.00    -0.021 C 
HETATM   12  C25 UNL     1     -13.981  44.668 -24.298  1.00  0.00     0.052 C 
HETATM   13  C27 UNL     1     -13.796  46.972 -27.530  1.00  0.00     0.038 C 
HETATM   14  C28 UNL     1     -12.498  47.693 -27.896  1.00  0.00     0.042 C 
HETATM   15  C29 UNL     1     -11.394  46.735 -28.383  1.00  0.00     0.067 C 
HETATM   16  C30 UNL     1     -10.139  47.551 -28.736  1.00  0.00     0.047 C 
HETATM   17  O5  UNL     1      -8.826  45.145 -27.361  1.00  0.00    -0.351 OA
ENDROOT
BRANCH   1  18
HETATM   18  C14 UNL     1      -8.096  46.727 -25.660  1.00  0.00     0.011 C 
HETATM   19  C12 UNL     1      -7.435  46.916 -24.496  1.00  0.00    -0.064 C 
HETATM   20  C13 UNL     1      -7.621  46.042 -23.281  1.00  0.00     0.048 C 
BRANCH  19  21
HETATM   21  C11 UNL     1      -6.519  48.051 -24.401  1.00  0.00     0.003 C 
HETATM   22  C10 UNL     1      -5.311  48.064 -23.809  1.00  0.00    -0.018 C 
BRANCH  22  23
HETATM   23  C9  UNL     1      -4.386  49.262 -23.725  1.00  0.00     0.050 C 
HETATM   24  C4  UNL     1      -2.951  48.986 -24.278  1.00  0.00     0.024 C 
HETATM   25  C5  UNL     1      -2.035  49.870 -23.422  1.00  0.00     0.013 C 
HETATM   26  C6  UNL     1      -2.666  49.769 -22.038  1.00  0.00     0.039 C 
HETATM   27  C7  UNL     1      -4.168  49.910 -22.317  1.00  0.00     0.062 C 
HETATM   28  C8  UNL     1      -5.009  49.384 -21.154  1.00  0.00     0.046 C 
BRANCH  24  29
HETATM   29  C2  UNL     1      -2.807  49.176 -25.781  1.00  0.00    -0.088 C 
HETATM   30  C1  UNL     1      -1.915  50.048 -26.288  1.00  0.00     0.014 C 
HETATM   31  C3  UNL     1      -3.676  48.357 -26.697  1.00  0.00     0.043 C 
ENDBRANCH  24  29
BRANCH  27  32
HETATM   32  O1  UNL     1      -4.447  51.317 -22.425  1.00  0.00    -0.390 OA
HETATM   33  H14 UNL     1      -5.402  51.417 -22.582  1.00  0.00     0.210 HD
ENDBRANCH  27  32
ENDBRANCH  22  23
ENDBRANCH  19  21
ENDBRANCH   1  18
BRANCH  15  34
HETATM   34  O4  UNL     1     -11.853  46.159 -29.616  1.00  0.00    -0.389 OA
HETATM   35  H44 UNL     1     -11.968  46.873 -30.269  1.00  0.00     0.210 HD
ENDBRANCH  15  34
BRANCH  11  36
HETATM   36  C26 UNL     1     -15.236  46.745 -24.874  1.00  0.00     0.265 C 
HETATM   37  O3  UNL     1     -14.954  47.732 -24.204  1.00  0.00    -0.302 OA
ENDBRANCH  11  36
TORSDOF 7
ENDMDL
MODEL 3
REMARK minimizedAffinity -8.30601215
REMARK CNNscore 0.307115525
REMARK CNNaffinity 6.00030279
REMARK  7 active torsions:
REMARK  status: ('A' for Active; 'I' for Inactive)
REMARK    1  A    between atoms: C2_2  and  C4_4 
REMARK    2  A    between atoms: C7_7  and  O1_9 
REMARK    3  A    between atoms: C9_10  and  C10_11 
REMARK    4  A    between atoms: C11_12  and  C12_13 
REMARK    5  A    between atoms: C14_15  and  C15_16 
REMARK    6  A    between atoms: C24_26  and  C26_28 
REMARK    7  A    between atoms: C29_32  and  O4_34 
ROOT
HETATM    1  C15 UNL     1      -5.286  47.629 -28.990  1.00  0.00     0.149 C 
HETATM    2  C16 UNL     1      -6.405  46.688 -29.442  1.00  0.00     0.054 C 
HETATM    3  C17 UNL     1      -6.928  47.248 -30.796  1.00  0.00     0.050 C 
HETATM    4  C18 UNL     1      -5.845  48.297 -31.116  1.00  0.00     0.272 C 
HETATM    5  O2  UNL     1      -4.762  47.689 -31.816  1.00  0.00    -0.360 OA
HETATM    6  C19 UNL     1      -4.849  47.807 -33.233  1.00  0.00     0.171 C 
HETATM    7  C20 UNL     1      -6.243  47.645 -33.830  1.00  0.00     0.027 C 
HETATM    8  C21 UNL     1      -7.041  46.436 -33.343  1.00  0.00     0.012 C 
HETATM    9  C22 UNL     1      -6.963  46.076 -31.839  1.00  0.00     0.032 C 
HETATM   10  C23 UNL     1      -8.067  45.056 -31.492  1.00  0.00    -0.066 C 
HETATM   11  C24 UNL     1      -7.815  43.732 -31.309  1.00  0.00    -0.021 C 
HETATM   12  C25 UNL     1      -6.466  43.064 -31.429  1.00  0.00     0.052 C 
HETATM   13  C27 UNL     1      -9.430  45.710 -31.341  1.00  0.00     0.038 C 
HETATM   14  C28 UNL     1      -9.416  46.858 -30.332  1.00  0.00     0.042 C 
HETATM   15  C29 UNL     1      -8.337  47.916 -30.637  1.00  0.00     0.067 C 
HETATM   16  C30 UNL     1      -8.410  49.029 -29.578  1.00  0.00     0.047 C 
HETATM   17  O5  UNL     1      -5.366  48.763 -29.847  1.00  0.00    -0.351 OA
ENDROOT
BRANCH   1  18
HETATM   18  C14 UNL     1      -5.395  48.005 -27.533  1.00  0.00     0.011 C 
HETATM   19  C12 UNL     1      -4.428  48.394 -26.672  1.00  0.00    -0.064 C 
HETATM   20  C13 UNL     1      -2.966  48.457 -27.035  1.00  0.00     0.048 C 
BRANCH  19  21
HETATM   21  C11 UNL     1      -4.821  48.738 -25.307  1.00  0.00     0.003 C 
HETATM   22  C10 UNL     1      -4.182  48.392 -24.175  1.00  0.00    -0.018 C 
BRANCH  22  23
HETATM   23  C9  UNL     1      -4.619  48.761 -22.770  1.00  0.00     0.050 C 
HETATM   24  C4  UNL     1      -3.472  48.671 -21.713  1.00  0.00     0.024 C 
HETATM   25  C5  UNL     1      -4.180  48.260 -20.416  1.00  0.00     0.013 C 
HETATM   26  C6  UNL     1      -5.237  47.278 -20.906  1.00  0.00     0.039 C 
HETATM   27  C7  UNL     1      -5.814  47.963 -22.151  1.00  0.00     0.062 C 
HETATM   28  C8  UNL     1      -6.548  46.970 -23.052  1.00  0.00     0.046 C 
BRANCH  24  29
HETATM   29  C2  UNL     1      -2.612  49.922 -21.608  1.00  0.00    -0.088 C 
HETATM   30  C1  UNL     1      -1.424  50.002 -22.238  1.00  0.00     0.014 C 
HETATM   31  C3  UNL     1      -3.121  51.081 -20.794  1.00  0.00     0.043 C 
ENDBRANCH  24  29
BRANCH  27  32
HETATM   32  O1  UNL     1      -6.795  48.911 -21.695  1.00  0.00    -0.390 OA
HETATM   33  H14 UNL     1      -7.181  49.336 -22.481  1.00  0.00     0.210 HD
ENDBRANCH  27  32
ENDBRANCH  22  23
ENDBRANCH  19  21
ENDBRANCH   1  18
BRANCH  15  34
HETATM   34  O4  UNL     1      -8.693  48.529 -31.885  1.00  0.00    -0.389 OA
HETATM   35  H44 UNL     1      -9.555  48.973 -31.779  1.00  0.00     0.210 HD
ENDBRANCH  15  34
BRANCH  11  36
HETATM   36  C26 UNL     1      -8.896  42.752 -30.960  1.00  0.00     0.265 C 
HETATM   37  O3  UNL     1      -9.247  41.859 -31.722  1.00  0.00    -0.302 OA
ENDBRANCH  11  36
TORSDOF 7
ENDMDL
MODEL 4
REMARK minimizedAffinity -7.46676731
REMARK CNNscore 0.296638876
REMARK CNNaffinity 5.74405432
REMARK  7 active torsions:
REMARK  status: ('A' for Active; 'I' for Inactive)
REMARK    1  A    between atoms: C2_2  and  C4_4 
REMARK    2  A    between atoms: C7_7  and  O1_9 
REMARK    3  A    between atoms: C9_10  and  C10_11 
REMARK    4  A    between atoms: C11_12  and  C12_13 
REMARK    5  A    between atoms: C14_15  and  C15_16 
REMARK    6  A    between atoms: C24_26  and  C26_28 
REMARK    7  A    between atoms: C29_32  and  O4_34 
ROOT
HETATM    1  C15 UNL     1     -11.922  44.818 -27.196  1.00  0.00     0.149 C 
HETATM    2  C16 UNL     1     -11.761  45.133 -28.685  1.00  0.00     0.054 C 
HETATM    3  C17 UNL     1     -10.291  45.605 -28.875  1.00  0.00     0.050 C 
HETATM    4  C18 UNL     1      -9.683  45.230 -27.509  1.00  0.00     0.272 C 
HETATM    5  O2  UNL     1      -9.224  43.881 -27.527  1.00  0.00    -0.360 OA
HETATM    6  C19 UNL     1      -7.838  43.744 -27.826  1.00  0.00     0.171 C 
HETATM    7  C20 UNL     1      -7.294  44.680 -28.901  1.00  0.00     0.027 C 
HETATM    8  C21 UNL     1      -8.114  44.767 -30.188  1.00  0.00     0.012 C 
HETATM    9  C22 UNL     1      -9.658  44.795 -30.061  1.00  0.00     0.032 C 
HETATM   10  C23 UNL     1     -10.280  45.207 -31.411  1.00  0.00    -0.066 C 
HETATM   11  C24 UNL     1     -10.866  44.315 -32.254  1.00  0.00    -0.021 C 
HETATM   12  C25 UNL     1     -10.982  42.827 -32.026  1.00  0.00     0.052 C 
HETATM   13  C27 UNL     1     -10.198  46.705 -31.651  1.00  0.00     0.038 C 
HETATM   14  C28 UNL     1     -10.806  47.513 -30.504  1.00  0.00     0.042 C 
HETATM   15  C29 UNL     1     -10.211  47.150 -29.130  1.00  0.00     0.067 C 
HETATM   16  C30 UNL     1     -10.875  48.018 -28.048  1.00  0.00     0.047 C 
HETATM   17  O5  UNL     1     -10.757  45.337 -26.564  1.00  0.00    -0.351 OA
ENDROOT
BRANCH   1  18
HETATM   18  C14 UNL     1     -13.191  45.391 -26.615  1.00  0.00     0.011 C 
HETATM   19  C12 UNL     1     -14.477  45.061 -26.869  1.00  0.00    -0.064 C 
HETATM   20  C13 UNL     1     -14.887  44.037 -27.897  1.00  0.00     0.048 C 
BRANCH  19  21
HETATM   21  C11 UNL     1     -15.526  45.762 -26.130  1.00  0.00     0.003 C 
HETATM   22  C10 UNL     1     -16.166  45.324 -25.031  1.00  0.00    -0.018 C 
BRANCH  22  23
HETATM   23  C9  UNL     1     -17.255  46.076 -24.290  1.00  0.00     0.050 C 
HETATM   24  C4  UNL     1     -17.329  45.733 -22.768  1.00  0.00     0.024 C 
HETATM   25  C5  UNL     1     -18.817  45.866 -22.418  1.00  0.00     0.013 C 
HETATM   26  C6  UNL     1     -19.505  45.306 -23.656  1.00  0.00     0.039 C 
HETATM   27  C7  UNL     1     -18.721  45.931 -24.817  1.00  0.00     0.062 C 
HETATM   28  C8  UNL     1     -18.936  45.162 -26.121  1.00  0.00     0.046 C 
BRANCH  24  29
HETATM   29  C2  UNL     1     -16.386  46.545 -21.892  1.00  0.00    -0.088 C 
HETATM   30  C1  UNL     1     -16.551  46.595 -20.556  1.00  0.00     0.014 C 
HETATM   31  C3  UNL     1     -15.252  47.286 -22.547  1.00  0.00     0.043 C 
ENDBRANCH  24  29
BRANCH  27  32
HETATM   32  O1  UNL     1     -19.254  47.251 -25.024  1.00  0.00    -0.390 OA
HETATM   33  H14 UNL     1     -18.776  47.648 -25.772  1.00  0.00     0.210 HD
ENDBRANCH  27  32
ENDBRANCH  22  23
ENDBRANCH  19  21
ENDBRANCH   1  18
BRANCH  15  34
HETATM   34  O4  UNL     1      -8.828  47.535 -29.157  1.00  0.00    -0.389 OA
HETATM   35  H44 UNL     1      -8.777  48.501 -29.282  1.00  0.00     0.210 HD
ENDBRANCH  15  34
BRANCH  11  36
HETATM   36  C26 UNL     1     -11.479  44.731 -33.560  1.00  0.00     0.265 C 
HETATM   37  O3  UNL     1     -12.282  44.030 -34.163  1.00  0.00    -0.302 OA
ENDBRANCH  11  36
TORSDOF 7
ENDMDL
MODEL 5
REMARK minimizedAffinity -7.41054344
REMARK CNNscore 0.290517151
REMARK CNNaffinity 6.0188241
REMARK  7 active torsions:
REMARK  status: ('A' for Active; 'I' for Inactive)
REMARK    1  A    between atoms: C2_2  and  C4_4 
REMARK    2  A    between atoms: C7_7  and  O1_9 
REMARK    3  A    between atoms: C9_10  and  C10_11 
REMARK    4  A    between atoms: C11_12  and  C12_13 
REMARK    5  A    between atoms: C14_15  and  C15_16 
REMARK    6  A    between atoms: C24_26  and  C26_28 
REMARK    7  A    between atoms: C29_32  and  O4_34 
ROOT
HETATM    1  C15 UNL     1      -8.616  45.645 -26.436  1.00  0.00     0.149 C 
HETATM    2  C16 UNL     1     -10.020  46.194 -26.176  1.00  0.00     0.054 C 
HETATM    3  C17 UNL     1     -10.851  45.896 -27.456  1.00  0.00     0.050 C 
HETATM    4  C18 UNL     1      -9.901  44.942 -28.207  1.00  0.00     0.272 C 
HETATM    5  O2  UNL     1     -10.118  43.598 -27.785  1.00  0.00    -0.360 OA
HETATM    6  C19 UNL     1     -11.007  42.864 -28.622  1.00  0.00     0.171 C 
HETATM    7  C20 UNL     1     -12.215  43.634 -29.146  1.00  0.00     0.027 C 
HETATM    8  C21 UNL     1     -12.997  44.435 -28.107  1.00  0.00     0.012 C 
HETATM    9  C22 UNL     1     -12.192  45.201 -27.028  1.00  0.00     0.032 C 
HETATM   10  C23 UNL     1     -13.121  46.189 -26.293  1.00  0.00    -0.066 C 
HETATM   11  C24 UNL     1     -13.608  45.953 -25.046  1.00  0.00    -0.021 C 
HETATM   12  C25 UNL     1     -13.346  44.721 -24.213  1.00  0.00     0.052 C 
HETATM   13  C27 UNL     1     -13.378  47.450 -27.102  1.00  0.00     0.038 C 
HETATM   14  C28 UNL     1     -12.084  48.140 -27.533  1.00  0.00     0.042 C 
HETATM   15  C29 UNL     1     -11.121  47.199 -28.284  1.00  0.00     0.067 C 
HETATM   16  C30 UNL     1      -9.859  47.984 -28.683  1.00  0.00     0.047 C 
HETATM   17  O5  UNL     1      -8.575  45.334 -27.825  1.00  0.00    -0.351 OA
ENDROOT
BRANCH   1  18
HETATM   18  C14 UNL     1      -7.530  46.612 -26.036  1.00  0.00     0.011 C 
HETATM   19  C12 UNL     1      -6.646  47.280 -26.812  1.00  0.00    -0.064 C 
HETATM   20  C13 UNL     1      -6.550  47.103 -28.307  1.00  0.00     0.048 C 
BRANCH  19  21
HETATM   21  C11 UNL     1      -5.711  48.194 -26.159  1.00  0.00     0.003 C 
HETATM   22  C10 UNL     1      -4.385  48.276 -26.372  1.00  0.00    -0.018 C 
BRANCH  22  23
HETATM   23  C9  UNL     1      -3.440  49.235 -25.673  1.00  0.00     0.050 C 
HETATM   24  C4  UNL     1      -4.033  49.859 -24.368  1.00  0.00     0.024 C 
HETATM   25  C5  UNL     1      -3.412  51.259 -24.298  1.00  0.00     0.013 C 
HETATM   26  C6  UNL     1      -3.396  51.695 -25.758  1.00  0.00     0.039 C 
HETATM   27  C7  UNL     1      -2.898  50.448 -26.500  1.00  0.00     0.062 C 
HETATM   28  C8  UNL     1      -3.240  50.503 -27.989  1.00  0.00     0.046 C 
BRANCH  24  29
HETATM   29  C2  UNL     1      -3.845  49.007 -23.121  1.00  0.00    -0.088 C 
HETATM   30  C1  UNL     1      -2.623  48.581 -22.750  1.00  0.00     0.014 C 
HETATM   31  C3  UNL     1      -5.055  48.658 -22.297  1.00  0.00     0.043 C 
ENDBRANCH  24  29
BRANCH  27  32
HETATM   32  O1  UNL     1      -1.463  50.446 -26.406  1.00  0.00    -0.390 OA
HETATM   33  H14 UNL     1      -1.137  49.668 -26.891  1.00  0.00     0.210 HD
ENDBRANCH  27  32
ENDBRANCH  22  23
ENDBRANCH  19  21
ENDBRANCH   1  18
BRANCH  15  34
HETATM   34  O4  UNL     1     -11.766  46.832 -29.513  1.00  0.00    -0.389 OA
HETATM   35  H44 UNL     1     -11.906  47.638 -30.044  1.00  0.00     0.210 HD
ENDBRANCH  15  34
BRANCH  11  36
HETATM   36  C26 UNL     1     -14.502  46.928 -24.337  1.00  0.00     0.265 C 
HETATM   37  O3  UNL     1     -15.612  46.622 -23.919  1.00  0.00    -0.302 OA
ENDBRANCH  11  36
TORSDOF 7
ENDMDL
MODEL 6
REMARK minimizedAffinity -8.2275219
REMARK CNNscore 0.266296655
REMARK CNNaffinity 6.00203848
REMARK  7 active torsions:
REMARK  status: ('A' for Active; 'I' for Inactive)
REMARK    1  A    between atoms: C2_2  and  C4_4 
REMARK    2  A    between atoms: C7_7  and  O1_9 
REMARK    3  A    between atoms: C9_10  and  C10_11 
REMARK    4  A    between atoms: C11_12  and  C12_13 
REMARK    5  A    between atoms: C14_15  and  C15_16 
REMARK    6  A    between atoms: C24_26  and  C26_28 
REMARK    7  A    between atoms: C29_32  and  O4_34 
ROOT
HETATM    1  C15 UNL     1      -7.521  45.782 -28.707  1.00  0.00     0.149 C 
HETATM    2  C16 UNL     1      -9.009  46.140 -28.684  1.00  0.00     0.054 C 
HETATM    3  C17 UNL     1      -9.507  46.033 -30.153  1.00  0.00     0.050 C 
HETATM    4  C18 UNL     1      -8.304  45.338 -30.821  1.00  0.00     0.272 C 
HETATM    5  O2  UNL     1      -8.425  43.923 -30.705  1.00  0.00    -0.360 OA
HETATM    6  C19 UNL     1      -9.014  43.296 -31.840  1.00  0.00     0.171 C 
HETATM    7  C20 UNL     1     -10.177  44.044 -32.484  1.00  0.00     0.027 C 
HETATM    8  C21 UNL     1     -11.258  44.547 -31.528  1.00  0.00     0.012 C 
HETATM    9  C22 UNL     1     -10.804  45.149 -30.175  1.00  0.00     0.032 C 
HETATM   10  C23 UNL     1     -11.988  45.882 -29.512  1.00  0.00    -0.066 C 
HETATM   11  C24 UNL     1     -12.690  45.357 -28.472  1.00  0.00    -0.021 C 
HETATM   12  C25 UNL     1     -12.447  44.011 -27.832  1.00  0.00     0.052 C 
HETATM   13  C27 UNL     1     -12.235  47.251 -30.123  1.00  0.00     0.038 C 
HETATM   14  C28 UNL     1     -10.981  48.127 -30.115  1.00  0.00     0.042 C 
HETATM   15  C29 UNL     1      -9.767  47.447 -30.778  1.00  0.00     0.067 C 
HETATM   16  C30 UNL     1      -8.565  48.405 -30.731  1.00  0.00     0.047 C 
HETATM   17  O5  UNL     1      -7.151  45.763 -30.082  1.00  0.00    -0.351 OA
ENDROOT
BRANCH   1  18
HETATM   18  C14 UNL     1      -6.680  46.742 -27.903  1.00  0.00     0.011 C 
HETATM   19  C12 UNL     1      -5.696  47.573 -28.314  1.00  0.00    -0.064 C 
HETATM   20  C13 UNL     1      -5.196  47.633 -29.736  1.00  0.00     0.048 C 
BRANCH  19  21
HETATM   21  C11 UNL     1      -5.060  48.433 -27.317  1.00  0.00     0.003 C 
HETATM   22  C10 UNL     1      -3.785  48.367 -26.894  1.00  0.00    -0.018 C 
BRANCH  22  23
HETATM   23  C9  UNL     1      -3.157  49.273 -25.852  1.00  0.00     0.050 C 
HETATM   24  C4  UNL     1      -4.106  49.606 -24.657  1.00  0.00     0.024 C 
HETATM   25  C5  UNL     1      -3.704  51.024 -24.233  1.00  0.00     0.013 C 
HETATM   26  C6  UNL     1      -3.414  51.704 -25.566  1.00  0.00     0.039 C 
HETATM   27  C7  UNL     1      -2.603  50.655 -26.336  1.00  0.00     0.062 C 
HETATM   28  C8  UNL     1      -2.602  50.934 -27.838  1.00  0.00     0.046 C 
BRANCH  24  29
HETATM   29  C2  UNL     1      -4.097  48.573 -23.539  1.00  0.00    -0.088 C 
HETATM   30  C1  UNL     1      -5.226  47.935 -23.176  1.00  0.00     0.014 C 
HETATM   31  C3  UNL     1      -2.794  48.267 -22.851  1.00  0.00     0.043 C 
ENDBRANCH  24  29
BRANCH  27  32
HETATM   32  O1  UNL     1      -1.239  50.768 -25.894  1.00  0.00    -0.390 OA
HETATM   33  H14 UNL     1      -0.713  50.119 -26.392  1.00  0.00     0.210 HD
ENDBRANCH  27  32
ENDBRANCH  22  23
ENDBRANCH  19  21
ENDBRANCH   1  18
BRANCH  15  34
HETATM   34  O4  UNL     1     -10.088  47.279 -32.167  1.00  0.00    -0.389 OA
HETATM   35  H44 UNL     1     -10.218  48.159 -32.565  1.00  0.00     0.210 HD
ENDBRANCH  15  34
BRANCH  11  36
HETATM   36  C26 UNL     1     -13.832  46.086 -27.827  1.00  0.00     0.265 C 
HETATM   37  O3  UNL     1     -13.682  47.133 -27.209  1.00  0.00    -0.302 OA
ENDBRANCH  11  36
TORSDOF 7
ENDMDL
MODEL 7
REMARK minimizedAffinity -7.24240351
REMARK CNNscore 0.266121238
REMARK CNNaffinity 5.32255697
REMARK  7 active torsions:
REMARK  status: ('A' for Active; 'I' for Inactive)
REMARK    1  A    between atoms: C2_2  and  C4_4 
REMARK    2  A    between atoms: C7_7  and  O1_9 
REMARK    3  A    between atoms: C9_10  and  C10_11 
REMARK    4  A    between atoms: C11_12  and  C12_13 
REMARK    5  A    between atoms: C14_15  and  C15_16 
REMARK    6  A    between atoms: C24_26  and  C26_28 
REMARK    7  A    between atoms: C29_32  and  O4_34 
ROOT
HETATM    1  C15 UNL     1     -12.201  44.802 -26.874  1.00  0.00     0.149 C 
HETATM    2  C16 UNL     1     -11.949  45.051 -28.363  1.00  0.00     0.054 C 
HETATM    3  C17 UNL     1     -10.729  46.012 -28.446  1.00  0.00     0.050 C 
HETATM    4  C18 UNL     1     -10.231  45.979 -26.988  1.00  0.00     0.272 C 
HETATM    5  O2  UNL     1      -9.328  44.893 -26.799  1.00  0.00    -0.360 OA
HETATM    6  C19 UNL     1      -7.955  45.251 -26.929  1.00  0.00     0.171 C 
HETATM    7  C20 UNL     1      -7.629  46.244 -28.039  1.00  0.00     0.027 C 
HETATM    8  C21 UNL     1      -8.233  45.937 -29.409  1.00  0.00     0.012 C 
HETATM    9  C22 UNL     1      -9.689  45.409 -29.455  1.00  0.00     0.032 C 
HETATM   10  C23 UNL     1     -10.217  45.472 -30.903  1.00  0.00    -0.066 C 
HETATM   11  C24 UNL     1     -10.323  44.372 -31.695  1.00  0.00    -0.021 C 
HETATM   12  C25 UNL     1      -9.939  42.964 -31.310  1.00  0.00     0.052 C 
HETATM   13  C27 UNL     1     -10.634  46.876 -31.304  1.00  0.00     0.038 C 
HETATM   14  C28 UNL     1     -11.645  47.484 -30.331  1.00  0.00     0.042 C 
HETATM   15  C29 UNL     1     -11.164  47.458 -28.867  1.00  0.00     0.067 C 
HETATM   16  C30 UNL     1     -12.239  48.097 -27.972  1.00  0.00     0.047 C 
HETATM   17  O5  UNL     1     -11.396  45.752 -26.184  1.00  0.00    -0.351 OA
ENDROOT
BRANCH   1  18
HETATM   18  C14 UNL     1     -13.659  44.912 -26.505  1.00  0.00     0.011 C 
HETATM   19  C12 UNL     1     -14.726  45.179 -27.291  1.00  0.00    -0.064 C 
HETATM   20  C13 UNL     1     -14.618  45.500 -28.761  1.00  0.00     0.048 C 
BRANCH  19  21
HETATM   21  C11 UNL     1     -16.050  45.193 -26.673  1.00  0.00     0.003 C 
HETATM   22  C10 UNL     1     -16.376  44.716 -25.457  1.00  0.00    -0.018 C 
BRANCH  22  23
HETATM   23  C9  UNL     1     -17.764  44.742 -24.846  1.00  0.00     0.050 C 
HETATM   24  C4  UNL     1     -18.904  44.973 -25.890  1.00  0.00     0.024 C 
HETATM   25  C5  UNL     1     -19.975  45.753 -25.118  1.00  0.00     0.013 C 
HETATM   26  C6  UNL     1     -19.148  46.685 -24.242  1.00  0.00     0.039 C 
HETATM   27  C7  UNL     1     -18.032  45.779 -23.706  1.00  0.00     0.062 C 
HETATM   28  C8  UNL     1     -16.845  46.591 -23.190  1.00  0.00     0.046 C 
BRANCH  24  29
HETATM   29  C2  UNL     1     -19.397  43.707 -26.574  1.00  0.00    -0.088 C 
HETATM   30  C1  UNL     1     -19.771  42.631 -25.856  1.00  0.00     0.014 C 
HETATM   31  C3  UNL     1     -19.473  43.682 -28.077  1.00  0.00     0.043 C 
ENDBRANCH  24  29
BRANCH  27  32
HETATM   32  O1  UNL     1     -18.571  45.071 -22.576  1.00  0.00    -0.390 OA
HETATM   33  H14 UNL     1     -17.864  44.508 -22.217  1.00  0.00     0.210 HD
ENDBRANCH  27  32
ENDBRANCH  22  23
ENDBRANCH  19  21
ENDBRANCH   1  18
BRANCH  15  34
HETATM   34  O4  UNL     1     -10.017  48.318 -28.789  1.00  0.00    -0.389 OA
HETATM   35  H44 UNL     1     -10.292  49.225 -29.019  1.00  0.00     0.210 HD
ENDBRANCH  15  34
BRANCH  11  36
HETATM   36  C26 UNL     1     -10.850  44.445 -33.099  1.00  0.00     0.265 C 
HETATM   37  O3  UNL     1     -12.032  44.271 -33.369  1.00  0.00    -0.302 OA
ENDBRANCH  11  36
TORSDOF 7
ENDMDL
MODEL 8
REMARK minimizedAffinity -8.13289261
REMARK CNNscore 0.248992532
REMARK CNNaffinity 6.16361618
REMARK  7 active torsions:
REMARK  status: ('A' for Active; 'I' for Inactive)
REMARK    1  A    between atoms: C2_2  and  C4_4 
REMARK    2  A    between atoms: C7_7  and  O1_9 
REMARK    3  A    between atoms: C9_10  and  C10_11 
REMARK    4  A    between atoms: C11_12  and  C12_13 
REMARK    5  A    between atoms: C14_15  and  C15_16 
REMARK    6  A    between atoms: C24_26  and  C26_28 
REMARK    7  A    between atoms: C29_32  and  O4_34 
ROOT
HETATM    1  C15 UNL     1      -8.987  48.839 -25.291  1.00  0.00     0.149 C 
HETATM    2  C16 UNL     1      -8.521  48.216 -26.609  1.00  0.00     0.054 C 
HETATM    3  C17 UNL     1      -9.603  47.172 -27.007  1.00  0.00     0.050 C 
HETATM    4  C18 UNL     1     -10.726  47.519 -26.010  1.00  0.00     0.272 C 
HETATM    5  O2  UNL     1     -11.559  48.545 -26.543  1.00  0.00    -0.360 OA
HETATM    6  C19 UNL     1     -12.725  48.061 -27.203  1.00  0.00     0.171 C 
HETATM    7  C20 UNL     1     -12.538  46.805 -28.049  1.00  0.00     0.027 C 
HETATM    8  C21 UNL     1     -11.347  46.816 -29.006  1.00  0.00     0.012 C 
HETATM    9  C22 UNL     1     -10.017  47.428 -28.499  1.00  0.00     0.032 C 
HETATM   10  C23 UNL     1      -8.874  47.056 -29.466  1.00  0.00    -0.066 C 
HETATM   11  C24 UNL     1      -8.355  47.935 -30.364  1.00  0.00    -0.021 C 
HETATM   12  C25 UNL     1      -8.809  49.360 -30.570  1.00  0.00     0.052 C 
HETATM   13  C27 UNL     1      -8.383  45.633 -29.259  1.00  0.00     0.038 C 
HETATM   14  C28 UNL     1      -7.979  45.361 -27.810  1.00  0.00     0.042 C 
HETATM   15  C29 UNL     1      -9.090  45.705 -26.799  1.00  0.00     0.067 C 
HETATM   16  C30 UNL     1      -8.594  45.388 -25.378  1.00  0.00     0.047 C 
HETATM   17  O5  UNL     1     -10.066  48.025 -24.842  1.00  0.00    -0.351 OA
ENDROOT
BRANCH   1  18
HETATM   18  C14 UNL     1      -7.881  48.935 -24.271  1.00  0.00     0.011 C 
HETATM   19  C12 UNL     1      -6.576  48.603 -24.386  1.00  0.00    -0.064 C 
HETATM   20  C13 UNL     1      -5.982  47.973 -25.621  1.00  0.00     0.048 C 
BRANCH  19  21
HETATM   21  C11 UNL     1      -5.703  48.835 -23.236  1.00  0.00     0.003 C 
HETATM   22  C10 UNL     1      -4.367  48.680 -23.196  1.00  0.00    -0.018 C 
BRANCH  22  23
HETATM   23  C9  UNL     1      -3.490  48.925 -21.983  1.00  0.00     0.050 C 
HETATM   24  C4  UNL     1      -2.096  49.540 -22.331  1.00  0.00     0.024 C 
HETATM   25  C5  UNL     1      -1.150  48.967 -21.268  1.00  0.00     0.013 C 
HETATM   26  C6  UNL     1      -1.658  47.541 -21.098  1.00  0.00     0.039 C 
HETATM   27  C7  UNL     1      -3.182  47.704 -21.055  1.00  0.00     0.062 C 
HETATM   28  C8  UNL     1      -3.899  46.387 -21.351  1.00  0.00     0.046 C 
BRANCH  24  29
HETATM   29  C2  UNL     1      -2.088  51.057 -22.451  1.00  0.00    -0.088 C 
HETATM   30  C1  UNL     1      -0.940  51.754 -22.355  1.00  0.00     0.014 C 
HETATM   31  C3  UNL     1      -3.392  51.768 -22.693  1.00  0.00     0.043 C 
ENDBRANCH  24  29
BRANCH  27  32
HETATM   32  O1  UNL     1      -3.529  48.068 -19.707  1.00  0.00    -0.390 OA
HETATM   33  H14 UNL     1      -4.497  48.155 -19.665  1.00  0.00     0.210 HD
ENDBRANCH  27  32
ENDBRANCH  22  23
ENDBRANCH  19  21
ENDBRANCH   1  18
BRANCH  15  34
HETATM   34  O4  UNL     1     -10.178  44.803 -27.051  1.00  0.00    -0.389 OA
HETATM   35  H44 UNL     1      -9.871  43.892 -26.891  1.00  0.00     0.210 HD
ENDBRANCH  15  34
BRANCH  11  36
HETATM   36  C26 UNL     1      -7.235  47.564 -31.292  1.00  0.00     0.265 C 
HETATM   37  O3  UNL     1      -6.057  47.746 -31.008  1.00  0.00    -0.302 OA
ENDBRANCH  11  36
TORSDOF 7
ENDMDL
MODEL 9
REMARK minimizedAffinity -8.34294891
REMARK CNNscore 0.247983977
REMARK CNNaffinity 6.12423658
REMARK  7 active torsions:
REMARK  status: ('A' for Active; 'I' for Inactive)
REMARK    1  A    between atoms: C2_2  and  C4_4 
REMARK    2  A    between atoms: C7_7  and  O1_9 
REMARK    3  A    between atoms: C9_10  and  C10_11 
REMARK    4  A    between atoms: C11_12  and  C12_13 
REMARK    5  A    between atoms: C14_15  and  C15_16 
REMARK    6  A    between atoms: C24_26  and  C26_28 
REMARK    7  A    between atoms: C29_32  and  O4_34 
ROOT
HETATM    1  C15 UNL     1      -2.111  49.424 -21.151  1.00  0.00     0.149 C 
HETATM    2  C16 UNL     1      -3.528  48.905 -20.897  1.00  0.00     0.054 C 
HETATM    3  C17 UNL     1      -4.376  49.324 -22.133  1.00  0.00     0.050 C 
HETATM    4  C18 UNL     1      -3.271  49.791 -23.101  1.00  0.00     0.272 C 
HETATM    5  O2  UNL     1      -2.772  48.687 -23.851  1.00  0.00    -0.360 OA
HETATM    6  C19 UNL     1      -3.386  48.527 -25.127  1.00  0.00     0.171 C 
HETATM    7  C20 UNL     1      -4.888  48.784 -25.179  1.00  0.00     0.027 C 
HETATM    8  C21 UNL     1      -5.721  48.099 -24.096  1.00  0.00     0.012 C 
HETATM    9  C22 UNL     1      -5.146  48.061 -22.658  1.00  0.00     0.032 C 
HETATM   10  C23 UNL     1      -6.251  47.632 -21.671  1.00  0.00    -0.066 C 
HETATM   11  C24 UNL     1      -6.318  46.382 -21.140  1.00  0.00    -0.021 C 
HETATM   12  C25 UNL     1      -5.371  45.244 -21.433  1.00  0.00     0.052 C 
HETATM   13  C27 UNL     1      -7.203  48.769 -21.340  1.00  0.00     0.038 C 
HETATM   14  C28 UNL     1      -6.471  50.012 -20.830  1.00  0.00     0.042 C 
HETATM   15  C29 UNL     1      -5.361  50.492 -21.786  1.00  0.00     0.067 C 
HETATM   16  C30 UNL     1      -4.695  51.746 -21.194  1.00  0.00     0.047 C 
HETATM   17  O5  UNL     1      -2.216  50.297 -22.272  1.00  0.00    -0.351 OA
ENDROOT
BRANCH   1  18
HETATM   18  C14 UNL     1      -1.519  50.111 -19.946  1.00  0.00     0.011 C 
HETATM   19  C12 UNL     1      -0.497  50.993 -19.877  1.00  0.00    -0.064 C 
HETATM   20  C13 UNL     1       0.322  51.415 -21.072  1.00  0.00     0.048 C 
BRANCH  19  21
HETATM   21  C11 UNL     1      -0.145  51.537 -18.566  1.00  0.00     0.003 C 
HETATM   22  C10 UNL     1       0.159  50.837 -17.459  1.00  0.00    -0.018 C 
BRANCH  22  23
HETATM   23  C9  UNL     1       0.515  51.434 -16.112  1.00  0.00     0.050 C 
HETATM   24  C4  UNL     1       1.999  51.186 -15.689  1.00  0.00     0.024 C 
HETATM   25  C5  UNL     1       1.949  51.079 -14.160  1.00  0.00     0.013 C 
HETATM   26  C6  UNL     1       0.647  50.325 -13.918  1.00  0.00     0.039 C 
HETATM   27  C7  UNL     1      -0.342  50.997 -14.877  1.00  0.00     0.062 C 
HETATM   28  C8  UNL     1      -1.564  50.117 -15.136  1.00  0.00     0.046 C 
BRANCH  24  29
HETATM   29  C2  UNL     1       2.987  52.209 -16.231  1.00  0.00    -0.088 C 
HETATM   30  C1  UNL     1       2.577  53.216 -17.025  1.00  0.00     0.014 C 
HETATM   31  C3  UNL     1       4.438  52.083 -15.850  1.00  0.00     0.043 C 
ENDBRANCH  24  29
BRANCH  27  32
HETATM   32  O1  UNL     1      -0.821  52.186 -14.224  1.00  0.00    -0.390 OA
HETATM   33  H14 UNL     1      -1.465  52.610 -14.818  1.00  0.00     0.210 HD
ENDBRANCH  27  32
ENDBRANCH  22  23
ENDBRANCH  19  21
ENDBRANCH   1  18
BRANCH  15  34
HETATM   34  O4  UNL     1      -6.006  50.918 -22.996  1.00  0.00    -0.389 OA
HETATM   35  H44 UNL     1      -6.595  51.666 -22.788  1.00  0.00     0.210 HD
ENDBRANCH  15  34
BRANCH  11  36
HETATM   36  C26 UNL     1      -7.392  45.981 -20.170  1.00  0.00     0.265 C 
HETATM   37  O3  UNL     1      -7.195  45.906 -18.963  1.00  0.00    -0.302 OA
ENDBRANCH  11  36
TORSDOF 7
ENDMDL
