MODEL 1
REMARK minimizedAffinity -8.58377361
REMARK CNNscore 0.781395078
REMARK CNNaffinity 6.48552704
REMARK  8 active torsions:
REMARK  status: ('A' for Active; 'I' for Inactive)
REMARK    1  A    between atoms: C2_2  and  C33_38 
REMARK    2  A    between atoms: C3_3  and  C4_4 
REMARK    3  A    between atoms: C4_4  and  O1_5 
REMARK    4  A    between atoms: C4_4  and  C5_6 
REMARK    5  A    between atoms: C5_6  and  C6_7 
REMARK    6  A    between atoms: C15_17  and  O3_18 
REMARK    7  A    between atoms: C28_32  and  O5_33 
REMARK    8  A    between atoms: C33_38  and  O7_40 
ROOT
HETATM    1  C6  UNL     1       0.646  54.699  -8.850  1.00  0.00    -0.007 C 
HETATM    2  C7  UNL     1       1.465  54.423 -10.132  1.00  0.00     0.005 C 
HETATM    3  C8  UNL     1       1.909  55.636 -10.957  1.00  0.00     0.000 C 
HETATM    4  C9  UNL     1       3.385  56.012 -10.817  1.00  0.00     0.001 C 
HETATM    5  C10 UNL     1       3.756  56.673  -9.486  1.00  0.00     0.013 C 
HETATM    6  C11 UNL     1       3.873  55.676  -8.315  1.00  0.00     0.070 C 
HETATM    7  C12 UNL     1       5.196  55.900  -7.562  1.00  0.00     0.161 C 
HETATM    8  O2  UNL     1       6.247  55.826  -8.203  1.00  0.00    -0.292 OA
HETATM    9  C13 UNL     1       5.220  56.159  -6.064  1.00  0.00     0.003 C 
HETATM   10  C14 UNL     1       4.062  56.519  -5.441  1.00  0.00    -0.029 C 
HETATM   11  C15 UNL     1       4.075  56.735  -3.944  1.00  0.00     0.149 C 
HETATM   12  C16 UNL     1       5.347  57.441  -3.501  1.00  0.00     0.043 C 
HETATM   13  C17 UNL     1       6.674  56.836  -3.997  1.00  0.00     0.016 C 
HETATM   14  C18 UNL     1       7.785  57.948  -4.112  1.00  0.00     0.018 C 
HETATM   15  C19 UNL     1       7.470  59.039  -5.154  1.00  0.00     0.023 C 
HETATM   16  C20 UNL     1       7.989  58.639  -2.742  1.00  0.00     0.023 C 
HETATM   17  C21 UNL     1       9.129  57.305  -4.484  1.00  0.00     0.135 C 
HETATM   18  O4  UNL     1      10.209  57.814  -4.181  1.00  0.00    -0.297 OA
HETATM   19  C22 UNL     1       9.098  55.994  -5.223  1.00  0.00     0.080 C 
HETATM   20  C23 UNL     1       7.847  55.908  -6.082  1.00  0.00     0.022 C 
HETATM   21  C24 UNL     1       6.522  55.887  -5.259  1.00  0.00    -0.008 C 
HETATM   22  C25 UNL     1       6.365  54.420  -4.747  1.00  0.00     0.021 C 
HETATM   23  C26 UNL     1       2.756  56.690  -6.233  1.00  0.00     0.017 C 
HETATM   24  C27 UNL     1       2.802  58.156  -6.753  1.00  0.00     0.023 C 
HETATM   25  C28 UNL     1       1.380  56.450  -5.530  1.00  0.00     0.132 C 
HETATM   26  C29 UNL     1       0.405  56.027  -6.642  1.00  0.00     0.038 C 
HETATM   27  C30 UNL     1       1.245  55.787  -7.921  1.00  0.00     0.002 C 
HETATM   28  C31 UNL     1       2.681  55.566  -7.344  1.00  0.00    -0.016 C 
HETATM   29  C32 UNL     1       2.755  54.120  -6.720  1.00  0.00     0.018 C 
ENDROOT
BRANCH   1  30
HETATM   30  C5  UNL     1      -0.875  54.867  -9.163  1.00  0.00     0.040 C 
BRANCH  30  31
HETATM   31  C4  UNL     1      -1.725  53.607  -9.372  1.00  0.00     0.142 C 
BRANCH  31  32
HETATM   32  C3  UNL     1      -2.136  53.455 -10.815  1.00  0.00     0.018 C 
HETATM   33  C2  UNL     1      -3.201  52.807 -11.337  1.00  0.00     0.010 C 
HETATM   34  C1  UNL     1      -4.195  51.993 -10.560  1.00  0.00     0.055 C 
BRANCH  33  35
HETATM   35  C33 UNL     1      -3.454  52.828 -12.802  1.00  0.00     0.171 C 
HETATM   36  O6  UNL     1      -3.009  52.030 -13.608  1.00  0.00    -0.646 OA
BRANCH  35  37
HETATM   37  O7  UNL     1      -4.256  53.828 -13.204  1.00  0.00    -0.773 OA
HETATM   38  H48 UNL     1      -4.319  53.691 -14.172  1.00  0.00     0.167 HD
ENDBRANCH  35  37
ENDBRANCH  33  35
ENDBRANCH  31  32
BRANCH  31  39
HETATM   39  O1  UNL     1      -1.045  52.447  -8.930  1.00  0.00    -0.392 OA
HETATM   40  H6  UNL     1      -1.592  51.681  -9.172  1.00  0.00     0.210 HD
ENDBRANCH  31  39
ENDBRANCH  30  31
ENDBRANCH   1  30
BRANCH  25  41
HETATM   41  O5  UNL     1       0.844  57.590  -4.873  1.00  0.00    -0.394 OA
HETATM   42  H41 UNL     1       1.556  57.886  -4.265  1.00  0.00     0.210 HD
ENDBRANCH  25  41
BRANCH  11  43
HETATM   43  O3  UNL     1       3.003  57.574  -3.523  1.00  0.00    -0.391 OA
HETATM   44  H20 UNL     1       3.061  57.643  -2.552  1.00  0.00     0.210 HD
ENDBRANCH  11  43
TORSDOF 8
ENDMDL
MODEL 2
REMARK minimizedAffinity -7.75337839
REMARK CNNscore 0.715381742
REMARK CNNaffinity 7.25897264
REMARK  8 active torsions:
REMARK  status: ('A' for Active; 'I' for Inactive)
REMARK    1  A    between atoms: C2_2  and  C33_38 
REMARK    2  A    between atoms: C3_3  and  C4_4 
REMARK    3  A    between atoms: C4_4  and  O1_5 
REMARK    4  A    between atoms: C4_4  and  C5_6 
REMARK    5  A    between atoms: C5_6  and  C6_7 
REMARK    6  A    between atoms: C15_17  and  O3_18 
REMARK    7  A    between atoms: C28_32  and  O5_33 
REMARK    8  A    between atoms: C33_38  and  O7_40 
ROOT
HETATM    1  C6  UNL     1      -1.420  51.308 -11.690  1.00  0.00    -0.007 C 
HETATM    2  C7  UNL     1      -2.533  52.182 -11.067  1.00  0.00     0.005 C 
HETATM    3  C8  UNL     1      -2.854  51.959  -9.585  1.00  0.00     0.000 C 
HETATM    4  C9  UNL     1      -2.313  53.029  -8.635  1.00  0.00     0.001 C 
HETATM    5  C10 UNL     1      -0.800  52.977  -8.404  1.00  0.00     0.013 C 
HETATM    6  C11 UNL     1       0.022  53.562  -9.570  1.00  0.00     0.070 C 
HETATM    7  C12 UNL     1       1.058  54.565  -9.034  1.00  0.00     0.161 C 
HETATM    8  O2  UNL     1       0.651  55.519  -8.368  1.00  0.00    -0.292 OA
HETATM    9  C13 UNL     1       2.539  54.418  -9.350  1.00  0.00     0.003 C 
HETATM   10  C14 UNL     1       2.992  53.225  -9.830  1.00  0.00    -0.029 C 
HETATM   11  C15 UNL     1       4.456  53.090 -10.185  1.00  0.00     0.149 C 
HETATM   12  C16 UNL     1       5.336  53.809  -9.174  1.00  0.00     0.043 C 
HETATM   13  C17 UNL     1       4.962  55.270  -8.857  1.00  0.00     0.016 C 
HETATM   14  C18 UNL     1       5.409  55.654  -7.395  1.00  0.00     0.018 C 
HETATM   15  C19 UNL     1       4.695  54.848  -6.292  1.00  0.00     0.023 C 
HETATM   16  C20 UNL     1       6.934  55.442  -7.233  1.00  0.00     0.023 C 
HETATM   17  C21 UNL     1       5.143  57.146  -7.146  1.00  0.00     0.135 C 
HETATM   18  O4  UNL     1       5.795  57.804  -6.333  1.00  0.00    -0.297 OA
HETATM   19  C22 UNL     1       4.059  57.810  -7.952  1.00  0.00     0.080 C 
HETATM   20  C23 UNL     1       2.979  56.800  -8.305  1.00  0.00     0.022 C 
HETATM   21  C24 UNL     1       3.473  55.655  -9.242  1.00  0.00    -0.008 C 
HETATM   22  C25 UNL     1       3.485  56.262 -10.682  1.00  0.00     0.021 C 
HETATM   23  C26 UNL     1       2.039  52.036 -10.026  1.00  0.00     0.017 C 
HETATM   24  C27 UNL     1       1.997  51.334  -8.637  1.00  0.00     0.023 C 
HETATM   25  C28 UNL     1       2.347  50.962 -11.121  1.00  0.00     0.132 C 
HETATM   26  C29 UNL     1       0.986  50.368 -11.525  1.00  0.00     0.038 C 
HETATM   27  C30 UNL     1      -0.110  51.241 -10.863  1.00  0.00     0.002 C 
HETATM   28  C31 UNL     1       0.655  52.574 -10.569  1.00  0.00    -0.016 C 
HETATM   29  C32 UNL     1       0.824  53.365 -11.923  1.00  0.00     0.018 C 
ENDROOT
BRANCH   1  30
HETATM   30  C5  UNL     1      -1.970  49.924 -12.162  1.00  0.00     0.040 C 
BRANCH  30  31
HETATM   31  C4  UNL     1      -2.655  49.834 -13.532  1.00  0.00     0.142 C 
BRANCH  31  32
HETATM   32  C3  UNL     1      -1.664  49.515 -14.622  1.00  0.00     0.018 C 
HETATM   33  C2  UNL     1      -1.658  49.912 -15.914  1.00  0.00     0.010 C 
HETATM   34  C1  UNL     1      -2.731  50.718 -16.586  1.00  0.00     0.055 C 
BRANCH  33  35
HETATM   35  C33 UNL     1      -0.542  49.525 -16.817  1.00  0.00     0.171 C 
HETATM   36  O6  UNL     1       0.544  50.074 -16.874  1.00  0.00    -0.646 OA
BRANCH  35  37
HETATM   37  O7  UNL     1      -0.814  48.469 -17.602  1.00  0.00    -0.773 OA
HETATM   38  H48 UNL     1       0.011  48.351 -18.116  1.00  0.00     0.167 HD
ENDBRANCH  35  37
ENDBRANCH  33  35
ENDBRANCH  31  32
BRANCH  31  39
HETATM   39  O1  UNL     1      -3.701  48.880 -13.524  1.00  0.00    -0.392 OA
HETATM   40  H6  UNL     1      -4.031  48.805 -14.435  1.00  0.00     0.210 HD
ENDBRANCH  31  39
ENDBRANCH  30  31
ENDBRANCH   1  30
BRANCH  25  41
HETATM   41  O5  UNL     1       3.189  49.902 -10.691  1.00  0.00    -0.394 OA
HETATM   42  H41 UNL     1       3.988  50.346 -10.333  1.00  0.00     0.210 HD
ENDBRANCH  25  41
BRANCH  11  43
HETATM   43  O3  UNL     1       4.880  51.730 -10.166  1.00  0.00    -0.391 OA
HETATM   44  H20 UNL     1       5.819  51.722 -10.431  1.00  0.00     0.210 HD
ENDBRANCH  11  43
TORSDOF 8
ENDMDL
MODEL 3
REMARK minimizedAffinity -7.78905535
REMARK CNNscore 0.637298882
REMARK CNNaffinity 7.06506491
REMARK  8 active torsions:
REMARK  status: ('A' for Active; 'I' for Inactive)
REMARK    1  A    between atoms: C2_2  and  C33_38 
REMARK    2  A    between atoms: C3_3  and  C4_4 
REMARK    3  A    between atoms: C4_4  and  O1_5 
REMARK    4  A    between atoms: C4_4  and  C5_6 
REMARK    5  A    between atoms: C5_6  and  C6_7 
REMARK    6  A    between atoms: C15_17  and  O3_18 
REMARK    7  A    between atoms: C28_32  and  O5_33 
REMARK    8  A    between atoms: C33_38  and  O7_40 
ROOT
HETATM    1  C6  UNL     1      -0.035  52.785 -11.341  1.00  0.00    -0.007 C 
HETATM    2  C7  UNL     1      -1.351  53.242 -10.670  1.00  0.00     0.005 C 
HETATM    3  C8  UNL     1      -1.762  52.535  -9.374  1.00  0.00     0.000 C 
HETATM    4  C9  UNL     1      -1.532  53.339  -8.093  1.00  0.00     0.001 C 
HETATM    5  C10 UNL     1      -0.067  53.460  -7.665  1.00  0.00     0.013 C 
HETATM    6  C11 UNL     1       0.733  54.492  -8.486  1.00  0.00     0.070 C 
HETATM    7  C12 UNL     1       1.499  55.436  -7.544  1.00  0.00     0.161 C 
HETATM    8  O2  UNL     1       0.853  56.068  -6.705  1.00  0.00    -0.292 OA
HETATM    9  C13 UNL     1       3.003  55.627  -7.666  1.00  0.00     0.003 C 
HETATM   10  C14 UNL     1       3.723  54.722  -8.388  1.00  0.00    -0.029 C 
HETATM   11  C15 UNL     1       5.212  54.933  -8.546  1.00  0.00     0.149 C 
HETATM   12  C16 UNL     1       5.836  55.443  -7.256  1.00  0.00     0.043 C 
HETATM   13  C17 UNL     1       5.157  56.662  -6.602  1.00  0.00     0.016 C 
HETATM   14  C18 UNL     1       5.380  56.652  -5.042  1.00  0.00     0.018 C 
HETATM   15  C19 UNL     1       4.735  55.449  -4.326  1.00  0.00     0.023 C 
HETATM   16  C20 UNL     1       6.894  56.645  -4.721  1.00  0.00     0.023 C 
HETATM   17  C21 UNL     1       4.806  57.938  -4.427  1.00  0.00     0.135 C 
HETATM   18  O4  UNL     1       5.238  58.414  -3.376  1.00  0.00    -0.297 OA
HETATM   19  C22 UNL     1       3.695  58.634  -5.166  1.00  0.00     0.080 C 
HETATM   20  C23 UNL     1       2.871  57.621  -5.943  1.00  0.00     0.022 C 
HETATM   21  C24 UNL     1       3.664  56.905  -7.080  1.00  0.00    -0.008 C 
HETATM   22  C25 UNL     1       3.695  57.912  -8.273  1.00  0.00     0.021 C 
HETATM   23  C26 UNL     1       3.042  53.512  -9.047  1.00  0.00     0.017 C 
HETATM   24  C27 UNL     1       3.006  52.427  -7.932  1.00  0.00     0.023 C 
HETATM   25  C28 UNL     1       3.655  52.881 -10.341  1.00  0.00     0.132 C 
HETATM   26  C29 UNL     1       2.480  52.230 -11.091  1.00  0.00     0.038 C 
HETATM   27  C30 UNL     1       1.178  52.679 -10.381  1.00  0.00     0.002 C 
HETATM   28  C31 UNL     1       1.638  53.964  -9.617  1.00  0.00    -0.016 C 
HETATM   29  C32 UNL     1       1.778  55.143 -10.654  1.00  0.00     0.018 C 
ENDROOT
BRANCH   1  30
HETATM   30  C5  UNL     1      -0.259  51.539 -12.257  1.00  0.00     0.040 C 
BRANCH  30  31
HETATM   31  C4  UNL     1      -0.365  51.751 -13.773  1.00  0.00     0.142 C 
BRANCH  31  32
HETATM   32  C3  UNL     1       0.978  52.076 -14.377  1.00  0.00     0.018 C 
HETATM   33  C2  UNL     1       1.419  51.872 -15.638  1.00  0.00     0.010 C 
HETATM   34  C1  UNL     1       0.661  51.168 -16.726  1.00  0.00     0.055 C 
BRANCH  33  35
HETATM   35  C33 UNL     1       2.776  52.324 -16.045  1.00  0.00     0.171 C 
HETATM   36  O6  UNL     1       3.827  51.842 -15.659  1.00  0.00    -0.646 OA
BRANCH  35  37
HETATM   37  O7  UNL     1       2.774  53.343 -16.920  1.00  0.00    -0.773 OA
HETATM   38  H48 UNL     1       3.726  53.505 -17.080  1.00  0.00     0.167 HD
ENDBRANCH  35  37
ENDBRANCH  33  35
ENDBRANCH  31  32
BRANCH  31  39
HETATM   39  O1  UNL     1      -0.932  50.623 -14.413  1.00  0.00    -0.392 OA
HETATM   40  H6  UNL     1      -0.888  50.782 -15.371  1.00  0.00     0.210 HD
ENDBRANCH  31  39
ENDBRANCH  30  31
ENDBRANCH   1  30
BRANCH  25  41
HETATM   41  O5  UNL     1       4.643  51.888 -10.105  1.00  0.00    -0.394 OA
HETATM   42  H41 UNL     1       5.302  52.324  -9.523  1.00  0.00     0.210 HD
ENDBRANCH  25  41
BRANCH  11  43
HETATM   43  O3  UNL     1       5.889  53.716  -8.845  1.00  0.00    -0.391 OA
HETATM   44  H20 UNL     1       6.832  53.937  -8.960  1.00  0.00     0.210 HD
ENDBRANCH  11  43
TORSDOF 8
ENDMDL
MODEL 4
REMARK minimizedAffinity -7.80189276
REMARK CNNscore 0.542315662
REMARK CNNaffinity 6.45796776
REMARK  8 active torsions:
REMARK  status: ('A' for Active; 'I' for Inactive)
REMARK    1  A    between atoms: C2_2  and  C33_38 
REMARK    2  A    between atoms: C3_3  and  C4_4 
REMARK    3  A    between atoms: C4_4  and  O1_5 
REMARK    4  A    between atoms: C4_4  and  C5_6 
REMARK    5  A    between atoms: C5_6  and  C6_7 
REMARK    6  A    between atoms: C15_17  and  O3_18 
REMARK    7  A    between atoms: C28_32  and  O5_33 
REMARK    8  A    between atoms: C33_38  and  O7_40 
ROOT
HETATM    1  C6  UNL     1       5.632  54.803  -8.915  1.00  0.00    -0.007 C 
HETATM    2  C7  UNL     1       6.326  53.431  -9.081  1.00  0.00     0.005 C 
HETATM    3  C8  UNL     1       6.092  52.388  -7.982  1.00  0.00     0.000 C 
HETATM    4  C9  UNL     1       5.118  51.266  -8.347  1.00  0.00     0.001 C 
HETATM    5  C10 UNL     1       3.645  51.682  -8.387  1.00  0.00     0.013 C 
HETATM    6  C11 UNL     1       3.259  52.464  -9.658  1.00  0.00     0.070 C 
HETATM    7  C12 UNL     1       1.991  51.859 -10.286  1.00  0.00     0.161 C 
HETATM    8  O2  UNL     1       2.010  50.664 -10.592  1.00  0.00    -0.292 OA
HETATM    9  C13 UNL     1       0.764  52.711 -10.568  1.00  0.00     0.003 C 
HETATM   10  C14 UNL     1       0.660  53.931  -9.970  1.00  0.00    -0.029 C 
HETATM   11  C15 UNL     1      -0.540  54.798 -10.282  1.00  0.00     0.149 C 
HETATM   12  C16 UNL     1      -1.809  53.965 -10.382  1.00  0.00     0.043 C 
HETATM   13  C17 UNL     1      -1.747  52.730 -11.301  1.00  0.00     0.016 C 
HETATM   14  C18 UNL     1      -2.749  51.618 -10.806  1.00  0.00     0.018 C 
HETATM   15  C19 UNL     1      -2.414  51.052  -9.412  1.00  0.00     0.023 C 
HETATM   16  C20 UNL     1      -4.190  52.182 -10.760  1.00  0.00     0.023 C 
HETATM   17  C21 UNL     1      -2.765  50.451 -11.805  1.00  0.00     0.135 C 
HETATM   18  O4  UNL     1      -3.743  49.715 -11.941  1.00  0.00    -0.297 OA
HETATM   19  C22 UNL     1      -1.540  50.237 -12.653  1.00  0.00     0.080 C 
HETATM   20  C23 UNL     1      -0.300  50.700 -11.905  1.00  0.00     0.022 C 
HETATM   21  C24 UNL     1      -0.275  52.234 -11.621  1.00  0.00    -0.008 C 
HETATM   22  C25 UNL     1       0.184  52.904 -12.955  1.00  0.00     0.021 C 
HETATM   23  C26 UNL     1       1.744  54.435  -9.004  1.00  0.00     0.017 C 
HETATM   24  C27 UNL     1       1.342  53.847  -7.621  1.00  0.00     0.023 C 
HETATM   25  C28 UNL     1       1.991  55.971  -8.843  1.00  0.00     0.132 C 
HETATM   26  C29 UNL     1       3.462  56.121  -8.415  1.00  0.00     0.038 C 
HETATM   27  C30 UNL     1       4.124  54.728  -8.561  1.00  0.00     0.002 C 
HETATM   28  C31 UNL     1       3.161  53.999  -9.554  1.00  0.00    -0.016 C 
HETATM   29  C32 UNL     1       3.422  54.555 -11.007  1.00  0.00     0.018 C 
ENDROOT
BRANCH   1  30
HETATM   30  C5  UNL     1       6.471  55.767  -8.016  1.00  0.00     0.040 C 
BRANCH  30  31
HETATM   31  C4  UNL     1       7.056  55.226  -6.705  1.00  0.00     0.142 C 
BRANCH  31  32
HETATM   32  C3  UNL     1       8.297  55.983  -6.304  1.00  0.00     0.018 C 
HETATM   33  C2  UNL     1       9.251  55.647  -5.407  1.00  0.00     0.010 C 
HETATM   34  C1  UNL     1       9.229  54.435  -4.521  1.00  0.00     0.055 C 
BRANCH  33  35
HETATM   35  C33 UNL     1      10.435  56.522  -5.202  1.00  0.00     0.171 C 
HETATM   36  O6  UNL     1      10.399  57.719  -4.978  1.00  0.00    -0.646 OA
BRANCH  35  37
HETATM   37  O7  UNL     1      11.612  55.876  -5.270  1.00  0.00    -0.773 OA
HETATM   38  H48 UNL     1      12.268  56.585  -5.111  1.00  0.00     0.167 HD
ENDBRANCH  35  37
ENDBRANCH  33  35
ENDBRANCH  31  32
BRANCH  31  39
HETATM   39  O1  UNL     1       6.101  55.259  -5.661  1.00  0.00    -0.392 OA
HETATM   40  H6  UNL     1       6.556  54.993  -4.844  1.00  0.00     0.210 HD
ENDBRANCH  31  39
ENDBRANCH  30  31
ENDBRANCH   1  30
BRANCH  25  41
HETATM   41  O5  UNL     1       1.174  56.604  -7.868  1.00  0.00    -0.394 OA
HETATM   42  H41 UNL     1       0.255  56.373  -8.124  1.00  0.00     0.210 HD
ENDBRANCH  25  41
BRANCH  11  43
HETATM   43  O3  UNL     1      -0.785  55.751  -9.252  1.00  0.00    -0.391 OA
HETATM   44  H20 UNL     1      -1.549  56.286  -9.537  1.00  0.00     0.210 HD
ENDBRANCH  11  43
TORSDOF 8
ENDMDL
MODEL 5
REMARK minimizedAffinity -9.03140926
REMARK CNNscore 0.514595687
REMARK CNNaffinity 6.2239995
REMARK  8 active torsions:
REMARK  status: ('A' for Active; 'I' for Inactive)
REMARK    1  A    between atoms: C2_2  and  C33_38 
REMARK    2  A    between atoms: C3_3  and  C4_4 
REMARK    3  A    between atoms: C4_4  and  O1_5 
REMARK    4  A    between atoms: C4_4  and  C5_6 
REMARK    5  A    between atoms: C5_6  and  C6_7 
REMARK    6  A    between atoms: C15_17  and  O3_18 
REMARK    7  A    between atoms: C28_32  and  O5_33 
REMARK    8  A    between atoms: C33_38  and  O7_40 
ROOT
HETATM    1  C6  UNL     1     -13.430  45.172 -25.281  1.00  0.00    -0.007 C 
HETATM    2  C7  UNL     1     -14.340  44.622 -26.404  1.00  0.00     0.005 C 
HETATM    3  C8  UNL     1     -14.996  45.643 -27.340  1.00  0.00     0.000 C 
HETATM    4  C9  UNL     1     -14.365  45.751 -28.729  1.00  0.00     0.001 C 
HETATM    5  C10 UNL     1     -13.008  46.461 -28.764  1.00  0.00     0.013 C 
HETATM    6  C11 UNL     1     -11.839  45.583 -28.273  1.00  0.00     0.070 C 
HETATM    7  C12 UNL     1     -10.682  45.633 -29.286  1.00  0.00     0.161 C 
HETATM    8  O2  UNL     1     -10.915  45.301 -30.450  1.00  0.00    -0.292 OA
HETATM    9  C13 UNL     1      -9.277  46.032 -28.862  1.00  0.00     0.003 C 
HETATM   10  C14 UNL     1      -9.106  46.661 -27.664  1.00  0.00    -0.029 C 
HETATM   11  C15 UNL     1      -7.705  47.021 -27.222  1.00  0.00     0.149 C 
HETATM   12  C16 UNL     1      -6.870  47.519 -28.391  1.00  0.00     0.043 C 
HETATM   13  C17 UNL     1      -6.856  46.632 -29.651  1.00  0.00     0.016 C 
HETATM   14  C18 UNL     1      -6.612  47.502 -30.942  1.00  0.00     0.018 C 
HETATM   15  C19 UNL     1      -7.732  48.522 -31.228  1.00  0.00     0.023 C 
HETATM   16  C20 UNL     1      -5.278  48.277 -30.817  1.00  0.00     0.023 C 
HETATM   17  C21 UNL     1      -6.475  46.586 -32.168  1.00  0.00     0.135 C 
HETATM   18  O4  UNL     1      -5.832  46.915 -33.166  1.00  0.00    -0.297 OA
HETATM   19  C22 UNL     1      -7.138  45.236 -32.113  1.00  0.00     0.080 C 
HETATM   20  C23 UNL     1      -8.375  45.298 -31.230  1.00  0.00     0.022 C 
HETATM   21  C24 UNL     1      -8.062  45.606 -29.733  1.00  0.00    -0.008 C 
HETATM   22  C25 UNL     1      -7.592  44.252 -29.112  1.00  0.00     0.021 C 
HETATM   23  C26 UNL     1     -10.307  46.990 -26.764  1.00  0.00     0.017 C 
HETATM   24  C27 UNL     1     -10.822  48.363 -27.285  1.00  0.00     0.023 C 
HETATM   25  C28 UNL     1     -10.117  47.082 -25.214  1.00  0.00     0.132 C 
HETATM   26  C29 UNL     1     -11.485  46.737 -24.599  1.00  0.00     0.038 C 
HETATM   27  C30 UNL     1     -12.386  46.219 -25.749  1.00  0.00     0.002 C 
HETATM   28  C31 UNL     1     -11.339  45.794 -26.831  1.00  0.00    -0.016 C 
HETATM   29  C32 UNL     1     -10.684  44.429 -26.389  1.00  0.00     0.018 C 
ENDROOT
BRANCH   1  30
HETATM   30  C5  UNL     1     -14.257  45.587 -24.021  1.00  0.00     0.040 C 
BRANCH  30  31
HETATM   31  C4  UNL     1     -14.853  46.999 -23.966  1.00  0.00     0.142 C 
BRANCH  31  32
HETATM   32  C3  UNL     1     -16.323  46.988 -24.300  1.00  0.00     0.018 C 
HETATM   33  C2  UNL     1     -17.361  46.520 -23.572  1.00  0.00     0.010 C 
HETATM   34  C1  UNL     1     -17.254  45.804 -22.257  1.00  0.00     0.055 C 
BRANCH  33  35
HETATM   35  C33 UNL     1     -18.756  46.660 -24.069  1.00  0.00     0.171 C 
HETATM   36  O6  UNL     1     -19.142  47.499 -24.864  1.00  0.00    -0.646 OA
BRANCH  35  37
HETATM   37  O7  UNL     1     -19.608  45.749 -23.570  1.00  0.00    -0.773 OA
HETATM   38  H48 UNL     1     -20.459  45.979 -23.997  1.00  0.00     0.167 HD
ENDBRANCH  35  37
ENDBRANCH  33  35
ENDBRANCH  31  32
BRANCH  31  39
HETATM   39  O1  UNL     1     -14.640  47.600 -22.702  1.00  0.00    -0.392 OA
HETATM   40  H6  UNL     1     -15.117  48.447 -22.701  1.00  0.00     0.210 HD
ENDBRANCH  31  39
ENDBRANCH  30  31
ENDBRANCH   1  30
BRANCH  25  41
HETATM   41  O5  UNL     1      -9.722  48.361 -24.740  1.00  0.00    -0.394 OA
HETATM   42  H41 UNL     1      -8.915  48.580 -25.253  1.00  0.00     0.210 HD
ENDBRANCH  25  41
BRANCH  11  43
HETATM   43  O3  UNL     1      -7.708  48.082 -26.271  1.00  0.00    -0.391 OA
HETATM   44  H20 UNL     1      -6.779  48.235 -26.015  1.00  0.00     0.210 HD
ENDBRANCH  11  43
TORSDOF 8
ENDMDL
MODEL 6
REMARK minimizedAffinity -8.08267117
REMARK CNNscore 0.5004071
REMARK CNNaffinity 6.39873505
REMARK  8 active torsions:
REMARK  status: ('A' for Active; 'I' for Inactive)
REMARK    1  A    between atoms: C2_2  and  C33_38 
REMARK    2  A    between atoms: C3_3  and  C4_4 
REMARK    3  A    between atoms: C4_4  and  O1_5 
REMARK    4  A    between atoms: C4_4  and  C5_6 
REMARK    5  A    between atoms: C5_6  and  C6_7 
REMARK    6  A    between atoms: C15_17  and  O3_18 
REMARK    7  A    between atoms: C28_32  and  O5_33 
REMARK    8  A    between atoms: C33_38  and  O7_40 
ROOT
HETATM    1  C6  UNL     1      -3.240  50.106 -10.104  1.00  0.00    -0.007 C 
HETATM    2  C7  UNL     1      -3.686  50.940 -11.327  1.00  0.00     0.005 C 
HETATM    3  C8  UNL     1      -4.516  52.200 -11.054  1.00  0.00     0.000 C 
HETATM    4  C9  UNL     1      -3.757  53.521 -11.187  1.00  0.00     0.001 C 
HETATM    5  C10 UNL     1      -2.777  53.815 -10.047  1.00  0.00     0.013 C 
HETATM    6  C11 UNL     1      -1.460  53.019 -10.146  1.00  0.00     0.070 C 
HETATM    7  C12 UNL     1      -0.258  53.966  -9.984  1.00  0.00     0.161 C 
HETATM    8  O2  UNL     1      -0.161  54.917 -10.762  1.00  0.00    -0.292 OA
HETATM    9  C13 UNL     1       0.809  53.717  -8.930  1.00  0.00     0.003 C 
HETATM   10  C14 UNL     1       0.539  52.849  -7.914  1.00  0.00    -0.029 C 
HETATM   11  C15 UNL     1       1.614  52.568  -6.888  1.00  0.00     0.149 C 
HETATM   12  C16 UNL     1       2.379  53.834  -6.532  1.00  0.00     0.043 C 
HETATM   13  C17 UNL     1       2.925  54.659  -7.713  1.00  0.00     0.016 C 
HETATM   14  C18 UNL     1       3.030  56.183  -7.325  1.00  0.00     0.018 C 
HETATM   15  C19 UNL     1       1.672  56.844  -7.015  1.00  0.00     0.023 C 
HETATM   16  C20 UNL     1       3.940  56.354  -6.084  1.00  0.00     0.023 C 
HETATM   17  C21 UNL     1       3.693  56.966  -8.468  1.00  0.00     0.135 C 
HETATM   18  O4  UNL     1       4.319  58.010  -8.274  1.00  0.00    -0.297 OA
HETATM   19  C22 UNL     1       3.582  56.405  -9.860  1.00  0.00     0.080 C 
HETATM   20  C23 UNL     1       2.287  55.621 -10.004  1.00  0.00     0.022 C 
HETATM   21  C24 UNL     1       2.218  54.352  -9.099  1.00  0.00    -0.008 C 
HETATM   22  C25 UNL     1       3.053  53.259  -9.838  1.00  0.00     0.021 C 
HETATM   23  C26 UNL     1      -0.826  52.150  -7.811  1.00  0.00     0.017 C 
HETATM   24  C27 UNL     1      -1.725  53.158  -7.040  1.00  0.00     0.023 C 
HETATM   25  C28 UNL     1      -0.935  50.751  -7.120  1.00  0.00     0.132 C 
HETATM   26  C29 UNL     1      -2.155  50.060  -7.755  1.00  0.00     0.038 C 
HETATM   27  C30 UNL     1      -2.601  50.931  -8.956  1.00  0.00     0.002 C 
HETATM   28  C31 UNL     1      -1.312  51.763  -9.265  1.00  0.00    -0.016 C 
HETATM   29  C32 UNL     1      -0.276  50.829 -10.001  1.00  0.00     0.018 C 
ENDROOT
BRANCH   1  30
HETATM   30  C5  UNL     1      -4.352  49.105  -9.652  1.00  0.00     0.040 C 
BRANCH  30  31
HETATM   31  C4  UNL     1      -5.805  49.392 -10.054  1.00  0.00     0.142 C 
BRANCH  31  32
HETATM   32  C3  UNL     1      -6.374  48.273 -10.890  1.00  0.00     0.018 C 
HETATM   33  C2  UNL     1      -7.606  48.153 -11.431  1.00  0.00     0.010 C 
HETATM   34  C1  UNL     1      -8.745  49.111 -11.234  1.00  0.00     0.055 C 
BRANCH  33  35
HETATM   35  C33 UNL     1      -7.947  46.979 -12.278  1.00  0.00     0.171 C 
HETATM   36  O6  UNL     1      -8.599  46.014 -11.919  1.00  0.00    -0.646 OA
BRANCH  35  37
HETATM   37  O7  UNL     1      -7.479  47.056 -13.535  1.00  0.00    -0.773 OA
HETATM   38  H48 UNL     1      -7.792  46.224 -13.944  1.00  0.00     0.167 HD
ENDBRANCH  35  37
ENDBRANCH  33  35
ENDBRANCH  31  32
BRANCH  31  39
HETATM   39  O1  UNL     1      -6.618  49.620  -8.918  1.00  0.00    -0.392 OA
HETATM   40  H6  UNL     1      -7.535  49.703  -9.231  1.00  0.00     0.210 HD
ENDBRANCH  31  39
ENDBRANCH  30  31
ENDBRANCH   1  30
BRANCH  25  41
HETATM   41  O5  UNL     1      -1.127  50.798  -5.714  1.00  0.00    -0.394 OA
HETATM   42  H41 UNL     1      -0.389  51.351  -5.379  1.00  0.00     0.210 HD
ENDBRANCH  25  41
BRANCH  11  43
HETATM   43  O3  UNL     1       1.063  52.094  -5.663  1.00  0.00    -0.391 OA
HETATM   44  H20 UNL     1       1.813  51.910  -5.067  1.00  0.00     0.210 HD
ENDBRANCH  11  43
TORSDOF 8
ENDMDL
MODEL 7
REMARK minimizedAffinity -8.01411724
REMARK CNNscore 0.444792449
REMARK CNNaffinity 6.13417387
REMARK  8 active torsions:
REMARK  status: ('A' for Active; 'I' for Inactive)
REMARK    1  A    between atoms: C2_2  and  C33_38 
REMARK    2  A    between atoms: C3_3  and  C4_4 
REMARK    3  A    between atoms: C4_4  and  O1_5 
REMARK    4  A    between atoms: C4_4  and  C5_6 
REMARK    5  A    between atoms: C5_6  and  C6_7 
REMARK    6  A    between atoms: C15_17  and  O3_18 
REMARK    7  A    between atoms: C28_32  and  O5_33 
REMARK    8  A    between atoms: C33_38  and  O7_40 
ROOT
HETATM    1  C6  UNL     1      -8.785  47.796 -31.033  1.00  0.00    -0.007 C 
HETATM    2  C7  UNL     1      -8.725  46.661 -32.082  1.00  0.00     0.005 C 
HETATM    3  C8  UNL     1      -7.902  45.418 -31.726  1.00  0.00     0.000 C 
HETATM    4  C9  UNL     1      -8.721  44.189 -31.326  1.00  0.00     0.001 C 
HETATM    5  C10 UNL     1      -9.360  44.269 -29.937  1.00  0.00     0.013 C 
HETATM    6  C11 UNL     1     -10.621  45.155 -29.889  1.00  0.00     0.070 C 
HETATM    7  C12 UNL     1     -11.769  44.402 -29.193  1.00  0.00     0.161 C 
HETATM    8  O2  UNL     1     -12.113  43.314 -29.658  1.00  0.00    -0.292 OA
HETATM    9  C13 UNL     1     -12.494  44.997 -27.996  1.00  0.00     0.003 C 
HETATM   10  C14 UNL     1     -11.921  46.042 -27.334  1.00  0.00    -0.029 C 
HETATM   11  C15 UNL     1     -12.661  46.662 -26.169  1.00  0.00     0.149 C 
HETATM   12  C16 UNL     1     -13.347  45.599 -25.325  1.00  0.00     0.043 C 
HETATM   13  C17 UNL     1     -14.229  44.587 -26.081  1.00  0.00     0.016 C 
HETATM   14  C18 UNL     1     -14.283  43.212 -25.312  1.00  0.00     0.018 C 
HETATM   15  C19 UNL     1     -12.919  42.501 -25.207  1.00  0.00     0.023 C 
HETATM   16  C20 UNL     1     -14.822  43.427 -23.877  1.00  0.00     0.023 C 
HETATM   17  C21 UNL     1     -15.265  42.262 -26.014  1.00  0.00     0.135 C 
HETATM   18  O4  UNL     1     -15.854  41.363 -25.412  1.00  0.00    -0.297 OA
HETATM   19  C22 UNL     1     -15.519  42.475 -27.482  1.00  0.00     0.080 C 
HETATM   20  C23 UNL     1     -14.284  43.064 -28.145  1.00  0.00     0.022 C 
HETATM   21  C24 UNL     1     -13.919  44.492 -27.634  1.00  0.00    -0.008 C 
HETATM   22  C25 UNL     1     -14.882  45.468 -28.381  1.00  0.00     0.021 C 
HETATM   23  C26 UNL     1     -10.554  46.598 -27.762  1.00  0.00     0.017 C 
HETATM   24  C27 UNL     1      -9.518  45.704 -27.022  1.00  0.00     0.023 C 
HETATM   25  C28 UNL     1     -10.204  48.099 -27.494  1.00  0.00     0.132 C 
HETATM   26  C29 UNL     1      -9.179  48.493 -28.572  1.00  0.00     0.038 C 
HETATM   27  C30 UNL     1      -9.116  47.328 -29.592  1.00  0.00     0.002 C 
HETATM   28  C31 UNL     1     -10.471  46.588 -29.341  1.00  0.00    -0.016 C 
HETATM   29  C32 UNL     1     -11.633  47.432 -29.995  1.00  0.00     0.018 C 
ENDROOT
BRANCH   1  30
HETATM   30  C5  UNL     1      -7.553  48.751 -31.147  1.00  0.00     0.040 C 
BRANCH  30  31
HETATM   31  C4  UNL     1      -6.167  48.209 -30.775  1.00  0.00     0.142 C 
BRANCH  31  32
HETATM   32  C3  UNL     1      -5.175  48.428 -31.889  1.00  0.00     0.018 C 
HETATM   33  C2  UNL     1      -4.450  47.520 -32.578  1.00  0.00     0.010 C 
HETATM   34  C1  UNL     1      -4.414  46.043 -32.309  1.00  0.00     0.055 C 
BRANCH  33  35
HETATM   35  C33 UNL     1      -3.561  47.950 -33.690  1.00  0.00     0.171 C 
HETATM   36  O6  UNL     1      -2.367  47.718 -33.771  1.00  0.00    -0.646 OA
BRANCH  35  37
HETATM   37  O7  UNL     1      -4.189  48.638 -34.659  1.00  0.00    -0.773 OA
HETATM   38  H48 UNL     1      -3.473  48.833 -35.297  1.00  0.00     0.167 HD
ENDBRANCH  35  37
ENDBRANCH  33  35
ENDBRANCH  31  32
BRANCH  31  39
HETATM   39  O1  UNL     1      -5.693  48.787 -29.573  1.00  0.00    -0.392 OA
HETATM   40  H6  UNL     1      -4.781  48.476 -29.443  1.00  0.00     0.210 HD
ENDBRANCH  31  39
ENDBRANCH  30  31
ENDBRANCH   1  30
BRANCH  25  41
HETATM   41  O5  UNL     1      -9.635  48.356 -26.218  1.00  0.00    -0.394 OA
HETATM   42  H41 UNL     1     -10.274  47.975 -25.578  1.00  0.00     0.210 HD
ENDBRANCH  25  41
BRANCH  11  43
HETATM   43  O3  UNL     1     -11.776  47.344 -25.285  1.00  0.00    -0.391 OA
HETATM   44  H20 UNL     1     -12.325  47.737 -24.582  1.00  0.00     0.210 HD
ENDBRANCH  11  43
TORSDOF 8
ENDMDL
MODEL 8
REMARK minimizedAffinity -8.31973934
REMARK CNNscore 0.441745549
REMARK CNNaffinity 6.52561235
REMARK  8 active torsions:
REMARK  status: ('A' for Active; 'I' for Inactive)
REMARK    1  A    between atoms: C2_2  and  C33_38 
REMARK    2  A    between atoms: C3_3  and  C4_4 
REMARK    3  A    between atoms: C4_4  and  O1_5 
REMARK    4  A    between atoms: C4_4  and  C5_6 
REMARK    5  A    between atoms: C5_6  and  C6_7 
REMARK    6  A    between atoms: C15_17  and  O3_18 
REMARK    7  A    between atoms: C28_32  and  O5_33 
REMARK    8  A    between atoms: C33_38  and  O7_40 
ROOT
HETATM    1  C6  UNL     1      -1.493  48.847 -20.786  1.00  0.00    -0.007 C 
HETATM    2  C7  UNL     1      -1.222  48.965 -19.268  1.00  0.00     0.005 C 
HETATM    3  C8  UNL     1      -1.799  50.187 -18.544  1.00  0.00     0.000 C 
HETATM    4  C9  UNL     1      -3.040  49.913 -17.692  1.00  0.00     0.001 C 
HETATM    5  C10 UNL     1      -4.325  49.670 -18.490  1.00  0.00     0.013 C 
HETATM    6  C11 UNL     1      -4.409  48.261 -19.110  1.00  0.00     0.070 C 
HETATM    7  C12 UNL     1      -5.768  47.620 -18.781  1.00  0.00     0.161 C 
HETATM    8  O2  UNL     1      -6.085  47.509 -17.595  1.00  0.00    -0.292 OA
HETATM    9  C13 UNL     1      -6.680  47.093 -19.878  1.00  0.00     0.003 C 
HETATM   10  C14 UNL     1      -6.451  47.479 -21.165  1.00  0.00    -0.029 C 
HETATM   11  C15 UNL     1      -7.331  46.923 -22.262  1.00  0.00     0.149 C 
HETATM   12  C16 UNL     1      -8.782  46.837 -21.813  1.00  0.00     0.043 C 
HETATM   13  C17 UNL     1      -9.041  46.133 -20.467  1.00  0.00     0.016 C 
HETATM   14  C18 UNL     1     -10.345  46.700 -19.786  1.00  0.00     0.018 C 
HETATM   15  C19 UNL     1     -10.252  48.191 -19.406  1.00  0.00     0.023 C 
HETATM   16  C20 UNL     1     -11.559  46.521 -20.729  1.00  0.00     0.023 C 
HETATM   17  C21 UNL     1     -10.655  45.900 -18.512  1.00  0.00     0.135 C 
HETATM   18  O4  UNL     1     -11.799  45.791 -18.066  1.00  0.00    -0.297 OA
HETATM   19  C22 UNL     1      -9.509  45.216 -17.816  1.00  0.00     0.080 C 
HETATM   20  C23 UNL     1      -8.223  45.994 -18.040  1.00  0.00     0.022 C 
HETATM   21  C24 UNL     1      -7.765  46.035 -19.531  1.00  0.00    -0.008 C 
HETATM   22  C25 UNL     1      -7.072  44.661 -19.798  1.00  0.00     0.021 C 
HETATM   23  C26 UNL     1      -5.311  48.451 -21.509  1.00  0.00     0.017 C 
HETATM   24  C27 UNL     1      -5.929  49.865 -21.312  1.00  0.00     0.023 C 
HETATM   25  C28 UNL     1      -4.635  48.391 -22.918  1.00  0.00     0.132 C 
HETATM   26  C29 UNL     1      -3.205  48.926 -22.724  1.00  0.00     0.038 C 
HETATM   27  C30 UNL     1      -2.972  49.065 -21.199  1.00  0.00     0.002 C 
HETATM   28  C31 UNL     1      -4.060  48.112 -20.604  1.00  0.00    -0.016 C 
HETATM   29  C32 UNL     1      -3.583  46.621 -20.797  1.00  0.00     0.018 C 
ENDROOT
BRANCH   1  30
HETATM   30  C5  UNL     1      -0.451  49.658 -21.621  1.00  0.00     0.040 C 
BRANCH  30  31
HETATM   31  C4  UNL     1      -0.851  51.041 -22.151  1.00  0.00     0.142 C 
BRANCH  31  32
HETATM   32  C3  UNL     1       0.031  52.123 -21.580  1.00  0.00     0.018 C 
HETATM   33  C2  UNL     1       0.675  53.125 -22.218  1.00  0.00     0.010 C 
HETATM   34  C1  UNL     1       0.719  53.329 -23.705  1.00  0.00     0.055 C 
BRANCH  33  35
HETATM   35  C33 UNL     1       1.456  54.131 -21.450  1.00  0.00     0.171 C 
HETATM   36  O6  UNL     1       1.688  54.082 -20.254  1.00  0.00    -0.646 OA
BRANCH  35  37
HETATM   37  O7  UNL     1       1.925  55.146 -22.194  1.00  0.00    -0.773 OA
HETATM   38  H48 UNL     1       2.408  55.697 -21.545  1.00  0.00     0.167 HD
ENDBRANCH  35  37
ENDBRANCH  33  35
ENDBRANCH  31  32
BRANCH  31  39
HETATM   39  O1  UNL     1      -0.823  51.079 -23.565  1.00  0.00    -0.392 OA
HETATM   40  H6  UNL     1      -0.994  51.998 -23.833  1.00  0.00     0.210 HD
ENDBRANCH  31  39
ENDBRANCH  30  31
ENDBRANCH   1  30
BRANCH  25  41
HETATM   41  O5  UNL     1      -5.275  49.173 -23.916  1.00  0.00    -0.394 OA
HETATM   42  H41 UNL     1      -6.209  48.871 -23.910  1.00  0.00     0.210 HD
ENDBRANCH  25  41
BRANCH  11  43
HETATM   43  O3  UNL     1      -7.333  47.762 -23.413  1.00  0.00    -0.391 OA
HETATM   44  H20 UNL     1      -7.895  47.326 -24.081  1.00  0.00     0.210 HD
ENDBRANCH  11  43
TORSDOF 8
ENDMDL
MODEL 9
REMARK minimizedAffinity -8.78884792
REMARK CNNscore 0.422744989
REMARK CNNaffinity 6.69438553
REMARK  8 active torsions:
REMARK  status: ('A' for Active; 'I' for Inactive)
REMARK    1  A    between atoms: C2_2  and  C33_38 
REMARK    2  A    between atoms: C3_3  and  C4_4 
REMARK    3  A    between atoms: C4_4  and  O1_5 
REMARK    4  A    between atoms: C4_4  and  C5_6 
REMARK    5  A    between atoms: C5_6  and  C6_7 
REMARK    6  A    between atoms: C15_17  and  O3_18 
REMARK    7  A    between atoms: C28_32  and  O5_33 
REMARK    8  A    between atoms: C33_38  and  O7_40 
ROOT
HETATM    1  C6  UNL     1      -2.714  50.594 -22.823  1.00  0.00    -0.007 C 
HETATM    2  C7  UNL     1      -3.595  50.755 -24.083  1.00  0.00     0.005 C 
HETATM    3  C8  UNL     1      -3.812  49.512 -24.953  1.00  0.00     0.000 C 
HETATM    4  C9  UNL     1      -5.184  48.850 -24.812  1.00  0.00     0.001 C 
HETATM    5  C10 UNL     1      -5.393  48.079 -23.506  1.00  0.00     0.013 C 
HETATM    6  C11 UNL     1      -5.679  48.987 -22.293  1.00  0.00     0.070 C 
HETATM    7  C12 UNL     1      -6.918  48.480 -21.535  1.00  0.00     0.161 C 
HETATM    8  O2  UNL     1      -7.976  48.373 -22.159  1.00  0.00    -0.292 OA
HETATM    9  C13 UNL     1      -6.862  48.163 -20.048  1.00  0.00     0.003 C 
HETATM   10  C14 UNL     1      -5.644  48.012 -19.455  1.00  0.00    -0.029 C 
HETATM   11  C15 UNL     1      -5.585  47.738 -17.969  1.00  0.00     0.149 C 
HETATM   12  C16 UNL     1      -6.687  46.781 -17.541  1.00  0.00     0.043 C 
HETATM   13  C17 UNL     1      -8.116  47.136 -17.996  1.00  0.00     0.016 C 
HETATM   14  C18 UNL     1      -8.992  45.834 -18.144  1.00  0.00     0.018 C 
HETATM   15  C19 UNL     1      -8.492  44.866 -19.235  1.00  0.00     0.023 C 
HETATM   16  C20 UNL     1      -9.031  45.063 -16.802  1.00  0.00     0.023 C 
HETATM   17  C21 UNL     1     -10.442  46.217 -18.474  1.00  0.00     0.135 C 
HETATM   18  O4  UNL     1     -11.397  45.496 -18.180  1.00  0.00    -0.297 OA
HETATM   19  C22 UNL     1     -10.681  47.537 -19.157  1.00  0.00     0.080 C 
HETATM   20  C23 UNL     1      -9.487  47.898 -20.025  1.00  0.00     0.022 C 
HETATM   21  C24 UNL     1      -8.175  48.145 -19.218  1.00  0.00    -0.008 C 
HETATM   22  C25 UNL     1      -8.297  49.593 -18.646  1.00  0.00     0.021 C 
HETATM   23  C26 UNL     1      -4.346  48.129 -20.269  1.00  0.00     0.017 C 
HETATM   24  C27 UNL     1      -4.116  46.704 -20.849  1.00  0.00     0.023 C 
HETATM   25  C28 UNL     1      -3.029  48.604 -19.572  1.00  0.00     0.132 C 
HETATM   26  C29 UNL     1      -2.176  49.253 -20.676  1.00  0.00     0.038 C 
HETATM   27  C30 UNL     1      -3.071  49.374 -21.934  1.00  0.00     0.002 C 
HETATM   28  C31 UNL     1      -4.512  49.288 -21.332  1.00  0.00    -0.016 C 
HETATM   29  C32 UNL     1      -4.853  50.667 -20.646  1.00  0.00     0.018 C 
ENDROOT
BRANCH   1  30
HETATM   30  C5  UNL     1      -1.195  50.738 -23.160  1.00  0.00     0.040 C 
BRANCH  30  31
HETATM   31  C4  UNL     1      -0.454  51.996 -22.689  1.00  0.00     0.142 C 
BRANCH  31  32
HETATM   32  C3  UNL     1      -0.121  51.918 -21.220  1.00  0.00     0.018 C 
HETATM   33  C2  UNL     1       0.494  52.830 -20.434  1.00  0.00     0.010 C 
HETATM   34  C1  UNL     1       1.077  54.133 -20.898  1.00  0.00     0.055 C 
BRANCH  33  35
HETATM   35  C33 UNL     1       0.675  52.573 -18.981  1.00  0.00     0.171 C 
HETATM   36  O6  UNL     1       0.065  51.746 -18.328  1.00  0.00    -0.646 OA
BRANCH  35  37
HETATM   37  O7  UNL     1       1.612  53.343 -18.402  1.00  0.00    -0.773 OA
HETATM   38  H48 UNL     1       1.604  53.045 -17.469  1.00  0.00     0.167 HD
ENDBRANCH  35  37
ENDBRANCH  33  35
ENDBRANCH  31  32
BRANCH  31  39
HETATM   39  O1  UNL     1       0.720  52.218 -23.448  1.00  0.00    -0.392 OA
HETATM   40  H6  UNL     1       1.187  52.968 -23.044  1.00  0.00     0.210 HD
ENDBRANCH  31  39
ENDBRANCH  30  31
ENDBRANCH   1  30
BRANCH  25  41
HETATM   41  O5  UNL     1      -2.269  47.566 -18.970  1.00  0.00    -0.394 OA
HETATM   42  H41 UNL     1      -2.898  47.114 -18.367  1.00  0.00     0.210 HD
ENDBRANCH  25  41
BRANCH  11  43
HETATM   43  O3  UNL     1      -4.363  47.108 -17.596  1.00  0.00    -0.391 OA
HETATM   44  H20 UNL     1      -4.387  46.992 -16.628  1.00  0.00     0.210 HD
ENDBRANCH  11  43
TORSDOF 8
ENDMDL
