MODEL 1
REMARK minimizedAffinity -7.23948383
REMARK CNNscore 0.890131474
REMARK CNNaffinity 7.4806819
REMARK  7 active torsions:
REMARK  status: ('A' for Active; 'I' for Inactive)
REMARK    1  A    between atoms: C2_2  and  C3_3 
REMARK    2  A    between atoms: C4_5  and  C5_6 
REMARK    3  A    between atoms: C5_6  and  C6_7 
REMARK    4  A    between atoms: C6_7  and  C7_8 
REMARK    5  A    between atoms: C7_8  and  C9_10 
REMARK    6  A    between atoms: C11_12  and  O2_13 
REMARK    7  A    between atoms: C30_33  and  O4_34 
ROOT
HETATM    1  C9  UNL     1      -1.771  52.193 -11.076  1.00  0.00     0.001 C 
HETATM    2  C10 UNL     1      -1.003  52.498 -12.395  1.00  0.00     0.038 C 
HETATM    3  C11 UNL     1       0.283  53.260 -12.017  1.00  0.00     0.132 C 
HETATM    4  C12 UNL     1       0.439  53.050 -10.488  1.00  0.00     0.016 C 
HETATM    5  C13 UNL     1       1.089  51.651 -10.237  1.00  0.00     0.023 C 
HETATM    6  C14 UNL     1       1.274  54.053  -9.672  1.00  0.00    -0.037 C 
HETATM    7  C15 UNL     1       0.955  54.298  -8.370  1.00  0.00    -0.065 C 
HETATM    8  C16 UNL     1      -0.237  53.598  -7.696  1.00  0.00     0.036 C 
HETATM    9  C17 UNL     1      -1.164  52.741  -8.579  1.00  0.00     0.015 C 
HETATM   10  C18 UNL     1      -1.082  53.150 -10.053  1.00  0.00    -0.026 C 
HETATM   11  C19 UNL     1      -1.681  54.585 -10.206  1.00  0.00     0.016 C 
HETATM   12  C20 UNL     1       1.731  55.327  -7.499  1.00  0.00    -0.015 C 
HETATM   13  C21 UNL     1       0.813  56.568  -7.349  1.00  0.00     0.020 C 
HETATM   14  C22 UNL     1       2.025  54.735  -6.092  1.00  0.00     0.021 C 
HETATM   15  C23 UNL     1       3.183  55.376  -5.328  1.00  0.00     0.080 C 
HETATM   16  C24 UNL     1       3.600  56.718  -5.882  1.00  0.00     0.135 C 
HETATM   17  O3  UNL     1       3.730  57.686  -5.133  1.00  0.00    -0.297 OA
HETATM   18  C25 UNL     1       3.933  56.784  -7.379  1.00  0.00     0.018 C 
HETATM   19  C26 UNL     1       5.443  56.493  -7.507  1.00  0.00     0.023 C 
HETATM   20  C27 UNL     1       3.696  58.218  -7.894  1.00  0.00     0.023 C 
HETATM   21  C28 UNL     1       3.115  55.688  -8.144  1.00  0.00     0.016 C 
HETATM   22  C29 UNL     1       2.959  55.967  -9.647  1.00  0.00     0.043 C 
HETATM   23  C30 UNL     1       2.434  54.728 -10.373  1.00  0.00     0.148 C 
ENDROOT
BRANCH   1  24
HETATM   24  C7  UNL     1      -3.313  52.248 -11.267  1.00  0.00    -0.013 C 
HETATM   25  C8  UNL     1      -3.869  53.676 -11.259  1.00  0.00     0.010 C 
BRANCH  24  26
HETATM   26  C6  UNL     1      -4.090  51.348 -10.264  1.00  0.00     0.008 C 
BRANCH  26  27
HETATM   27  C5  UNL     1      -5.014  50.257 -10.821  1.00  0.00     0.028 C 
BRANCH  27  28
HETATM   28  C4  UNL     1      -6.319  50.094 -10.101  1.00  0.00    -0.017 C 
HETATM   29  C2  UNL     1      -7.243  49.141 -10.320  1.00  0.00    -0.028 C 
HETATM   30  C1  UNL     1      -7.193  48.070 -11.362  1.00  0.00     0.051 C 
BRANCH  29  31
HETATM   31  C3  UNL     1      -8.468  49.141  -9.461  1.00  0.00     0.265 C 
HETATM   32  O1  UNL     1      -9.409  48.372  -9.613  1.00  0.00    -0.302 OA
ENDBRANCH  29  31
ENDBRANCH  27  28
ENDBRANCH  26  27
ENDBRANCH  24  26
ENDBRANCH   1  24
BRANCH   3  33
HETATM   33  O2  UNL     1       1.378  52.769 -12.773  1.00  0.00    -0.394 OA
HETATM   34  H18 UNL     1       1.204  52.961 -13.709  1.00  0.00     0.210 HD
ENDBRANCH   3  33
BRANCH  23  35
HETATM   35  O4  UNL     1       3.523  53.817 -10.491  1.00  0.00    -0.391 OA
HETATM   36  H46 UNL     1       3.391  53.109  -9.842  1.00  0.00     0.210 HD
ENDBRANCH  23  35
TORSDOF 7
ENDMDL
MODEL 2
REMARK minimizedAffinity -7.32075691
REMARK CNNscore 0.794840634
REMARK CNNaffinity 7.27108908
REMARK  7 active torsions:
REMARK  status: ('A' for Active; 'I' for Inactive)
REMARK    1  A    between atoms: C2_2  and  C3_3 
REMARK    2  A    between atoms: C4_5  and  C5_6 
REMARK    3  A    between atoms: C5_6  and  C6_7 
REMARK    4  A    between atoms: C6_7  and  C7_8 
REMARK    5  A    between atoms: C7_8  and  C9_10 
REMARK    6  A    between atoms: C11_12  and  O2_13 
REMARK    7  A    between atoms: C30_33  and  O4_34 
ROOT
HETATM    1  C9  UNL     1       3.558  56.374  -8.002  1.00  0.00     0.001 C 
HETATM    2  C10 UNL     1       4.577  55.362  -8.601  1.00  0.00     0.038 C 
HETATM    3  C11 UNL     1       3.776  54.323  -9.411  1.00  0.00     0.132 C 
HETATM    4  C12 UNL     1       2.371  54.955  -9.595  1.00  0.00     0.016 C 
HETATM    5  C13 UNL     1       2.427  55.969 -10.783  1.00  0.00     0.023 C 
HETATM    6  C14 UNL     1       1.167  54.040  -9.881  1.00  0.00    -0.037 C 
HETATM    7  C15 UNL     1      -0.074  54.399  -9.446  1.00  0.00    -0.065 C 
HETATM    8  C16 UNL     1      -0.298  55.701  -8.661  1.00  0.00     0.036 C 
HETATM    9  C17 UNL     1       0.943  56.506  -8.230  1.00  0.00     0.015 C 
HETATM   10  C18 UNL     1       2.198  55.627  -8.171  1.00  0.00    -0.026 C 
HETATM   11  C19 UNL     1       2.030  54.595  -7.009  1.00  0.00     0.016 C 
HETATM   12  C20 UNL     1      -1.328  53.504  -9.667  1.00  0.00    -0.015 C 
HETATM   13  C21 UNL     1      -1.669  52.868  -8.295  1.00  0.00     0.020 C 
HETATM   14  C22 UNL     1      -2.531  54.365 -10.146  1.00  0.00     0.021 C 
HETATM   15  C23 UNL     1      -3.638  53.611 -10.882  1.00  0.00     0.080 C 
HETATM   16  C24 UNL     1      -3.578  52.113 -10.688  1.00  0.00     0.135 C 
HETATM   17  O3  UNL     1      -4.587  51.489 -10.358  1.00  0.00    -0.297 OA
HETATM   18  C25 UNL     1      -2.247  51.418 -11.006  1.00  0.00     0.018 C 
HETATM   19  C26 UNL     1      -2.305  51.016 -12.494  1.00  0.00     0.023 C 
HETATM   20  C27 UNL     1      -2.138  50.120 -10.181  1.00  0.00     0.023 C 
HETATM   21  C28 UNL     1      -1.066  52.423 -10.774  1.00  0.00     0.016 C 
HETATM   22  C29 UNL     1       0.294  51.741 -10.559  1.00  0.00     0.043 C 
HETATM   23  C30 UNL     1       1.428  52.762 -10.651  1.00  0.00     0.148 C 
ENDROOT
BRANCH   1  24
HETATM   24  C7  UNL     1       3.991  56.884  -6.598  1.00  0.00    -0.013 C 
HETATM   25  C8  UNL     1       3.085  57.995  -6.057  1.00  0.00     0.010 C 
BRANCH  24  26
HETATM   26  C6  UNL     1       5.485  57.309  -6.532  1.00  0.00     0.008 C 
BRANCH  26  27
HETATM   27  C5  UNL     1       6.320  56.867  -5.322  1.00  0.00     0.028 C 
BRANCH  27  28
HETATM   28  C4  UNL     1       7.699  57.453  -5.248  1.00  0.00    -0.017 C 
HETATM   29  C2  UNL     1       8.029  58.676  -4.796  1.00  0.00    -0.028 C 
HETATM   30  C1  UNL     1       7.087  59.736  -4.319  1.00  0.00     0.051 C 
BRANCH  29  31
HETATM   31  C3  UNL     1       9.477  59.050  -4.777  1.00  0.00     0.265 C 
HETATM   32  O1  UNL     1      10.020  59.720  -5.646  1.00  0.00    -0.302 OA
ENDBRANCH  29  31
ENDBRANCH  27  28
ENDBRANCH  26  27
ENDBRANCH  24  26
ENDBRANCH   1  24
BRANCH   3  33
HETATM   33  O2  UNL     1       4.439  54.046 -10.634  1.00  0.00    -0.394 OA
HETATM   34  H18 UNL     1       5.294  53.637 -10.424  1.00  0.00     0.210 HD
ENDBRANCH   3  33
BRANCH  23  35
HETATM   35  O4  UNL     1       1.615  53.060 -12.032  1.00  0.00    -0.391 OA
HETATM   36  H46 UNL     1       1.232  53.935 -12.202  1.00  0.00     0.210 HD
ENDBRANCH  23  35
TORSDOF 7
ENDMDL
MODEL 3
REMARK minimizedAffinity -9.05048561
REMARK CNNscore 0.721353948
REMARK CNNaffinity 7.32153893
REMARK  7 active torsions:
REMARK  status: ('A' for Active; 'I' for Inactive)
REMARK    1  A    between atoms: C2_2  and  C3_3 
REMARK    2  A    between atoms: C4_5  and  C5_6 
REMARK    3  A    between atoms: C5_6  and  C6_7 
REMARK    4  A    between atoms: C6_7  and  C7_8 
REMARK    5  A    between atoms: C7_8  and  C9_10 
REMARK    6  A    between atoms: C11_12  and  O2_13 
REMARK    7  A    between atoms: C30_33  and  O4_34 
ROOT
HETATM    1  C9  UNL     1      -0.226  51.110 -20.166  1.00  0.00     0.001 C 
HETATM    2  C10 UNL     1      -1.037  52.081 -19.260  1.00  0.00     0.038 C 
HETATM    3  C11 UNL     1      -2.385  51.401 -18.944  1.00  0.00     0.132 C 
HETATM    4  C12 UNL     1      -2.186  49.914 -19.336  1.00  0.00     0.016 C 
HETATM    5  C13 UNL     1      -1.444  49.182 -18.172  1.00  0.00     0.023 C 
HETATM    6  C14 UNL     1      -3.418  49.049 -19.656  1.00  0.00    -0.037 C 
HETATM    7  C15 UNL     1      -3.315  48.030 -20.554  1.00  0.00    -0.065 C 
HETATM    8  C16 UNL     1      -1.988  47.728 -21.269  1.00  0.00     0.036 C 
HETATM    9  C17 UNL     1      -0.821  48.715 -21.071  1.00  0.00     0.015 C 
HETATM   10  C18 UNL     1      -1.317  50.103 -20.647  1.00  0.00    -0.026 C 
HETATM   11  C19 UNL     1      -2.111  50.733 -21.837  1.00  0.00     0.016 C 
HETATM   12  C20 UNL     1      -4.528  47.141 -20.954  1.00  0.00    -0.015 C 
HETATM   13  C21 UNL     1      -4.951  47.578 -22.380  1.00  0.00     0.020 C 
HETATM   14  C22 UNL     1      -4.118  45.642 -20.978  1.00  0.00     0.021 C 
HETATM   15  C23 UNL     1      -5.261  44.636 -20.840  1.00  0.00     0.080 C 
HETATM   16  C24 UNL     1      -6.624  45.236 -21.092  1.00  0.00     0.135 C 
HETATM   17  O3  UNL     1      -7.411  44.687 -21.864  1.00  0.00    -0.297 OA
HETATM   18  C25 UNL     1      -7.000  46.486 -20.284  1.00  0.00     0.018 C 
HETATM   19  C26 UNL     1      -7.685  45.987 -18.995  1.00  0.00     0.023 C 
HETATM   20  C27 UNL     1      -8.040  47.310 -21.070  1.00  0.00     0.023 C 
HETATM   21  C28 UNL     1      -5.700  47.281 -19.919  1.00  0.00     0.016 C 
HETATM   22  C29 UNL     1      -5.951  48.758 -19.578  1.00  0.00     0.043 C 
HETATM   23  C30 UNL     1      -4.710  49.381 -18.939  1.00  0.00     0.148 C 
ENDROOT
BRANCH   1  24
HETATM   24  C7  UNL     1       0.642  51.867 -21.211  1.00  0.00    -0.013 C 
HETATM   25  C8  UNL     1       1.376  53.075 -20.620  1.00  0.00     0.010 C 
BRANCH  24  26
HETATM   26  C6  UNL     1      -0.148  52.272 -22.489  1.00  0.00     0.008 C 
BRANCH  26  27
HETATM   27  C5  UNL     1       0.638  52.582 -23.769  1.00  0.00     0.028 C 
BRANCH  27  28
HETATM   28  C4  UNL     1       0.028  52.064 -25.037  1.00  0.00    -0.017 C 
HETATM   29  C2  UNL     1       0.685  51.580 -26.106  1.00  0.00    -0.028 C 
HETATM   30  C1  UNL     1       2.169  51.501 -26.282  1.00  0.00     0.051 C 
BRANCH  29  31
HETATM   31  C3  UNL     1      -0.124  51.081 -27.261  1.00  0.00     0.265 C 
HETATM   32  O1  UNL     1      -1.346  51.141 -27.315  1.00  0.00    -0.302 OA
ENDBRANCH  29  31
ENDBRANCH  27  28
ENDBRANCH  26  27
ENDBRANCH  24  26
ENDBRANCH   1  24
BRANCH   3  33
HETATM   33  O2  UNL     1      -2.714  51.590 -17.577  1.00  0.00    -0.394 OA
HETATM   34  H18 UNL     1      -2.839  52.542 -17.429  1.00  0.00     0.210 HD
ENDBRANCH   3  33
BRANCH  23  35
HETATM   35  O4  UNL     1      -4.649  48.914 -17.594  1.00  0.00    -0.391 OA
HETATM   36  H46 UNL     1      -3.953  48.241 -17.544  1.00  0.00     0.210 HD
ENDBRANCH  23  35
TORSDOF 7
ENDMDL
MODEL 4
REMARK minimizedAffinity -7.65256071
REMARK CNNscore 0.612066746
REMARK CNNaffinity 6.37451506
REMARK  7 active torsions:
REMARK  status: ('A' for Active; 'I' for Inactive)
REMARK    1  A    between atoms: C2_2  and  C3_3 
REMARK    2  A    between atoms: C4_5  and  C5_6 
REMARK    3  A    between atoms: C5_6  and  C6_7 
REMARK    4  A    between atoms: C6_7  and  C7_8 
REMARK    5  A    between atoms: C7_8  and  C9_10 
REMARK    6  A    between atoms: C11_12  and  O2_13 
REMARK    7  A    between atoms: C30_33  and  O4_34 
ROOT
HETATM    1  C9  UNL     1     -13.254  45.440 -26.856  1.00  0.00     0.001 C 
HETATM    2  C10 UNL     1     -13.222  46.924 -26.386  1.00  0.00     0.038 C 
HETATM    3  C11 UNL     1     -12.055  47.616 -27.118  1.00  0.00     0.132 C 
HETATM    4  C12 UNL     1     -11.676  46.651 -28.272  1.00  0.00     0.016 C 
HETATM    5  C13 UNL     1     -12.668  46.873 -29.459  1.00  0.00     0.023 C 
HETATM    6  C14 UNL     1     -10.266  46.727 -28.884  1.00  0.00    -0.037 C 
HETATM    7  C15 UNL     1      -9.687  45.602 -29.391  1.00  0.00    -0.065 C 
HETATM    8  C16 UNL     1     -10.411  44.247 -29.355  1.00  0.00     0.036 C 
HETATM    9  C17 UNL     1     -11.738  44.159 -28.578  1.00  0.00     0.015 C 
HETATM   10  C18 UNL     1     -11.854  45.266 -27.524  1.00  0.00    -0.026 C 
HETATM   11  C19 UNL     1     -10.782  45.012 -26.415  1.00  0.00     0.016 C 
HETATM   12  C20 UNL     1      -8.250  45.599 -29.989  1.00  0.00    -0.015 C 
HETATM   13  C21 UNL     1      -7.336  44.897 -28.951  1.00  0.00     0.020 C 
HETATM   14  C22 UNL     1      -8.219  44.799 -31.321  1.00  0.00     0.021 C 
HETATM   15  C23 UNL     1      -7.063  45.125 -32.267  1.00  0.00     0.080 C 
HETATM   16  C24 UNL     1      -5.933  45.874 -31.600  1.00  0.00     0.135 C 
HETATM   17  O3  UNL     1      -4.770  45.491 -31.732  1.00  0.00    -0.297 OA
HETATM   18  C25 UNL     1      -6.295  47.160 -30.844  1.00  0.00     0.018 C 
HETATM   19  C26 UNL     1      -6.187  48.314 -31.861  1.00  0.00     0.023 C 
HETATM   20  C27 UNL     1      -5.249  47.417 -29.741  1.00  0.00     0.023 C 
HETATM   21  C28 UNL     1      -7.767  47.056 -30.315  1.00  0.00     0.016 C 
HETATM   22  C29 UNL     1      -8.075  48.006 -29.147  1.00  0.00     0.043 C 
HETATM   23  C30 UNL     1      -9.581  48.077 -28.894  1.00  0.00     0.148 C 
ENDROOT
BRANCH   1  24
HETATM   24  C7  UNL     1     -13.694  44.474 -25.720  1.00  0.00    -0.013 C 
HETATM   25  C8  UNL     1     -13.478  42.998 -26.070  1.00  0.00     0.010 C 
BRANCH  24  26
HETATM   26  C6  UNL     1     -15.151  44.718 -25.234  1.00  0.00     0.008 C 
BRANCH  26  27
HETATM   27  C5  UNL     1     -15.671  46.161 -25.173  1.00  0.00     0.028 C 
BRANCH  27  28
HETATM   28  C4  UNL     1     -17.161  46.301 -25.073  1.00  0.00    -0.017 C 
HETATM   29  C2  UNL     1     -17.889  46.341 -23.943  1.00  0.00    -0.028 C 
HETATM   30  C1  UNL     1     -17.378  46.202 -22.545  1.00  0.00     0.051 C 
BRANCH  29  31
HETATM   31  C3  UNL     1     -19.369  46.521 -24.068  1.00  0.00     0.265 C 
HETATM   32  O1  UNL     1     -19.932  46.853 -25.104  1.00  0.00    -0.302 OA
ENDBRANCH  29  31
ENDBRANCH  27  28
ENDBRANCH  26  27
ENDBRANCH  24  26
ENDBRANCH   1  24
BRANCH   3  33
HETATM   33  O2  UNL     1     -12.454  48.903 -27.562  1.00  0.00    -0.394 OA
HETATM   34  H18 UNL     1     -12.651  49.441 -26.777  1.00  0.00     0.210 HD
ENDBRANCH   3  33
BRANCH  23  35
HETATM   35  O4  UNL     1     -10.141  48.895 -29.918  1.00  0.00    -0.391 OA
HETATM   36  H46 UNL     1     -10.591  48.314 -30.551  1.00  0.00     0.210 HD
ENDBRANCH  23  35
TORSDOF 7
ENDMDL
MODEL 5
REMARK minimizedAffinity -7.25376511
REMARK CNNscore 0.569955826
REMARK CNNaffinity 6.71420813
REMARK  7 active torsions:
REMARK  status: ('A' for Active; 'I' for Inactive)
REMARK    1  A    between atoms: C2_2  and  C3_3 
REMARK    2  A    between atoms: C4_5  and  C5_6 
REMARK    3  A    between atoms: C5_6  and  C6_7 
REMARK    4  A    between atoms: C6_7  and  C7_8 
REMARK    5  A    between atoms: C7_8  and  C9_10 
REMARK    6  A    between atoms: C11_12  and  O2_13 
REMARK    7  A    between atoms: C30_33  and  O4_34 
ROOT
HETATM    1  C9  UNL     1      -1.375  50.146 -15.087  1.00  0.00     0.001 C 
HETATM    2  C10 UNL     1      -2.412  49.158 -14.478  1.00  0.00     0.038 C 
HETATM    3  C11 UNL     1      -2.583  49.527 -12.990  1.00  0.00     0.132 C 
HETATM    4  C12 UNL     1      -1.956  50.938 -12.851  1.00  0.00     0.016 C 
HETATM    5  C13 UNL     1      -2.999  52.001 -13.326  1.00  0.00     0.023 C 
HETATM    6  C14 UNL     1      -1.472  51.414 -11.470  1.00  0.00    -0.037 C 
HETATM    7  C15 UNL     1      -0.420  52.275 -11.381  1.00  0.00    -0.065 C 
HETATM    8  C16 UNL     1       0.307  52.779 -12.639  1.00  0.00     0.036 C 
HETATM    9  C17 UNL     1      -0.076  52.151 -13.993  1.00  0.00     0.015 C 
HETATM   10  C18 UNL     1      -0.712  50.768 -13.818  1.00  0.00    -0.026 C 
HETATM   11  C19 UNL     1       0.374  49.786 -13.271  1.00  0.00     0.016 C 
HETATM   12  C20 UNL     1       0.145  52.767 -10.017  1.00  0.00    -0.015 C 
HETATM   13  C21 UNL     1       1.489  52.024  -9.798  1.00  0.00     0.020 C 
HETATM   14  C22 UNL     1       0.408  54.298 -10.058  1.00  0.00     0.021 C 
HETATM   15  C23 UNL     1       0.461  55.002  -8.702  1.00  0.00     0.080 C 
HETATM   16  C24 UNL     1       0.639  54.054  -7.539  1.00  0.00     0.135 C 
HETATM   17  O3  UNL     1       1.507  54.266  -6.692  1.00  0.00    -0.297 OA
HETATM   18  C25 UNL     1      -0.356  52.891  -7.424  1.00  0.00     0.018 C 
HETATM   19  C26 UNL     1      -1.530  53.400  -6.564  1.00  0.00     0.023 C 
HETATM   20  C27 UNL     1       0.304  51.725  -6.661  1.00  0.00     0.023 C 
HETATM   21  C28 UNL     1      -0.874  52.506  -8.853  1.00  0.00     0.016 C 
HETATM   22  C29 UNL     1      -1.449  51.084  -8.941  1.00  0.00     0.043 C 
HETATM   23  C30 UNL     1      -2.207  50.890 -10.254  1.00  0.00     0.148 C 
ENDROOT
BRANCH   1  24
HETATM   24  C7  UNL     1      -0.487  49.472 -16.172  1.00  0.00    -0.013 C 
HETATM   25  C8  UNL     1       0.475  48.427 -15.596  1.00  0.00     0.010 C 
BRANCH  24  26
HETATM   26  C6  UNL     1       0.276  50.493 -17.063  1.00  0.00     0.008 C 
BRANCH  26  27
HETATM   27  C5  UNL     1      -0.369  50.941 -18.381  1.00  0.00     0.028 C 
BRANCH  27  28
HETATM   28  C4  UNL     1       0.065  52.286 -18.882  1.00  0.00    -0.017 C 
HETATM   29  C2  UNL     1       0.366  52.612 -20.152  1.00  0.00    -0.028 C 
HETATM   30  C1  UNL     1       0.384  51.691 -21.330  1.00  0.00     0.051 C 
BRANCH  29  31
HETATM   31  C3  UNL     1       0.747  54.029 -20.441  1.00  0.00     0.265 C 
HETATM   32  O1  UNL     1       1.883  54.387 -20.725  1.00  0.00    -0.302 OA
ENDBRANCH  29  31
ENDBRANCH  27  28
ENDBRANCH  26  27
ENDBRANCH  24  26
ENDBRANCH   1  24
BRANCH   3  33
HETATM   33  O2  UNL     1      -3.955  49.477 -12.634  1.00  0.00    -0.394 OA
HETATM   34  H18 UNL     1      -4.256  48.558 -12.731  1.00  0.00     0.210 HD
ENDBRANCH   3  33
BRANCH  23  35
HETATM   35  O4  UNL     1      -3.458  51.560 -10.121  1.00  0.00    -0.391 OA
HETATM   36  H46 UNL     1      -3.410  52.384 -10.631  1.00  0.00     0.210 HD
ENDBRANCH  23  35
TORSDOF 7
ENDMDL
MODEL 6
REMARK minimizedAffinity -7.09071636
REMARK CNNscore 0.550690055
REMARK CNNaffinity 6.70358419
REMARK  7 active torsions:
REMARK  status: ('A' for Active; 'I' for Inactive)
REMARK    1  A    between atoms: C2_2  and  C3_3 
REMARK    2  A    between atoms: C4_5  and  C5_6 
REMARK    3  A    between atoms: C5_6  and  C6_7 
REMARK    4  A    between atoms: C6_7  and  C7_8 
REMARK    5  A    between atoms: C7_8  and  C9_10 
REMARK    6  A    between atoms: C11_12  and  O2_13 
REMARK    7  A    between atoms: C30_33  and  O4_34 
ROOT
HETATM    1  C9  UNL     1      -3.952  48.792 -23.867  1.00  0.00     0.001 C 
HETATM    2  C10 UNL     1      -3.163  49.706 -22.884  1.00  0.00     0.038 C 
HETATM    3  C11 UNL     1      -3.769  49.507 -21.480  1.00  0.00     0.132 C 
HETATM    4  C12 UNL     1      -4.623  48.216 -21.591  1.00  0.00     0.016 C 
HETATM    5  C13 UNL     1      -3.681  46.977 -21.457  1.00  0.00     0.023 C 
HETATM    6  C14 UNL     1      -5.768  47.984 -20.588  1.00  0.00    -0.037 C 
HETATM    7  C15 UNL     1      -6.871  47.284 -20.972  1.00  0.00    -0.065 C 
HETATM    8  C16 UNL     1      -7.006  46.726 -22.398  1.00  0.00     0.036 C 
HETATM    9  C17 UNL     1      -5.936  47.125 -23.433  1.00  0.00     0.015 C 
HETATM   10  C18 UNL     1      -5.225  48.425 -23.042  1.00  0.00    -0.026 C 
HETATM   11  C19 UNL     1      -6.251  49.600 -23.129  1.00  0.00     0.016 C 
HETATM   12  C20 UNL     1      -8.081  47.044 -20.023  1.00  0.00    -0.015 C 
HETATM   13  C21 UNL     1      -9.221  47.976 -20.510  1.00  0.00     0.020 C 
HETATM   14  C22 UNL     1      -8.556  45.567 -20.111  1.00  0.00     0.021 C 
HETATM   15  C23 UNL     1      -9.354  45.051 -18.914  1.00  0.00     0.080 C 
HETATM   16  C24 UNL     1      -9.884  46.152 -18.025  1.00  0.00     0.135 C 
HETATM   17  O3  UNL     1     -11.069  46.161 -17.688  1.00  0.00    -0.297 OA
HETATM   18  C25 UNL     1      -8.872  47.181 -17.505  1.00  0.00     0.018 C 
HETATM   19  C26 UNL     1      -8.340  46.636 -16.163  1.00  0.00     0.023 C 
HETATM   20  C27 UNL     1      -9.598  48.509 -17.207  1.00  0.00     0.023 C 
HETATM   21  C28 UNL     1      -7.692  47.314 -18.527  1.00  0.00     0.016 C 
HETATM   22  C29 UNL     1      -6.905  48.628 -18.398  1.00  0.00     0.043 C 
HETATM   23  C30 UNL     1      -5.603  48.556 -19.196  1.00  0.00     0.148 C 
ENDROOT
BRANCH   1  24
HETATM   24  C7  UNL     1      -4.102  49.434 -25.275  1.00  0.00    -0.013 C 
HETATM   25  C8  UNL     1      -4.041  48.409 -26.412  1.00  0.00     0.010 C 
BRANCH  24  26
HETATM   26  C6  UNL     1      -3.104  50.600 -25.529  1.00  0.00     0.008 C 
BRANCH  26  27
HETATM   27  C5  UNL     1      -1.848  50.321 -26.365  1.00  0.00     0.028 C 
BRANCH  27  28
HETATM   28  C4  UNL     1      -1.314  51.494 -27.131  1.00  0.00    -0.017 C 
HETATM   29  C2  UNL     1      -0.505  52.460 -26.661  1.00  0.00    -0.028 C 
HETATM   30  C1  UNL     1      -0.004  52.601 -25.258  1.00  0.00     0.051 C 
BRANCH  29  31
HETATM   31  C3  UNL     1      -0.061  53.528 -27.609  1.00  0.00     0.265 C 
HETATM   32  O1  UNL     1      -0.534  54.657 -27.636  1.00  0.00    -0.302 OA
ENDBRANCH  29  31
ENDBRANCH  27  28
ENDBRANCH  26  27
ENDBRANCH  24  26
ENDBRANCH   1  24
BRANCH   3  33
HETATM   33  O2  UNL     1      -2.735  49.422 -20.513  1.00  0.00    -0.394 OA
HETATM   34  H18 UNL     1      -2.269  50.275 -20.499  1.00  0.00     0.210 HD
ENDBRANCH   3  33
BRANCH  23  35
HETATM   35  O4  UNL     1      -4.695  47.751 -18.448  1.00  0.00    -0.391 OA
HETATM   36  H46 UNL     1      -4.642  46.884 -18.878  1.00  0.00     0.210 HD
ENDBRANCH  23  35
TORSDOF 7
ENDMDL
MODEL 7
REMARK minimizedAffinity -7.1108079
REMARK CNNscore 0.55066061
REMARK CNNaffinity 6.96058655
REMARK  7 active torsions:
REMARK  status: ('A' for Active; 'I' for Inactive)
REMARK    1  A    between atoms: C2_2  and  C3_3 
REMARK    2  A    between atoms: C4_5  and  C5_6 
REMARK    3  A    between atoms: C5_6  and  C6_7 
REMARK    4  A    between atoms: C6_7  and  C7_8 
REMARK    5  A    between atoms: C7_8  and  C9_10 
REMARK    6  A    between atoms: C11_12  and  O2_13 
REMARK    7  A    between atoms: C30_33  and  O4_34 
ROOT
HETATM    1  C9  UNL     1       1.199  50.188 -13.765  1.00  0.00     0.001 C 
HETATM    2  C10 UNL     1       2.352  49.147 -13.675  1.00  0.00     0.038 C 
HETATM    3  C11 UNL     1       3.294  49.596 -12.539  1.00  0.00     0.132 C 
HETATM    4  C12 UNL     1       2.485  50.653 -11.742  1.00  0.00     0.016 C 
HETATM    5  C13 UNL     1       1.516  49.912 -10.765  1.00  0.00     0.023 C 
HETATM    6  C14 UNL     1       3.236  51.685 -10.883  1.00  0.00    -0.037 C 
HETATM    7  C15 UNL     1       2.705  52.926 -10.698  1.00  0.00    -0.065 C 
HETATM    8  C16 UNL     1       1.367  53.325 -11.340  1.00  0.00     0.036 C 
HETATM    9  C17 UNL     1       0.725  52.343 -12.338  1.00  0.00     0.015 C 
HETATM   10  C18 UNL     1       1.761  51.390 -12.944  1.00  0.00    -0.026 C 
HETATM   11  C19 UNL     1       2.734  52.218 -13.844  1.00  0.00     0.016 C 
HETATM   12  C20 UNL     1       3.429  54.031  -9.874  1.00  0.00    -0.015 C 
HETATM   13  C21 UNL     1       3.981  55.058 -10.896  1.00  0.00     0.020 C 
HETATM   14  C22 UNL     1       2.427  54.743  -8.922  1.00  0.00     0.021 C 
HETATM   15  C23 UNL     1       3.044  55.456  -7.720  1.00  0.00     0.080 C 
HETATM   16  C24 UNL     1       4.531  55.689  -7.855  1.00  0.00     0.135 C 
HETATM   17  O3  UNL     1       5.006  56.805  -7.644  1.00  0.00    -0.297 OA
HETATM   18  C25 UNL     1       5.405  54.468  -8.173  1.00  0.00     0.018 C 
HETATM   19  C26 UNL     1       5.831  53.867  -6.818  1.00  0.00     0.023 C 
HETATM   20  C27 UNL     1       6.686  54.930  -8.896  1.00  0.00     0.023 C 
HETATM   21  C28 UNL     1       4.562  53.419  -8.977  1.00  0.00     0.016 C 
HETATM   22  C29 UNL     1       5.414  52.423  -9.778  1.00  0.00     0.043 C 
HETATM   23  C30 UNL     1       4.556  51.259 -10.274  1.00  0.00     0.148 C 
ENDROOT
BRANCH   1  24
HETATM   24  C7  UNL     1       0.719  50.408 -15.228  1.00  0.00    -0.013 C 
HETATM   25  C8  UNL     1       0.311  49.108 -15.928  1.00  0.00     0.010 C 
BRANCH  24  26
HETATM   26  C6  UNL     1       1.733  51.207 -16.095  1.00  0.00     0.008 C 
BRANCH  26  27
HETATM   27  C5  UNL     1       1.200  52.312 -17.016  1.00  0.00     0.028 C 
BRANCH  27  28
HETATM   28  C4  UNL     1       0.316  51.844 -18.133  1.00  0.00    -0.017 C 
HETATM   29  C2  UNL     1       0.274  52.337 -19.384  1.00  0.00    -0.028 C 
HETATM   30  C1  UNL     1       1.062  53.492 -19.916  1.00  0.00     0.051 C 
BRANCH  29  31
HETATM   31  C3  UNL     1      -0.663  51.698 -20.359  1.00  0.00     0.265 C 
HETATM   32  O1  UNL     1      -0.302  50.977 -21.281  1.00  0.00    -0.302 OA
ENDBRANCH  29  31
ENDBRANCH  27  28
ENDBRANCH  26  27
ENDBRANCH  24  26
ENDBRANCH   1  24
BRANCH   3  33
HETATM   33  O2  UNL     1       3.686  48.476 -11.762  1.00  0.00    -0.394 OA
HETATM   34  H18 UNL     1       4.200  47.882 -12.333  1.00  0.00     0.210 HD
ENDBRANCH   3  33
BRANCH  23  35
HETATM   35  O4  UNL     1       4.318  50.405  -9.158  1.00  0.00    -0.391 OA
HETATM   36  H46 UNL     1       3.404  50.545  -8.865  1.00  0.00     0.210 HD
ENDBRANCH  23  35
TORSDOF 7
ENDMDL
MODEL 8
REMARK minimizedAffinity -8.11593628
REMARK CNNscore 0.499486029
REMARK CNNaffinity 6.87019491
REMARK  7 active torsions:
REMARK  status: ('A' for Active; 'I' for Inactive)
REMARK    1  A    between atoms: C2_2  and  C3_3 
REMARK    2  A    between atoms: C4_5  and  C5_6 
REMARK    3  A    between atoms: C5_6  and  C6_7 
REMARK    4  A    between atoms: C6_7  and  C7_8 
REMARK    5  A    between atoms: C7_8  and  C9_10 
REMARK    6  A    between atoms: C11_12  and  O2_13 
REMARK    7  A    between atoms: C30_33  and  O4_34 
ROOT
HETATM    1  C9  UNL     1      -3.474  51.565 -23.384  1.00  0.00     0.001 C 
HETATM    2  C10 UNL     1      -4.923  51.630 -23.950  1.00  0.00     0.038 C 
HETATM    3  C11 UNL     1      -5.737  50.513 -23.267  1.00  0.00     0.132 C 
HETATM    4  C12 UNL     1      -4.878  50.076 -22.051  1.00  0.00     0.016 C 
HETATM    5  C13 UNL     1      -5.112  51.086 -20.881  1.00  0.00     0.023 C 
HETATM    6  C14 UNL     1      -5.087  48.677 -21.446  1.00  0.00    -0.037 C 
HETATM    7  C15 UNL     1      -4.039  48.027 -20.867  1.00  0.00    -0.065 C 
HETATM    8  C16 UNL     1      -2.639  48.660 -20.812  1.00  0.00     0.036 C 
HETATM    9  C17 UNL     1      -2.412  49.975 -21.581  1.00  0.00     0.015 C 
HETATM   10  C18 UNL     1      -3.437  50.160 -22.706  1.00  0.00    -0.026 C 
HETATM   11  C19 UNL     1      -3.183  49.069 -23.796  1.00  0.00     0.016 C 
HETATM   12  C20 UNL     1      -4.170  46.596 -20.270  1.00  0.00    -0.015 C 
HETATM   13  C21 UNL     1      -3.463  45.633 -21.260  1.00  0.00     0.020 C 
HETATM   14  C22 UNL     1      -3.464  46.517 -18.887  1.00  0.00     0.021 C 
HETATM   15  C23 UNL     1      -3.927  45.389 -17.966  1.00  0.00     0.080 C 
HETATM   16  C24 UNL     1      -4.704  44.308 -18.681  1.00  0.00     0.135 C 
HETATM   17  O3  UNL     1      -4.408  43.123 -18.525  1.00  0.00    -0.297 OA
HETATM   18  C25 UNL     1      -5.910  44.751 -19.521  1.00  0.00     0.018 C 
HETATM   19  C26 UNL     1      -7.134  44.723 -18.583  1.00  0.00     0.023 C 
HETATM   20  C27 UNL     1      -6.163  43.720 -20.639  1.00  0.00     0.023 C 
HETATM   21  C28 UNL     1      -5.675  46.211 -20.041  1.00  0.00     0.016 C 
HETATM   22  C29 UNL     1      -6.523  46.576 -21.269  1.00  0.00     0.043 C 
HETATM   23  C30 UNL     1      -6.478  48.082 -21.526  1.00  0.00     0.148 C 
ENDROOT
BRANCH   1  24
HETATM   24  C7  UNL     1      -2.408  51.936 -24.453  1.00  0.00    -0.013 C 
HETATM   25  C8  UNL     1      -2.897  51.721 -25.889  1.00  0.00     0.010 C 
BRANCH  24  26
HETATM   26  C6  UNL     1      -1.039  51.234 -24.226  1.00  0.00     0.008 C 
BRANCH  26  27
HETATM   27  C5  UNL     1       0.246  52.039 -24.465  1.00  0.00     0.028 C 
BRANCH  27  28
HETATM   28  C4  UNL     1       0.571  53.055 -23.410  1.00  0.00    -0.017 C 
HETATM   29  C2  UNL     1       0.791  52.816 -22.105  1.00  0.00    -0.028 C 
HETATM   30  C1  UNL     1       0.708  51.492 -21.413  1.00  0.00     0.051 C 
BRANCH  29  31
HETATM   31  C3  UNL     1       1.135  53.977 -21.227  1.00  0.00     0.265 C 
HETATM   32  O1  UNL     1       1.843  54.912 -21.578  1.00  0.00    -0.302 OA
ENDBRANCH  29  31
ENDBRANCH  27  28
ENDBRANCH  26  27
ENDBRANCH  24  26
ENDBRANCH   1  24
BRANCH   3  33
HETATM   33  O2  UNL     1      -7.021  50.999 -22.909  1.00  0.00    -0.394 OA
HETATM   34  H18 UNL     1      -7.492  51.227 -23.728  1.00  0.00     0.210 HD
ENDBRANCH   3  33
BRANCH  23  35
HETATM   35  O4  UNL     1      -7.322  48.700 -20.558  1.00  0.00    -0.391 OA
HETATM   36  H46 UNL     1      -6.756  49.113 -19.888  1.00  0.00     0.210 HD
ENDBRANCH  23  35
TORSDOF 7
ENDMDL
MODEL 9
REMARK minimizedAffinity -7.54442215
REMARK CNNscore 0.443402976
REMARK CNNaffinity 6.17645454
REMARK  7 active torsions:
REMARK  status: ('A' for Active; 'I' for Inactive)
REMARK    1  A    between atoms: C2_2  and  C3_3 
REMARK    2  A    between atoms: C4_5  and  C5_6 
REMARK    3  A    between atoms: C5_6  and  C6_7 
REMARK    4  A    between atoms: C6_7  and  C7_8 
REMARK    5  A    between atoms: C7_8  and  C9_10 
REMARK    6  A    between atoms: C11_12  and  O2_13 
REMARK    7  A    between atoms: C30_33  and  O4_34 
ROOT
HETATM    1  C9  UNL     1      -8.141  47.152 -29.346  1.00  0.00     0.001 C 
HETATM    2  C10 UNL     1      -6.696  47.712 -29.199  1.00  0.00     0.038 C 
HETATM    3  C11 UNL     1      -5.794  46.925 -30.170  1.00  0.00     0.132 C 
HETATM    4  C12 UNL     1      -6.773  46.202 -31.132  1.00  0.00     0.016 C 
HETATM    5  C13 UNL     1      -7.231  47.210 -32.234  1.00  0.00     0.023 C 
HETATM    6  C14 UNL     1      -6.300  44.945 -31.882  1.00  0.00    -0.037 C 
HETATM    7  C15 UNL     1      -7.195  43.969 -32.200  1.00  0.00    -0.065 C 
HETATM    8  C16 UNL     1      -8.678  44.090 -31.813  1.00  0.00     0.036 C 
HETATM    9  C17 UNL     1      -9.093  45.265 -30.907  1.00  0.00     0.015 C 
HETATM   10  C18 UNL     1      -7.908  45.805 -30.099  1.00  0.00    -0.026 C 
HETATM   11  C19 UNL     1      -7.465  44.712 -29.073  1.00  0.00     0.016 C 
HETATM   12  C20 UNL     1      -6.779  42.655 -32.924  1.00  0.00    -0.015 C 
HETATM   13  C21 UNL     1      -6.814  41.529 -31.859  1.00  0.00     0.020 C 
HETATM   14  C22 UNL     1      -7.787  42.318 -34.059  1.00  0.00     0.021 C 
HETATM   15  C23 UNL     1      -7.265  41.397 -35.161  1.00  0.00     0.080 C 
HETATM   16  C24 UNL     1      -6.005  40.655 -34.779  1.00  0.00     0.135 C 
HETATM   17  O3  UNL     1      -5.927  39.437 -34.943  1.00  0.00    -0.297 OA
HETATM   18  C25 UNL     1      -4.824  41.495 -34.272  1.00  0.00     0.018 C 
HETATM   19  C26 UNL     1      -3.984  41.865 -35.512  1.00  0.00     0.023 C 
HETATM   20  C27 UNL     1      -3.936  40.629 -33.356  1.00  0.00     0.023 C 
HETATM   21  C28 UNL     1      -5.365  42.798 -33.591  1.00  0.00     0.016 C 
HETATM   22  C29 UNL     1      -4.369  43.450 -32.620  1.00  0.00     0.043 C 
HETATM   23  C30 UNL     1      -4.830  44.857 -32.240  1.00  0.00     0.148 C 
ENDROOT
BRANCH   1  24
HETATM   24  C7  UNL     1      -8.914  47.160 -27.996  1.00  0.00    -0.013 C 
HETATM   25  C8  UNL     1     -10.357  47.657 -28.134  1.00  0.00     0.010 C 
BRANCH  24  26
HETATM   26  C6  UNL     1      -8.171  47.928 -26.866  1.00  0.00     0.008 C 
BRANCH  26  27
HETATM   27  C5  UNL     1      -7.197  47.151 -25.970  1.00  0.00     0.028 C 
BRANCH  27  28
HETATM   28  C4  UNL     1      -6.394  47.988 -25.020  1.00  0.00    -0.017 C 
HETATM   29  C2  UNL     1      -5.167  48.495 -25.237  1.00  0.00    -0.028 C 
HETATM   30  C1  UNL     1      -4.317  48.289 -26.450  1.00  0.00     0.051 C 
BRANCH  29  31
HETATM   31  C3  UNL     1      -4.556  49.336 -24.162  1.00  0.00     0.265 C 
HETATM   32  O1  UNL     1      -3.846  48.892 -23.267  1.00  0.00    -0.302 OA
ENDBRANCH  29  31
ENDBRANCH  27  28
ENDBRANCH  26  27
ENDBRANCH  24  26
ENDBRANCH   1  24
BRANCH   3  33
HETATM   33  O2  UNL     1      -4.901  47.809 -30.828  1.00  0.00    -0.394 OA
HETATM   34  H18 UNL     1      -4.317  48.198 -30.157  1.00  0.00     0.210 HD
ENDBRANCH   3  33
BRANCH  23  35
HETATM   35  O4  UNL     1      -4.552  45.706 -33.349  1.00  0.00    -0.391 OA
HETATM   36  H46 UNL     1      -5.390  45.891 -33.801  1.00  0.00     0.210 HD
ENDBRANCH  23  35
TORSDOF 7
ENDMDL
