MODEL 1
REMARK minimizedAffinity -8.74105549
REMARK CNNscore 0.650208712
REMARK CNNaffinity 7.1813302
REMARK  6 active torsions:
REMARK  status: ('A' for Active; 'I' for Inactive)
REMARK    1  A    between atoms: C2_2  and  C3_3 
REMARK    2  A    between atoms: C2_2  and  C27_30 
REMARK    3  A    between atoms: C3_3  and  C4_4 
REMARK    4  A    between atoms: C4_4  and  C5_5 
REMARK    5  A    between atoms: C5_5  and  C7_7 
REMARK    6  A    between atoms: C26_28  and  O3_29 
ROOT
HETATM    1  C7  UNL     1       0.628   5.816  13.279  1.00  0.00    -0.002 C 
HETATM    2  C8  UNL     1       1.002   6.920  14.298  1.00  0.00     0.006 C 
HETATM    3  C9  UNL     1      -0.314   7.329  14.991  1.00  0.00     0.010 C 
HETATM    4  C10 UNL     1      -1.353   6.330  14.471  1.00  0.00     0.027 C 
HETATM    5  C11 UNL     1      -2.835   6.601  14.567  1.00  0.00    -0.036 C 
HETATM    6  C12 UNL     1      -3.711   5.995  13.726  1.00  0.00     0.002 C 
HETATM    7  C13 UNL     1      -3.164   5.094  12.629  1.00  0.00     0.157 C 
HETATM    8  O1  UNL     1      -3.920   4.528  11.840  1.00  0.00    -0.293 OA
HETATM    9  C14 UNL     1      -1.664   4.871  12.508  1.00  0.00     0.093 C 
HETATM   10  C15 UNL     1      -0.885   6.080  13.023  1.00  0.00    -0.026 C 
HETATM   11  C16 UNL     1      -1.114   7.285  12.076  1.00  0.00     0.016 C 
HETATM   12  C17 UNL     1      -5.241   6.184  13.825  1.00  0.00    -0.008 C 
HETATM   13  C18 UNL     1      -5.635   7.136  12.663  1.00  0.00     0.021 C 
HETATM   14  C19 UNL     1      -6.026   4.840  13.671  1.00  0.00     0.022 C 
HETATM   15  C20 UNL     1      -7.344   4.742  14.439  1.00  0.00     0.080 C 
HETATM   16  C21 UNL     1      -7.988   6.089  14.640  1.00  0.00     0.131 C 
HETATM   17  O2  UNL     1      -9.167   6.291  14.351  1.00  0.00    -0.298 OA
HETATM   18  C22 UNL     1      -7.136   7.167  15.294  1.00  0.00     0.056 C 
HETATM   19  C23 UNL     1      -7.631   7.366  16.727  1.00  0.00     0.018 C 
HETATM   20  C24 UNL     1      -5.638   6.782  15.224  1.00  0.00     0.012 C 
HETATM   21  C25 UNL     1      -4.728   7.957  15.606  1.00  0.00     0.042 C 
HETATM   22  C26 UNL     1      -3.271   7.507  15.686  1.00  0.00     0.148 C 
ENDROOT
BRANCH   1  23
HETATM   23  C5  UNL     1       1.525   5.652  12.021  1.00  0.00    -0.014 C 
HETATM   24  C6  UNL     1       0.852   5.020  10.804  1.00  0.00     0.010 C 
BRANCH  23  25
HETATM   25  C4  UNL     1       2.265   6.967  11.661  1.00  0.00     0.009 C 
BRANCH  25  26
HETATM   26  C3  UNL     1       1.761   7.782  10.460  1.00  0.00     0.034 C 
BRANCH  26  27
HETATM   27  C2  UNL     1       2.538   7.669   9.162  1.00  0.00    -0.086 C 
HETATM   28  C1  UNL     1       3.671   8.377   8.994  1.00  0.00     0.014 C 
BRANCH  27  29
HETATM   29  C27 UNL     1       2.109   6.681   8.077  1.00  0.00     0.005 C 
HETATM   30  C28 UNL     1       1.890   7.319   6.703  1.00  0.00     0.014 C 
HETATM   31  C29 UNL     1       3.052   5.480   7.973  1.00  0.00     0.014 C 
ENDBRANCH  27  29
ENDBRANCH  26  27
ENDBRANCH  25  26
ENDBRANCH  23  25
ENDBRANCH   1  23
BRANCH  22  32
HETATM   32  O3  UNL     1      -3.065   6.783  16.895  1.00  0.00    -0.391 OA
HETATM   33  H37 UNL     1      -3.149   7.414  17.631  1.00  0.00     0.210 HD
ENDBRANCH  22  32
TORSDOF 6
ENDMDL
MODEL 2
REMARK minimizedAffinity -7.11939764
REMARK CNNscore 0.624475241
REMARK CNNaffinity 7.11001348
REMARK  6 active torsions:
REMARK  status: ('A' for Active; 'I' for Inactive)
REMARK    1  A    between atoms: C2_2  and  C3_3 
REMARK    2  A    between atoms: C2_2  and  C27_30 
REMARK    3  A    between atoms: C3_3  and  C4_4 
REMARK    4  A    between atoms: C4_4  and  C5_5 
REMARK    5  A    between atoms: C5_5  and  C7_7 
REMARK    6  A    between atoms: C26_28  and  O3_29 
ROOT
HETATM    1  C7  UNL     1      -9.568   8.598  14.757  1.00  0.00    -0.002 C 
HETATM    2  C8  UNL     1      -8.499   9.428  15.510  1.00  0.00     0.006 C 
HETATM    3  C9  UNL     1      -7.139   8.778  15.181  1.00  0.00     0.010 C 
HETATM    4  C10 UNL     1      -7.463   7.718  14.122  1.00  0.00     0.027 C 
HETATM    5  C11 UNL     1      -6.514   6.585  13.816  1.00  0.00    -0.036 C 
HETATM    6  C12 UNL     1      -6.963   5.428  13.265  1.00  0.00     0.002 C 
HETATM    7  C13 UNL     1      -8.458   5.263  13.034  1.00  0.00     0.157 C 
HETATM    8  O1  UNL     1      -8.911   4.230  12.543  1.00  0.00    -0.293 OA
HETATM    9  C14 UNL     1      -9.411   6.393  13.397  1.00  0.00     0.093 C 
HETATM   10  C15 UNL     1      -8.859   7.227  14.552  1.00  0.00    -0.026 C 
HETATM   11  C16 UNL     1      -8.851   6.377  15.848  1.00  0.00     0.016 C 
HETATM   12  C17 UNL     1      -6.027   4.265  12.869  1.00  0.00    -0.008 C 
HETATM   13  C18 UNL     1      -6.210   3.173  13.958  1.00  0.00     0.021 C 
HETATM   14  C19 UNL     1      -6.380   3.655  11.473  1.00  0.00     0.022 C 
HETATM   15  C20 UNL     1      -5.207   3.089  10.673  1.00  0.00     0.080 C 
HETATM   16  C21 UNL     1      -4.095   2.598  11.563  1.00  0.00     0.131 C 
HETATM   17  O2  UNL     1      -3.610   1.475  11.430  1.00  0.00    -0.298 OA
HETATM   18  C22 UNL     1      -3.543   3.584  12.581  1.00  0.00     0.056 C 
HETATM   19  C23 UNL     1      -2.168   4.050  12.102  1.00  0.00     0.018 C 
HETATM   20  C24 UNL     1      -4.536   4.756  12.784  1.00  0.00     0.012 C 
HETATM   21  C25 UNL     1      -4.162   5.615  13.999  1.00  0.00     0.042 C 
HETATM   22  C26 UNL     1      -5.057   6.851  14.081  1.00  0.00     0.148 C 
ENDROOT
BRANCH   1  23
HETATM   23  C5  UNL     1     -11.004   8.555  15.347  1.00  0.00    -0.014 C 
HETATM   24  C6  UNL     1     -11.235   9.410  16.593  1.00  0.00     0.010 C 
BRANCH  23  25
HETATM   25  C4  UNL     1     -12.085   8.802  14.262  1.00  0.00     0.009 C 
BRANCH  25  26
HETATM   26  C3  UNL     1     -13.163   7.727  14.051  1.00  0.00     0.034 C 
BRANCH  26  27
HETATM   27  C2  UNL     1     -14.605   8.119  14.314  1.00  0.00    -0.086 C 
HETATM   28  C1  UNL     1     -14.881   9.146  15.139  1.00  0.00     0.014 C 
BRANCH  27  29
HETATM   29  C27 UNL     1     -15.750   7.431  13.570  1.00  0.00     0.005 C 
HETATM   30  C28 UNL     1     -17.098   8.142  13.708  1.00  0.00     0.014 C 
HETATM   31  C29 UNL     1     -15.421   7.170  12.099  1.00  0.00     0.014 C 
ENDBRANCH  27  29
ENDBRANCH  26  27
ENDBRANCH  25  26
ENDBRANCH  23  25
ENDBRANCH   1  23
BRANCH  22  32
HETATM   32  O3  UNL     1      -4.636   7.804  13.111  1.00  0.00    -0.391 OA
HETATM   33  H37 UNL     1      -3.765   8.136  13.387  1.00  0.00     0.210 HD
ENDBRANCH  22  32
TORSDOF 6
ENDMDL
MODEL 3
REMARK minimizedAffinity -8.86051178
REMARK CNNscore 0.563322186
REMARK CNNaffinity 6.96671534
REMARK  6 active torsions:
REMARK  status: ('A' for Active; 'I' for Inactive)
REMARK    1  A    between atoms: C2_2  and  C3_3 
REMARK    2  A    between atoms: C2_2  and  C27_30 
REMARK    3  A    between atoms: C3_3  and  C4_4 
REMARK    4  A    between atoms: C4_4  and  C5_5 
REMARK    5  A    between atoms: C5_5  and  C7_7 
REMARK    6  A    between atoms: C26_28  and  O3_29 
ROOT
HETATM    1  C7  UNL     1      -5.875   7.390  14.368  1.00  0.00    -0.002 C 
HETATM    2  C8  UNL     1      -5.617   8.704  15.145  1.00  0.00     0.006 C 
HETATM    3  C9  UNL     1      -4.159   9.105  14.838  1.00  0.00     0.010 C 
HETATM    4  C10 UNL     1      -3.699   8.109  13.768  1.00  0.00     0.027 C 
HETATM    5  C11 UNL     1      -2.237   7.875  13.476  1.00  0.00    -0.036 C 
HETATM    6  C12 UNL     1      -1.814   6.715  12.912  1.00  0.00     0.002 C 
HETATM    7  C13 UNL     1      -2.836   5.617  12.652  1.00  0.00     0.157 C 
HETATM    8  O1  UNL     1      -2.498   4.547  12.148  1.00  0.00    -0.293 OA
HETATM    9  C14 UNL     1      -4.299   5.844  13.002  1.00  0.00     0.093 C 
HETATM   10  C15 UNL     1      -4.440   6.817  14.170  1.00  0.00    -0.026 C 
HETATM   11  C16 UNL     1      -3.893   6.160  15.463  1.00  0.00     0.016 C 
HETATM   12  C17 UNL     1      -0.341   6.452  12.528  1.00  0.00    -0.008 C 
HETATM   13  C18 UNL     1       0.221   5.490  13.610  1.00  0.00     0.021 C 
HETATM   14  C19 UNL     1      -0.194   5.782  11.123  1.00  0.00     0.022 C 
HETATM   15  C20 UNL     1       1.073   6.132  10.343  1.00  0.00     0.080 C 
HETATM   16  C21 UNL     1       2.225   6.473  11.251  1.00  0.00     0.131 C 
HETATM   17  O2  UNL     1       3.328   5.942  11.123  1.00  0.00    -0.298 OA
HETATM   18  C22 UNL     1       1.986   7.565  12.283  1.00  0.00     0.056 C 
HETATM   19  C23 UNL     1       2.729   8.823  11.832  1.00  0.00     0.018 C 
HETATM   20  C24 UNL     1       0.467   7.800  12.474  1.00  0.00     0.012 C 
HETATM   21  C25 UNL     1       0.174   8.676  13.699  1.00  0.00     0.042 C 
HETATM   22  C26 UNL     1      -1.312   9.025  13.769  1.00  0.00     0.148 C 
ENDROOT
BRANCH   1  23
HETATM   23  C5  UNL     1      -6.940   6.409  14.931  1.00  0.00    -0.014 C 
HETATM   24  C6  UNL     1      -7.025   6.326  16.454  1.00  0.00     0.010 C 
BRANCH  23  25
HETATM   25  C4  UNL     1      -8.332   6.628  14.281  1.00  0.00     0.009 C 
BRANCH  25  26
HETATM   26  C3  UNL     1      -9.512   6.999  15.193  1.00  0.00     0.034 C 
BRANCH  26  27
HETATM   27  C2  UNL     1     -10.351   8.199  14.799  1.00  0.00    -0.086 C 
HETATM   28  C1  UNL     1      -9.896   9.444  15.036  1.00  0.00     0.014 C 
BRANCH  27  29
HETATM   29  C27 UNL     1     -11.665   8.019  14.038  1.00  0.00     0.005 C 
HETATM   30  C28 UNL     1     -11.535   8.183  12.522  1.00  0.00     0.014 C 
HETATM   31  C29 UNL     1     -12.368   6.705  14.384  1.00  0.00     0.014 C 
ENDBRANCH  27  29
ENDBRANCH  26  27
ENDBRANCH  25  26
ENDBRANCH  23  25
ENDBRANCH   1  23
BRANCH  22  32
HETATM   32  O3  UNL     1      -1.605  10.036  12.811  1.00  0.00    -0.391 OA
HETATM   33  H37 UNL     1      -1.166  10.852  13.104  1.00  0.00     0.210 HD
ENDBRANCH  22  32
TORSDOF 6
ENDMDL
MODEL 4
REMARK minimizedAffinity -8.65584755
REMARK CNNscore 0.541571856
REMARK CNNaffinity 7.14615965
REMARK  6 active torsions:
REMARK  status: ('A' for Active; 'I' for Inactive)
REMARK    1  A    between atoms: C2_2  and  C3_3 
REMARK    2  A    between atoms: C2_2  and  C27_30 
REMARK    3  A    between atoms: C3_3  and  C4_4 
REMARK    4  A    between atoms: C4_4  and  C5_5 
REMARK    5  A    between atoms: C5_5  and  C7_7 
REMARK    6  A    between atoms: C26_28  and  O3_29 
ROOT
HETATM    1  C7  UNL     1      -2.440   5.949  12.741  1.00  0.00    -0.002 C 
HETATM    2  C8  UNL     1      -2.912   4.560  12.248  1.00  0.00     0.006 C 
HETATM    3  C9  UNL     1      -4.434   4.510  12.496  1.00  0.00     0.010 C 
HETATM    4  C10 UNL     1      -4.798   5.926  12.956  1.00  0.00     0.027 C 
HETATM    5  C11 UNL     1      -6.086   6.217  13.687  1.00  0.00    -0.036 C 
HETATM    6  C12 UNL     1      -6.203   7.307  14.488  1.00  0.00     0.002 C 
HETATM    7  C13 UNL     1      -4.982   8.189  14.701  1.00  0.00     0.157 C 
HETATM    8  O1  UNL     1      -5.039   9.183  15.424  1.00  0.00    -0.293 OA
HETATM    9  C14 UNL     1      -3.673   7.854  14.002  1.00  0.00     0.093 C 
HETATM   10  C15 UNL     1      -3.550   6.352  13.756  1.00  0.00    -0.026 C 
HETATM   11  C16 UNL     1      -3.395   5.615  15.111  1.00  0.00     0.016 C 
HETATM   12  C17 UNL     1      -7.518   7.689  15.203  1.00  0.00    -0.008 C 
HETATM   13  C18 UNL     1      -7.329   7.296  16.694  1.00  0.00     0.021 C 
HETATM   14  C19 UNL     1      -7.829   9.219  15.115  1.00  0.00     0.022 C 
HETATM   15  C20 UNL     1      -9.310   9.601  15.090  1.00  0.00     0.080 C 
HETATM   16  C21 UNL     1     -10.170   8.595  15.807  1.00  0.00     0.131 C 
HETATM   17  O2  UNL     1     -10.983   8.936  16.666  1.00  0.00    -0.298 OA
HETATM   18  C22 UNL     1     -10.047   7.145  15.363  1.00  0.00     0.056 C 
HETATM   19  C23 UNL     1     -11.299   6.778  14.566  1.00  0.00     0.018 C 
HETATM   20  C24 UNL     1      -8.740   6.941  14.557  1.00  0.00     0.012 C 
HETATM   21  C25 UNL     1      -8.431   5.454  14.339  1.00  0.00     0.042 C 
HETATM   22  C26 UNL     1      -7.232   5.284  13.407  1.00  0.00     0.148 C 
ENDROOT
BRANCH   1  23
HETATM   23  C5  UNL     1      -0.971   6.086  13.230  1.00  0.00    -0.014 C 
HETATM   24  C6  UNL     1      -0.211   4.774  13.423  1.00  0.00     0.010 C 
BRANCH  23  25
HETATM   25  C4  UNL     1      -0.169   7.106  12.380  1.00  0.00     0.009 C 
BRANCH  25  26
HETATM   26  C3  UNL     1       0.058   6.795  10.893  1.00  0.00     0.034 C 
BRANCH  26  27
HETATM   27  C2  UNL     1       1.491   6.761  10.395  1.00  0.00    -0.086 C 
HETATM   28  C1  UNL     1       2.421   6.063  11.073  1.00  0.00     0.014 C 
BRANCH  27  29
HETATM   29  C27 UNL     1       1.874   7.422   9.071  1.00  0.00     0.005 C 
HETATM   30  C28 UNL     1       2.386   6.444   8.011  1.00  0.00     0.014 C 
HETATM   31  C29 UNL     1       0.753   8.297   8.506  1.00  0.00     0.014 C 
ENDBRANCH  27  29
ENDBRANCH  26  27
ENDBRANCH  25  26
ENDBRANCH  23  25
ENDBRANCH   1  23
BRANCH  22  32
HETATM   32  O3  UNL     1      -7.638   5.532  12.064  1.00  0.00    -0.391 OA
HETATM   33  H37 UNL     1      -8.235   4.811  11.801  1.00  0.00     0.210 HD
ENDBRANCH  22  32
TORSDOF 6
ENDMDL
MODEL 5
REMARK minimizedAffinity -9.63598537
REMARK CNNscore 0.50633347
REMARK CNNaffinity 6.97293425
REMARK  6 active torsions:
REMARK  status: ('A' for Active; 'I' for Inactive)
REMARK    1  A    between atoms: C2_2  and  C3_3 
REMARK    2  A    between atoms: C2_2  and  C27_30 
REMARK    3  A    between atoms: C3_3  and  C4_4 
REMARK    4  A    between atoms: C4_4  and  C5_5 
REMARK    5  A    between atoms: C5_5  and  C7_7 
REMARK    6  A    between atoms: C26_28  and  O3_29 
ROOT
HETATM    1  C7  UNL     1      -5.482   6.862  13.967  1.00  0.00    -0.002 C 
HETATM    2  C8  UNL     1      -5.396   8.273  14.600  1.00  0.00     0.006 C 
HETATM    3  C9  UNL     1      -3.981   8.800  14.285  1.00  0.00     0.010 C 
HETATM    4  C10 UNL     1      -3.377   7.752  13.343  1.00  0.00     0.027 C 
HETATM    5  C11 UNL     1      -1.889   7.653  13.113  1.00  0.00    -0.036 C 
HETATM    6  C12 UNL     1      -1.323   6.494  12.691  1.00  0.00     0.002 C 
HETATM    7  C13 UNL     1      -2.209   5.267  12.530  1.00  0.00     0.157 C 
HETATM    8  O1  UNL     1      -1.738   4.193  12.156  1.00  0.00    -0.293 OA
HETATM    9  C14 UNL     1      -3.699   5.364  12.819  1.00  0.00     0.093 C 
HETATM   10  C15 UNL     1      -3.987   6.436  13.868  1.00  0.00    -0.026 C 
HETATM   11  C16 UNL     1      -3.418   5.987  15.238  1.00  0.00     0.016 C 
HETATM   12  C17 UNL     1       0.183   6.358  12.373  1.00  0.00    -0.008 C 
HETATM   13  C18 UNL     1       0.808   5.587  13.568  1.00  0.00     0.021 C 
HETATM   14  C19 UNL     1       0.452   5.561  11.055  1.00  0.00     0.022 C 
HETATM   15  C20 UNL     1       1.701   5.965  10.271  1.00  0.00     0.080 C 
HETATM   16  C21 UNL     1       2.776   6.529  11.163  1.00  0.00     0.131 C 
HETATM   17  O2  UNL     1       3.934   6.114  11.119  1.00  0.00    -0.298 OA
HETATM   18  C22 UNL     1       2.383   7.692  12.062  1.00  0.00     0.056 C 
HETATM   19  C23 UNL     1       3.000   8.969  11.492  1.00  0.00     0.018 C 
HETATM   20  C24 UNL     1       0.841   7.774  12.189  1.00  0.00     0.012 C 
HETATM   21  C25 UNL     1       0.412   8.738  13.303  1.00  0.00     0.042 C 
HETATM   22  C26 UNL     1      -1.105   8.924  13.299  1.00  0.00     0.148 C 
ENDROOT
BRANCH   1  23
HETATM   23  C5  UNL     1      -6.454   5.835  14.611  1.00  0.00    -0.014 C 
HETATM   24  C6  UNL     1      -7.053   6.241  15.956  1.00  0.00     0.010 C 
BRANCH  23  25
HETATM   25  C4  UNL     1      -7.538   5.356  13.610  1.00  0.00     0.009 C 
BRANCH  25  26
HETATM   26  C3  UNL     1      -7.082   4.659  12.319  1.00  0.00     0.034 C 
BRANCH  26  27
HETATM   27  C2  UNL     1      -6.842   3.162  12.379  1.00  0.00    -0.086 C 
HETATM   28  C1  UNL     1      -7.692   2.373  13.062  1.00  0.00     0.014 C 
BRANCH  27  29
HETATM   29  C27 UNL     1      -5.704   2.520  11.585  1.00  0.00     0.005 C 
HETATM   30  C28 UNL     1      -5.956   1.058  11.206  1.00  0.00     0.014 C 
HETATM   31  C29 UNL     1      -5.312   3.340  10.354  1.00  0.00     0.014 C 
ENDBRANCH  27  29
ENDBRANCH  26  27
ENDBRANCH  25  26
ENDBRANCH  23  25
ENDBRANCH   1  23
BRANCH  22  32
HETATM   32  O3  UNL     1      -1.473   9.787  12.228  1.00  0.00    -0.391 OA
HETATM   33  H37 UNL     1      -1.135  10.675  12.439  1.00  0.00     0.210 HD
ENDBRANCH  22  32
TORSDOF 6
ENDMDL
MODEL 6
REMARK minimizedAffinity -7.04450226
REMARK CNNscore 0.49737367
REMARK CNNaffinity 6.67934847
REMARK  6 active torsions:
REMARK  status: ('A' for Active; 'I' for Inactive)
REMARK    1  A    between atoms: C2_2  and  C3_3 
REMARK    2  A    between atoms: C2_2  and  C27_30 
REMARK    3  A    between atoms: C3_3  and  C4_4 
REMARK    4  A    between atoms: C4_4  and  C5_5 
REMARK    5  A    between atoms: C5_5  and  C7_7 
REMARK    6  A    between atoms: C26_28  and  O3_29 
ROOT
HETATM    1  C7  UNL     1      -9.802   6.903  14.507  1.00  0.00    -0.002 C 
HETATM    2  C8  UNL     1      -9.085   8.257  14.731  1.00  0.00     0.006 C 
HETATM    3  C9  UNL     1     -10.195   9.291  15.010  1.00  0.00     0.010 C 
HETATM    4  C10 UNL     1     -11.481   8.463  15.106  1.00  0.00     0.027 C 
HETATM    5  C11 UNL     1     -12.845   9.093  14.965  1.00  0.00    -0.036 C 
HETATM    6  C12 UNL     1     -13.918   8.356  14.581  1.00  0.00     0.002 C 
HETATM    7  C13 UNL     1     -13.705   6.893  14.217  1.00  0.00     0.157 C 
HETATM    8  O1  UNL     1     -14.647   6.188  13.859  1.00  0.00    -0.293 OA
HETATM    9  C14 UNL     1     -12.315   6.283  14.311  1.00  0.00     0.093 C 
HETATM   10  C15 UNL     1     -11.235   7.338  14.080  1.00  0.00    -0.026 C 
HETATM   11  C16 UNL     1     -11.283   7.815  12.606  1.00  0.00     0.016 C 
HETATM   12  C17 UNL     1     -15.348   8.934  14.488  1.00  0.00    -0.008 C 
HETATM   13  C18 UNL     1     -15.636   9.131  12.975  1.00  0.00     0.021 C 
HETATM   14  C19 UNL     1     -16.426   7.976  15.091  1.00  0.00     0.022 C 
HETATM   15  C20 UNL     1     -17.645   8.651  15.720  1.00  0.00     0.080 C 
HETATM   16  C21 UNL     1     -17.945   9.986  15.091  1.00  0.00     0.131 C 
HETATM   17  O2  UNL     1     -19.072  10.272  14.687  1.00  0.00    -0.298 OA
HETATM   18  C22 UNL     1     -16.809  10.998  15.051  1.00  0.00     0.056 C 
HETATM   19  C23 UNL     1     -17.094  12.080  16.093  1.00  0.00     0.018 C 
HETATM   20  C24 UNL     1     -15.451  10.288  15.279  1.00  0.00     0.012 C 
HETATM   21  C25 UNL     1     -14.266  11.211  14.964  1.00  0.00     0.042 C 
HETATM   22  C26 UNL     1     -12.947  10.543  15.350  1.00  0.00     0.148 C 
ENDROOT
BRANCH   1  23
HETATM   23  C5  UNL     1      -9.100   5.849  13.607  1.00  0.00    -0.014 C 
HETATM   24  C6  UNL     1      -8.990   6.210  12.126  1.00  0.00     0.010 C 
BRANCH  23  25
HETATM   25  C4  UNL     1      -7.740   5.393  14.198  1.00  0.00     0.009 C 
BRANCH  25  26
HETATM   26  C3  UNL     1      -6.623   4.987  13.226  1.00  0.00     0.034 C 
BRANCH  26  27
HETATM   27  C2  UNL     1      -6.606   3.550  12.738  1.00  0.00    -0.086 C 
HETATM   28  C1  UNL     1      -7.554   2.689  13.153  1.00  0.00     0.014 C 
BRANCH  27  29
HETATM   29  C27 UNL     1      -5.587   3.090  11.695  1.00  0.00     0.005 C 
HETATM   30  C28 UNL     1      -4.130   3.329  12.099  1.00  0.00     0.014 C 
HETATM   31  C29 UNL     1      -5.801   1.636  11.268  1.00  0.00     0.014 C 
ENDBRANCH  27  29
ENDBRANCH  26  27
ENDBRANCH  25  26
ENDBRANCH  23  25
ENDBRANCH   1  23
BRANCH  22  32
HETATM   32  O3  UNL     1     -12.785  10.600  16.764  1.00  0.00    -0.391 OA
HETATM   33  H37 UNL     1     -12.648  11.532  17.005  1.00  0.00     0.210 HD
ENDBRANCH  22  32
TORSDOF 6
ENDMDL
MODEL 7
REMARK minimizedAffinity -7.11430788
REMARK CNNscore 0.493575186
REMARK CNNaffinity 6.74862099
REMARK  6 active torsions:
REMARK  status: ('A' for Active; 'I' for Inactive)
REMARK    1  A    between atoms: C2_2  and  C3_3 
REMARK    2  A    between atoms: C2_2  and  C27_30 
REMARK    3  A    between atoms: C3_3  and  C4_4 
REMARK    4  A    between atoms: C4_4  and  C5_5 
REMARK    5  A    between atoms: C5_5  and  C7_7 
REMARK    6  A    between atoms: C26_28  and  O3_29 
ROOT
HETATM    1  C7  UNL     1     -10.201   8.303  15.023  1.00  0.00    -0.002 C 
HETATM    2  C8  UNL     1     -10.024   9.799  14.666  1.00  0.00     0.006 C 
HETATM    3  C9  UNL     1     -11.420  10.310  14.252  1.00  0.00     0.010 C 
HETATM    4  C10 UNL     1     -12.365   9.142  14.553  1.00  0.00     0.027 C 
HETATM    5  C11 UNL     1     -13.739   9.052  13.935  1.00  0.00    -0.036 C 
HETATM    6  C12 UNL     1     -14.370   7.857  13.806  1.00  0.00     0.002 C 
HETATM    7  C13 UNL     1     -13.631   6.594  14.226  1.00  0.00     0.157 C 
HETATM    8  O1  UNL     1     -14.161   5.488  14.122  1.00  0.00    -0.293 OA
HETATM    9  C14 UNL     1     -12.224   6.692  14.797  1.00  0.00     0.093 C 
HETATM   10  C15 UNL     1     -11.490   7.911  14.242  1.00  0.00    -0.026 C 
HETATM   11  C16 UNL     1     -11.214   7.706  12.731  1.00  0.00     0.016 C 
HETATM   12  C17 UNL     1     -15.802   7.716  13.245  1.00  0.00    -0.008 C 
HETATM   13  C18 UNL     1     -15.647   7.166  11.800  1.00  0.00     0.021 C 
HETATM   14  C19 UNL     1     -16.681   6.725  14.075  1.00  0.00     0.022 C 
HETATM   15  C20 UNL     1     -18.177   7.033  14.122  1.00  0.00     0.080 C 
HETATM   16  C21 UNL     1     -18.646   7.765  12.892  1.00  0.00     0.131 C 
HETATM   17  O2  UNL     1     -19.622   7.383  12.246  1.00  0.00    -0.298 OA
HETATM   18  C22 UNL     1     -17.908   9.046  12.531  1.00  0.00     0.056 C 
HETATM   19  C23 UNL     1     -18.811  10.232  12.871  1.00  0.00     0.018 C 
HETATM   20  C24 UNL     1     -16.543   9.102  13.262  1.00  0.00     0.012 C 
HETATM   21  C25 UNL     1     -15.648  10.220  12.712  1.00  0.00     0.042 C 
HETATM   22  C26 UNL     1     -14.381  10.358  13.554  1.00  0.00     0.148 C 
ENDROOT
BRANCH   1  23
HETATM   23  C5  UNL     1      -8.974   7.364  14.851  1.00  0.00    -0.014 C 
HETATM   24  C6  UNL     1      -8.361   6.831  16.145  1.00  0.00     0.010 C 
BRANCH  23  25
HETATM   25  C4  UNL     1      -9.248   6.233  13.826  1.00  0.00     0.009 C 
BRANCH  25  26
HETATM   26  C3  UNL     1      -8.210   5.986  12.720  1.00  0.00     0.034 C 
BRANCH  26  27
HETATM   27  C2  UNL     1      -6.817   5.563  13.149  1.00  0.00    -0.086 C 
HETATM   28  C1  UNL     1      -5.912   6.495  13.504  1.00  0.00     0.014 C 
BRANCH  27  29
HETATM   29  C27 UNL     1      -6.456   4.084  13.285  1.00  0.00     0.005 C 
HETATM   30  C28 UNL     1      -7.667   3.152  13.376  1.00  0.00     0.014 C 
HETATM   31  C29 UNL     1      -5.489   3.613  12.197  1.00  0.00     0.014 C 
ENDBRANCH  27  29
ENDBRANCH  26  27
ENDBRANCH  25  26
ENDBRANCH  23  25
ENDBRANCH   1  23
BRANCH  22  32
HETATM   32  O3  UNL     1     -14.693  11.026  14.773  1.00  0.00    -0.391 OA
HETATM   33  H37 UNL     1     -14.920  11.945  14.552  1.00  0.00     0.210 HD
ENDBRANCH  22  32
TORSDOF 6
ENDMDL
MODEL 8
REMARK minimizedAffinity -7.04295301
REMARK CNNscore 0.462941557
REMARK CNNaffinity 6.23424292
REMARK  6 active torsions:
REMARK  status: ('A' for Active; 'I' for Inactive)
REMARK    1  A    between atoms: C2_2  and  C3_3 
REMARK    2  A    between atoms: C2_2  and  C27_30 
REMARK    3  A    between atoms: C3_3  and  C4_4 
REMARK    4  A    between atoms: C4_4  and  C5_5 
REMARK    5  A    between atoms: C5_5  and  C7_7 
REMARK    6  A    between atoms: C26_28  and  O3_29 
ROOT
HETATM    1  C7  UNL     1     -12.533 -12.365  26.481  1.00  0.00    -0.002 C 
HETATM    2  C8  UNL     1     -13.500 -12.412  25.273  1.00  0.00     0.006 C 
HETATM    3  C9  UNL     1     -14.179 -11.028  25.212  1.00  0.00     0.010 C 
HETATM    4  C10 UNL     1     -13.453 -10.193  26.271  1.00  0.00     0.027 C 
HETATM    5  C11 UNL     1     -14.049  -8.924  26.829  1.00  0.00    -0.036 C 
HETATM    6  C12 UNL     1     -13.676  -8.453  28.047  1.00  0.00     0.002 C 
HETATM    7  C13 UNL     1     -12.701  -9.275  28.878  1.00  0.00     0.157 C 
HETATM    8  O1  UNL     1     -12.339  -8.891  29.989  1.00  0.00    -0.293 OA
HETATM    9  C14 UNL     1     -12.148 -10.581  28.327  1.00  0.00     0.093 C 
HETATM   10  C15 UNL     1     -13.138 -11.234  27.364  1.00  0.00    -0.026 C 
HETATM   11  C16 UNL     1     -14.385 -11.713  28.149  1.00  0.00     0.016 C 
HETATM   12  C17 UNL     1     -14.203  -7.126  28.635  1.00  0.00    -0.008 C 
HETATM   13  C18 UNL     1     -15.246  -7.516  29.717  1.00  0.00     0.021 C 
HETATM   14  C19 UNL     1     -13.075  -6.271  29.300  1.00  0.00     0.022 C 
HETATM   15  C20 UNL     1     -13.258  -4.755  29.239  1.00  0.00     0.080 C 
HETATM   16  C21 UNL     1     -14.710  -4.359  29.185  1.00  0.00     0.131 C 
HETATM   17  O2  UNL     1     -15.180  -3.519  29.952  1.00  0.00    -0.298 OA
HETATM   18  C22 UNL     1     -15.553  -4.984  28.083  1.00  0.00     0.056 C 
HETATM   19  C23 UNL     1     -15.824  -3.917  27.022  1.00  0.00     0.018 C 
HETATM   20  C24 UNL     1     -14.841  -6.234  27.509  1.00  0.00     0.012 C 
HETATM   21  C25 UNL     1     -15.772  -7.056  26.607  1.00  0.00     0.042 C 
HETATM   22  C26 UNL     1     -15.003  -8.188  25.928  1.00  0.00     0.148 C 
ENDROOT
BRANCH   1  23
HETATM   23  C5  UNL     1     -12.201 -13.703  27.199  1.00  0.00    -0.014 C 
HETATM   24  C6  UNL     1     -12.947 -14.934  26.685  1.00  0.00     0.010 C 
BRANCH  23  25
HETATM   25  C4  UNL     1     -10.672 -13.945  27.297  1.00  0.00     0.009 C 
BRANCH  25  26
HETATM   26  C3  UNL     1      -9.726 -12.827  26.834  1.00  0.00     0.034 C 
BRANCH  26  27
HETATM   27  C2  UNL     1      -8.874 -13.093  25.607  1.00  0.00    -0.086 C 
HETATM   28  C1  UNL     1      -8.253 -14.279  25.466  1.00  0.00     0.014 C 
BRANCH  27  29
HETATM   29  C27 UNL     1      -8.794 -12.071  24.473  1.00  0.00     0.005 C 
HETATM   30  C28 UNL     1      -7.509 -12.155  23.647  1.00  0.00     0.014 C 
HETATM   31  C29 UNL     1     -10.027 -12.104  23.566  1.00  0.00     0.014 C 
ENDBRANCH  27  29
ENDBRANCH  26  27
ENDBRANCH  25  26
ENDBRANCH  23  25
ENDBRANCH   1  23
BRANCH  22  32
HETATM   32  O3  UNL     1     -14.223  -7.656  24.862  1.00  0.00    -0.391 OA
HETATM   33  H37 UNL     1     -14.839  -7.354  24.172  1.00  0.00     0.210 HD
ENDBRANCH  22  32
TORSDOF 6
ENDMDL
MODEL 9
REMARK minimizedAffinity -6.72542477
REMARK CNNscore 0.44912526
REMARK CNNaffinity 6.393332
REMARK  6 active torsions:
REMARK  status: ('A' for Active; 'I' for Inactive)
REMARK    1  A    between atoms: C2_2  and  C3_3 
REMARK    2  A    between atoms: C2_2  and  C27_30 
REMARK    3  A    between atoms: C3_3  and  C4_4 
REMARK    4  A    between atoms: C4_4  and  C5_5 
REMARK    5  A    between atoms: C5_5  and  C7_7 
REMARK    6  A    between atoms: C26_28  and  O3_29 
ROOT
HETATM    1  C7  UNL     1     -13.152 -10.399  26.804  1.00  0.00    -0.002 C 
HETATM    2  C8  UNL     1     -14.141 -10.002  25.681  1.00  0.00     0.006 C 
HETATM    3  C9  UNL     1     -14.783  -8.671  26.125  1.00  0.00     0.010 C 
HETATM    4  C10 UNL     1     -14.015  -8.273  27.390  1.00  0.00     0.027 C 
HETATM    5  C11 UNL     1     -14.567  -7.268  28.371  1.00  0.00    -0.036 C 
HETATM    6  C12 UNL     1     -14.160  -7.261  29.666  1.00  0.00     0.002 C 
HETATM    7  C13 UNL     1     -13.194  -8.340  30.133  1.00  0.00     0.157 C 
HETATM    8  O1  UNL     1     -12.803  -8.376  31.298  1.00  0.00    -0.293 OA
HETATM    9  C14 UNL     1     -12.687  -9.382  29.146  1.00  0.00     0.093 C 
HETATM   10  C15 UNL     1     -13.710  -9.637  28.042  1.00  0.00    -0.026 C 
HETATM   11  C16 UNL     1     -14.957 -10.335  28.642  1.00  0.00     0.016 C 
HETATM   12  C17 UNL     1     -14.640  -6.212  30.694  1.00  0.00    -0.008 C 
HETATM   13  C18 UNL     1     -15.675  -6.936  31.598  1.00  0.00     0.021 C 
HETATM   14  C19 UNL     1     -13.478  -5.667  31.587  1.00  0.00     0.022 C 
HETATM   15  C20 UNL     1     -13.621  -4.221  32.063  1.00  0.00     0.080 C 
HETATM   16  C21 UNL     1     -15.062  -3.802  32.188  1.00  0.00     0.131 C 
HETATM   17  O2  UNL     1     -15.495  -3.275  33.213  1.00  0.00    -0.298 OA
HETATM   18  C22 UNL     1     -15.940  -3.986  30.959  1.00  0.00     0.056 C 
HETATM   19  C23 UNL     1     -16.200  -2.610  30.345  1.00  0.00     0.018 C 
HETATM   20  C24 UNL     1     -15.273  -4.971  29.967  1.00  0.00     0.012 C 
HETATM   21  C25 UNL     1     -16.242  -5.407  28.859  1.00  0.00     0.042 C 
HETATM   22  C26 UNL     1     -15.515  -6.245  27.808  1.00  0.00     0.148 C 
ENDROOT
BRANCH   1  23
HETATM   23  C5  UNL     1     -12.845 -11.910  27.001  1.00  0.00    -0.014 C 
HETATM   24  C6  UNL     1     -13.674 -12.872  26.151  1.00  0.00     0.010 C 
BRANCH  23  25
HETATM   25  C4  UNL     1     -11.326 -12.210  26.909  1.00  0.00     0.009 C 
BRANCH  25  26
HETATM   26  C3  UNL     1     -10.744 -12.606  25.543  1.00  0.00     0.034 C 
BRANCH  26  27
HETATM   27  C2  UNL     1      -9.234 -12.614  25.400  1.00  0.00    -0.086 C 
HETATM   28  C1  UNL     1      -8.464 -13.002  26.434  1.00  0.00     0.014 C 
BRANCH  27  29
HETATM   29  C27 UNL     1      -8.573 -12.287  24.061  1.00  0.00     0.005 C 
HETATM   30  C28 UNL     1      -7.508 -11.191  24.142  1.00  0.00     0.014 C 
HETATM   31  C29 UNL     1      -8.021 -13.530  23.361  1.00  0.00     0.014 C 
ENDBRANCH  27  29
ENDBRANCH  26  27
ENDBRANCH  25  26
ENDBRANCH  23  25
ENDBRANCH   1  23
BRANCH  22  32
HETATM   32  O3  UNL     1     -14.740  -5.389  26.975  1.00  0.00    -0.391 OA
HETATM   33  H37 UNL     1     -15.359  -4.853  26.451  1.00  0.00     0.210 HD
ENDBRANCH  22  32
TORSDOF 6
ENDMDL
