MODEL 1
REMARK minimizedAffinity -8.89240074
REMARK CNNscore 0.315404803
REMARK CNNaffinity 7.03263998
REMARK  12 active torsions:
REMARK  status: ('A' for Active; 'I' for Inactive)
REMARK    1  A    between atoms: C2_2  and  C3_3 
REMARK    2  A    between atoms: C6_6  and  C7_7 
REMARK    3  A    between atoms: C7_7  and  C8_8 
REMARK    4  A    between atoms: C15_19  and  C16_20 
REMARK    5  A    between atoms: C16_20  and  C17_21 
REMARK    6  A    between atoms: C18_22  and  C19_23 
REMARK    7  A    between atoms: C21_25  and  C22_26 
REMARK    8  A    between atoms: C23_28  and  C24_29 
REMARK    9  A    between atoms: C27_34  and  C28_35 
REMARK   10  A    between atoms: C28_35  and  C29_36 
REMARK   11  A    between atoms: C29_36  and  C30_37 
REMARK   12  A    between atoms: C30_37  and  O5_39 
ROOT
HETATM    1  C8  UNL     1      -2.740   7.132  13.954  1.00  0.00     0.016 C 
HETATM    2  N1  UNL     1      -3.054   8.159  14.692  1.00  0.00    -0.362 N 
ATOM      3  H1  UNL     1      -3.994   8.520  14.854  1.00  0.00     0.165 HD
HETATM    4  C9  UNL     1      -1.884   8.666  15.213  1.00  0.00     0.023 C 
HETATM    5  C10 UNL     1      -1.904   9.427  16.319  1.00  0.00    -0.000 A 
HETATM    6  C11 UNL     1      -3.213   9.894  17.008  1.00  0.00     0.127 A 
HETATM    7  C12 UNL     1      -2.639  10.807  18.132  1.00  0.00     0.166 A 
HETATM    8  O1  UNL     1      -3.295  11.439  18.948  1.00  0.00    -0.292 OA
HETATM    9  C13 UNL     1      -1.191  10.775  18.060  1.00  0.00     0.045 A 
HETATM   10  C14 UNL     1      -0.816   9.973  17.023  1.00  0.00     0.055 A 
HETATM   11  N2  UNL     1       0.529   9.892  16.980  1.00  0.00    -0.357 N 
HETATM   12  C15 UNL     1       1.039  10.712  17.985  1.00  0.00     0.022 A 
HETATM   13  C25 UNL     1      -0.036  11.276  18.685  1.00  0.00    -0.023 A 
HETATM   14  C26 UNL     1      -0.012  12.200  19.847  1.00  0.00     0.051 C 
HETATM   15  C27 UNL     1      -0.703   8.157  14.418  1.00  0.00     0.046 C 
HETATM   16  C32 UNL     1      -1.264   6.802  13.935  1.00  0.00     0.041 C 
HETATM   17  C33 UNL     1      -0.956   5.672  14.917  1.00  0.00     0.017 C 
HETATM   18  H10 UNL     1       1.093   9.334  16.355  1.00  0.00     0.166 HD
ENDROOT
BRANCH  15  19
HETATM   19  C28 UNL     1      -0.363   9.047  13.201  1.00  0.00     0.021 C 
BRANCH  19  20
HETATM   20  C29 UNL     1      -0.792   8.471  11.851  1.00  0.00     0.112 C 
BRANCH  20  21
HETATM   21  C30 UNL     1       0.404   8.185  10.971  1.00  0.00     0.258 C 
HETATM   22  O4  UNL     1       1.376   7.526  11.307  1.00  0.00    -0.265 OA
BRANCH  21  23
HETATM   23  O5  UNL     1       0.258   8.817   9.773  1.00  0.00    -0.326 OA
HETATM   24  C31 UNL     1       1.042   8.257   8.719  1.00  0.00     0.213 C 
ENDBRANCH  21  23
ENDBRANCH  20  21
ENDBRANCH  19  20
ENDBRANCH  15  19
BRANCH   1  25
HETATM   25  C7  UNL     1      -3.794   6.376  13.242  1.00  0.00     0.055 C 
BRANCH  25  26
HETATM   26  C6  UNL     1      -3.748   5.240  12.538  1.00  0.00     0.043 A 
HETATM   27  C4  UNL     1      -4.836   4.287  12.349  1.00  0.00    -0.019 A 
HETATM   28  C3  UNL     1      -4.437   3.242  11.590  1.00  0.00     0.039 A 
HETATM   29  C5  UNL     1      -6.185   4.515  12.952  1.00  0.00     0.052 C 
HETATM   30  C34 UNL     1      -3.005   3.523  11.254  1.00  0.00     0.256 A 
HETATM   31  N4  UNL     1      -2.698   4.722  11.853  1.00  0.00    -0.322 N 
HETATM   32  O6  UNL     1      -2.238   2.849  10.591  1.00  0.00    -0.267 OA
HETATM   33  H36 UNL     1      -1.772   5.101  11.759  1.00  0.00     0.169 HD
BRANCH  28  34
HETATM   34  C2  UNL     1      -5.201   2.091  11.175  1.00  0.00     0.007 C 
HETATM   35  C1  UNL     1      -6.300   1.608  11.768  1.00  0.00     0.012 C 
ENDBRANCH  28  34
ENDBRANCH  25  26
ENDBRANCH   1  25
BRANCH  12  36
HETATM   36  C16 UNL     1       2.519  10.869  18.160  1.00  0.00     0.115 C 
BRANCH  36  37
HETATM   37  C17 UNL     1       2.951  10.620  19.575  1.00  0.00     0.022 A 
HETATM   38  C18 UNL     1       3.902  11.241  20.373  1.00  0.00    -0.020 A 
HETATM   39  C21 UNL     1       3.877  10.578  21.653  1.00  0.00     0.040 A 
HETATM   40  C23 UNL     1       2.910   9.585  21.583  1.00  0.00     0.084 A 
HETATM   41  N3  UNL     1       2.387   9.610  20.313  1.00  0.00    -0.356 N 
HETATM   42  H20 UNL     1       1.678   8.960  19.994  1.00  0.00     0.166 HD
BRANCH  38  43
HETATM   43  C19 UNL     1       4.783  12.389  19.974  1.00  0.00     0.037 C 
HETATM   44  C20 UNL     1       5.920  11.960  19.059  1.00  0.00     0.010 C 
ENDBRANCH  38  43
BRANCH  39  45
HETATM   45  C22 UNL     1       4.700  10.878  22.817  1.00  0.00     0.273 C 
HETATM   46  O2  UNL     1       5.607  11.703  22.813  1.00  0.00    -0.301 OA
ENDBRANCH  39  45
BRANCH  40  47
HETATM   47  C24 UNL     1       2.438   8.632  22.562  1.00  0.00     0.288 C 
HETATM   48  O3  UNL     1       1.672   7.716  22.271  1.00  0.00    -0.300 OA
ENDBRANCH  40  47
ENDBRANCH  36  37
ENDBRANCH  12  36
TORSDOF 12
ENDMDL
MODEL 2
REMARK minimizedAffinity -9.35337639
REMARK CNNscore 0.238301992
REMARK CNNaffinity 7.65696716
REMARK  12 active torsions:
REMARK  status: ('A' for Active; 'I' for Inactive)
REMARK    1  A    between atoms: C2_2  and  C3_3 
REMARK    2  A    between atoms: C6_6  and  C7_7 
REMARK    3  A    between atoms: C7_7  and  C8_8 
REMARK    4  A    between atoms: C15_19  and  C16_20 
REMARK    5  A    between atoms: C16_20  and  C17_21 
REMARK    6  A    between atoms: C18_22  and  C19_23 
REMARK    7  A    between atoms: C21_25  and  C22_26 
REMARK    8  A    between atoms: C23_28  and  C24_29 
REMARK    9  A    between atoms: C27_34  and  C28_35 
REMARK   10  A    between atoms: C28_35  and  C29_36 
REMARK   11  A    between atoms: C29_36  and  C30_37 
REMARK   12  A    between atoms: C30_37  and  O5_39 
ROOT
HETATM    1  C8  UNL     1      -0.332   6.142  12.617  1.00  0.00     0.016 C 
HETATM    2  N1  UNL     1      -1.274   5.633  11.876  1.00  0.00    -0.362 N 
ATOM      3  H1  UNL     1      -1.167   5.270  10.928  1.00  0.00     0.165 HD
HETATM    4  C9  UNL     1      -2.441   5.673  12.606  1.00  0.00     0.023 C 
HETATM    5  C10 UNL     1      -3.463   4.857  12.303  1.00  0.00    -0.000 A 
HETATM    6  C11 UNL     1      -3.469   3.922  11.065  1.00  0.00     0.127 A 
HETATM    7  C12 UNL     1      -4.904   3.323  11.160  1.00  0.00     0.166 A 
HETATM    8  O1  UNL     1      -5.404   2.529  10.376  1.00  0.00    -0.292 OA
HETATM    9  C13 UNL     1      -5.549   3.855  12.345  1.00  0.00     0.045 A 
HETATM   10  C14 UNL     1      -4.694   4.715  12.969  1.00  0.00     0.055 A 
HETATM   11  N2  UNL     1      -5.263   5.173  14.101  1.00  0.00    -0.357 N 
HETATM   12  C15 UNL     1      -6.548   4.637  14.181  1.00  0.00     0.022 A 
HETATM   13  C25 UNL     1      -6.745   3.794  13.080  1.00  0.00    -0.023 A 
HETATM   14  C26 UNL     1      -7.938   2.984  12.727  1.00  0.00     0.051 C 
HETATM   15  C27 UNL     1      -2.299   6.652  13.750  1.00  0.00     0.046 C 
HETATM   16  C32 UNL     1      -0.779   6.558  14.001  1.00  0.00     0.041 C 
HETATM   17  C33 UNL     1      -0.434   5.476  15.023  1.00  0.00     0.017 C 
HETATM   18  H10 UNL     1      -4.852   5.782  14.794  1.00  0.00     0.166 HD
ENDROOT
BRANCH  15  19
HETATM   19  C28 UNL     1      -2.678   8.098  13.359  1.00  0.00     0.021 C 
BRANCH  19  20
HETATM   20  C29 UNL     1      -2.342   9.152  14.415  1.00  0.00     0.112 C 
BRANCH  20  21
HETATM   21  C30 UNL     1      -1.284  10.111  13.916  1.00  0.00     0.258 C 
HETATM   22  O4  UNL     1      -0.158   9.790  13.566  1.00  0.00    -0.265 OA
BRANCH  21  23
HETATM   23  O5  UNL     1      -1.757  11.388  13.969  1.00  0.00    -0.326 OA
HETATM   24  C31 UNL     1      -2.574  11.660  15.108  1.00  0.00     0.213 C 
ENDBRANCH  21  23
ENDBRANCH  20  21
ENDBRANCH  19  20
ENDBRANCH  15  19
BRANCH   1  25
HETATM   25  C7  UNL     1       1.050   6.249  12.097  1.00  0.00     0.055 C 
BRANCH  25  26
HETATM   26  C6  UNL     1       1.527   6.272  10.848  1.00  0.00     0.043 A 
HETATM   27  C4  UNL     1       1.250   7.277   9.827  1.00  0.00    -0.019 A 
HETATM   28  C3  UNL     1       1.888   6.982   8.672  1.00  0.00     0.039 A 
HETATM   29  C5  UNL     1       0.364   8.449  10.109  1.00  0.00     0.052 C 
HETATM   30  C34 UNL     1       2.632   5.713   8.946  1.00  0.00     0.256 A 
HETATM   31  N4  UNL     1       2.359   5.381  10.253  1.00  0.00    -0.322 N 
HETATM   32  O6  UNL     1       3.341   5.074   8.191  1.00  0.00    -0.267 OA
HETATM   33  H36 UNL     1       2.759   4.548  10.648  1.00  0.00     0.169 HD
BRANCH  28  34
HETATM   34  C2  UNL     1       1.875   7.713   7.429  1.00  0.00     0.007 C 
HETATM   35  C1  UNL     1       1.528   7.235   6.227  1.00  0.00     0.012 C 
ENDBRANCH  28  34
ENDBRANCH  25  26
ENDBRANCH   1  25
BRANCH  12  36
HETATM   36  C16 UNL     1      -7.454   5.003  15.317  1.00  0.00     0.115 C 
BRANCH  36  37
HETATM   37  C17 UNL     1      -8.337   6.169  14.983  1.00  0.00     0.022 A 
HETATM   38  C18 UNL     1      -8.234   7.521  15.284  1.00  0.00    -0.020 A 
HETATM   39  C21 UNL     1      -9.377   8.172  14.694  1.00  0.00     0.040 A 
HETATM   40  C23 UNL     1     -10.124   7.192  14.055  1.00  0.00     0.084 A 
HETATM   41  N3  UNL     1      -9.494   5.991  14.269  1.00  0.00    -0.356 N 
HETATM   42  H20 UNL     1      -9.857   5.107  13.929  1.00  0.00     0.166 HD
BRANCH  38  43
HETATM   43  C19 UNL     1      -7.136   8.175  16.071  1.00  0.00     0.037 C 
HETATM   44  C20 UNL     1      -5.971   8.612  15.195  1.00  0.00     0.010 C 
ENDBRANCH  38  43
BRANCH  39  45
HETATM   45  C22 UNL     1      -9.705   9.590  14.742  1.00  0.00     0.273 C 
HETATM   46  O2  UNL     1      -9.029  10.424  15.334  1.00  0.00    -0.301 OA
ENDBRANCH  39  45
BRANCH  40  47
HETATM   47  C24 UNL     1     -11.345   7.264  13.285  1.00  0.00     0.288 C 
HETATM   48  O3  UNL     1     -11.405   7.836  12.199  1.00  0.00    -0.300 OA
ENDBRANCH  40  47
ENDBRANCH  36  37
ENDBRANCH  12  36
TORSDOF 12
ENDMDL
MODEL 3
REMARK minimizedAffinity -9.74832249
REMARK CNNscore 0.237714127
REMARK CNNaffinity 7.64668512
REMARK  12 active torsions:
REMARK  status: ('A' for Active; 'I' for Inactive)
REMARK    1  A    between atoms: C2_2  and  C3_3 
REMARK    2  A    between atoms: C6_6  and  C7_7 
REMARK    3  A    between atoms: C7_7  and  C8_8 
REMARK    4  A    between atoms: C15_19  and  C16_20 
REMARK    5  A    between atoms: C16_20  and  C17_21 
REMARK    6  A    between atoms: C18_22  and  C19_23 
REMARK    7  A    between atoms: C21_25  and  C22_26 
REMARK    8  A    between atoms: C23_28  and  C24_29 
REMARK    9  A    between atoms: C27_34  and  C28_35 
REMARK   10  A    between atoms: C28_35  and  C29_36 
REMARK   11  A    between atoms: C29_36  and  C30_37 
REMARK   12  A    between atoms: C30_37  and  O5_39 
ROOT
HETATM    1  C8  UNL     1      -0.506   6.452  12.675  1.00  0.00     0.016 C 
HETATM    2  N1  UNL     1      -1.384   5.756  12.011  1.00  0.00    -0.362 N 
ATOM      3  H1  UNL     1      -1.220   5.249  11.141  1.00  0.00     0.165 HD
HETATM    4  C9  UNL     1      -2.575   5.830  12.699  1.00  0.00     0.023 C 
HETATM    5  C10 UNL     1      -3.527   4.901  12.517  1.00  0.00    -0.000 A 
HETATM    6  C11 UNL     1      -3.424   3.773  11.456  1.00  0.00     0.127 A 
HETATM    7  C12 UNL     1      -4.816   3.093  11.621  1.00  0.00     0.166 A 
HETATM    8  O1  UNL     1      -5.232   2.143  10.972  1.00  0.00    -0.292 OA
HETATM    9  C13 UNL     1      -5.537   3.766  12.684  1.00  0.00     0.045 A 
HETATM   10  C14 UNL     1      -4.766   4.780  13.171  1.00  0.00     0.055 A 
HETATM   11  N2  UNL     1      -5.404   5.378  14.196  1.00  0.00    -0.357 N 
HETATM   12  C15 UNL     1      -6.650   4.768  14.339  1.00  0.00     0.022 A 
HETATM   13  C25 UNL     1      -6.750   3.740  13.393  1.00  0.00    -0.023 A 
HETATM   14  C26 UNL     1      -7.870   2.794  13.157  1.00  0.00     0.051 C 
HETATM   15  C27 UNL     1      -2.542   6.995  13.662  1.00  0.00     0.046 C 
HETATM   16  C32 UNL     1      -1.028   7.059  13.959  1.00  0.00     0.041 C 
HETATM   17  C33 UNL     1      -0.642   6.193  15.156  1.00  0.00     0.017 C 
HETATM   18  H10 UNL     1      -5.061   6.123  14.784  1.00  0.00     0.166 HD
ENDROOT
BRANCH  15  19
HETATM   19  C28 UNL     1      -3.008   8.322  13.024  1.00  0.00     0.021 C 
BRANCH  19  20
HETATM   20  C29 UNL     1      -4.481   8.661  13.259  1.00  0.00     0.112 C 
BRANCH  20  21
HETATM   21  C30 UNL     1      -4.780   8.816  14.734  1.00  0.00     0.258 C 
HETATM   22  O4  UNL     1      -5.741   8.325  15.307  1.00  0.00    -0.265 OA
BRANCH  21  23
HETATM   23  O5  UNL     1      -3.851   9.628  15.311  1.00  0.00    -0.326 OA
HETATM   24  C31 UNL     1      -4.386  10.842  15.840  1.00  0.00     0.213 C 
ENDBRANCH  21  23
ENDBRANCH  20  21
ENDBRANCH  19  20
ENDBRANCH  15  19
BRANCH   1  25
HETATM   25  C7  UNL     1       0.881   6.574  12.174  1.00  0.00     0.055 C 
BRANCH  25  26
HETATM   26  C6  UNL     1       1.384   6.521  10.936  1.00  0.00     0.043 A 
HETATM   27  C4  UNL     1       1.072   7.419   9.829  1.00  0.00    -0.019 A 
HETATM   28  C3  UNL     1       1.751   7.067   8.715  1.00  0.00     0.039 A 
HETATM   29  C5  UNL     1       0.114   8.556   9.996  1.00  0.00     0.052 C 
HETATM   30  C34 UNL     1       2.562   5.872   9.108  1.00  0.00     0.256 A 
HETATM   31  N4  UNL     1       2.279   5.634  10.433  1.00  0.00    -0.322 N 
HETATM   32  O6  UNL     1       3.323   5.215   8.422  1.00  0.00    -0.267 OA
HETATM   33  H36 UNL     1       2.717   4.862  10.904  1.00  0.00     0.169 HD
BRANCH  28  34
HETATM   34  C2  UNL     1       1.724   7.690   7.414  1.00  0.00     0.007 C 
HETATM   35  C1  UNL     1       1.606   7.068   6.235  1.00  0.00     0.012 C 
ENDBRANCH  28  34
ENDBRANCH  25  26
ENDBRANCH   1  25
BRANCH  12  36
HETATM   36  C16 UNL     1      -7.618   5.250  15.376  1.00  0.00     0.115 C 
BRANCH  36  37
HETATM   37  C17 UNL     1      -8.662   6.158  14.798  1.00  0.00     0.022 A 
HETATM   38  C18 UNL     1      -9.235   6.219  13.534  1.00  0.00    -0.020 A 
HETATM   39  C21 UNL     1     -10.192   7.296  13.556  1.00  0.00     0.040 A 
HETATM   40  C23 UNL     1     -10.167   7.842  14.832  1.00  0.00     0.084 A 
HETATM   41  N3  UNL     1      -9.217   7.160  15.552  1.00  0.00    -0.356 N 
HETATM   42  H20 UNL     1      -8.982   7.386  16.512  1.00  0.00     0.166 HD
BRANCH  38  43
HETATM   43  C19 UNL     1      -8.916   5.326  12.371  1.00  0.00     0.037 C 
HETATM   44  C20 UNL     1      -9.012   6.050  11.036  1.00  0.00     0.010 C 
ENDBRANCH  38  43
BRANCH  39  45
HETATM   45  C22 UNL     1     -11.041   7.744  12.460  1.00  0.00     0.273 C 
HETATM   46  O2  UNL     1     -11.282   8.923  12.226  1.00  0.00    -0.301 OA
ENDBRANCH  39  45
BRANCH  40  47
HETATM   47  C24 UNL     1     -10.922   8.919  15.432  1.00  0.00     0.288 C 
HETATM   48  O3  UNL     1     -10.870   9.168  16.634  1.00  0.00    -0.300 OA
ENDBRANCH  40  47
ENDBRANCH  36  37
ENDBRANCH  12  36
TORSDOF 12
ENDMDL
MODEL 4
REMARK minimizedAffinity -7.71081114
REMARK CNNscore 0.18752256
REMARK CNNaffinity 7.04835653
REMARK  12 active torsions:
REMARK  status: ('A' for Active; 'I' for Inactive)
REMARK    1  A    between atoms: C2_2  and  C3_3 
REMARK    2  A    between atoms: C6_6  and  C7_7 
REMARK    3  A    between atoms: C7_7  and  C8_8 
REMARK    4  A    between atoms: C15_19  and  C16_20 
REMARK    5  A    between atoms: C16_20  and  C17_21 
REMARK    6  A    between atoms: C18_22  and  C19_23 
REMARK    7  A    between atoms: C21_25  and  C22_26 
REMARK    8  A    between atoms: C23_28  and  C24_29 
REMARK    9  A    between atoms: C27_34  and  C28_35 
REMARK   10  A    between atoms: C28_35  and  C29_36 
REMARK   11  A    between atoms: C29_36  and  C30_37 
REMARK   12  A    between atoms: C30_37  and  O5_39 
ROOT
HETATM    1  C8  UNL     1      -3.281   7.767  13.970  1.00  0.00     0.016 C 
HETATM    2  N1  UNL     1      -3.413   8.869  14.651  1.00  0.00    -0.362 N 
ATOM      3  H1  UNL     1      -4.273   9.406  14.770  1.00  0.00     0.165 HD
HETATM    4  C9  UNL     1      -2.180   9.177  15.182  1.00  0.00     0.023 C 
HETATM    5  C10 UNL     1      -2.080   9.983  16.250  1.00  0.00    -0.000 A 
HETATM    6  C11 UNL     1      -3.292  10.719  16.880  1.00  0.00     0.127 A 
HETATM    7  C12 UNL     1      -2.580  11.565  17.976  1.00  0.00     0.166 A 
HETATM    8  O1  UNL     1      -3.123  12.348  18.744  1.00  0.00    -0.292 OA
HETATM    9  C13 UNL     1      -1.163  11.262  17.948  1.00  0.00     0.045 A 
HETATM   10  C14 UNL     1      -0.923  10.354  16.959  1.00  0.00     0.055 A 
HETATM   11  N2  UNL     1       0.384  10.024  16.959  1.00  0.00    -0.357 N 
HETATM   12  C15 UNL     1       1.018  10.785  17.940  1.00  0.00     0.022 A 
HETATM   13  C25 UNL     1       0.053  11.572  18.581  1.00  0.00    -0.023 A 
HETATM   14  C26 UNL     1       0.225  12.533  19.700  1.00  0.00     0.051 C 
HETATM   15  C27 UNL     1      -1.099   8.419  14.445  1.00  0.00     0.046 C 
HETATM   16  C32 UNL     1      -1.892   7.169  14.009  1.00  0.00     0.041 C 
HETATM   17  C33 UNL     1      -1.819   6.053  15.050  1.00  0.00     0.017 C 
HETATM   18  H10 UNL     1       0.846   9.340  16.377  1.00  0.00     0.166 HD
ENDROOT
BRANCH  15  19
HETATM   19  C28 UNL     1      -0.576   9.168  13.199  1.00  0.00     0.021 C 
BRANCH  19  20
HETATM   20  C29 UNL     1       0.924   9.011  12.943  1.00  0.00     0.112 C 
BRANCH  20  21
HETATM   21  C30 UNL     1       1.530   7.969  13.856  1.00  0.00     0.258 C 
HETATM   22  O4  UNL     1       1.539   6.767  13.635  1.00  0.00    -0.265 OA
BRANCH  21  23
HETATM   23  O5  UNL     1       2.013   8.566  14.981  1.00  0.00    -0.326 OA
HETATM   24  C31 UNL     1       3.175   7.935  15.523  1.00  0.00     0.213 C 
ENDBRANCH  21  23
ENDBRANCH  20  21
ENDBRANCH  19  20
ENDBRANCH  15  19
BRANCH   1  25
HETATM   25  C7  UNL     1      -4.444   7.184  13.264  1.00  0.00     0.055 C 
BRANCH  25  26
HETATM   26  C6  UNL     1      -5.531   6.551  13.718  1.00  0.00     0.043 A 
HETATM   27  C4  UNL     1      -6.618   7.135  14.496  1.00  0.00    -0.019 A 
HETATM   28  C3  UNL     1      -7.551   6.204  14.798  1.00  0.00     0.039 A 
HETATM   29  C5  UNL     1      -6.621   8.585  14.864  1.00  0.00     0.052 C 
HETATM   30  C34 UNL     1      -7.053   4.933  14.183  1.00  0.00     0.256 A 
HETATM   31  N4  UNL     1      -5.863   5.244  13.568  1.00  0.00    -0.322 N 
HETATM   32  O6  UNL     1      -7.568   3.831  14.205  1.00  0.00    -0.267 OA
HETATM   33  H36 UNL     1      -5.348   4.526  13.090  1.00  0.00     0.169 HD
BRANCH  28  34
HETATM   34  C2  UNL     1      -8.771   6.369  15.549  1.00  0.00     0.007 C 
HETATM   35  C1  UNL     1      -9.893   6.964  15.126  1.00  0.00     0.012 C 
ENDBRANCH  28  34
ENDBRANCH  25  26
ENDBRANCH   1  25
BRANCH  12  36
HETATM   36  C16 UNL     1       2.497  10.674  18.150  1.00  0.00     0.115 C 
BRANCH  36  37
HETATM   37  C17 UNL     1       2.855  10.550  19.601  1.00  0.00     0.022 A 
HETATM   38  C18 UNL     1       3.695  11.301  20.412  1.00  0.00    -0.020 A 
HETATM   39  C21 UNL     1       3.643  10.717  21.729  1.00  0.00     0.040 A 
HETATM   40  C23 UNL     1       2.770   9.639  21.667  1.00  0.00     0.084 A 
HETATM   41  N3  UNL     1       2.333   9.541  20.369  1.00  0.00    -0.356 N 
HETATM   42  H20 UNL     1       1.704   8.812  20.051  1.00  0.00     0.166 HD
BRANCH  38  43
HETATM   43  C19 UNL     1       4.499  12.496  19.992  1.00  0.00     0.037 C 
HETATM   44  C20 UNL     1       5.947  12.146  19.682  1.00  0.00     0.010 C 
ENDBRANCH  38  43
BRANCH  39  45
HETATM   45  C22 UNL     1       4.359  11.158  22.918  1.00  0.00     0.273 C 
HETATM   46  O2  UNL     1       5.579  11.102  23.037  1.00  0.00    -0.301 OA
ENDBRANCH  39  45
BRANCH  40  47
HETATM   47  C24 UNL     1       2.319   8.708  22.676  1.00  0.00     0.288 C 
HETATM   48  O3  UNL     1       1.759   7.652  22.392  1.00  0.00    -0.300 OA
ENDBRANCH  40  47
ENDBRANCH  36  37
ENDBRANCH  12  36
TORSDOF 12
ENDMDL
MODEL 5
REMARK minimizedAffinity -8.48837376
REMARK CNNscore 0.14169763
REMARK CNNaffinity 6.65623093
REMARK  12 active torsions:
REMARK  status: ('A' for Active; 'I' for Inactive)
REMARK    1  A    between atoms: C2_2  and  C3_3 
REMARK    2  A    between atoms: C6_6  and  C7_7 
REMARK    3  A    between atoms: C7_7  and  C8_8 
REMARK    4  A    between atoms: C15_19  and  C16_20 
REMARK    5  A    between atoms: C16_20  and  C17_21 
REMARK    6  A    between atoms: C18_22  and  C19_23 
REMARK    7  A    between atoms: C21_25  and  C22_26 
REMARK    8  A    between atoms: C23_28  and  C24_29 
REMARK    9  A    between atoms: C27_34  and  C28_35 
REMARK   10  A    between atoms: C28_35  and  C29_36 
REMARK   11  A    between atoms: C29_36  and  C30_37 
REMARK   12  A    between atoms: C30_37  and  O5_39 
ROOT
HETATM    1  C8  UNL     1      -7.599   5.603  13.709  1.00  0.00     0.016 C 
HETATM    2  N1  UNL     1      -8.677   6.206  13.296  1.00  0.00    -0.362 N 
ATOM      3  H1  UNL     1      -9.147   6.059  12.403  1.00  0.00     0.165 HD
HETATM    4  C9  UNL     1      -9.067   7.079  14.288  1.00  0.00     0.023 C 
HETATM    5  C10 UNL     1     -10.335   7.515  14.353  1.00  0.00    -0.000 A 
HETATM    6  C11 UNL     1     -11.405   7.188  13.277  1.00  0.00     0.127 A 
HETATM    7  C12 UNL     1     -12.610   8.023  13.803  1.00  0.00     0.166 A 
HETATM    8  O1  UNL     1     -13.708   8.113  13.271  1.00  0.00    -0.292 OA
HETATM    9  C13 UNL     1     -12.219   8.671  15.040  1.00  0.00     0.045 A 
HETATM   10  C14 UNL     1     -10.924   8.349  15.320  1.00  0.00     0.055 A 
HETATM   11  N2  UNL     1     -10.567   8.902  16.496  1.00  0.00    -0.357 N 
HETATM   12  C15 UNL     1     -11.647   9.650  16.963  1.00  0.00     0.022 A 
HETATM   13  C25 UNL     1     -12.706   9.511  16.056  1.00  0.00    -0.023 A 
HETATM   14  C26 UNL     1     -14.069  10.097  16.115  1.00  0.00     0.051 C 
HETATM   15  C27 UNL     1      -7.915   7.333  15.234  1.00  0.00     0.046 C 
HETATM   16  C32 UNL     1      -7.156   5.995  15.102  1.00  0.00     0.041 C 
HETATM   17  C33 UNL     1      -7.631   4.964  16.124  1.00  0.00     0.017 C 
HETATM   18  H10 UNL     1      -9.690   8.797  16.985  1.00  0.00     0.166 HD
ENDROOT
BRANCH  15  19
HETATM   19  C28 UNL     1      -7.006   8.497  14.782  1.00  0.00     0.021 C 
BRANCH  19  20
HETATM   20  C29 UNL     1      -5.541   8.361  15.199  1.00  0.00     0.112 C 
BRANCH  20  21
HETATM   21  C30 UNL     1      -4.634   8.254  13.993  1.00  0.00     0.258 C 
HETATM   22  O4  UNL     1      -4.899   8.683  12.880  1.00  0.00    -0.265 OA
BRANCH  21  23
HETATM   23  O5  UNL     1      -3.508   7.561  14.322  1.00  0.00    -0.326 OA
HETATM   24  C31 UNL     1      -2.625   8.265  15.197  1.00  0.00     0.213 C 
ENDBRANCH  21  23
ENDBRANCH  20  21
ENDBRANCH  19  20
ENDBRANCH  15  19
BRANCH   1  25
HETATM   25  C7  UNL     1      -6.928   4.604  12.848  1.00  0.00     0.055 C 
BRANCH  25  26
HETATM   26  C6  UNL     1      -5.639   4.282  12.704  1.00  0.00     0.043 A 
HETATM   27  C4  UNL     1      -5.106   3.078  12.074  1.00  0.00    -0.019 A 
HETATM   28  C3  UNL     1      -3.754   3.070  12.114  1.00  0.00     0.039 A 
HETATM   29  C5  UNL     1      -6.009   2.042  11.486  1.00  0.00     0.052 C 
HETATM   30  C34 UNL     1      -3.372   4.342  12.805  1.00  0.00     0.256 A 
HETATM   31  N4  UNL     1      -4.550   4.985  13.106  1.00  0.00    -0.322 N 
HETATM   32  O6  UNL     1      -2.258   4.754  13.067  1.00  0.00    -0.267 OA
HETATM   33  H36 UNL     1      -4.526   5.868  13.584  1.00  0.00     0.169 HD
BRANCH  28  34
HETATM   34  C2  UNL     1      -2.849   2.068  11.608  1.00  0.00     0.007 C 
HETATM   35  C1  UNL     1      -1.733   2.285  10.901  1.00  0.00     0.012 C 
ENDBRANCH  28  34
ENDBRANCH  25  26
ENDBRANCH   1  25
BRANCH  12  36
HETATM   36  C16 UNL     1     -11.538  10.428  18.239  1.00  0.00     0.115 C 
BRANCH  36  37
HETATM   37  C17 UNL     1     -11.993   9.633  19.426  1.00  0.00     0.022 A 
HETATM   38  C18 UNL     1     -11.672   9.721  20.775  1.00  0.00    -0.020 A 
HETATM   39  C21 UNL     1     -12.422   8.695  21.455  1.00  0.00     0.040 A 
HETATM   40  C23 UNL     1     -13.173   8.030  20.495  1.00  0.00     0.084 A 
HETATM   41  N3  UNL     1     -12.875   8.593  19.279  1.00  0.00    -0.356 N 
HETATM   42  H20 UNL     1     -13.272   8.265  18.405  1.00  0.00     0.166 HD
BRANCH  38  43
HETATM   43  C19 UNL     1     -10.724  10.702  21.399  1.00  0.00     0.037 C 
HETATM   44  C20 UNL     1     -11.005  10.926  22.878  1.00  0.00     0.010 C 
ENDBRANCH  38  43
BRANCH  39  45
HETATM   45  C22 UNL     1     -12.414   8.397  22.880  1.00  0.00     0.273 C 
HETATM   46  O2  UNL     1     -11.818   7.445  23.372  1.00  0.00    -0.301 OA
ENDBRANCH  39  45
BRANCH  40  47
HETATM   47  C24 UNL     1     -14.118   6.941  20.599  1.00  0.00     0.288 C 
HETATM   48  O3  UNL     1     -14.929   6.688  19.712  1.00  0.00    -0.300 OA
ENDBRANCH  40  47
ENDBRANCH  36  37
ENDBRANCH  12  36
TORSDOF 12
ENDMDL
MODEL 6
REMARK minimizedAffinity -8.67235279
REMARK CNNscore 0.117203854
REMARK CNNaffinity 7.47924662
REMARK  12 active torsions:
REMARK  status: ('A' for Active; 'I' for Inactive)
REMARK    1  A    between atoms: C2_2  and  C3_3 
REMARK    2  A    between atoms: C6_6  and  C7_7 
REMARK    3  A    between atoms: C7_7  and  C8_8 
REMARK    4  A    between atoms: C15_19  and  C16_20 
REMARK    5  A    between atoms: C16_20  and  C17_21 
REMARK    6  A    between atoms: C18_22  and  C19_23 
REMARK    7  A    between atoms: C21_25  and  C22_26 
REMARK    8  A    between atoms: C23_28  and  C24_29 
REMARK    9  A    between atoms: C27_34  and  C28_35 
REMARK   10  A    between atoms: C28_35  and  C29_36 
REMARK   11  A    between atoms: C29_36  and  C30_37 
REMARK   12  A    between atoms: C30_37  and  O5_39 
ROOT
HETATM    1  C8  UNL     1      -5.957   5.575  13.803  1.00  0.00     0.016 C 
HETATM    2  N1  UNL     1      -5.078   4.684  13.442  1.00  0.00    -0.362 N 
ATOM      3  H1  UNL     1      -5.267   3.709  13.208  1.00  0.00     0.165 HD
HETATM    4  C9  UNL     1      -3.846   5.299  13.435  1.00  0.00     0.023 C 
HETATM    5  C10 UNL     1      -2.834   4.790  12.715  1.00  0.00    -0.000 A 
HETATM    6  C11 UNL     1      -2.922   3.439  11.958  1.00  0.00     0.127 A 
HETATM    7  C12 UNL     1      -1.466   3.314  11.417  1.00  0.00     0.166 A 
HETATM    8  O1  UNL     1      -1.022   2.382  10.760  1.00  0.00    -0.292 OA
HETATM    9  C13 UNL     1      -0.723   4.495  11.811  1.00  0.00     0.045 A 
HETATM   10  C14 UNL     1      -1.539   5.311  12.539  1.00  0.00     0.055 A 
HETATM   11  N2  UNL     1      -0.874   6.437  12.864  1.00  0.00    -0.357 N 
HETATM   12  C15 UNL     1       0.429   6.320  12.380  1.00  0.00     0.022 A 
HETATM   13  C25 UNL     1       0.541   5.098  11.705  1.00  0.00    -0.023 A 
HETATM   14  C26 UNL     1       1.718   4.524  11.004  1.00  0.00     0.051 C 
HETATM   15  C27 UNL     1      -3.903   6.577  14.242  1.00  0.00     0.046 C 
HETATM   16  C32 UNL     1      -5.387   6.955  14.047  1.00  0.00     0.041 C 
HETATM   17  C33 UNL     1      -5.595   7.843  12.821  1.00  0.00     0.017 C 
HETATM   18  H10 UNL     1      -1.233   7.244  13.354  1.00  0.00     0.166 HD
ENDROOT
BRANCH  15  19
HETATM   19  C28 UNL     1      -3.611   6.359  15.743  1.00  0.00     0.021 C 
BRANCH  19  20
HETATM   20  C29 UNL     1      -2.556   7.297  16.331  1.00  0.00     0.112 C 
BRANCH  20  21
HETATM   21  C30 UNL     1      -2.387   8.535  15.480  1.00  0.00     0.258 C 
HETATM   22  O4  UNL     1      -1.491   8.709  14.668  1.00  0.00    -0.265 OA
BRANCH  21  23
HETATM   23  O5  UNL     1      -3.350   9.447  15.795  1.00  0.00    -0.326 OA
HETATM   24  C31 UNL     1      -3.177  10.057  17.075  1.00  0.00     0.213 C 
ENDBRANCH  21  23
ENDBRANCH  20  21
ENDBRANCH  19  20
ENDBRANCH  15  19
BRANCH   1  25
HETATM   25  C7  UNL     1      -7.386   5.207  13.918  1.00  0.00     0.055 C 
BRANCH  25  26
HETATM   26  C6  UNL     1      -8.486   5.957  14.038  1.00  0.00     0.043 A 
HETATM   27  C4  UNL     1      -9.397   6.347  12.967  1.00  0.00    -0.019 A 
HETATM   28  C3  UNL     1     -10.401   7.118  13.442  1.00  0.00     0.039 A 
HETATM   29  C5  UNL     1      -9.173   5.905  11.556  1.00  0.00     0.052 C 
HETATM   30  C34 UNL     1     -10.142   7.241  14.911  1.00  0.00     0.256 A 
HETATM   31  N4  UNL     1      -8.998   6.520  15.162  1.00  0.00    -0.322 N 
HETATM   32  O6  UNL     1     -10.787   7.850  15.744  1.00  0.00    -0.267 OA
HETATM   33  H36 UNL     1      -8.636   6.472  16.098  1.00  0.00     0.169 HD
BRANCH  28  34
HETATM   34  C2  UNL     1     -11.498   7.708  12.716  1.00  0.00     0.007 C 
HETATM   35  C1  UNL     1     -12.798   7.427  12.869  1.00  0.00     0.012 C 
ENDBRANCH  28  34
ENDBRANCH  25  26
ENDBRANCH   1  25
BRANCH  12  36
HETATM   36  C16 UNL     1       1.431   7.406  12.629  1.00  0.00     0.115 C 
BRANCH  36  37
HETATM   37  C17 UNL     1       2.186   7.773  11.387  1.00  0.00     0.022 A 
HETATM   38  C18 UNL     1       1.792   7.860  10.057  1.00  0.00    -0.020 A 
HETATM   39  C21 UNL     1       2.949   8.267   9.300  1.00  0.00     0.040 A 
HETATM   40  C23 UNL     1       3.997   8.418  10.198  1.00  0.00     0.084 A 
HETATM   41  N3  UNL     1       3.521   8.085  11.442  1.00  0.00    -0.356 N 
HETATM   42  H20 UNL     1       4.101   8.084  12.274  1.00  0.00     0.166 HD
BRANCH  38  43
HETATM   43  C19 UNL     1       0.419   7.583   9.519  1.00  0.00     0.037 C 
HETATM   44  C20 UNL     1      -0.362   8.857   9.230  1.00  0.00     0.010 C 
ENDBRANCH  38  43
BRANCH  39  45
HETATM   45  C22 UNL     1       3.027   8.490   7.863  1.00  0.00     0.273 C 
HETATM   46  O2  UNL     1       2.226   8.025   7.059  1.00  0.00    -0.301 OA
ENDBRANCH  39  45
BRANCH  40  47
HETATM   47  C24 UNL     1       5.370   8.827  10.012  1.00  0.00     0.288 C 
HETATM   48  O3  UNL     1       5.724  10.000  10.101  1.00  0.00    -0.300 OA
ENDBRANCH  40  47
ENDBRANCH  36  37
ENDBRANCH  12  36
TORSDOF 12
ENDMDL
MODEL 7
REMARK minimizedAffinity -8.16555977
REMARK CNNscore 0.108620271
REMARK CNNaffinity 6.01356173
REMARK  12 active torsions:
REMARK  status: ('A' for Active; 'I' for Inactive)
REMARK    1  A    between atoms: C2_2  and  C3_3 
REMARK    2  A    between atoms: C6_6  and  C7_7 
REMARK    3  A    between atoms: C7_7  and  C8_8 
REMARK    4  A    between atoms: C15_19  and  C16_20 
REMARK    5  A    between atoms: C16_20  and  C17_21 
REMARK    6  A    between atoms: C18_22  and  C19_23 
REMARK    7  A    between atoms: C21_25  and  C22_26 
REMARK    8  A    between atoms: C23_28  and  C24_29 
REMARK    9  A    between atoms: C27_34  and  C28_35 
REMARK   10  A    between atoms: C28_35  and  C29_36 
REMARK   11  A    between atoms: C29_36  and  C30_37 
REMARK   12  A    between atoms: C30_37  and  O5_39 
ROOT
HETATM    1  C8  UNL     1       1.509   8.790  13.013  1.00  0.00     0.016 C 
HETATM    2  N1  UNL     1       1.218   9.935  13.563  1.00  0.00    -0.362 N 
ATOM      3  H1  UNL     1       0.760  10.724  13.108  1.00  0.00     0.165 HD
HETATM    4  C9  UNL     1       1.641   9.883  14.873  1.00  0.00     0.023 C 
HETATM    5  C10 UNL     1       1.116  10.708  15.792  1.00  0.00    -0.000 A 
HETATM    6  C11 UNL     1       0.116  11.843  15.446  1.00  0.00     0.127 A 
HETATM    7  C12 UNL     1      -0.052  12.516  16.842  1.00  0.00     0.166 A 
HETATM    8  O1  UNL     1      -0.742  13.496  17.087  1.00  0.00    -0.292 OA
HETATM    9  C13 UNL     1       0.736  11.778  17.809  1.00  0.00     0.045 A 
HETATM   10  C14 UNL     1       1.376  10.756  17.174  1.00  0.00     0.055 A 
HETATM   11  N2  UNL     1       2.069  10.031  18.074  1.00  0.00    -0.357 N 
HETATM   12  C15 UNL     1       1.918  10.637  19.320  1.00  0.00     0.022 A 
HETATM   13  C25 UNL     1       1.071  11.743  19.174  1.00  0.00    -0.023 A 
HETATM   14  C26 UNL     1       0.594  12.697  20.207  1.00  0.00     0.051 C 
HETATM   15  C27 UNL     1       2.637   8.758  15.049  1.00  0.00     0.046 C 
HETATM   16  C32 UNL     1       2.149   7.789  13.950  1.00  0.00     0.041 C 
HETATM   17  C33 UNL     1       1.105   6.806  14.477  1.00  0.00     0.017 C 
HETATM   18  H10 UNL     1       2.598   9.186  17.908  1.00  0.00     0.166 HD
ENDROOT
BRANCH  15  19
HETATM   19  C28 UNL     1       4.092   9.189  14.759  1.00  0.00     0.021 C 
BRANCH  19  20
HETATM   20  C29 UNL     1       5.001   8.066  14.256  1.00  0.00     0.112 C 
BRANCH  20  21
HETATM   21  C30 UNL     1       6.449   8.337  14.597  1.00  0.00     0.258 C 
HETATM   22  O4  UNL     1       6.856   9.332  15.178  1.00  0.00    -0.265 OA
BRANCH  21  23
HETATM   23  O5  UNL     1       7.234   7.336  14.109  1.00  0.00    -0.326 OA
HETATM   24  C31 UNL     1       8.587   7.723  13.865  1.00  0.00     0.213 C 
ENDBRANCH  21  23
ENDBRANCH  20  21
ENDBRANCH  19  20
ENDBRANCH  15  19
BRANCH   1  25
HETATM   25  C7  UNL     1       1.186   8.545  11.590  1.00  0.00     0.055 C 
BRANCH  25  26
HETATM   26  C6  UNL     1       1.803   7.815  10.655  1.00  0.00     0.043 A 
HETATM   27  C4  UNL     1       1.421   7.692   9.252  1.00  0.00    -0.019 A 
HETATM   28  C3  UNL     1       2.260   6.862   8.593  1.00  0.00     0.039 A 
HETATM   29  C5  UNL     1       0.241   8.426   8.700  1.00  0.00     0.052 C 
HETATM   30  C34 UNL     1       3.256   6.414   9.617  1.00  0.00     0.256 A 
HETATM   31  N4  UNL     1       2.904   7.034  10.794  1.00  0.00    -0.322 N 
HETATM   32  O6  UNL     1       4.196   5.654   9.476  1.00  0.00    -0.267 OA
HETATM   33  H36 UNL     1       3.443   6.866  11.624  1.00  0.00     0.169 HD
BRANCH  28  34
HETATM   34  C2  UNL     1       2.229   6.473   7.205  1.00  0.00     0.007 C 
HETATM   35  C1  UNL     1       1.728   7.185   6.188  1.00  0.00     0.012 C 
ENDBRANCH  28  34
ENDBRANCH  25  26
ENDBRANCH   1  25
BRANCH  12  36
HETATM   36  C16 UNL     1       2.615  10.082  20.525  1.00  0.00     0.115 C 
BRANCH  36  37
HETATM   37  C17 UNL     1       3.746  10.957  20.976  1.00  0.00     0.022 A 
HETATM   38  C18 UNL     1       4.506  10.959  22.139  1.00  0.00    -0.020 A 
HETATM   39  C21 UNL     1       5.462  12.031  22.017  1.00  0.00     0.040 A 
HETATM   40  C23 UNL     1       5.249  12.634  20.785  1.00  0.00     0.084 A 
HETATM   41  N3  UNL     1       4.192  11.989  20.190  1.00  0.00    -0.356 N 
HETATM   42  H20 UNL     1       3.816  12.260  19.288  1.00  0.00     0.166 HD
BRANCH  38  43
HETATM   43  C19 UNL     1       4.357  10.016  23.297  1.00  0.00     0.037 C 
HETATM   44  C20 UNL     1       2.988  10.111  23.954  1.00  0.00     0.010 C 
ENDBRANCH  38  43
BRANCH  39  45
HETATM   45  C22 UNL     1       6.473  12.424  22.989  1.00  0.00     0.273 C 
HETATM   46  O2  UNL     1       7.451  11.738  23.267  1.00  0.00    -0.301 OA
ENDBRANCH  39  45
BRANCH  40  47
HETATM   47  C24 UNL     1       5.917  13.732  20.124  1.00  0.00     0.288 C 
HETATM   48  O3  UNL     1       7.140  13.787  20.015  1.00  0.00    -0.300 OA
ENDBRANCH  40  47
ENDBRANCH  36  37
ENDBRANCH  12  36
TORSDOF 12
ENDMDL
MODEL 8
REMARK minimizedAffinity -8.98895454
REMARK CNNscore 0.10503272
REMARK CNNaffinity 6.51474428
REMARK  12 active torsions:
REMARK  status: ('A' for Active; 'I' for Inactive)
REMARK    1  A    between atoms: C2_2  and  C3_3 
REMARK    2  A    between atoms: C6_6  and  C7_7 
REMARK    3  A    between atoms: C7_7  and  C8_8 
REMARK    4  A    between atoms: C15_19  and  C16_20 
REMARK    5  A    between atoms: C16_20  and  C17_21 
REMARK    6  A    between atoms: C18_22  and  C19_23 
REMARK    7  A    between atoms: C21_25  and  C22_26 
REMARK    8  A    between atoms: C23_28  and  C24_29 
REMARK    9  A    between atoms: C27_34  and  C28_35 
REMARK   10  A    between atoms: C28_35  and  C29_36 
REMARK   11  A    between atoms: C29_36  and  C30_37 
REMARK   12  A    between atoms: C30_37  and  O5_39 
ROOT
HETATM    1  C8  UNL     1      -2.717   7.035  13.669  1.00  0.00     0.016 C 
HETATM    2  N1  UNL     1      -3.058   8.030  14.437  1.00  0.00    -0.362 N 
ATOM      3  H1  UNL     1      -4.008   8.354  14.620  1.00  0.00     0.165 HD
HETATM    4  C9  UNL     1      -1.900   8.563  14.959  1.00  0.00     0.023 C 
HETATM    5  C10 UNL     1      -1.933   9.293  16.085  1.00  0.00    -0.000 A 
HETATM    6  C11 UNL     1      -3.250   9.696  16.801  1.00  0.00     0.127 A 
HETATM    7  C12 UNL     1      -2.694  10.598  17.943  1.00  0.00     0.166 A 
HETATM    8  O1  UNL     1      -3.362  11.185  18.783  1.00  0.00    -0.292 OA
HETATM    9  C13 UNL     1      -1.247  10.618  17.855  1.00  0.00     0.045 A 
HETATM   10  C14 UNL     1      -0.856   9.858  16.792  1.00  0.00     0.055 A 
HETATM   11  N2  UNL     1       0.490   9.826  16.733  1.00  0.00    -0.357 N 
HETATM   12  C15 UNL     1       0.983  10.636  17.755  1.00  0.00     0.022 A 
HETATM   13  C25 UNL     1      -0.103  11.143  18.480  1.00  0.00    -0.023 A 
HETATM   14  C26 UNL     1      -0.098  12.036  19.666  1.00  0.00     0.051 C 
HETATM   15  C27 UNL     1      -0.711   8.117  14.138  1.00  0.00     0.046 C 
HETATM   16  C32 UNL     1      -1.231   6.757  13.625  1.00  0.00     0.041 C 
HETATM   17  C33 UNL     1      -0.872   5.613  14.573  1.00  0.00     0.017 C 
HETATM   18  H10 UNL     1       1.065   9.304  16.087  1.00  0.00     0.166 HD
ENDROOT
BRANCH  15  19
HETATM   19  C28 UNL     1      -0.417   9.050  12.943  1.00  0.00     0.021 C 
BRANCH  19  20
HETATM   20  C29 UNL     1      -0.373   8.351  11.584  1.00  0.00     0.112 C 
BRANCH  20  21
HETATM   21  C30 UNL     1       1.024   8.363  11.005  1.00  0.00     0.258 C 
HETATM   22  O4  UNL     1       2.044   8.131  11.636  1.00  0.00    -0.265 OA
BRANCH  21  23
HETATM   23  O5  UNL     1       0.977   8.726   9.692  1.00  0.00    -0.326 OA
HETATM   24  C31 UNL     1      -0.318   8.606   9.101  1.00  0.00     0.213 C 
ENDBRANCH  21  23
ENDBRANCH  20  21
ENDBRANCH  19  20
ENDBRANCH  15  19
BRANCH   1  25
HETATM   25  C7  UNL     1      -3.753   6.262  12.948  1.00  0.00     0.055 C 
BRANCH  25  26
HETATM   26  C6  UNL     1      -4.941   5.791  13.342  1.00  0.00     0.043 A 
HETATM   27  C4  UNL     1      -5.499   4.476  13.046  1.00  0.00    -0.019 A 
HETATM   28  C3  UNL     1      -6.729   4.338  13.591  1.00  0.00     0.039 A 
HETATM   29  C5  UNL     1      -4.740   3.471  12.239  1.00  0.00     0.052 C 
HETATM   30  C34 UNL     1      -6.997   5.635  14.290  1.00  0.00     0.256 A 
HETATM   31  N4  UNL     1      -5.884   6.418  14.089  1.00  0.00    -0.322 N 
HETATM   32  O6  UNL     1      -7.987   5.965  14.916  1.00  0.00    -0.267 OA
HETATM   33  H36 UNL     1      -5.854   7.346  14.473  1.00  0.00     0.169 HD
BRANCH  28  34
HETATM   34  C2  UNL     1      -7.614   3.202  13.531  1.00  0.00     0.007 C 
HETATM   35  C1  UNL     1      -7.494   2.140  12.725  1.00  0.00     0.012 C 
ENDBRANCH  28  34
ENDBRANCH  25  26
ENDBRANCH   1  25
BRANCH  12  36
HETATM   36  C16 UNL     1       2.458  10.839  17.918  1.00  0.00     0.115 C 
BRANCH  36  37
HETATM   37  C17 UNL     1       2.902  10.646  19.337  1.00  0.00     0.022 A 
HETATM   38  C18 UNL     1       3.881  11.278  20.093  1.00  0.00    -0.020 A 
HETATM   39  C21 UNL     1       3.856  10.677  21.403  1.00  0.00     0.040 A 
HETATM   40  C23 UNL     1       2.860   9.710  21.393  1.00  0.00     0.084 A 
HETATM   41  N3  UNL     1       2.321   9.689  20.130  1.00  0.00    -0.356 N 
HETATM   42  H20 UNL     1       1.590   9.045  19.851  1.00  0.00     0.166 HD
BRANCH  38  43
HETATM   43  C19 UNL     1       4.788  12.379  19.628  1.00  0.00     0.037 C 
HETATM   44  C20 UNL     1       5.975  11.860  18.829  1.00  0.00     0.010 C 
ENDBRANCH  38  43
BRANCH  39  45
HETATM   45  C22 UNL     1       4.702  11.009  22.541  1.00  0.00     0.273 C 
HETATM   46  O2  UNL     1       4.607  12.053  23.177  1.00  0.00    -0.301 OA
ENDBRANCH  39  45
BRANCH  40  47
HETATM   47  C24 UNL     1       2.376   8.819  22.423  1.00  0.00     0.288 C 
HETATM   48  O3  UNL     1       1.830   7.749  22.162  1.00  0.00    -0.300 OA
ENDBRANCH  40  47
ENDBRANCH  36  37
ENDBRANCH  12  36
TORSDOF 12
ENDMDL
MODEL 9
REMARK minimizedAffinity -7.4331851
REMARK CNNscore 0.0961578265
REMARK CNNaffinity 6.79563951
REMARK  12 active torsions:
REMARK  status: ('A' for Active; 'I' for Inactive)
REMARK    1  A    between atoms: C2_2  and  C3_3 
REMARK    2  A    between atoms: C6_6  and  C7_7 
REMARK    3  A    between atoms: C7_7  and  C8_8 
REMARK    4  A    between atoms: C15_19  and  C16_20 
REMARK    5  A    between atoms: C16_20  and  C17_21 
REMARK    6  A    between atoms: C18_22  and  C19_23 
REMARK    7  A    between atoms: C21_25  and  C22_26 
REMARK    8  A    between atoms: C23_28  and  C24_29 
REMARK    9  A    between atoms: C27_34  and  C28_35 
REMARK   10  A    between atoms: C28_35  and  C29_36 
REMARK   11  A    between atoms: C29_36  and  C30_37 
REMARK   12  A    between atoms: C30_37  and  O5_39 
ROOT
HETATM    1  C8  UNL     1      -2.804   7.059  13.853  1.00  0.00     0.016 C 
HETATM    2  N1  UNL     1      -2.781   7.462  15.091  1.00  0.00    -0.362 N 
ATOM      3  H1  UNL     1      -2.372   6.963  15.881  1.00  0.00     0.165 HD
HETATM    4  C9  UNL     1      -3.411   8.686  15.139  1.00  0.00     0.023 C 
HETATM    5  C10 UNL     1      -3.177   9.534  16.153  1.00  0.00    -0.000 A 
HETATM    6  C11 UNL     1      -2.309   9.169  17.386  1.00  0.00     0.127 A 
HETATM    7  C12 UNL     1      -2.482  10.452  18.252  1.00  0.00     0.166 A 
HETATM    8  O1  UNL     1      -1.995  10.642  19.358  1.00  0.00    -0.292 OA
HETATM    9  C13 UNL     1      -3.309  11.394  17.524  1.00  0.00     0.045 A 
HETATM   10  C14 UNL     1      -3.675  10.837  16.334  1.00  0.00     0.055 A 
HETATM   11  N2  UNL     1      -4.400  11.725  15.625  1.00  0.00    -0.357 N 
HETATM   12  C15 UNL     1      -4.554  12.871  16.405  1.00  0.00     0.022 A 
HETATM   13  C25 UNL     1      -3.865  12.682  17.610  1.00  0.00    -0.023 A 
HETATM   14  C26 UNL     1      -3.716  13.615  18.756  1.00  0.00     0.051 C 
HETATM   15  C27 UNL     1      -4.248   8.884  13.895  1.00  0.00     0.046 C 
HETATM   16  C32 UNL     1      -3.443   8.034  12.888  1.00  0.00     0.041 C 
HETATM   17  C33 UNL     1      -2.373   8.856  12.171  1.00  0.00     0.017 C 
HETATM   18  H10 UNL     1      -4.763  11.616  14.690  1.00  0.00     0.166 HD
ENDROOT
BRANCH  15  19
HETATM   19  C28 UNL     1      -5.679   8.318  14.032  1.00  0.00     0.021 C 
BRANCH  19  20
HETATM   20  C29 UNL     1      -6.145   8.105  15.473  1.00  0.00     0.112 C 
BRANCH  20  21
HETATM   21  C30 UNL     1      -7.654   8.050  15.560  1.00  0.00     0.258 C 
HETATM   22  O4  UNL     1      -8.409   8.922  15.158  1.00  0.00    -0.265 OA
BRANCH  21  23
HETATM   23  O5  UNL     1      -8.038   6.910  16.201  1.00  0.00    -0.326 OA
HETATM   24  C31 UNL     1      -6.996   5.944  16.348  1.00  0.00     0.213 C 
ENDBRANCH  21  23
ENDBRANCH  20  21
ENDBRANCH  19  20
ENDBRANCH  15  19
BRANCH   1  25
HETATM   25  C7  UNL     1      -2.209   5.756  13.482  1.00  0.00     0.055 C 
BRANCH  25  26
HETATM   26  C6  UNL     1      -2.556   4.854  12.558  1.00  0.00     0.043 A 
HETATM   27  C4  UNL     1      -3.887   4.300  12.336  1.00  0.00    -0.019 A 
HETATM   28  C3  UNL     1      -3.875   3.403  11.325  1.00  0.00     0.039 A 
HETATM   29  C5  UNL     1      -5.056   4.728  13.165  1.00  0.00     0.052 C 
HETATM   30  C34 UNL     1      -2.457   3.364  10.848  1.00  0.00     0.256 A 
HETATM   31  N4  UNL     1      -1.763   4.256  11.633  1.00  0.00    -0.322 N 
HETATM   32  O6  UNL     1      -1.977   2.692   9.955  1.00  0.00    -0.267 OA
HETATM   33  H36 UNL     1      -0.778   4.386  11.486  1.00  0.00     0.169 HD
BRANCH  28  34
HETATM   34  C2  UNL     1      -4.975   2.634  10.796  1.00  0.00     0.007 C 
HETATM   35  C1  UNL     1      -5.471   1.499  11.304  1.00  0.00     0.012 C 
ENDBRANCH  28  34
ENDBRANCH  25  26
ENDBRANCH   1  25
BRANCH  12  36
HETATM   36  C16 UNL     1      -5.360  14.029  15.901  1.00  0.00     0.115 C 
BRANCH  36  37
HETATM   37  C17 UNL     1      -4.494  15.133  15.372  1.00  0.00     0.022 A 
HETATM   38  C18 UNL     1      -4.442  16.489  15.668  1.00  0.00    -0.020 A 
HETATM   39  C21 UNL     1      -3.402  17.060  14.849  1.00  0.00     0.040 A 
HETATM   40  C23 UNL     1      -2.861  16.029  14.093  1.00  0.00     0.084 A 
HETATM   41  N3  UNL     1      -3.555  14.886  14.403  1.00  0.00    -0.356 N 
HETATM   42  H20 UNL     1      -3.373  13.991  13.962  1.00  0.00     0.166 HD
BRANCH  38  43
HETATM   43  C19 UNL     1      -5.305  17.215  16.658  1.00  0.00     0.037 C 
HETATM   44  C20 UNL     1      -4.814  17.054  18.089  1.00  0.00     0.010 C 
ENDBRANCH  38  43
BRANCH  39  45
HETATM   45  C22 UNL     1      -2.978  18.453  14.808  1.00  0.00     0.273 C 
HETATM   46  O2  UNL     1      -1.805  18.804  14.737  1.00  0.00    -0.301 OA
ENDBRANCH  39  45
BRANCH  40  47
HETATM   47  C24 UNL     1      -1.787  16.008  13.126  1.00  0.00     0.288 C 
HETATM   48  O3  UNL     1      -1.610  15.062  12.362  1.00  0.00    -0.300 OA
ENDBRANCH  40  47
ENDBRANCH  36  37
ENDBRANCH  12  36
TORSDOF 12
ENDMDL
