MODEL 1
REMARK minimizedAffinity -8.91101933
REMARK  9 active torsions:
REMARK  status: ('A' for Active; 'I' for Inactive)
REMARK    1  A    between atoms: C12_14  and  C13_15 
REMARK    2  A    between atoms: C13_15  and  C15_17 
REMARK    3  A    between atoms: C15_17  and  C16_18 
REMARK    4  A    between atoms: C16_18  and  C17_19 
REMARK    5  A    between atoms: C18_20  and  C20_22 
REMARK    6  A    between atoms: C26_29  and  C27_30 
REMARK    7  A    between atoms: C27_30  and  C28_31 
REMARK    8  A    between atoms: C28_31  and  C29_32 
REMARK    9  A    between atoms: C29_32  and  O5_34 
ROOT
HETATM    1  C1  UNL     1       6.511   6.990  10.616  1.00  0.00     0.025 C 
HETATM    2  C2  UNL     1       5.415   7.416  11.255  1.00  0.00     0.015 C 
HETATM    3  C3  UNL     1       5.381   7.645  12.719  1.00  0.00     0.289 C 
HETATM    4  O1  UNL     1       6.194   7.251  13.533  1.00  0.00    -0.260 OA
HETATM    5  O2  UNL     1       4.267   8.381  12.991  1.00  0.00    -0.311 OA
HETATM    6  C4  UNL     1       3.714   8.850  11.757  1.00  0.00     0.142 C 
HETATM    7  C5  UNL     1       2.218   9.098  11.866  1.00  0.00     0.039 C 
HETATM    8  C6  UNL     1       1.453   7.818  12.218  1.00  0.00     0.006 C 
HETATM    9  C7  UNL     1       1.714   6.717  11.158  1.00  0.00    -0.027 A 
HETATM   10  C8  UNL     1       0.483   6.181  10.420  1.00  0.00     0.011 C 
HETATM   11  C9  UNL     1      -0.803   5.982  11.244  1.00  0.00     0.011 C 
HETATM   12  C10 UNL     1      -0.795   6.662  12.621  1.00  0.00    -0.032 C 
HETATM   13  C11 UNL     1      -0.113   5.692  13.625  1.00  0.00     0.016 C 
HETATM   14  C12 UNL     1      -2.188   7.100  13.183  1.00  0.00    -0.002 C 
HETATM   15  C21 UNL     1      -1.847   8.285  14.129  1.00  0.00     0.006 C 
HETATM   16  C22 UNL     1      -0.392   8.696  13.835  1.00  0.00     0.011 C 
HETATM   17  C23 UNL     1      -0.065   8.048  12.475  1.00  0.00    -0.032 C 
HETATM   18  C24 UNL     1      -0.668   8.994  11.385  1.00  0.00     0.016 C 
HETATM   19  C25 UNL     1       2.779   5.707  11.523  1.00  0.00     0.022 A 
HETATM   20  C26 UNL     1       3.097   6.698  10.420  1.00  0.00    -0.021 A 
HETATM   21  C30 UNL     1       4.104   7.839  10.689  1.00  0.00     0.063 C 
ENDROOT
BRANCH  14  22
HETATM   22  C13 UNL     1      -3.225   6.099  13.776  1.00  0.00    -0.014 C 
HETATM   23  C14 UNL     1      -2.961   5.584  15.197  1.00  0.00     0.010 C 
BRANCH  22  24
HETATM   24  C15 UNL     1      -3.495   4.929  12.802  1.00  0.00     0.008 C 
BRANCH  24  25
HETATM   25  C16 UNL     1      -4.981   4.580  12.665  1.00  0.00     0.028 C 
BRANCH  25  26
HETATM   26  C17 UNL     1      -5.169   3.266  11.954  1.00  0.00    -0.017 C 
HETATM   27  C18 UNL     1      -6.219   2.427  12.024  1.00  0.00    -0.028 C 
HETATM   28  C19 UNL     1      -6.297   1.162  11.223  1.00  0.00     0.051 C 
BRANCH  27  29
HETATM   29  C20 UNL     1      -7.394   2.661  12.918  1.00  0.00     0.265 C 
HETATM   30  O3  UNL     1      -8.561   2.500  12.587  1.00  0.00    -0.302 OA
ENDBRANCH  27  29
ENDBRANCH  25  26
ENDBRANCH  24  25
ENDBRANCH  22  24
ENDBRANCH  14  22
BRANCH  20  31
HETATM   31  C27 UNL     1       3.164   6.215   8.956  1.00  0.00     0.021 C 
BRANCH  31  32
HETATM   32  C28 UNL     1       2.246   6.892   7.946  1.00  0.00     0.111 C 
BRANCH  32  33
HETATM   33  C29 UNL     1       2.335   8.391   7.969  1.00  0.00     0.139 C 
HETATM   34  O4  UNL     1       3.284   9.063   7.605  1.00  0.00    -0.650 OA
BRANCH  33  35
HETATM   35  O5  UNL     1       1.205   8.982   8.403  1.00  0.00    -0.776 OA
HETATM   36  H41 UNL     1       1.411   9.939   8.326  1.00  0.00     0.167 HD
ENDBRANCH  33  35
ENDBRANCH  32  33
ENDBRANCH  31  32
ENDBRANCH  20  31
TORSDOF 9
ENDMDL
MODEL 2
REMARK minimizedAffinity -8.86893654
REMARK  9 active torsions:
REMARK  status: ('A' for Active; 'I' for Inactive)
REMARK    1  A    between atoms: C12_14  and  C13_15 
REMARK    2  A    between atoms: C13_15  and  C15_17 
REMARK    3  A    between atoms: C15_17  and  C16_18 
REMARK    4  A    between atoms: C16_18  and  C17_19 
REMARK    5  A    between atoms: C18_20  and  C20_22 
REMARK    6  A    between atoms: C26_29  and  C27_30 
REMARK    7  A    between atoms: C27_30  and  C28_31 
REMARK    8  A    between atoms: C28_31  and  C29_32 
REMARK    9  A    between atoms: C29_32  and  O5_34 
ROOT
HETATM    1  C1  UNL     1       5.371   8.812   9.886  1.00  0.00     0.025 C 
HETATM    2  C2  UNL     1       4.250   8.085   9.942  1.00  0.00     0.015 C 
HETATM    3  C3  UNL     1       3.235   8.094   8.862  1.00  0.00     0.289 C 
HETATM    4  O1  UNL     1       3.142   8.906   7.962  1.00  0.00    -0.260 OA
HETATM    5  O2  UNL     1       2.417   7.022   9.061  1.00  0.00    -0.311 OA
HETATM    6  C4  UNL     1       2.998   6.182  10.064  1.00  0.00     0.142 C 
HETATM    7  C5  UNL     1       1.945   5.369  10.800  1.00  0.00     0.039 C 
HETATM    8  C6  UNL     1       0.936   6.266  11.525  1.00  0.00     0.006 C 
HETATM    9  C7  UNL     1       1.660   7.197  12.531  1.00  0.00    -0.027 A 
HETATM   10  C8  UNL     1       1.241   7.064  14.000  1.00  0.00     0.011 C 
HETATM   11  C9  UNL     1      -0.257   6.850  14.289  1.00  0.00     0.011 C 
HETATM   12  C10 UNL     1      -1.098   6.457  13.066  1.00  0.00    -0.032 C 
HETATM   13  C11 UNL     1      -1.521   7.765  12.341  1.00  0.00     0.016 C 
HETATM   14  C12 UNL     1      -2.366   5.586  13.352  1.00  0.00    -0.002 C 
HETATM   15  C21 UNL     1      -2.582   4.806  12.025  1.00  0.00     0.006 C 
HETATM   16  C22 UNL     1      -1.304   4.980  11.183  1.00  0.00     0.011 C 
HETATM   17  C23 UNL     1      -0.240   5.483  12.178  1.00  0.00    -0.032 C 
HETATM   18  C24 UNL     1       0.293   4.216  12.924  1.00  0.00     0.016 C 
HETATM   19  C25 UNL     1       1.943   8.596  12.030  1.00  0.00     0.022 A 
HETATM   20  C26 UNL     1       3.122   7.659  12.209  1.00  0.00    -0.021 A 
HETATM   21  C30 UNL     1       3.832   7.082  10.962  1.00  0.00     0.063 C 
ENDROOT
BRANCH  14  22
HETATM   22  C13 UNL     1      -3.678   6.160  13.966  1.00  0.00    -0.014 C 
HETATM   23  C14 UNL     1      -3.627   6.588  15.439  1.00  0.00     0.010 C 
BRANCH  22  24
HETATM   24  C15 UNL     1      -4.878   5.223  13.701  1.00  0.00     0.008 C 
BRANCH  24  25
HETATM   25  C16 UNL     1      -6.173   5.683  14.380  1.00  0.00     0.028 C 
BRANCH  25  26
HETATM   26  C17 UNL     1      -7.210   6.080  13.364  1.00  0.00    -0.017 C 
HETATM   27  C18 UNL     1      -7.944   5.278  12.570  1.00  0.00    -0.028 C 
HETATM   28  C19 UNL     1      -8.981   5.807  11.626  1.00  0.00     0.051 C 
BRANCH  27  29
HETATM   29  C20 UNL     1      -7.783   3.792  12.536  1.00  0.00     0.265 C 
HETATM   30  O3  UNL     1      -8.660   2.992  12.832  1.00  0.00    -0.302 OA
ENDBRANCH  27  29
ENDBRANCH  25  26
ENDBRANCH  24  25
ENDBRANCH  22  24
ENDBRANCH  14  22
BRANCH  20  31
HETATM   31  C27 UNL     1       4.113   7.892  13.369  1.00  0.00     0.021 C 
BRANCH  31  32
HETATM   32  C28 UNL     1       5.492   8.441  13.022  1.00  0.00     0.111 C 
BRANCH  32  33
HETATM   33  C29 UNL     1       6.585   7.418  13.127  1.00  0.00     0.139 C 
HETATM   34  O4  UNL     1       7.566   7.333  12.408  1.00  0.00    -0.650 OA
BRANCH  33  35
HETATM   35  O5  UNL     1       6.424   6.575  14.165  1.00  0.00    -0.776 OA
HETATM   36  H41 UNL     1       7.222   6.005  14.115  1.00  0.00     0.167 HD
ENDBRANCH  33  35
ENDBRANCH  32  33
ENDBRANCH  31  32
ENDBRANCH  20  31
TORSDOF 9
ENDMDL
MODEL 3
REMARK minimizedAffinity -8.58007717
REMARK  9 active torsions:
REMARK  status: ('A' for Active; 'I' for Inactive)
REMARK    1  A    between atoms: C12_14  and  C13_15 
REMARK    2  A    between atoms: C13_15  and  C15_17 
REMARK    3  A    between atoms: C15_17  and  C16_18 
REMARK    4  A    between atoms: C16_18  and  C17_19 
REMARK    5  A    between atoms: C18_20  and  C20_22 
REMARK    6  A    between atoms: C26_29  and  C27_30 
REMARK    7  A    between atoms: C27_30  and  C28_31 
REMARK    8  A    between atoms: C28_31  and  C29_32 
REMARK    9  A    between atoms: C29_32  and  O5_34 
ROOT
HETATM    1  C1  UNL     1       4.049   7.867   9.809  1.00  0.00     0.025 C 
HETATM    2  C2  UNL     1       2.930   7.265  10.226  1.00  0.00     0.015 C 
HETATM    3  C3  UNL     1       1.924   6.709   9.290  1.00  0.00     0.289 C 
HETATM    4  O1  UNL     1       1.836   6.940   8.099  1.00  0.00    -0.260 OA
HETATM    5  O2  UNL     1       1.108   5.887  10.008  1.00  0.00    -0.311 OA
HETATM    6  C4  UNL     1       1.683   5.688  11.304  1.00  0.00     0.142 C 
HETATM    7  C5  UNL     1       0.626   5.362  12.347  1.00  0.00     0.039 C 
HETATM    8  C6  UNL     1      -0.391   6.498  12.501  1.00  0.00     0.006 C 
HETATM    9  C7  UNL     1       0.321   7.819  12.887  1.00  0.00    -0.027 A 
HETATM   10  C8  UNL     1      -0.109   8.459  14.212  1.00  0.00     0.011 C 
HETATM   11  C9  UNL     1      -1.609   8.415  14.562  1.00  0.00     0.011 C 
HETATM   12  C10 UNL     1      -2.439   7.442  13.712  1.00  0.00    -0.032 C 
HETATM   13  C11 UNL     1      -2.860   8.186  12.414  1.00  0.00     0.016 C 
HETATM   14  C12 UNL     1      -3.706   6.833  14.399  1.00  0.00    -0.002 C 
HETATM   15  C21 UNL     1      -3.908   5.479  13.663  1.00  0.00     0.006 C 
HETATM   16  C22 UNL     1      -2.624   5.204  12.858  1.00  0.00     0.011 C 
HETATM   17  C23 UNL     1      -1.570   6.155  13.458  1.00  0.00    -0.032 C 
HETATM   18  C24 UNL     1      -1.040   5.458  14.753  1.00  0.00     0.016 C 
HETATM   19  C25 UNL     1       0.604   8.762  11.739  1.00  0.00     0.022 A 
HETATM   20  C26 UNL     1       1.785   8.060  12.381  1.00  0.00    -0.021 A 
HETATM   21  C30 UNL     1       2.506   6.928  11.614  1.00  0.00     0.063 C 
ENDROOT
BRANCH  14  22
HETATM   22  C13 UNL     1      -5.025   7.632  14.622  1.00  0.00    -0.014 C 
HETATM   23  C14 UNL     1      -4.886   9.110  15.011  1.00  0.00     0.010 C 
BRANCH  22  24
HETATM   24  C15 UNL     1      -5.974   6.890  15.591  1.00  0.00     0.008 C 
BRANCH  24  25
HETATM   25  C16 UNL     1      -7.312   6.499  14.955  1.00  0.00     0.028 C 
BRANCH  25  26
HETATM   26  C17 UNL     1      -7.371   5.022  14.672  1.00  0.00    -0.017 C 
HETATM   27  C18 UNL     1      -7.557   4.412  13.486  1.00  0.00    -0.028 C 
HETATM   28  C19 UNL     1      -7.551   2.920  13.337  1.00  0.00     0.051 C 
BRANCH  27  29
HETATM   29  C20 UNL     1      -7.809   5.155  12.214  1.00  0.00     0.265 C 
HETATM   30  O3  UNL     1      -8.869   5.690  11.921  1.00  0.00    -0.302 OA
ENDBRANCH  27  29
ENDBRANCH  25  26
ENDBRANCH  24  25
ENDBRANCH  22  24
ENDBRANCH  14  22
BRANCH  20  31
HETATM   31  C27 UNL     1       2.765   8.864  13.261  1.00  0.00     0.021 C 
BRANCH  31  32
HETATM   32  C28 UNL     1       3.785   8.082  14.080  1.00  0.00     0.111 C 
BRANCH  32  33
HETATM   33  C29 UNL     1       3.337   7.810  15.487  1.00  0.00     0.139 C 
HETATM   34  O4  UNL     1       3.057   8.645  16.329  1.00  0.00    -0.650 OA
BRANCH  33  35
HETATM   35  O5  UNL     1       3.211   6.496  15.758  1.00  0.00    -0.776 OA
HETATM   36  H41 UNL     1       2.885   6.491  16.684  1.00  0.00     0.167 HD
ENDBRANCH  33  35
ENDBRANCH  32  33
ENDBRANCH  31  32
ENDBRANCH  20  31
TORSDOF 9
ENDMDL
MODEL 4
REMARK minimizedAffinity -8.56204319
REMARK  9 active torsions:
REMARK  status: ('A' for Active; 'I' for Inactive)
REMARK    1  A    between atoms: C12_14  and  C13_15 
REMARK    2  A    between atoms: C13_15  and  C15_17 
REMARK    3  A    between atoms: C15_17  and  C16_18 
REMARK    4  A    between atoms: C16_18  and  C17_19 
REMARK    5  A    between atoms: C18_20  and  C20_22 
REMARK    6  A    between atoms: C26_29  and  C27_30 
REMARK    7  A    between atoms: C27_30  and  C28_31 
REMARK    8  A    between atoms: C28_31  and  C29_32 
REMARK    9  A    between atoms: C29_32  and  O5_34 
ROOT
HETATM    1  C1  UNL     1       5.541   7.746  12.769  1.00  0.00     0.025 C 
HETATM    2  C2  UNL     1       4.283   7.991  13.154  1.00  0.00     0.015 C 
HETATM    3  C3  UNL     1       3.886   8.082  14.579  1.00  0.00     0.289 C 
HETATM    4  O1  UNL     1       4.533   7.706  15.538  1.00  0.00    -0.260 OA
HETATM    5  O2  UNL     1       2.654   8.664  14.624  1.00  0.00    -0.311 OA
HETATM    6  C4  UNL     1       2.344   9.181  13.325  1.00  0.00     0.142 C 
HETATM    7  C5  UNL     1       0.844   9.254  13.089  1.00  0.00     0.039 C 
HETATM    8  C6  UNL     1       0.187   7.872  13.169  1.00  0.00     0.006 C 
HETATM    9  C7  UNL     1       0.822   6.907  12.135  1.00  0.00    -0.027 A 
HETATM   10  C8  UNL     1      -0.130   6.310  11.092  1.00  0.00     0.011 C 
HETATM   11  C9  UNL     1      -1.535   5.899  11.572  1.00  0.00     0.011 C 
HETATM   12  C10 UNL     1      -1.929   6.448  12.951  1.00  0.00    -0.032 C 
HETATM   13  C11 UNL     1      -1.378   5.471  14.026  1.00  0.00     0.016 C 
HETATM   14  C12 UNL     1      -3.457   6.680  13.191  1.00  0.00    -0.002 C 
HETATM   15  C21 UNL     1      -3.495   7.805  14.264  1.00  0.00     0.006 C 
HETATM   16  C22 UNL     1      -2.075   8.395  14.351  1.00  0.00     0.011 C 
HETATM   17  C23 UNL     1      -1.366   7.913  13.071  1.00  0.00    -0.032 C 
HETATM   18  C24 UNL     1      -1.818   8.882  11.930  1.00  0.00     0.016 C 
HETATM   19  C25 UNL     1       1.893   5.989  12.679  1.00  0.00     0.022 A 
HETATM   20  C26 UNL     1       2.327   7.105  11.748  1.00  0.00    -0.021 A 
HETATM   21  C30 UNL     1       3.093   8.319  12.320  1.00  0.00     0.063 C 
ENDROOT
BRANCH  14  22
HETATM   22  C13 UNL     1      -4.467   5.523  13.456  1.00  0.00    -0.014 C 
HETATM   23  C14 UNL     1      -4.299   4.248  12.619  1.00  0.00     0.010 C 
BRANCH  22  24
HETATM   24  C15 UNL     1      -5.926   6.030  13.410  1.00  0.00     0.008 C 
BRANCH  24  25
HETATM   25  C16 UNL     1      -6.750   5.633  14.640  1.00  0.00     0.028 C 
BRANCH  25  26
HETATM   26  C17 UNL     1      -8.149   6.182  14.560  1.00  0.00    -0.017 C 
HETATM   27  C18 UNL     1      -8.978   6.190  13.499  1.00  0.00    -0.028 C 
HETATM   28  C19 UNL     1     -10.373   6.735  13.568  1.00  0.00     0.051 C 
BRANCH  27  29
HETATM   29  C20 UNL     1      -8.584   5.682  12.150  1.00  0.00     0.265 C 
HETATM   30  O3  UNL     1      -9.131   5.998  11.102  1.00  0.00    -0.302 OA
ENDBRANCH  27  29
ENDBRANCH  25  26
ENDBRANCH  24  25
ENDBRANCH  22  24
ENDBRANCH  14  22
BRANCH  20  31
HETATM   31  C27 UNL     1       2.788   6.766  10.315  1.00  0.00     0.021 C 
BRANCH  31  32
HETATM   32  C28 UNL     1       3.836   5.671  10.149  1.00  0.00     0.111 C 
BRANCH  32  33
HETATM   33  C29 UNL     1       3.444   4.617   9.155  1.00  0.00     0.139 C 
HETATM   34  O4  UNL     1       3.333   4.766   7.951  1.00  0.00    -0.650 OA
BRANCH  33  35
HETATM   35  O5  UNL     1       3.259   3.405   9.714  1.00  0.00    -0.776 OA
HETATM   36  H41 UNL     1       3.048   2.835   8.944  1.00  0.00     0.167 HD
ENDBRANCH  33  35
ENDBRANCH  32  33
ENDBRANCH  31  32
ENDBRANCH  20  31
TORSDOF 9
ENDMDL
MODEL 5
REMARK minimizedAffinity -8.54683876
REMARK  9 active torsions:
REMARK  status: ('A' for Active; 'I' for Inactive)
REMARK    1  A    between atoms: C12_14  and  C13_15 
REMARK    2  A    between atoms: C13_15  and  C15_17 
REMARK    3  A    between atoms: C15_17  and  C16_18 
REMARK    4  A    between atoms: C16_18  and  C17_19 
REMARK    5  A    between atoms: C18_20  and  C20_22 
REMARK    6  A    between atoms: C26_29  and  C27_30 
REMARK    7  A    between atoms: C27_30  and  C28_31 
REMARK    8  A    between atoms: C28_31  and  C29_32 
REMARK    9  A    between atoms: C29_32  and  O5_34 
ROOT
HETATM    1  C1  UNL     1     -10.297   7.024  14.245  1.00  0.00     0.025 C 
HETATM    2  C2  UNL     1      -9.050   7.198  14.700  1.00  0.00     0.015 C 
HETATM    3  C3  UNL     1      -8.588   8.472  15.299  1.00  0.00     0.289 C 
HETATM    4  O1  UNL     1      -9.143   9.552  15.225  1.00  0.00    -0.260 OA
HETATM    5  O2  UNL     1      -7.420   8.216  15.953  1.00  0.00    -0.311 OA
HETATM    6  C4  UNL     1      -7.233   6.798  16.019  1.00  0.00     0.142 C 
HETATM    7  C5  UNL     1      -5.762   6.426  16.120  1.00  0.00     0.039 C 
HETATM    8  C6  UNL     1      -4.968   6.907  14.901  1.00  0.00     0.006 C 
HETATM    9  C7  UNL     1      -5.559   6.312  13.596  1.00  0.00    -0.027 A 
HETATM   10  C8  UNL     1      -4.610   5.452  12.753  1.00  0.00     0.011 C 
HETATM   11  C9  UNL     1      -3.148   5.922  12.637  1.00  0.00     0.011 C 
HETATM   12  C10 UNL     1      -2.737   7.000  13.650  1.00  0.00    -0.032 C 
HETATM   13  C11 UNL     1      -3.130   8.382  13.058  1.00  0.00     0.016 C 
HETATM   14  C12 UNL     1      -1.228   7.020  14.063  1.00  0.00    -0.002 C 
HETATM   15  C21 UNL     1      -1.244   7.648  15.485  1.00  0.00     0.006 C 
HETATM   16  C22 UNL     1      -2.709   7.652  15.962  1.00  0.00     0.011 C 
HETATM   17  C23 UNL     1      -3.435   6.671  15.021  1.00  0.00    -0.032 C 
HETATM   18  C24 UNL     1      -3.142   5.238  15.576  1.00  0.00     0.016 C 
HETATM   19  C25 UNL     1      -6.504   7.220  12.841  1.00  0.00     0.022 A 
HETATM   20  C26 UNL     1      -7.095   6.009  13.537  1.00  0.00    -0.021 A 
HETATM   21  C30 UNL     1      -7.946   6.205  14.813  1.00  0.00     0.063 C 
ENDROOT
BRANCH  14  22
HETATM   22  C13 UNL     1      -0.096   7.570  13.144  1.00  0.00    -0.014 C 
HETATM   23  C14 UNL     1       0.287   9.045  13.319  1.00  0.00     0.010 C 
BRANCH  22  24
HETATM   24  C15 UNL     1      -0.368   7.238  11.659  1.00  0.00     0.008 C 
BRANCH  24  25
HETATM   25  C16 UNL     1       0.824   6.586  10.951  1.00  0.00     0.028 C 
BRANCH  25  26
HETATM   26  C17 UNL     1       1.060   7.204   9.599  1.00  0.00    -0.017 C 
HETATM   27  C18 UNL     1       1.985   6.864   8.682  1.00  0.00    -0.028 C 
HETATM   28  C19 UNL     1       2.084   7.540   7.347  1.00  0.00     0.051 C 
BRANCH  27  29
HETATM   29  C20 UNL     1       3.013   5.804   8.910  1.00  0.00     0.265 C 
HETATM   30  O3  UNL     1       4.050   5.966   9.538  1.00  0.00    -0.302 OA
ENDBRANCH  27  29
ENDBRANCH  25  26
ENDBRANCH  24  25
ENDBRANCH  22  24
ENDBRANCH  14  22
BRANCH  20  31
HETATM   31  C27 UNL     1      -7.597   4.816  12.698  1.00  0.00     0.021 C 
BRANCH  31  32
HETATM   32  C28 UNL     1      -7.613   3.443  13.361  1.00  0.00     0.111 C 
BRANCH  32  33
HETATM   33  C29 UNL     1      -7.075   2.351  12.483  1.00  0.00     0.139 C 
HETATM   34  O4  UNL     1      -6.129   2.438  11.720  1.00  0.00    -0.650 OA
BRANCH  33  35
HETATM   35  O5  UNL     1      -7.719   1.178  12.641  1.00  0.00    -0.776 OA
HETATM   36  H41 UNL     1      -7.234   0.575  12.037  1.00  0.00     0.167 HD
ENDBRANCH  33  35
ENDBRANCH  32  33
ENDBRANCH  31  32
ENDBRANCH  20  31
TORSDOF 9
ENDMDL
MODEL 6
REMARK minimizedAffinity -8.52113914
REMARK  9 active torsions:
REMARK  status: ('A' for Active; 'I' for Inactive)
REMARK    1  A    between atoms: C12_14  and  C13_15 
REMARK    2  A    between atoms: C13_15  and  C15_17 
REMARK    3  A    between atoms: C15_17  and  C16_18 
REMARK    4  A    between atoms: C16_18  and  C17_19 
REMARK    5  A    between atoms: C18_20  and  C20_22 
REMARK    6  A    between atoms: C26_29  and  C27_30 
REMARK    7  A    between atoms: C27_30  and  C28_31 
REMARK    8  A    between atoms: C28_31  and  C29_32 
REMARK    9  A    between atoms: C29_32  and  O5_34 
ROOT
HETATM    1  C1  UNL     1       3.480   7.762  15.000  1.00  0.00     0.025 C 
HETATM    2  C2  UNL     1       2.211   8.186  15.040  1.00  0.00     0.015 C 
HETATM    3  C3  UNL     1       1.620   8.825  16.240  1.00  0.00     0.289 C 
HETATM    4  O1  UNL     1       2.076   8.813  17.367  1.00  0.00    -0.260 OA
HETATM    5  O2  UNL     1       0.463   9.432  15.851  1.00  0.00    -0.311 OA
HETATM    6  C4  UNL     1       0.404   9.432  14.420  1.00  0.00     0.142 C 
HETATM    7  C5  UNL     1      -1.029   9.473  13.914  1.00  0.00     0.039 C 
HETATM    8  C6  UNL     1      -1.831   8.253  14.376  1.00  0.00     0.006 C 
HETATM    9  C7  UNL     1      -1.155   6.943  13.895  1.00  0.00    -0.027 A 
HETATM   10  C8  UNL     1      -2.000   6.036  12.992  1.00  0.00     0.011 C 
HETATM   11  C9  UNL     1      -3.496   5.896  13.334  1.00  0.00     0.011 C 
HETATM   12  C10 UNL     1      -4.029   6.942  14.325  1.00  0.00    -0.032 C 
HETATM   13  C11 UNL     1      -3.748   6.421  15.762  1.00  0.00     0.016 C 
HETATM   14  C12 UNL     1      -5.544   7.310  14.190  1.00  0.00    -0.002 C 
HETATM   15  C21 UNL     1      -5.621   8.757  14.753  1.00  0.00     0.006 C 
HETATM   16  C22 UNL     1      -4.176   9.277  14.867  1.00  0.00     0.011 C 
HETATM   17  C23 UNL     1      -3.340   8.318  13.998  1.00  0.00    -0.032 C 
HETATM   18  C24 UNL     1      -3.515   8.802  12.521  1.00  0.00     0.016 C 
HETATM   19  C25 UNL     1      -0.278   6.255  14.917  1.00  0.00     0.022 A 
HETATM   20  C26 UNL     1       0.403   6.917  13.734  1.00  0.00    -0.021 A 
HETATM   21  C30 UNL     1       1.199   8.224  13.948  1.00  0.00     0.063 C 
ENDROOT
BRANCH  14  22
HETATM   22  C13 UNL     1      -6.697   6.382  14.677  1.00  0.00    -0.014 C 
HETATM   23  C14 UNL     1      -6.525   5.723  16.052  1.00  0.00     0.010 C 
BRANCH  22  24
HETATM   24  C15 UNL     1      -7.067   5.336  13.601  1.00  0.00     0.008 C 
BRANCH  24  25
HETATM   25  C16 UNL     1      -5.886   4.459  13.170  1.00  0.00     0.028 C 
BRANCH  25  26
HETATM   26  C17 UNL     1      -6.355   3.243  12.419  1.00  0.00    -0.017 C 
HETATM   27  C18 UNL     1      -5.619   2.379  11.695  1.00  0.00    -0.028 C 
HETATM   28  C19 UNL     1      -6.212   1.175  11.027  1.00  0.00     0.051 C 
BRANCH  27  29
HETATM   29  C20 UNL     1      -4.151   2.547  11.467  1.00  0.00     0.265 C 
HETATM   30  O3  UNL     1      -3.288   1.821  11.940  1.00  0.00    -0.302 OA
ENDBRANCH  27  29
ENDBRANCH  25  26
ENDBRANCH  24  25
ENDBRANCH  22  24
ENDBRANCH  14  22
BRANCH  20  31
HETATM   31  C27 UNL     1       1.033   6.043  12.629  1.00  0.00     0.021 C 
BRANCH  31  32
HETATM   32  C28 UNL     1       1.903   6.738  11.589  1.00  0.00     0.111 C 
BRANCH  32  33
HETATM   33  C29 UNL     1       1.443   6.509  10.178  1.00  0.00     0.139 C 
HETATM   34  O4  UNL     1       1.950   5.752   9.368  1.00  0.00    -0.650 OA
BRANCH  33  35
HETATM   35  O5  UNL     1       0.333   7.203   9.864  1.00  0.00    -0.776 OA
HETATM   36  H41 UNL     1       0.148   6.921   8.941  1.00  0.00     0.167 HD
ENDBRANCH  33  35
ENDBRANCH  32  33
ENDBRANCH  31  32
ENDBRANCH  20  31
TORSDOF 9
ENDMDL
MODEL 7
REMARK minimizedAffinity -8.1187439
REMARK  9 active torsions:
REMARK  status: ('A' for Active; 'I' for Inactive)
REMARK    1  A    between atoms: C12_14  and  C13_15 
REMARK    2  A    between atoms: C13_15  and  C15_17 
REMARK    3  A    between atoms: C15_17  and  C16_18 
REMARK    4  A    between atoms: C16_18  and  C17_19 
REMARK    5  A    between atoms: C18_20  and  C20_22 
REMARK    6  A    between atoms: C26_29  and  C27_30 
REMARK    7  A    between atoms: C27_30  and  C28_31 
REMARK    8  A    between atoms: C28_31  and  C29_32 
REMARK    9  A    between atoms: C29_32  and  O5_34 
ROOT
HETATM    1  C1  UNL     1      -6.244   6.484  15.543  1.00  0.00     0.025 C 
HETATM    2  C2  UNL     1      -5.023   6.994  15.350  1.00  0.00     0.015 C 
HETATM    3  C3  UNL     1      -4.755   8.452  15.353  1.00  0.00     0.289 C 
HETATM    4  O1  UNL     1      -5.581   9.341  15.264  1.00  0.00    -0.260 OA
HETATM    5  O2  UNL     1      -3.408   8.620  15.472  1.00  0.00    -0.311 OA
HETATM    6  C4  UNL     1      -2.815   7.357  15.797  1.00  0.00     0.142 C 
HETATM    7  C5  UNL     1      -1.370   7.276  15.334  1.00  0.00     0.039 C 
HETATM    8  C6  UNL     1      -1.249   7.427  13.814  1.00  0.00     0.006 C 
HETATM    9  C7  UNL     1      -2.081   6.337  13.091  1.00  0.00    -0.027 A 
HETATM   10  C8  UNL     1      -1.304   5.399  12.159  1.00  0.00     0.011 C 
HETATM   11  C9  UNL     1      -0.184   6.022  11.304  1.00  0.00     0.011 C 
HETATM   12  C10 UNL     1       0.245   7.432  11.736  1.00  0.00    -0.032 C 
HETATM   13  C11 UNL     1      -0.712   8.449  11.054  1.00  0.00     0.016 C 
HETATM   14  C12 UNL     1       1.728   7.826  11.430  1.00  0.00    -0.002 C 
HETATM   15  C21 UNL     1       2.056   8.892  12.513  1.00  0.00     0.006 C 
HETATM   16  C22 UNL     1       0.931   8.832  13.563  1.00  0.00     0.011 C 
HETATM   17  C23 UNL     1       0.222   7.488  13.308  1.00  0.00    -0.032 C 
HETATM   18  C24 UNL     1       1.090   6.396  14.014  1.00  0.00     0.016 C 
HETATM   19  C25 UNL     1      -3.452   6.773  12.625  1.00  0.00     0.022 A 
HETATM   20  C26 UNL     1      -3.378   5.798  13.785  1.00  0.00    -0.021 A 
HETATM   21  C30 UNL     1      -3.720   6.284  15.211  1.00  0.00     0.063 C 
ENDROOT
BRANCH  14  22
HETATM   22  C13 UNL     1       2.239   8.196  10.005  1.00  0.00    -0.014 C 
HETATM   23  C14 UNL     1       1.194   8.245   8.883  1.00  0.00     0.010 C 
BRANCH  22  24
HETATM   24  C15 UNL     1       3.450   7.327   9.600  1.00  0.00     0.008 C 
BRANCH  24  25
HETATM   25  C16 UNL     1       4.777   7.815  10.192  1.00  0.00     0.028 C 
BRANCH  25  26
HETATM   26  C17 UNL     1       4.753   7.767  11.696  1.00  0.00    -0.017 C 
HETATM   27  C18 UNL     1       5.788   7.575  12.537  1.00  0.00    -0.028 C 
HETATM   28  C19 UNL     1       5.630   7.594  14.028  1.00  0.00     0.051 C 
BRANCH  27  29
HETATM   29  C20 UNL     1       7.181   7.304  12.070  1.00  0.00     0.265 C 
HETATM   30  O3  UNL     1       7.473   6.899  10.953  1.00  0.00    -0.302 OA
ENDBRANCH  27  29
ENDBRANCH  25  26
ENDBRANCH  24  25
ENDBRANCH  22  24
ENDBRANCH  14  22
BRANCH  20  31
HETATM   31  C27 UNL     1      -3.791   4.327  13.572  1.00  0.00     0.021 C 
BRANCH  31  32
HETATM   32  C28 UNL     1      -4.734   4.017  12.415  1.00  0.00     0.111 C 
BRANCH  32  33
HETATM   33  C29 UNL     1      -4.234   2.926  11.514  1.00  0.00     0.139 C 
HETATM   34  O4  UNL     1      -3.164   2.350  11.603  1.00  0.00    -0.650 OA
BRANCH  33  35
HETATM   35  O5  UNL     1      -5.125   2.570  10.569  1.00  0.00    -0.776 OA
HETATM   36  H41 UNL     1      -4.669   1.839  10.097  1.00  0.00     0.167 HD
ENDBRANCH  33  35
ENDBRANCH  32  33
ENDBRANCH  31  32
ENDBRANCH  20  31
TORSDOF 9
ENDMDL
MODEL 8
REMARK minimizedAffinity -8.10262585
REMARK  9 active torsions:
REMARK  status: ('A' for Active; 'I' for Inactive)
REMARK    1  A    between atoms: C12_14  and  C13_15 
REMARK    2  A    between atoms: C13_15  and  C15_17 
REMARK    3  A    between atoms: C15_17  and  C16_18 
REMARK    4  A    between atoms: C16_18  and  C17_19 
REMARK    5  A    between atoms: C18_20  and  C20_22 
REMARK    6  A    between atoms: C26_29  and  C27_30 
REMARK    7  A    between atoms: C27_30  and  C28_31 
REMARK    8  A    between atoms: C28_31  and  C29_32 
REMARK    9  A    between atoms: C29_32  and  O5_34 
ROOT
HETATM    1  C1  UNL     1       2.182   5.541  10.266  1.00  0.00     0.025 C 
HETATM    2  C2  UNL     1       1.586   6.586  10.851  1.00  0.00     0.015 C 
HETATM    3  C3  UNL     1       2.270   7.885  11.055  1.00  0.00     0.289 C 
HETATM    4  O1  UNL     1       3.465   8.095  10.979  1.00  0.00    -0.260 OA
HETATM    5  O2  UNL     1       1.312   8.809  11.349  1.00  0.00    -0.311 OA
HETATM    6  C4  UNL     1       0.026   8.231  11.100  1.00  0.00     0.142 C 
HETATM    7  C5  UNL     1      -1.056   8.872  11.954  1.00  0.00     0.039 C 
HETATM    8  C6  UNL     1      -0.786   8.685  13.451  1.00  0.00     0.006 C 
HETATM    9  C7  UNL     1      -0.680   7.178  13.801  1.00  0.00    -0.027 A 
HETATM   10  C8  UNL     1      -1.685   6.650  14.831  1.00  0.00     0.011 C 
HETATM   11  C9  UNL     1      -2.016   7.563  16.027  1.00  0.00     0.011 C 
HETATM   12  C10 UNL     1      -1.563   9.022  15.866  1.00  0.00    -0.032 C 
HETATM   13  C11 UNL     1      -0.082   9.112  16.327  1.00  0.00     0.016 C 
HETATM   14  C12 UNL     1      -2.411  10.096  16.624  1.00  0.00    -0.002 C 
HETATM   15  C21 UNL     1      -2.206  11.387  15.783  1.00  0.00     0.006 C 
HETATM   16  C22 UNL     1      -1.564  10.962  14.449  1.00  0.00     0.011 C 
HETATM   17  C23 UNL     1      -1.792   9.440  14.366  1.00  0.00    -0.032 C 
HETATM   18  C24 UNL     1      -3.256   9.246  13.850  1.00  0.00     0.016 C 
HETATM   19  C25 UNL     1       0.727   6.630  13.884  1.00  0.00     0.022 A 
HETATM   20  C26 UNL     1      -0.133   6.190  12.715  1.00  0.00    -0.021 A 
HETATM   21  C30 UNL     1       0.173   6.731  11.299  1.00  0.00     0.063 C 
ENDROOT
BRANCH  14  22
HETATM   22  C13 UNL     1      -2.324  10.326  18.163  1.00  0.00    -0.014 C 
HETATM   23  C14 UNL     1      -3.625  10.700  18.885  1.00  0.00     0.010 C 
BRANCH  22  24
HETATM   24  C15 UNL     1      -1.187  11.310  18.519  1.00  0.00     0.008 C 
BRANCH  24  25
HETATM   25  C16 UNL     1      -0.187  10.745  19.534  1.00  0.00     0.028 C 
BRANCH  25  26
HETATM   26  C17 UNL     1       0.675  11.834  20.114  1.00  0.00    -0.017 C 
HETATM   27  C18 UNL     1       1.846  11.707  20.766  1.00  0.00    -0.028 C 
HETATM   28  C19 UNL     1       2.629  12.887  21.258  1.00  0.00     0.051 C 
BRANCH  27  29
HETATM   29  C20 UNL     1       2.466  10.384  21.083  1.00  0.00     0.265 C 
HETATM   30  O3  UNL     1       3.613  10.069  20.795  1.00  0.00    -0.302 OA
ENDBRANCH  27  29
ENDBRANCH  25  26
ENDBRANCH  24  25
ENDBRANCH  22  24
ENDBRANCH  14  22
BRANCH  20  31
HETATM   31  C27 UNL     1      -0.675   4.746  12.666  1.00  0.00     0.021 C 
BRANCH  31  32
HETATM   32  C28 UNL     1      -1.470   4.331  11.434  1.00  0.00     0.111 C 
BRANCH  32  33
HETATM   33  C29 UNL     1      -1.134   2.952  10.944  1.00  0.00     0.139 C 
HETATM   34  O4  UNL     1      -0.246   2.233  11.368  1.00  0.00    -0.650 OA
BRANCH  33  35
HETATM   35  O5  UNL     1      -1.964   2.517   9.977  1.00  0.00    -0.776 OA
HETATM   36  H41 UNL     1      -1.638   1.609   9.796  1.00  0.00     0.167 HD
ENDBRANCH  33  35
ENDBRANCH  32  33
ENDBRANCH  31  32
ENDBRANCH  20  31
TORSDOF 9
ENDMDL
MODEL 9
REMARK minimizedAffinity -8.10170841
REMARK  9 active torsions:
REMARK  status: ('A' for Active; 'I' for Inactive)
REMARK    1  A    between atoms: C12_14  and  C13_15 
REMARK    2  A    between atoms: C13_15  and  C15_17 
REMARK    3  A    between atoms: C15_17  and  C16_18 
REMARK    4  A    between atoms: C16_18  and  C17_19 
REMARK    5  A    between atoms: C18_20  and  C20_22 
REMARK    6  A    between atoms: C26_29  and  C27_30 
REMARK    7  A    between atoms: C27_30  and  C28_31 
REMARK    8  A    between atoms: C28_31  and  C29_32 
REMARK    9  A    between atoms: C29_32  and  O5_34 
ROOT
HETATM    1  C1  UNL     1       2.755   8.540  10.604  1.00  0.00     0.025 C 
HETATM    2  C2  UNL     1       1.631   7.859  10.857  1.00  0.00     0.015 C 
HETATM    3  C3  UNL     1       0.681   7.459   9.793  1.00  0.00     0.289 C 
HETATM    4  O1  UNL     1       0.642   7.891   8.656  1.00  0.00    -0.260 OA
HETATM    5  O2  UNL     1      -0.148   6.515  10.319  1.00  0.00    -0.311 OA
HETATM    6  C4  UNL     1       0.372   6.103  11.588  1.00  0.00     0.142 C 
HETATM    7  C5  UNL     1      -0.723   5.588  12.507  1.00  0.00     0.039 C 
HETATM    8  C6  UNL     1      -1.771   6.665  12.804  1.00  0.00     0.006 C 
HETATM    9  C7  UNL     1      -1.106   7.910  13.446  1.00  0.00    -0.027 A 
HETATM   10  C8  UNL     1      -1.610   8.305  14.838  1.00  0.00     0.011 C 
HETATM   11  C9  UNL     1      -3.123   8.180  15.103  1.00  0.00     0.011 C 
HETATM   12  C10 UNL     1      -3.892   7.357  14.059  1.00  0.00    -0.032 C 
HETATM   13  C11 UNL     1      -4.270   8.308  12.889  1.00  0.00     0.016 C 
HETATM   14  C12 UNL     1      -5.175   6.622  14.569  1.00  0.00    -0.002 C 
HETATM   15  C21 UNL     1      -5.314   5.412  13.602  1.00  0.00     0.006 C 
HETATM   16  C22 UNL     1      -3.989   5.298  12.825  1.00  0.00     0.011 C 
HETATM   17  C23 UNL     1      -2.984   6.146  13.630  1.00  0.00    -0.032 C 
HETATM   18  C24 UNL     1      -2.498   5.243  14.810  1.00  0.00     0.016 C 
HETATM   19  C25 UNL     1      -0.793   9.041  12.491  1.00  0.00     0.022 A 
HETATM   20  C26 UNL     1       0.373   8.255  13.059  1.00  0.00    -0.021 A 
HETATM   21  C30 UNL     1       1.153   7.282  12.145  1.00  0.00     0.063 C 
ENDROOT
BRANCH  14  22
HETATM   22  C13 UNL     1      -6.520   7.352  14.862  1.00  0.00    -0.014 C 
HETATM   23  C14 UNL     1      -7.064   7.258  16.294  1.00  0.00     0.010 C 
BRANCH  22  24
HETATM   24  C15 UNL     1      -7.604   6.968  13.830  1.00  0.00     0.008 C 
BRANCH  24  25
HETATM   25  C16 UNL     1      -8.867   6.373  14.463  1.00  0.00     0.028 C 
BRANCH  25  26
HETATM   26  C17 UNL     1     -10.084   6.659  13.624  1.00  0.00    -0.017 C 
HETATM   27  C18 UNL     1     -10.892   7.735  13.674  1.00  0.00    -0.028 C 
HETATM   28  C19 UNL     1     -12.054   7.916  12.743  1.00  0.00     0.051 C 
BRANCH  27  29
HETATM   29  C20 UNL     1     -10.725   8.838  14.669  1.00  0.00     0.265 C 
HETATM   30  O3  UNL     1     -10.597  10.020  14.380  1.00  0.00    -0.302 OA
ENDBRANCH  27  29
ENDBRANCH  25  26
ENDBRANCH  24  25
ENDBRANCH  22  24
ENDBRANCH  14  22
BRANCH  20  31
HETATM   31  C27 UNL     1       1.294   8.908  14.110  1.00  0.00     0.021 C 
BRANCH  31  32
HETATM   32  C28 UNL     1       2.575   8.172  14.484  1.00  0.00     0.111 C 
BRANCH  32  33
HETATM   33  C29 UNL     1       2.507   7.498  15.823  1.00  0.00     0.139 C 
HETATM   34  O4  UNL     1       1.686   7.713  16.698  1.00  0.00    -0.650 OA
BRANCH  33  35
HETATM   35  O5  UNL     1       3.445   6.545  15.985  1.00  0.00    -0.776 OA
HETATM   36  H41 UNL     1       3.246   6.186  16.877  1.00  0.00     0.167 HD
ENDBRANCH  33  35
ENDBRANCH  32  33
ENDBRANCH  31  32
ENDBRANCH  20  31
TORSDOF 9
ENDMDL
