MODEL 1
REMARK minimizedAffinity -7.59809971
REMARK  9 active torsions:
REMARK  status: ('A' for Active; 'I' for Inactive)
REMARK    1  A    between atoms: C1_2  and  C2_3 
REMARK       I    between atoms: C1_2  and  N1_6 
REMARK    2  A    between atoms: N1_6  and  C3_7 
REMARK    3  A    between atoms: N1_6  and  C5_10 
REMARK    4  A    between atoms: C3_7  and  C4_8 
REMARK    5  A    between atoms: C4_8  and  O2_9 
REMARK    6  A    between atoms: C5_10  and  C6_11 
REMARK    7  A    between atoms: C9_14  and  O3_15 
REMARK    8  A    between atoms: O3_15  and  C10_16 
REMARK    9  A    between atoms: C13_19  and  N2_20 
ROOT
HETATM    1  C6  UNL     1       0.617  53.405 -23.882  1.00  0.00    -0.040 A 
HETATM    2  C7  UNL     1       0.289  52.249 -23.159  1.00  0.00     0.011 A 
HETATM    3  C8  UNL     1       0.552  52.168 -21.790  1.00  0.00     0.038 A 
HETATM    4  C9  UNL     1       1.161  53.241 -21.137  1.00  0.00     0.076 A 
HETATM    5  C16 UNL     1       1.471  54.406 -21.837  1.00  0.00     0.038 A 
HETATM    6  C17 UNL     1       1.207  54.485 -23.205  1.00  0.00     0.011 A 
ENDROOT
BRANCH   1   7
HETATM    7  C5  UNL     1       0.318  53.506 -25.360  1.00  0.00     0.164 C 
BRANCH   7   8
HETATM    8  N1  UNL     1      -0.045  52.206 -25.935  1.00  0.00    -0.344 N 
HETATM    9  C1  UNL     1      -1.408  51.929 -26.118  1.00  0.00     0.253 C 
HETATM   10  O1  UNL     1      -2.252  52.802 -25.884  1.00  0.00    -0.270 OA
BRANCH   9  11
HETATM   11  C2  UNL     1      -1.821  50.530 -26.605  1.00  0.00     0.270 C 
HETATM   12 CL1  UNL     1      -3.035  50.701 -27.891  1.00  0.00    -0.098 Cl
HETATM   13 CL2  UNL     1      -2.496  49.568 -25.263  1.00  0.00    -0.098 Cl
ENDBRANCH   9  11
BRANCH   8  14
HETATM   14  C3  UNL     1       1.062  51.305 -26.284  1.00  0.00     0.152 C 
BRANCH  14  15
HETATM   15  C4  UNL     1       1.919  51.825 -27.443  1.00  0.00     0.184 C 
BRANCH  15  16
HETATM   16  O2  UNL     1       3.272  51.441 -27.234  1.00  0.00    -0.399 OA
HETATM   17  H6  UNL     1       3.777  51.733 -28.014  1.00  0.00     0.209 HD
ENDBRANCH  15  16
ENDBRANCH  14  15
ENDBRANCH   8  14
ENDBRANCH   7   8
ENDBRANCH   1   7
BRANCH   4  18
HETATM   18  O3  UNL     1       1.414  53.233 -19.784  1.00  0.00    -0.311 OA
BRANCH  18  19
HETATM   19  C10 UNL     1       0.529  52.547 -18.983  1.00  0.00     0.076 A 
HETATM   20  C11 UNL     1      -0.817  52.372 -19.318  1.00  0.00     0.040 A 
HETATM   21  C12 UNL     1      -1.653  51.632 -18.478  1.00  0.00     0.039 A 
HETATM   22  C13 UNL     1      -1.129  51.057 -17.311  1.00  0.00     0.103 A 
HETATM   23  C14 UNL     1       0.226  51.213 -16.985  1.00  0.00     0.039 A 
HETATM   24  C15 UNL     1       1.054  51.955 -17.831  1.00  0.00     0.040 A 
BRANCH  22  25
HETATM   25  N2  UNL     1      -2.006  50.279 -16.426  1.00  0.00    -0.116 N 
HETATM   26  O4  UNL     1      -1.469  49.562 -15.570  1.00  0.00    -0.532 OA
HETATM   27  O5  UNL     1      -3.229  50.385 -16.591  1.00  0.00    -0.532 OA
ENDBRANCH  22  25
ENDBRANCH  18  19
ENDBRANCH   4  18
TORSDOF 9
ENDMDL
MODEL 2
REMARK minimizedAffinity -7.53882408
REMARK  9 active torsions:
REMARK  status: ('A' for Active; 'I' for Inactive)
REMARK    1  A    between atoms: C1_2  and  C2_3 
REMARK       I    between atoms: C1_2  and  N1_6 
REMARK    2  A    between atoms: N1_6  and  C3_7 
REMARK    3  A    between atoms: N1_6  and  C5_10 
REMARK    4  A    between atoms: C3_7  and  C4_8 
REMARK    5  A    between atoms: C4_8  and  O2_9 
REMARK    6  A    between atoms: C5_10  and  C6_11 
REMARK    7  A    between atoms: C9_14  and  O3_15 
REMARK    8  A    between atoms: O3_15  and  C10_16 
REMARK    9  A    between atoms: C13_19  and  N2_20 
ROOT
HETATM    1  C6  UNL     1      -2.670  51.506 -24.040  1.00  0.00    -0.040 A 
HETATM    2  C7  UNL     1      -1.767  50.449 -23.851  1.00  0.00     0.011 A 
HETATM    3  C8  UNL     1      -1.547  49.922 -22.576  1.00  0.00     0.038 A 
HETATM    4  C9  UNL     1      -2.220  50.460 -21.478  1.00  0.00     0.076 A 
HETATM    5  C16 UNL     1      -3.138  51.494 -21.654  1.00  0.00     0.038 A 
HETATM    6  C17 UNL     1      -3.356  52.020 -22.928  1.00  0.00     0.011 A 
ENDROOT
BRANCH   1   7
HETATM    7  C5  UNL     1      -2.925  52.069 -25.419  1.00  0.00     0.164 C 
BRANCH   7   8
HETATM    8  N1  UNL     1      -1.729  52.004 -26.266  1.00  0.00    -0.344 N 
HETATM    9  C1  UNL     1      -0.693  52.913 -26.006  1.00  0.00     0.253 C 
HETATM   10  O1  UNL     1      -0.766  53.670 -25.032  1.00  0.00    -0.270 OA
BRANCH   9  11
HETATM   11  C2  UNL     1       0.518  52.946 -26.953  1.00  0.00     0.270 C 
HETATM   12 CL1  UNL     1      -0.049  53.264 -28.606  1.00  0.00    -0.098 Cl
HETATM   13 CL2  UNL     1       1.400  51.396 -26.906  1.00  0.00    -0.098 Cl
ENDBRANCH   9  11
BRANCH   8  14
HETATM   14  C3  UNL     1      -1.717  50.974 -27.314  1.00  0.00     0.152 C 
BRANCH  14  15
HETATM   15  C4  UNL     1      -3.100  50.372 -27.585  1.00  0.00     0.184 C 
BRANCH  15  16
HETATM   16  O2  UNL     1      -3.446  50.588 -28.947  1.00  0.00    -0.399 OA
HETATM   17  H6  UNL     1      -4.299  50.144 -29.100  1.00  0.00     0.209 HD
ENDBRANCH  15  16
ENDBRANCH  14  15
ENDBRANCH   8  14
ENDBRANCH   7   8
ENDBRANCH   1   7
BRANCH   4  18
HETATM   18  O3  UNL     1      -2.071  49.960 -20.204  1.00  0.00    -0.311 OA
BRANCH  18  19
HETATM   19  C10 UNL     1      -1.177  50.603 -19.377  1.00  0.00     0.076 A 
HETATM   20  C11 UNL     1      -0.759  51.920 -19.592  1.00  0.00     0.040 A 
HETATM   21  C12 UNL     1       0.121  52.528 -18.692  1.00  0.00     0.039 A 
HETATM   22  C13 UNL     1       0.567  51.812 -17.571  1.00  0.00     0.103 A 
HETATM   23  C14 UNL     1       0.131  50.499 -17.343  1.00  0.00     0.039 A 
HETATM   24  C15 UNL     1      -0.749  49.901 -18.248  1.00  0.00     0.040 A 
BRANCH  22  25
HETATM   25  N2  UNL     1       1.492  52.447 -16.624  1.00  0.00    -0.116 N 
HETATM   26  O4  UNL     1       2.644  52.684 -17.015  1.00  0.00    -0.532 OA
HETATM   27  O5  UNL     1       1.067  52.705 -15.489  1.00  0.00    -0.532 OA
ENDBRANCH  22  25
ENDBRANCH  18  19
ENDBRANCH   4  18
TORSDOF 9
ENDMDL
MODEL 3
REMARK minimizedAffinity -7.45637226
REMARK  9 active torsions:
REMARK  status: ('A' for Active; 'I' for Inactive)
REMARK    1  A    between atoms: C1_2  and  C2_3 
REMARK       I    between atoms: C1_2  and  N1_6 
REMARK    2  A    between atoms: N1_6  and  C3_7 
REMARK    3  A    between atoms: N1_6  and  C5_10 
REMARK    4  A    between atoms: C3_7  and  C4_8 
REMARK    5  A    between atoms: C4_8  and  O2_9 
REMARK    6  A    between atoms: C5_10  and  C6_11 
REMARK    7  A    between atoms: C9_14  and  O3_15 
REMARK    8  A    between atoms: O3_15  and  C10_16 
REMARK    9  A    between atoms: C13_19  and  N2_20 
ROOT
HETATM    1  C6  UNL     1      -1.772  52.022 -23.646  1.00  0.00    -0.040 A 
HETATM    2  C7  UNL     1      -0.568  51.537 -23.112  1.00  0.00     0.011 A 
HETATM    3  C8  UNL     1      -0.526  51.010 -21.819  1.00  0.00     0.038 A 
HETATM    4  C9  UNL     1      -1.687  50.978 -21.046  1.00  0.00     0.076 A 
HETATM    5  C16 UNL     1      -2.895  51.434 -21.571  1.00  0.00     0.038 A 
HETATM    6  C17 UNL     1      -2.936  51.961 -22.863  1.00  0.00     0.011 A 
ENDROOT
BRANCH   1   7
HETATM    7  C5  UNL     1      -1.828  52.577 -25.050  1.00  0.00     0.164 C 
BRANCH   7   8
HETATM    8  N1  UNL     1      -0.763  52.031 -25.898  1.00  0.00    -0.344 N 
HETATM    9  C1  UNL     1       0.373  52.826 -26.114  1.00  0.00     0.253 C 
HETATM   10  O1  UNL     1       0.492  53.906 -25.525  1.00  0.00    -0.270 OA
BRANCH   9  11
HETATM   11  C2  UNL     1       1.449  52.328 -27.094  1.00  0.00     0.270 C 
HETATM   12 CL1  UNL     1       0.656  51.698 -28.553  1.00  0.00    -0.098 Cl
HETATM   13 CL2  UNL     1       2.440  51.048 -26.346  1.00  0.00    -0.098 Cl
ENDBRANCH   9  11
BRANCH   8  14
HETATM   14  C3  UNL     1      -0.975  50.681 -26.439  1.00  0.00     0.152 C 
BRANCH  14  15
HETATM   15  C4  UNL     1      -2.421  50.427 -26.877  1.00  0.00     0.184 C 
BRANCH  15  16
HETATM   16  O2  UNL     1      -2.541  50.685 -28.270  1.00  0.00    -0.399 OA
HETATM   17  H6  UNL     1      -3.453  50.457 -28.526  1.00  0.00     0.209 HD
ENDBRANCH  15  16
ENDBRANCH  14  15
ENDBRANCH   8  14
ENDBRANCH   7   8
ENDBRANCH   1   7
BRANCH   4  18
HETATM   18  O3  UNL     1      -1.715  50.440 -19.779  1.00  0.00    -0.311 OA
BRANCH  18  19
HETATM   19  C10 UNL     1      -0.769  50.888 -18.885  1.00  0.00     0.076 A 
HETATM   20  C11 UNL     1      -0.236  52.181 -18.930  1.00  0.00     0.040 A 
HETATM   21  C12 UNL     1       0.693  52.586 -17.968  1.00  0.00     0.039 A 
HETATM   22  C13 UNL     1       1.072  51.694 -16.954  1.00  0.00     0.103 A 
HETATM   23  C14 UNL     1       0.522  50.405 -16.894  1.00  0.00     0.039 A 
HETATM   24  C15 UNL     1      -0.406  50.010 -17.861  1.00  0.00     0.040 A 
BRANCH  22  25
HETATM   25  N2  UNL     1       2.049  52.116 -15.942  1.00  0.00    -0.116 N 
HETATM   26  O4  UNL     1       1.755  51.945 -14.750  1.00  0.00    -0.532 OA
HETATM   27  O5  UNL     1       3.108  52.621 -16.340  1.00  0.00    -0.532 OA
ENDBRANCH  22  25
ENDBRANCH  18  19
ENDBRANCH   4  18
TORSDOF 9
ENDMDL
MODEL 4
REMARK minimizedAffinity -7.40678835
REMARK  9 active torsions:
REMARK  status: ('A' for Active; 'I' for Inactive)
REMARK    1  A    between atoms: C1_2  and  C2_3 
REMARK       I    between atoms: C1_2  and  N1_6 
REMARK    2  A    between atoms: N1_6  and  C3_7 
REMARK    3  A    between atoms: N1_6  and  C5_10 
REMARK    4  A    between atoms: C3_7  and  C4_8 
REMARK    5  A    between atoms: C4_8  and  O2_9 
REMARK    6  A    between atoms: C5_10  and  C6_11 
REMARK    7  A    between atoms: C9_14  and  O3_15 
REMARK    8  A    between atoms: O3_15  and  C10_16 
REMARK    9  A    between atoms: C13_19  and  N2_20 
ROOT
HETATM    1  C6  UNL     1       0.478  52.822 -22.719  1.00  0.00    -0.040 A 
HETATM    2  C7  UNL     1      -0.143  51.581 -22.518  1.00  0.00     0.011 A 
HETATM    3  C8  UNL     1      -0.597  51.211 -21.249  1.00  0.00     0.038 A 
HETATM    4  C9  UNL     1      -0.419  52.076 -20.170  1.00  0.00     0.076 A 
HETATM    5  C16 UNL     1       0.175  53.323 -20.358  1.00  0.00     0.038 A 
HETATM    6  C17 UNL     1       0.629  53.691 -21.626  1.00  0.00     0.011 A 
ENDROOT
BRANCH   1   7
HETATM    7  C5  UNL     1       0.956  53.236 -24.092  1.00  0.00     0.164 C 
BRANCH   7   8
HETATM    8  N1  UNL     1       0.465  52.332 -25.137  1.00  0.00    -0.344 N 
HETATM    9  C1  UNL     1      -0.880  52.442 -25.520  1.00  0.00     0.253 C 
HETATM   10  O1  UNL     1      -1.584  53.340 -25.046  1.00  0.00    -0.270 OA
BRANCH   9  11
HETATM   11  C2  UNL     1      -1.449  51.428 -26.526  1.00  0.00     0.270 C 
HETATM   12 CL1  UNL     1      -2.804  52.176 -27.398  1.00  0.00    -0.098 Cl
HETATM   13 CL2  UNL     1      -2.010  49.955 -25.690  1.00  0.00    -0.098 Cl
ENDBRANCH   9  11
BRANCH   8  14
HETATM   14  C3  UNL     1       1.440  51.391 -25.707  1.00  0.00     0.152 C 
BRANCH  14  15
HETATM   15  C4  UNL     1       1.991  51.841 -27.064  1.00  0.00     0.184 C 
BRANCH  15  16
HETATM   16  O2  UNL     1       3.344  51.419 -27.183  1.00  0.00    -0.399 OA
HETATM   17  H6  UNL     1       3.644  51.668 -28.076  1.00  0.00     0.209 HD
ENDBRANCH  15  16
ENDBRANCH  14  15
ENDBRANCH   8  14
ENDBRANCH   7   8
ENDBRANCH   1   7
BRANCH   4  18
HETATM   18  O3  UNL     1      -0.875  51.781 -18.905  1.00  0.00    -0.311 OA
BRANCH  18  19
HETATM   19  C10 UNL     1       0.065  51.687 -17.903  1.00  0.00     0.076 A 
HETATM   20  C11 UNL     1       0.075  50.646 -16.969  1.00  0.00     0.040 A 
HETATM   21  C12 UNL     1       1.081  50.589 -16.001  1.00  0.00     0.039 A 
HETATM   22  C13 UNL     1       2.082  51.571 -15.984  1.00  0.00     0.103 A 
HETATM   23  C14 UNL     1       2.085  52.603 -16.933  1.00  0.00     0.039 A 
HETATM   24  C15 UNL     1       1.075  52.652 -17.898  1.00  0.00     0.040 A 
BRANCH  22  25
HETATM   25  N2  UNL     1       3.140  51.514 -14.967  1.00  0.00    -0.116 N 
HETATM   26  O4  UNL     1       2.827  51.130 -13.831  1.00  0.00    -0.532 OA
HETATM   27  O5  UNL     1       4.282  51.858 -15.305  1.00  0.00    -0.532 OA
ENDBRANCH  22  25
ENDBRANCH  18  19
ENDBRANCH   4  18
TORSDOF 9
ENDMDL
MODEL 5
REMARK minimizedAffinity -7.2707243
REMARK  9 active torsions:
REMARK  status: ('A' for Active; 'I' for Inactive)
REMARK    1  A    between atoms: C1_2  and  C2_3 
REMARK       I    between atoms: C1_2  and  N1_6 
REMARK    2  A    between atoms: N1_6  and  C3_7 
REMARK    3  A    between atoms: N1_6  and  C5_10 
REMARK    4  A    between atoms: C3_7  and  C4_8 
REMARK    5  A    between atoms: C4_8  and  O2_9 
REMARK    6  A    between atoms: C5_10  and  C6_11 
REMARK    7  A    between atoms: C9_14  and  O3_15 
REMARK    8  A    between atoms: O3_15  and  C10_16 
REMARK    9  A    between atoms: C13_19  and  N2_20 
ROOT
HETATM    1  C6  UNL     1      -6.294  47.749 -27.809  1.00  0.00    -0.040 A 
HETATM    2  C7  UNL     1      -5.084  48.057 -28.449  1.00  0.00     0.011 A 
HETATM    3  C8  UNL     1      -3.966  48.442 -27.706  1.00  0.00     0.038 A 
HETATM    4  C9  UNL     1      -4.055  48.537 -26.317  1.00  0.00     0.076 A 
HETATM    5  C16 UNL     1      -5.243  48.211 -25.666  1.00  0.00     0.038 A 
HETATM    6  C17 UNL     1      -6.361  47.827 -26.409  1.00  0.00     0.011 A 
ENDROOT
BRANCH   1   7
HETATM    7  C5  UNL     1      -7.503  47.315 -28.606  1.00  0.00     0.164 C 
BRANCH   7   8
HETATM    8  N1  UNL     1      -7.228  47.288 -30.046  1.00  0.00    -0.344 N 
HETATM    9  C1  UNL     1      -6.821  46.070 -30.612  1.00  0.00     0.253 C 
HETATM   10  O1  UNL     1      -6.792  45.047 -29.919  1.00  0.00    -0.270 OA
BRANCH   9  11
HETATM   11  C2  UNL     1      -6.411  46.042 -32.094  1.00  0.00     0.270 C 
HETATM   12 CL1  UNL     1      -7.220  44.676 -32.891  1.00  0.00    -0.098 Cl
HETATM   13 CL2  UNL     1      -4.643  45.874 -32.257  1.00  0.00    -0.098 Cl
ENDBRANCH   9  11
BRANCH   8  14
HETATM   14  C3  UNL     1      -7.419  48.547 -30.780  1.00  0.00     0.152 C 
BRANCH  14  15
HETATM   15  C4  UNL     1      -8.816  49.148 -30.592  1.00  0.00     0.184 C 
BRANCH  15  16
HETATM   16  O2  UNL     1      -8.744  50.559 -30.749  1.00  0.00    -0.399 OA
HETATM   17  H6  UNL     1      -9.654  50.902 -30.683  1.00  0.00     0.209 HD
ENDBRANCH  15  16
ENDBRANCH  14  15
ENDBRANCH   8  14
ENDBRANCH   7   8
ENDBRANCH   1   7
BRANCH   4  18
HETATM   18  O3  UNL     1      -2.979  48.878 -25.530  1.00  0.00    -0.311 OA
BRANCH  18  19
HETATM   19  C10 UNL     1      -2.360  50.078 -25.797  1.00  0.00     0.076 A 
HETATM   20  C11 UNL     1      -2.975  51.314 -25.574  1.00  0.00     0.040 A 
HETATM   21  C12 UNL     1      -2.277  52.497 -25.830  1.00  0.00     0.039 A 
HETATM   22  C13 UNL     1      -0.955  52.433 -26.296  1.00  0.00     0.103 A 
HETATM   23  C14 UNL     1      -0.330  51.194 -26.499  1.00  0.00     0.039 A 
HETATM   24  C15 UNL     1      -1.036  50.018 -26.240  1.00  0.00     0.040 A 
BRANCH  22  25
HETATM   25  N2  UNL     1      -0.218  53.674 -26.568  1.00  0.00    -0.116 N 
HETATM   26  O4  UNL     1       0.683  53.993 -25.779  1.00  0.00    -0.532 OA
HETATM   27  O5  UNL     1      -0.544  54.330 -27.567  1.00  0.00    -0.532 OA
ENDBRANCH  22  25
ENDBRANCH  18  19
ENDBRANCH   4  18
TORSDOF 9
ENDMDL
MODEL 6
REMARK minimizedAffinity -7.20444059
REMARK  9 active torsions:
REMARK  status: ('A' for Active; 'I' for Inactive)
REMARK    1  A    between atoms: C1_2  and  C2_3 
REMARK       I    between atoms: C1_2  and  N1_6 
REMARK    2  A    between atoms: N1_6  and  C3_7 
REMARK    3  A    between atoms: N1_6  and  C5_10 
REMARK    4  A    between atoms: C3_7  and  C4_8 
REMARK    5  A    between atoms: C4_8  and  O2_9 
REMARK    6  A    between atoms: C5_10  and  C6_11 
REMARK    7  A    between atoms: C9_14  and  O3_15 
REMARK    8  A    between atoms: O3_15  and  C10_16 
REMARK    9  A    between atoms: C13_19  and  N2_20 
ROOT
HETATM    1  C6  UNL     1      -1.997  51.824 -23.519  1.00  0.00    -0.040 A 
HETATM    2  C7  UNL     1      -0.854  51.135 -23.088  1.00  0.00     0.011 A 
HETATM    3  C8  UNL     1      -0.770  50.644 -21.783  1.00  0.00     0.038 A 
HETATM    4  C9  UNL     1      -1.826  50.853 -20.895  1.00  0.00     0.076 A 
HETATM    5  C16 UNL     1      -2.978  51.515 -21.316  1.00  0.00     0.038 A 
HETATM    6  C17 UNL     1      -3.060  52.005 -22.621  1.00  0.00     0.011 A 
ENDROOT
BRANCH   1   7
HETATM    7  C5  UNL     1      -2.101  52.342 -24.936  1.00  0.00     0.164 C 
BRANCH   7   8
HETATM    8  N1  UNL     1      -0.826  52.234 -25.653  1.00  0.00    -0.344 N 
HETATM    9  C1  UNL     1      -0.588  51.065 -26.390  1.00  0.00     0.253 C 
HETATM   10  O1  UNL     1      -1.474  50.210 -26.495  1.00  0.00    -0.270 OA
BRANCH   9  11
HETATM   11  C2  UNL     1       0.787  50.874 -27.052  1.00  0.00     0.270 C 
HETATM   12 CL1  UNL     1       2.049  51.436 -25.935  1.00  0.00    -0.098 Cl
HETATM   13 CL2  UNL     1       0.884  51.789 -28.581  1.00  0.00    -0.098 Cl
ENDBRANCH   9  11
BRANCH   8  14
HETATM   14  C3  UNL     1       0.091  53.377 -25.546  1.00  0.00     0.152 C 
BRANCH  14  15
HETATM   15  C4  UNL     1      -0.085  54.399 -26.675  1.00  0.00     0.184 C 
BRANCH  15  16
HETATM   16  O2  UNL     1       0.231  55.696 -26.185  1.00  0.00    -0.399 OA
HETATM   17  H6  UNL     1       0.168  56.311 -26.939  1.00  0.00     0.209 HD
ENDBRANCH  15  16
ENDBRANCH  14  15
ENDBRANCH   8  14
ENDBRANCH   7   8
ENDBRANCH   1   7
BRANCH   4  18
HETATM   18  O3  UNL     1      -1.815  50.364 -19.609  1.00  0.00    -0.311 OA
BRANCH  18  19
HETATM   19  C10 UNL     1      -0.824  50.822 -18.770  1.00  0.00     0.076 A 
HETATM   20  C11 UNL     1      -0.261  52.097 -18.888  1.00  0.00     0.040 A 
HETATM   21  C12 UNL     1       0.715  52.515 -17.980  1.00  0.00     0.039 A 
HETATM   22  C13 UNL     1       1.111  51.654 -16.946  1.00  0.00     0.103 A 
HETATM   23  C14 UNL     1       0.531  50.385 -16.813  1.00  0.00     0.039 A 
HETATM   24  C15 UNL     1      -0.444  49.976 -17.726  1.00  0.00     0.040 A 
BRANCH  22  25
HETATM   25  N2  UNL     1       2.137  52.090 -15.990  1.00  0.00    -0.116 N 
HETATM   26  O4  UNL     1       2.088  51.628 -14.841  1.00  0.00    -0.532 OA
HETATM   27  O5  UNL     1       2.990  52.896 -16.388  1.00  0.00    -0.532 OA
ENDBRANCH  22  25
ENDBRANCH  18  19
ENDBRANCH   4  18
TORSDOF 9
ENDMDL
MODEL 7
REMARK minimizedAffinity -7.16920614
REMARK  9 active torsions:
REMARK  status: ('A' for Active; 'I' for Inactive)
REMARK    1  A    between atoms: C1_2  and  C2_3 
REMARK       I    between atoms: C1_2  and  N1_6 
REMARK    2  A    between atoms: N1_6  and  C3_7 
REMARK    3  A    between atoms: N1_6  and  C5_10 
REMARK    4  A    between atoms: C3_7  and  C4_8 
REMARK    5  A    between atoms: C4_8  and  O2_9 
REMARK    6  A    between atoms: C5_10  and  C6_11 
REMARK    7  A    between atoms: C9_14  and  O3_15 
REMARK    8  A    between atoms: O3_15  and  C10_16 
REMARK    9  A    between atoms: C13_19  and  N2_20 
ROOT
HETATM    1  C6  UNL     1      -2.665  51.381 -25.671  1.00  0.00    -0.040 A 
HETATM    2  C7  UNL     1      -2.758  50.090 -25.129  1.00  0.00     0.011 A 
HETATM    3  C8  UNL     1      -3.096  49.003 -25.939  1.00  0.00     0.038 A 
HETATM    4  C9  UNL     1      -3.357  49.204 -27.295  1.00  0.00     0.076 A 
HETATM    5  C16 UNL     1      -3.246  50.477 -27.852  1.00  0.00     0.038 A 
HETATM    6  C17 UNL     1      -2.909  51.562 -27.041  1.00  0.00     0.011 A 
ENDROOT
BRANCH   1   7
HETATM    7  C5  UNL     1      -2.284  52.559 -24.803  1.00  0.00     0.164 C 
BRANCH   7   8
HETATM    8  N1  UNL     1      -0.965  52.379 -24.186  1.00  0.00    -0.344 N 
HETATM    9  C1  UNL     1      -0.917  52.132 -22.806  1.00  0.00     0.253 C 
HETATM   10  O1  UNL     1      -1.966  51.980 -22.169  1.00  0.00    -0.270 OA
BRANCH   9  11
HETATM   11  C2  UNL     1       0.454  52.059 -22.114  1.00  0.00     0.270 C 
HETATM   12 CL1  UNL     1       0.302  51.095 -20.630  1.00  0.00    -0.098 Cl
HETATM   13 CL2  UNL     1       1.046  53.693 -21.713  1.00  0.00    -0.098 Cl
ENDBRANCH   9  11
BRANCH   8  14
HETATM   14  C3  UNL     1       0.199  52.461 -25.079  1.00  0.00     0.152 C 
BRANCH  14  15
HETATM   15  C4  UNL     1       0.115  53.622 -26.075  1.00  0.00     0.184 C 
BRANCH  15  16
HETATM   16  O2  UNL     1       0.300  54.849 -25.381  1.00  0.00    -0.399 OA
HETATM   17  H6  UNL     1       0.301  55.559 -26.048  1.00  0.00     0.209 HD
ENDBRANCH  15  16
ENDBRANCH  14  15
ENDBRANCH   8  14
ENDBRANCH   7   8
ENDBRANCH   1   7
BRANCH   4  18
HETATM   18  O3  UNL     1      -3.661  48.168 -28.149  1.00  0.00    -0.311 OA
BRANCH  18  19
HETATM   19  C10 UNL     1      -4.958  48.088 -28.604  1.00  0.00     0.076 A 
HETATM   20  C11 UNL     1      -5.302  48.271 -29.947  1.00  0.00     0.040 A 
HETATM   21  C12 UNL     1      -6.633  48.138 -30.350  1.00  0.00     0.039 A 
HETATM   22  C13 UNL     1      -7.612  47.805 -29.403  1.00  0.00     0.103 A 
HETATM   23  C14 UNL     1      -7.266  47.599 -28.060  1.00  0.00     0.039 A 
HETATM   24  C15 UNL     1      -5.932  47.735 -27.667  1.00  0.00     0.040 A 
BRANCH  22  25
HETATM   25  N2  UNL     1      -9.013  47.665 -29.823  1.00  0.00    -0.116 N 
HETATM   26  O4  UNL     1      -9.649  46.692 -29.392  1.00  0.00    -0.532 OA
HETATM   27  O5  UNL     1      -9.474  48.526 -30.586  1.00  0.00    -0.532 OA
ENDBRANCH  22  25
ENDBRANCH  18  19
ENDBRANCH   4  18
TORSDOF 9
ENDMDL
MODEL 8
REMARK minimizedAffinity -7.15896034
REMARK  9 active torsions:
REMARK  status: ('A' for Active; 'I' for Inactive)
REMARK    1  A    between atoms: C1_2  and  C2_3 
REMARK       I    between atoms: C1_2  and  N1_6 
REMARK    2  A    between atoms: N1_6  and  C3_7 
REMARK    3  A    between atoms: N1_6  and  C5_10 
REMARK    4  A    between atoms: C3_7  and  C4_8 
REMARK    5  A    between atoms: C4_8  and  O2_9 
REMARK    6  A    between atoms: C5_10  and  C6_11 
REMARK    7  A    between atoms: C9_14  and  O3_15 
REMARK    8  A    between atoms: O3_15  and  C10_16 
REMARK    9  A    between atoms: C13_19  and  N2_20 
ROOT
HETATM    1  C6  UNL     1      -2.884  51.177 -22.963  1.00  0.00    -0.040 A 
HETATM    2  C7  UNL     1      -4.200  51.502 -23.325  1.00  0.00     0.011 A 
HETATM    3  C8  UNL     1      -5.048  50.532 -23.864  1.00  0.00     0.038 A 
HETATM    4  C9  UNL     1      -4.579  49.232 -24.058  1.00  0.00     0.076 A 
HETATM    5  C16 UNL     1      -3.282  48.889 -23.682  1.00  0.00     0.038 A 
HETATM    6  C17 UNL     1      -2.435  49.859 -23.144  1.00  0.00     0.011 A 
ENDROOT
BRANCH   1   7
HETATM    7  C5  UNL     1      -1.966  52.218 -22.363  1.00  0.00     0.164 C 
BRANCH   7   8
HETATM    8  N1  UNL     1      -0.730  52.370 -23.138  1.00  0.00    -0.344 N 
HETATM    9  C1  UNL     1      -0.835  52.874 -24.443  1.00  0.00     0.253 C 
HETATM   10  O1  UNL     1      -1.929  53.257 -24.871  1.00  0.00    -0.270 OA
BRANCH   9  11
HETATM   11  C2  UNL     1       0.429  52.930 -25.318  1.00  0.00     0.270 C 
HETATM   12 CL1  UNL     1       0.141  54.037 -26.678  1.00  0.00    -0.098 Cl
HETATM   13 CL2  UNL     1       0.842  51.309 -25.937  1.00  0.00    -0.098 Cl
ENDBRANCH   9  11
BRANCH   8  14
HETATM   14  C3  UNL     1       0.521  51.992 -22.467  1.00  0.00     0.152 C 
BRANCH  14  15
HETATM   15  C4  UNL     1       0.894  52.928 -21.313  1.00  0.00     0.184 C 
BRANCH  15  16
HETATM   16  O2  UNL     1       1.437  54.131 -21.841  1.00  0.00    -0.399 OA
HETATM   17  H6  UNL     1       1.607  54.724 -21.087  1.00  0.00     0.209 HD
ENDBRANCH  15  16
ENDBRANCH  14  15
ENDBRANCH   8  14
ENDBRANCH   7   8
ENDBRANCH   1   7
BRANCH   4  18
HETATM   18  O3  UNL     1      -5.378  48.226 -24.553  1.00  0.00    -0.311 OA
BRANCH  18  19
HETATM   19  C10 UNL     1      -5.420  48.072 -25.921  1.00  0.00     0.076 A 
HETATM   20  C11 UNL     1      -6.570  47.660 -26.602  1.00  0.00     0.040 A 
HETATM   21  C12 UNL     1      -6.557  47.560 -27.995  1.00  0.00     0.039 A 
HETATM   22  C13 UNL     1      -5.391  47.890 -28.701  1.00  0.00     0.103 A 
HETATM   23  C14 UNL     1      -4.244  48.324 -28.021  1.00  0.00     0.039 A 
HETATM   24  C15 UNL     1      -4.267  48.420 -26.628  1.00  0.00     0.040 A 
BRANCH  22  25
HETATM   25  N2  UNL     1      -5.373  47.785 -30.166  1.00  0.00    -0.116 N 
HETATM   26  O4  UNL     1      -4.971  48.766 -30.809  1.00  0.00    -0.532 OA
HETATM   27  O5  UNL     1      -5.765  46.724 -30.672  1.00  0.00    -0.532 OA
ENDBRANCH  22  25
ENDBRANCH  18  19
ENDBRANCH   4  18
TORSDOF 9
ENDMDL
MODEL 9
REMARK minimizedAffinity -7.10673618
REMARK  9 active torsions:
REMARK  status: ('A' for Active; 'I' for Inactive)
REMARK    1  A    between atoms: C1_2  and  C2_3 
REMARK       I    between atoms: C1_2  and  N1_6 
REMARK    2  A    between atoms: N1_6  and  C3_7 
REMARK    3  A    between atoms: N1_6  and  C5_10 
REMARK    4  A    between atoms: C3_7  and  C4_8 
REMARK    5  A    between atoms: C4_8  and  O2_9 
REMARK    6  A    between atoms: C5_10  and  C6_11 
REMARK    7  A    between atoms: C9_14  and  O3_15 
REMARK    8  A    between atoms: O3_15  and  C10_16 
REMARK    9  A    between atoms: C13_19  and  N2_20 
ROOT
HETATM    1  C6  UNL     1      -5.868  47.731 -28.351  1.00  0.00    -0.040 A 
HETATM    2  C7  UNL     1      -6.404  47.756 -27.055  1.00  0.00     0.011 A 
HETATM    3  C8  UNL     1      -5.603  48.096 -25.962  1.00  0.00     0.038 A 
HETATM    4  C9  UNL     1      -4.255  48.399 -26.158  1.00  0.00     0.076 A 
HETATM    5  C16 UNL     1      -3.715  48.402 -27.442  1.00  0.00     0.038 A 
HETATM    6  C17 UNL     1      -4.516  48.062 -28.534  1.00  0.00     0.011 A 
ENDROOT
BRANCH   1   7
HETATM    7  C5  UNL     1      -6.734  47.381 -29.540  1.00  0.00     0.164 C 
BRANCH   7   8
HETATM    8  N1  UNL     1      -8.156  47.615 -29.269  1.00  0.00    -0.344 N 
HETATM    9  C1  UNL     1      -8.947  46.508 -28.925  1.00  0.00     0.253 C 
HETATM   10  O1  UNL     1      -8.422  45.400 -28.769  1.00  0.00    -0.270 OA
BRANCH   9  11
HETATM   11  C2  UNL     1     -10.462  46.705 -28.754  1.00  0.00     0.270 C 
HETATM   12 CL1  UNL     1     -11.155  47.232 -30.302  1.00  0.00    -0.098 Cl
HETATM   13 CL2  UNL     1     -10.802  47.923 -27.496  1.00  0.00    -0.098 Cl
ENDBRANCH   9  11
BRANCH   8  14
HETATM   14  C3  UNL     1      -8.629  49.003 -29.369  1.00  0.00     0.152 C 
BRANCH  14  15
HETATM   15  C4  UNL     1      -8.586  49.553 -30.798  1.00  0.00     0.184 C 
BRANCH  15  16
HETATM   16  O2  UNL     1      -8.730  50.967 -30.760  1.00  0.00    -0.399 OA
HETATM   17  H6  UNL     1      -8.639  51.290 -31.675  1.00  0.00     0.209 HD
ENDBRANCH  15  16
ENDBRANCH  14  15
ENDBRANCH   8  14
ENDBRANCH   7   8
ENDBRANCH   1   7
BRANCH   4  18
HETATM   18  O3  UNL     1      -3.426  48.774 -25.125  1.00  0.00    -0.311 OA
BRANCH  18  19
HETATM   19  C10 UNL     1      -2.537  49.795 -25.371  1.00  0.00     0.076 A 
HETATM   20  C11 UNL     1      -2.282  50.285 -26.656  1.00  0.00     0.040 A 
HETATM   21  C12 UNL     1      -1.396  51.351 -26.833  1.00  0.00     0.039 A 
HETATM   22  C13 UNL     1      -0.780  51.931 -25.715  1.00  0.00     0.103 A 
HETATM   23  C14 UNL     1      -1.051  51.456 -24.424  1.00  0.00     0.039 A 
HETATM   24  C15 UNL     1      -1.938  50.390 -24.258  1.00  0.00     0.040 A 
BRANCH  22  25
HETATM   25  N2  UNL     1       0.153  53.050 -25.898  1.00  0.00    -0.116 N 
HETATM   26  O4  UNL     1       1.336  52.780 -26.145  1.00  0.00    -0.532 OA
HETATM   27  O5  UNL     1      -0.299  54.199 -25.790  1.00  0.00    -0.532 OA
ENDBRANCH  22  25
ENDBRANCH  18  19
ENDBRANCH   4  18
TORSDOF 9
ENDMDL
