MODEL 1
REMARK minimizedAffinity -7.62066603
REMARK CNNscore 0.464209229
REMARK CNNaffinity 6.21965027
REMARK  13 active torsions:
REMARK  status: ('A' for Active; 'I' for Inactive)
REMARK    1  A    between atoms: C3_3  and  O1_4 
REMARK    2  A    between atoms: N1_14  and  O2_16 
REMARK    3  A    between atoms: O2_16  and  C13_17 
REMARK    4  A    between atoms: C13_17  and  C14_18 
REMARK       I    between atoms: C14_18  and  N2_20 
REMARK    5  A    between atoms: N2_20  and  C15_21 
REMARK    6  A    between atoms: C15_21  and  C16_22 
REMARK    7  A    between atoms: C15_21  and  C21_33 
REMARK       I    between atoms: C16_22  and  N3_24 
REMARK    8  A    between atoms: N3_24  and  C17_25 
REMARK    9  A    between atoms: C17_25  and  C18_26 
REMARK   10  A    between atoms: C17_25  and  C20_30 
REMARK   11  A    between atoms: C18_26  and  C19_27 
REMARK   12  A    between atoms: C19_27  and  O6_29 
REMARK   13  A    between atoms: C20_30  and  O8_32 
ROOT
HETATM    1  C1  UNL     1       0.220  53.097 -20.574  1.00  0.00     0.015 C 
HETATM    2  C2  UNL     1      -0.405  52.125 -20.907  1.00  0.00    -0.078 C 
HETATM    3  C3  UNL     1      -1.148  50.923 -21.326  1.00  0.00     0.128 C 
HETATM    4  C4  UNL     1      -0.314  49.652 -21.160  1.00  0.00     0.052 C 
HETATM    5  C5  UNL     1      -1.348  48.542 -21.315  1.00  0.00     0.010 C 
HETATM    6  C6  UNL     1      -2.617  49.067 -20.614  1.00  0.00     0.002 C 
HETATM    7  C7  UNL     1      -3.917  48.626 -21.322  1.00  0.00    -0.004 C 
HETATM    8  C8  UNL     1      -4.060  47.083 -21.306  1.00  0.00     0.010 C 
HETATM    9  C9  UNL     1      -5.488  46.579 -21.074  1.00  0.00     0.035 C 
HETATM   10  C10 UNL     1      -6.471  47.427 -21.832  1.00  0.00    -0.069 C 
HETATM   11  C11 UNL     1      -7.229  46.899 -22.811  1.00  0.00     0.030 C 
HETATM   12  C12 UNL     1      -8.127  47.764 -23.627  1.00  0.00     0.032 C 
HETATM   13  N1  UNL     1      -9.117  47.354 -24.361  1.00  0.00    -0.271 N 
ATOM     14  H1  UNL     1      -9.707  47.970 -24.919  1.00  0.00     0.194 HD
HETATM   15  C24 UNL     1      -7.894  49.266 -23.589  1.00  0.00     0.060 C 
HETATM   16  C25 UNL     1      -6.640  49.676 -22.820  1.00  0.00     0.020 C 
HETATM   17  C26 UNL     1      -6.484  48.915 -21.479  1.00  0.00    -0.016 C 
HETATM   18  C27 UNL     1      -7.686  49.194 -20.543  1.00  0.00     0.020 C 
HETATM   19  C28 UNL     1      -5.164  49.307 -20.706  1.00  0.00     0.002 C 
HETATM   20  C29 UNL     1      -4.989  50.827 -20.476  1.00  0.00     0.007 C 
HETATM   21  C30 UNL     1      -3.674  51.380 -21.019  1.00  0.00     0.014 C 
HETATM   22  C31 UNL     1      -2.438  50.619 -20.490  1.00  0.00     0.003 C 
HETATM   23  C32 UNL     1      -2.243  50.954 -18.984  1.00  0.00     0.020 C 
ENDROOT
BRANCH   3  24
HETATM   24  O1  UNL     1      -1.467  51.033 -22.717  1.00  0.00    -0.377 OA
HETATM   25  H2  UNL     1      -0.801  51.611 -23.132  1.00  0.00     0.211 HD
ENDBRANCH   3  24
BRANCH  13  26
HETATM   26  O2  UNL     1      -9.280  45.960 -24.294  1.00  0.00    -0.271 OA
BRANCH  26  27
HETATM   27  C13 UNL     1      -9.499  45.467 -25.611  1.00  0.00     0.303 C 
BRANCH  27  28
HETATM   28  C14 UNL     1     -10.770  46.102 -26.155  1.00  0.00     0.244 C 
HETATM   29  O3  UNL     1     -10.796  47.266 -26.552  1.00  0.00    -0.271 OA
HETATM   30  N2  UNL     1     -11.884  45.275 -26.120  1.00  0.00    -0.346 N 
HETATM   31  H16 UNL     1     -11.698  44.291 -25.981  1.00  0.00     0.163 HD
BRANCH  30  32
HETATM   32  C15 UNL     1     -13.143  45.608 -26.806  1.00  0.00     0.180 C 
BRANCH  32  33
HETATM   33  C16 UNL     1     -14.294  45.410 -25.769  1.00  0.00     0.241 C 
HETATM   34  O4  UNL     1     -14.129  44.843 -24.687  1.00  0.00    -0.271 OA
HETATM   35  N3  UNL     1     -15.510  45.986 -26.093  1.00  0.00    -0.344 N 
HETATM   36  H18 UNL     1     -15.693  46.186 -27.064  1.00  0.00     0.163 HD
BRANCH  35  37
HETATM   37  C17 UNL     1     -16.682  45.734 -25.240  1.00  0.00     0.192 C 
BRANCH  37  38
HETATM   38  C18 UNL     1     -17.262  47.039 -24.700  1.00  0.00     0.146 C 
BRANCH  38  39
HETATM   39  C19 UNL     1     -18.662  46.840 -24.195  1.00  0.00     0.141 C 
HETATM   40  O5  UNL     1     -19.701  47.092 -24.777  1.00  0.00    -0.650 OA
BRANCH  39  41
HETATM   41  O6  UNL     1     -18.680  46.265 -22.978  1.00  0.00    -0.776 OA
HETATM   42  H22 UNL     1     -19.632  46.179 -22.759  1.00  0.00     0.167 HD
ENDBRANCH  39  41
ENDBRANCH  38  39
ENDBRANCH  37  38
BRANCH  37  43
HETATM   43  C20 UNL     1     -17.792  45.001 -26.006  1.00  0.00     0.164 C 
HETATM   44  O7  UNL     1     -18.180  45.271 -27.134  1.00  0.00    -0.648 OA
BRANCH  43  45
HETATM   45  O8  UNL     1     -18.296  43.931 -25.359  1.00  0.00    -0.775 OA
HETATM   46  H23 UNL     1     -19.023  43.618 -25.940  1.00  0.00     0.167 HD
ENDBRANCH  43  45
ENDBRANCH  37  43
ENDBRANCH  35  37
ENDBRANCH  32  33
BRANCH  32  47
HETATM   47  C21 UNL     1     -13.313  44.920 -28.190  1.00  0.00     0.009 C 
HETATM   48  C22 UNL     1     -12.379  45.550 -29.237  1.00  0.00     0.012 C 
HETATM   49  C23 UNL     1     -14.740  44.985 -28.747  1.00  0.00     0.012 C 
ENDBRANCH  32  47
ENDBRANCH  30  32
ENDBRANCH  27  28
ENDBRANCH  26  27
ENDBRANCH  13  26
TORSDOF 13
ENDMDL
MODEL 2
REMARK minimizedAffinity -8.04302692
REMARK CNNscore 0.346719205
REMARK CNNaffinity 6.41044044
REMARK  13 active torsions:
REMARK  status: ('A' for Active; 'I' for Inactive)
REMARK    1  A    between atoms: C3_3  and  O1_4 
REMARK    2  A    between atoms: N1_14  and  O2_16 
REMARK    3  A    between atoms: O2_16  and  C13_17 
REMARK    4  A    between atoms: C13_17  and  C14_18 
REMARK       I    between atoms: C14_18  and  N2_20 
REMARK    5  A    between atoms: N2_20  and  C15_21 
REMARK    6  A    between atoms: C15_21  and  C16_22 
REMARK    7  A    between atoms: C15_21  and  C21_33 
REMARK       I    between atoms: C16_22  and  N3_24 
REMARK    8  A    between atoms: N3_24  and  C17_25 
REMARK    9  A    between atoms: C17_25  and  C18_26 
REMARK   10  A    between atoms: C17_25  and  C20_30 
REMARK   11  A    between atoms: C18_26  and  C19_27 
REMARK   12  A    between atoms: C19_27  and  O6_29 
REMARK   13  A    between atoms: C20_30  and  O8_32 
ROOT
HETATM    1  C1  UNL     1       0.039  53.841 -28.151  1.00  0.00     0.015 C 
HETATM    2  C2  UNL     1      -0.724  53.107 -27.580  1.00  0.00    -0.078 C 
HETATM    3  C3  UNL     1      -1.673  52.206 -26.902  1.00  0.00     0.128 C 
HETATM    4  C4  UNL     1      -2.247  51.161 -27.859  1.00  0.00     0.052 C 
HETATM    5  C5  UNL     1      -2.910  50.162 -26.916  1.00  0.00     0.010 C 
HETATM    6  C6  UNL     1      -1.971  50.070 -25.696  1.00  0.00     0.002 C 
HETATM    7  C7  UNL     1      -2.735  49.886 -24.366  1.00  0.00    -0.004 C 
HETATM    8  C8  UNL     1      -3.528  48.555 -24.363  1.00  0.00     0.010 C 
HETATM    9  C9  UNL     1      -3.520  47.813 -23.022  1.00  0.00     0.035 C 
HETATM   10  C10 UNL     1      -3.664  48.788 -21.886  1.00  0.00    -0.069 C 
HETATM   11  C11 UNL     1      -4.732  48.743 -21.068  1.00  0.00     0.030 C 
HETATM   12  C12 UNL     1      -4.920  49.774 -20.008  1.00  0.00     0.032 C 
HETATM   13  N1  UNL     1      -5.706  49.672 -18.979  1.00  0.00    -0.271 N 
ATOM     14  H1  UNL     1      -5.822  50.401 -18.276  1.00  0.00     0.194 HD
HETATM   15  C24 UNL     1      -4.108  51.056 -20.111  1.00  0.00     0.060 C 
HETATM   16  C25 UNL     1      -3.306  51.176 -21.405  1.00  0.00     0.020 C 
HETATM   17  C26 UNL     1      -2.579  49.860 -21.783  1.00  0.00    -0.016 C 
HETATM   18  C27 UNL     1      -1.574  49.448 -20.679  1.00  0.00     0.020 C 
HETATM   19  C28 UNL     1      -1.787  49.972 -23.145  1.00  0.00     0.002 C 
HETATM   20  C29 UNL     1      -0.799  51.161 -23.211  1.00  0.00     0.007 C 
HETATM   21  C30 UNL     1      -1.038  52.089 -24.399  1.00  0.00     0.014 C 
HETATM   22  C31 UNL     1      -1.057  51.341 -25.751  1.00  0.00     0.003 C 
HETATM   23  C32 UNL     1       0.387  50.871 -26.090  1.00  0.00     0.020 C 
ENDROOT
BRANCH   3  24
HETATM   24  O1  UNL     1      -2.778  52.976 -26.414  1.00  0.00    -0.377 OA
HETATM   25  H2  UNL     1      -2.859  53.769 -26.973  1.00  0.00     0.211 HD
ENDBRANCH   3  24
BRANCH  13  26
HETATM   26  O2  UNL     1      -6.375  48.438 -18.949  1.00  0.00    -0.271 OA
BRANCH  26  27
HETATM   27  C13 UNL     1      -7.335  48.469 -17.898  1.00  0.00     0.303 C 
BRANCH  27  28
HETATM   28  C14 UNL     1      -8.116  47.163 -17.924  1.00  0.00     0.244 C 
HETATM   29  O3  UNL     1      -7.901  46.295 -18.769  1.00  0.00    -0.271 OA
HETATM   30  N2  UNL     1      -9.101  47.065 -16.951  1.00  0.00    -0.346 N 
HETATM   31  H16 UNL     1      -9.039  47.731 -16.193  1.00  0.00     0.163 HD
BRANCH  30  32
HETATM   32  C15 UNL     1      -9.803  45.805 -16.655  1.00  0.00     0.180 C 
BRANCH  32  33
HETATM   33  C16 UNL     1     -11.275  45.977 -17.149  1.00  0.00     0.241 C 
HETATM   34  O4  UNL     1     -11.965  45.034 -17.540  1.00  0.00    -0.271 OA
HETATM   35  N3  UNL     1     -11.805  47.252 -17.045  1.00  0.00    -0.344 N 
HETATM   36  H18 UNL     1     -11.163  48.027 -16.995  1.00  0.00     0.163 HD
BRANCH  35  37
HETATM   37  C17 UNL     1     -13.134  47.534 -17.610  1.00  0.00     0.192 C 
BRANCH  37  38
HETATM   38  C18 UNL     1     -13.157  47.285 -19.116  1.00  0.00     0.146 C 
BRANCH  38  39
HETATM   39  C19 UNL     1     -14.015  48.298 -19.817  1.00  0.00     0.141 C 
HETATM   40  O5  UNL     1     -13.734  49.455 -20.072  1.00  0.00    -0.650 OA
BRANCH  39  41
HETATM   41  O6  UNL     1     -15.185  47.772 -20.223  1.00  0.00    -0.776 OA
HETATM   42  H22 UNL     1     -15.650  48.513 -20.667  1.00  0.00     0.167 HD
ENDBRANCH  39  41
ENDBRANCH  38  39
ENDBRANCH  37  38
BRANCH  37  43
HETATM   43  C20 UNL     1     -14.219  46.660 -16.966  1.00  0.00     0.164 C 
HETATM   44  O7  UNL     1     -15.088  46.043 -17.565  1.00  0.00    -0.648 OA
BRANCH  43  45
HETATM   45  O8  UNL     1     -14.111  46.542 -15.628  1.00  0.00    -0.775 OA
HETATM   46  H23 UNL     1     -14.898  46.017 -15.367  1.00  0.00     0.167 HD
ENDBRANCH  43  45
ENDBRANCH  37  43
ENDBRANCH  35  37
ENDBRANCH  32  33
BRANCH  32  47
HETATM   47  C21 UNL     1      -9.600  45.292 -15.202  1.00  0.00     0.009 C 
HETATM   48  C22 UNL     1     -10.933  44.827 -14.591  1.00  0.00     0.012 C 
HETATM   49  C23 UNL     1      -8.997  46.334 -14.253  1.00  0.00     0.012 C 
ENDBRANCH  32  47
ENDBRANCH  30  32
ENDBRANCH  27  28
ENDBRANCH  26  27
ENDBRANCH  13  26
TORSDOF 13
ENDMDL
MODEL 3
REMARK minimizedAffinity -7.92257881
REMARK CNNscore 0.243938044
REMARK CNNaffinity 6.30470037
REMARK  13 active torsions:
REMARK  status: ('A' for Active; 'I' for Inactive)
REMARK    1  A    between atoms: C3_3  and  O1_4 
REMARK    2  A    between atoms: N1_14  and  O2_16 
REMARK    3  A    between atoms: O2_16  and  C13_17 
REMARK    4  A    between atoms: C13_17  and  C14_18 
REMARK       I    between atoms: C14_18  and  N2_20 
REMARK    5  A    between atoms: N2_20  and  C15_21 
REMARK    6  A    between atoms: C15_21  and  C16_22 
REMARK    7  A    between atoms: C15_21  and  C21_33 
REMARK       I    between atoms: C16_22  and  N3_24 
REMARK    8  A    between atoms: N3_24  and  C17_25 
REMARK    9  A    between atoms: C17_25  and  C18_26 
REMARK   10  A    between atoms: C17_25  and  C20_30 
REMARK   11  A    between atoms: C18_26  and  C19_27 
REMARK   12  A    between atoms: C19_27  and  O6_29 
REMARK   13  A    between atoms: C20_30  and  O8_32 
ROOT
HETATM    1  C1  UNL     1       0.065  54.095 -27.759  1.00  0.00     0.015 C 
HETATM    2  C2  UNL     1      -0.706  53.284 -27.317  1.00  0.00    -0.078 C 
HETATM    3  C3  UNL     1      -1.661  52.287 -26.800  1.00  0.00     0.128 C 
HETATM    4  C4  UNL     1      -1.869  51.136 -27.785  1.00  0.00     0.052 C 
HETATM    5  C5  UNL     1      -2.593  50.092 -26.941  1.00  0.00     0.010 C 
HETATM    6  C6  UNL     1      -1.946  50.178 -25.544  1.00  0.00     0.002 C 
HETATM    7  C7  UNL     1      -2.957  49.941 -24.400  1.00  0.00    -0.004 C 
HETATM    8  C8  UNL     1      -3.555  48.514 -24.477  1.00  0.00     0.010 C 
HETATM    9  C9  UNL     1      -3.752  47.833 -23.119  1.00  0.00     0.035 C 
HETATM   10  C10 UNL     1      -4.268  48.821 -22.110  1.00  0.00    -0.069 C 
HETATM   11  C11 UNL     1      -5.477  48.660 -21.540  1.00  0.00     0.030 C 
HETATM   12  C12 UNL     1      -6.026  49.695 -20.619  1.00  0.00     0.032 C 
HETATM   13  N1  UNL     1      -7.001  49.524 -19.779  1.00  0.00    -0.271 N 
ATOM     14  H1  UNL     1      -7.363  50.256 -19.169  1.00  0.00     0.194 HD
HETATM   15  C24 UNL     1      -5.381  51.072 -20.631  1.00  0.00     0.060 C 
HETATM   16  C25 UNL     1      -4.333  51.252 -21.727  1.00  0.00     0.020 C 
HETATM   17  C26 UNL     1      -3.378  50.037 -21.849  1.00  0.00    -0.016 C 
HETATM   18  C27 UNL     1      -2.601  49.811 -20.529  1.00  0.00     0.020 C 
HETATM   19  C28 UNL     1      -2.323  50.205 -23.012  1.00  0.00     0.002 C 
HETATM   20  C29 UNL     1      -1.505  51.516 -22.945  1.00  0.00     0.007 C 
HETATM   21  C30 UNL     1      -1.589  52.356 -24.217  1.00  0.00     0.014 C 
HETATM   22  C31 UNL     1      -1.211  51.561 -25.487  1.00  0.00     0.003 C 
HETATM   23  C32 UNL     1       0.319  51.284 -25.474  1.00  0.00     0.020 C 
ENDROOT
BRANCH   3  24
HETATM   24  O1  UNL     1      -2.935  52.914 -26.615  1.00  0.00    -0.377 OA
HETATM   25  H2  UNL     1      -2.990  53.666 -27.232  1.00  0.00     0.211 HD
ENDBRANCH   3  24
BRANCH  13  26
HETATM   26  O2  UNL     1      -7.499  48.211 -19.810  1.00  0.00    -0.271 OA
BRANCH  26  27
HETATM   27  C13 UNL     1      -8.659  48.186 -20.635  1.00  0.00     0.303 C 
BRANCH  27  28
HETATM   28  C14 UNL     1      -9.748  47.413 -19.904  1.00  0.00     0.244 C 
HETATM   29  O3  UNL     1      -9.551  46.894 -18.807  1.00  0.00    -0.271 OA
HETATM   30  N2  UNL     1     -10.946  47.316 -20.599  1.00  0.00    -0.346 N 
HETATM   31  H16 UNL     1     -11.058  47.954 -21.374  1.00  0.00     0.163 HD
BRANCH  30  32
HETATM   32  C15 UNL     1     -12.186  46.820 -19.980  1.00  0.00     0.180 C 
BRANCH  32  33
HETATM   33  C16 UNL     1     -13.074  46.251 -21.131  1.00  0.00     0.241 C 
HETATM   34  O4  UNL     1     -13.604  45.139 -21.082  1.00  0.00    -0.271 OA
HETATM   35  N3  UNL     1     -13.311  47.106 -22.195  1.00  0.00    -0.344 N 
HETATM   36  H18 UNL     1     -12.665  47.865 -22.341  1.00  0.00     0.163 HD
BRANCH  35  37
HETATM   37  C17 UNL     1     -14.023  46.608 -23.382  1.00  0.00     0.192 C 
BRANCH  37  38
HETATM   38  C18 UNL     1     -15.358  47.325 -23.565  1.00  0.00     0.146 C 
BRANCH  38  39
HETATM   39  C19 UNL     1     -16.475  46.341 -23.763  1.00  0.00     0.141 C 
HETATM   40  O5  UNL     1     -17.565  46.341 -23.220  1.00  0.00    -0.650 OA
BRANCH  39  41
HETATM   41  O6  UNL     1     -16.177  45.423 -24.700  1.00  0.00    -0.776 OA
HETATM   42  H22 UNL     1     -16.971  44.849 -24.747  1.00  0.00     0.167 HD
ENDBRANCH  39  41
ENDBRANCH  38  39
ENDBRANCH  37  38
BRANCH  37  43
HETATM   43  C20 UNL     1     -13.197  46.805 -24.660  1.00  0.00     0.164 C 
HETATM   44  O7  UNL     1     -12.031  46.473 -24.815  1.00  0.00    -0.648 OA
BRANCH  43  45
HETATM   45  O8  UNL     1     -13.891  47.326 -25.691  1.00  0.00    -0.775 OA
HETATM   46  H23 UNL     1     -13.220  47.446 -26.398  1.00  0.00     0.167 HD
ENDBRANCH  43  45
ENDBRANCH  37  43
ENDBRANCH  35  37
ENDBRANCH  32  33
BRANCH  32  47
HETATM   47  C21 UNL     1     -12.854  47.828 -19.003  1.00  0.00     0.009 C 
HETATM   48  C22 UNL     1     -13.905  47.129 -18.124  1.00  0.00     0.012 C 
HETATM   49  C23 UNL     1     -13.545  49.005 -19.701  1.00  0.00     0.012 C 
ENDBRANCH  32  47
ENDBRANCH  30  32
ENDBRANCH  27  28
ENDBRANCH  26  27
ENDBRANCH  13  26
TORSDOF 13
ENDMDL
MODEL 4
REMARK minimizedAffinity -9.22062588
REMARK CNNscore 0.204245105
REMARK CNNaffinity 6.83687735
REMARK  13 active torsions:
REMARK  status: ('A' for Active; 'I' for Inactive)
REMARK    1  A    between atoms: C3_3  and  O1_4 
REMARK    2  A    between atoms: N1_14  and  O2_16 
REMARK    3  A    between atoms: O2_16  and  C13_17 
REMARK    4  A    between atoms: C13_17  and  C14_18 
REMARK       I    between atoms: C14_18  and  N2_20 
REMARK    5  A    between atoms: N2_20  and  C15_21 
REMARK    6  A    between atoms: C15_21  and  C16_22 
REMARK    7  A    between atoms: C15_21  and  C21_33 
REMARK       I    between atoms: C16_22  and  N3_24 
REMARK    8  A    between atoms: N3_24  and  C17_25 
REMARK    9  A    between atoms: C17_25  and  C18_26 
REMARK   10  A    between atoms: C17_25  and  C20_30 
REMARK   11  A    between atoms: C18_26  and  C19_27 
REMARK   12  A    between atoms: C19_27  and  O6_29 
REMARK   13  A    between atoms: C20_30  and  O8_32 
ROOT
HETATM    1  C1  UNL     1      -4.406  50.942 -10.153  1.00  0.00     0.015 C 
HETATM    2  C2  UNL     1      -3.644  51.303 -11.011  1.00  0.00    -0.078 C 
HETATM    3  C3  UNL     1      -2.705  51.766 -12.048  1.00  0.00     0.128 C 
HETATM    4  C4  UNL     1      -1.457  52.407 -11.439  1.00  0.00     0.052 C 
HETATM    5  C5  UNL     1      -0.505  52.497 -12.628  1.00  0.00     0.010 C 
HETATM    6  C6  UNL     1      -0.737  51.203 -13.433  1.00  0.00     0.002 C 
HETATM    7  C7  UNL     1      -0.619  51.419 -14.959  1.00  0.00    -0.004 C 
HETATM    8  C8  UNL     1       0.810  51.879 -15.343  1.00  0.00     0.010 C 
HETATM    9  C9  UNL     1       1.346  51.270 -16.643  1.00  0.00     0.035 C 
HETATM   10  C10 UNL     1       0.259  51.214 -17.680  1.00  0.00    -0.069 C 
HETATM   11  C11 UNL     1       0.362  51.911 -18.827  1.00  0.00     0.030 C 
HETATM   12  C12 UNL     1      -0.762  51.932 -19.806  1.00  0.00     0.032 C 
HETATM   13  N1  UNL     1      -0.678  52.286 -21.052  1.00  0.00    -0.271 N 
ATOM     14  H1  UNL     1      -1.469  52.303 -21.695  1.00  0.00     0.194 HD
HETATM   15  C24 UNL     1      -2.131  51.478 -19.326  1.00  0.00     0.060 C 
HETATM   16  C25 UNL     1      -2.199  51.203 -17.825  1.00  0.00     0.020 C 
HETATM   17  C26 UNL     1      -0.979  50.397 -17.308  1.00  0.00    -0.016 C 
HETATM   18  C27 UNL     1      -0.893  49.017 -18.007  1.00  0.00     0.020 C 
HETATM   19  C28 UNL     1      -1.027  50.151 -15.749  1.00  0.00     0.002 C 
HETATM   20  C29 UNL     1      -2.339  49.505 -15.247  1.00  0.00     0.007 C 
HETATM   21  C30 UNL     1      -3.042  50.312 -14.159  1.00  0.00     0.014 C 
HETATM   22  C31 UNL     1      -2.120  50.636 -12.962  1.00  0.00     0.003 C 
HETATM   23  C32 UNL     1      -1.848  49.329 -12.163  1.00  0.00     0.020 C 
ENDROOT
BRANCH   3  24
HETATM   24  O1  UNL     1      -3.345  52.771 -12.841  1.00  0.00    -0.377 OA
HETATM   25  H2  UNL     1      -4.029  53.195 -12.292  1.00  0.00     0.211 HD
ENDBRANCH   3  24
BRANCH  13  26
HETATM   26  O2  UNL     1       0.632  52.644 -21.410  1.00  0.00    -0.271 OA
BRANCH  26  27
HETATM   27  C13 UNL     1       0.577  53.445 -22.587  1.00  0.00     0.303 C 
BRANCH  27  28
HETATM   28  C14 UNL     1       0.232  52.543 -23.763  1.00  0.00     0.244 C 
HETATM   29  O3  UNL     1      -0.030  51.351 -23.612  1.00  0.00    -0.271 OA
HETATM   30  N2  UNL     1       0.283  53.170 -25.000  1.00  0.00    -0.346 N 
HETATM   31  H16 UNL     1       0.294  54.181 -24.981  1.00  0.00     0.163 HD
BRANCH  30  32
HETATM   32  C15 UNL     1      -0.238  52.548 -26.228  1.00  0.00     0.180 C 
BRANCH  32  33
HETATM   33  C16 UNL     1      -1.691  52.068 -25.915  1.00  0.00     0.241 C 
HETATM   34  O4  UNL     1      -2.603  52.844 -25.621  1.00  0.00    -0.271 OA
HETATM   35  N3  UNL     1      -1.930  50.713 -26.069  1.00  0.00    -0.344 N 
HETATM   36  H18 UNL     1      -1.139  50.089 -26.032  1.00  0.00     0.163 HD
BRANCH  35  37
HETATM   37  C17 UNL     1      -3.230  50.155 -25.666  1.00  0.00     0.192 C 
BRANCH  37  38
HETATM   38  C18 UNL     1      -3.409  48.736 -26.199  1.00  0.00     0.146 C 
BRANCH  38  39
HETATM   39  C19 UNL     1      -4.093  48.743 -27.535  1.00  0.00     0.141 C 
HETATM   40  O5  UNL     1      -5.123  48.171 -27.843  1.00  0.00    -0.650 OA
BRANCH  39  41
HETATM   41  O6  UNL     1      -3.461  49.538 -28.419  1.00  0.00    -0.776 OA
HETATM   42  H22 UNL     1      -3.994  49.470 -29.239  1.00  0.00     0.167 HD
ENDBRANCH  39  41
ENDBRANCH  38  39
ENDBRANCH  37  38
BRANCH  37  43
HETATM   43  C20 UNL     1      -3.380  50.114 -24.139  1.00  0.00     0.164 C 
HETATM   44  O7  UNL     1      -4.374  50.445 -23.511  1.00  0.00    -0.648 OA
BRANCH  43  45
HETATM   45  O8  UNL     1      -2.318  49.591 -23.494  1.00  0.00    -0.775 OA
HETATM   46  H23 UNL     1      -2.540  49.693 -22.544  1.00  0.00     0.167 HD
ENDBRANCH  43  45
ENDBRANCH  37  43
ENDBRANCH  35  37
ENDBRANCH  32  33
BRANCH  32  47
HETATM   47  C21 UNL     1       0.726  51.511 -26.871  1.00  0.00     0.009 C 
HETATM   48  C22 UNL     1       2.162  51.697 -26.353  1.00  0.00     0.012 C 
HETATM   49  C23 UNL     1       0.777  51.574 -28.402  1.00  0.00     0.012 C 
ENDBRANCH  32  47
ENDBRANCH  30  32
ENDBRANCH  27  28
ENDBRANCH  26  27
ENDBRANCH  13  26
TORSDOF 13
ENDMDL
MODEL 5
REMARK minimizedAffinity -8.82836342
REMARK CNNscore 0.203234762
REMARK CNNaffinity 6.32946157
REMARK  13 active torsions:
REMARK  status: ('A' for Active; 'I' for Inactive)
REMARK    1  A    between atoms: C3_3  and  O1_4 
REMARK    2  A    between atoms: N1_14  and  O2_16 
REMARK    3  A    between atoms: O2_16  and  C13_17 
REMARK    4  A    between atoms: C13_17  and  C14_18 
REMARK       I    between atoms: C14_18  and  N2_20 
REMARK    5  A    between atoms: N2_20  and  C15_21 
REMARK    6  A    between atoms: C15_21  and  C16_22 
REMARK    7  A    between atoms: C15_21  and  C21_33 
REMARK       I    between atoms: C16_22  and  N3_24 
REMARK    8  A    between atoms: N3_24  and  C17_25 
REMARK    9  A    between atoms: C17_25  and  C18_26 
REMARK   10  A    between atoms: C17_25  and  C20_30 
REMARK   11  A    between atoms: C18_26  and  C19_27 
REMARK   12  A    between atoms: C19_27  and  O6_29 
REMARK   13  A    between atoms: C20_30  and  O8_32 
ROOT
HETATM    1  C1  UNL     1      -0.448  54.077 -28.062  1.00  0.00     0.015 C 
HETATM    2  C2  UNL     1      -1.081  53.274 -27.428  1.00  0.00    -0.078 C 
HETATM    3  C3  UNL     1      -1.872  52.287 -26.673  1.00  0.00     0.128 C 
HETATM    4  C4  UNL     1      -2.397  51.169 -27.575  1.00  0.00     0.052 C 
HETATM    5  C5  UNL     1      -2.874  50.120 -26.576  1.00  0.00     0.010 C 
HETATM    6  C6  UNL     1      -1.843  50.151 -25.430  1.00  0.00     0.002 C 
HETATM    7  C7  UNL     1      -2.481  49.907 -24.044  1.00  0.00    -0.004 C 
HETATM    8  C8  UNL     1      -3.120  48.498 -23.970  1.00  0.00     0.010 C 
HETATM    9  C9  UNL     1      -2.932  47.784 -22.626  1.00  0.00     0.035 C 
HETATM   10  C10 UNL     1      -3.097  48.756 -21.492  1.00  0.00    -0.069 C 
HETATM   11  C11 UNL     1      -4.090  48.609 -20.595  1.00  0.00     0.030 C 
HETATM   12  C12 UNL     1      -4.311  49.631 -19.532  1.00  0.00     0.032 C 
HETATM   13  N1  UNL     1      -5.002  49.461 -18.446  1.00  0.00    -0.271 N 
ATOM     14  H1  UNL     1      -5.146  50.185 -17.743  1.00  0.00     0.194 HD
HETATM   15  C24 UNL     1      -3.655  50.991 -19.707  1.00  0.00     0.060 C 
HETATM   16  C25 UNL     1      -2.970  51.176 -21.060  1.00  0.00     0.020 C 
HETATM   17  C26 UNL     1      -2.132  49.942 -21.481  1.00  0.00    -0.016 C 
HETATM   18  C27 UNL     1      -1.009  49.660 -20.452  1.00  0.00     0.020 C 
HETATM   19  C28 UNL     1      -1.460  50.117 -22.899  1.00  0.00     0.002 C 
HETATM   20  C29 UNL     1      -0.617  51.405 -23.049  1.00  0.00     0.007 C 
HETATM   21  C30 UNL     1      -1.044  52.281 -24.224  1.00  0.00     0.014 C 
HETATM   22  C31 UNL     1      -1.081  51.513 -25.564  1.00  0.00     0.003 C 
HETATM   23  C32 UNL     1       0.377  51.198 -26.008  1.00  0.00     0.020 C 
ENDROOT
BRANCH   3  24
HETATM   24  O1  UNL     1      -3.015  52.939 -26.109  1.00  0.00    -0.377 OA
HETATM   25  H2  UNL     1      -3.225  53.709 -26.668  1.00  0.00     0.211 HD
ENDBRANCH   3  24
BRANCH  13  26
HETATM   26  O2  UNL     1      -5.528  48.162 -18.356  1.00  0.00    -0.271 OA
BRANCH  26  27
HETATM   27  C13 UNL     1      -6.890  48.253 -17.949  1.00  0.00     0.303 C 
BRANCH  27  28
HETATM   28  C14 UNL     1      -7.768  48.116 -19.184  1.00  0.00     0.244 C 
HETATM   29  O3  UNL     1      -7.316  48.252 -20.320  1.00  0.00    -0.271 OA
HETATM   30  N2  UNL     1      -9.107  47.872 -18.911  1.00  0.00    -0.346 N 
HETATM   31  H16 UNL     1      -9.316  47.568 -17.970  1.00  0.00     0.163 HD
BRANCH  30  32
HETATM   32  C15 UNL     1     -10.071  47.478 -19.952  1.00  0.00     0.180 C 
BRANCH  32  33
HETATM   33  C16 UNL     1     -11.497  47.638 -19.335  1.00  0.00     0.241 C 
HETATM   34  O4  UNL     1     -11.714  47.570 -18.123  1.00  0.00    -0.271 OA
HETATM   35  N3  UNL     1     -12.512  47.948 -20.224  1.00  0.00    -0.344 N 
HETATM   36  H18 UNL     1     -12.371  47.725 -21.196  1.00  0.00     0.163 HD
BRANCH  35  37
HETATM   37  C17 UNL     1     -13.905  47.984 -19.752  1.00  0.00     0.192 C 
BRANCH  37  38
HETATM   38  C18 UNL     1     -14.325  49.403 -19.380  1.00  0.00     0.146 C 
BRANCH  38  39
HETATM   39  C19 UNL     1     -15.119  49.415 -18.106  1.00  0.00     0.141 C 
HETATM   40  O5  UNL     1     -15.198  48.528 -17.276  1.00  0.00    -0.650 OA
BRANCH  39  41
HETATM   41  O6  UNL     1     -15.740  50.593 -17.911  1.00  0.00    -0.776 OA
HETATM   42  H22 UNL     1     -16.213  50.486 -17.058  1.00  0.00     0.167 HD
ENDBRANCH  39  41
ENDBRANCH  38  39
ENDBRANCH  37  38
BRANCH  37  43
HETATM   43  C20 UNL     1     -14.877  47.463 -20.819  1.00  0.00     0.164 C 
HETATM   44  O7  UNL     1     -15.949  46.916 -20.602  1.00  0.00    -0.648 OA
BRANCH  43  45
HETATM   45  O8  UNL     1     -14.499  47.724 -22.086  1.00  0.00    -0.775 OA
HETATM   46  H23 UNL     1     -15.178  47.279 -22.637  1.00  0.00     0.167 HD
ENDBRANCH  43  45
ENDBRANCH  37  43
ENDBRANCH  35  37
ENDBRANCH  32  33
BRANCH  32  47
HETATM   47  C21 UNL     1      -9.745  46.120 -20.636  1.00  0.00     0.009 C 
HETATM   48  C22 UNL     1      -9.890  46.226 -22.164  1.00  0.00     0.012 C 
HETATM   49  C23 UNL     1     -10.630  44.959 -20.168  1.00  0.00     0.012 C 
ENDBRANCH  32  47
ENDBRANCH  30  32
ENDBRANCH  27  28
ENDBRANCH  26  27
ENDBRANCH  13  26
TORSDOF 13
ENDMDL
MODEL 6
REMARK minimizedAffinity -7.8273201
REMARK CNNscore 0.196843237
REMARK CNNaffinity 6.89724874
REMARK  13 active torsions:
REMARK  status: ('A' for Active; 'I' for Inactive)
REMARK    1  A    between atoms: C3_3  and  O1_4 
REMARK    2  A    between atoms: N1_14  and  O2_16 
REMARK    3  A    between atoms: O2_16  and  C13_17 
REMARK    4  A    between atoms: C13_17  and  C14_18 
REMARK       I    between atoms: C14_18  and  N2_20 
REMARK    5  A    between atoms: N2_20  and  C15_21 
REMARK    6  A    between atoms: C15_21  and  C16_22 
REMARK    7  A    between atoms: C15_21  and  C21_33 
REMARK       I    between atoms: C16_22  and  N3_24 
REMARK    8  A    between atoms: N3_24  and  C17_25 
REMARK    9  A    between atoms: C17_25  and  C18_26 
REMARK   10  A    between atoms: C17_25  and  C20_30 
REMARK   11  A    between atoms: C18_26  and  C19_27 
REMARK   12  A    between atoms: C19_27  and  O6_29 
REMARK   13  A    between atoms: C20_30  and  O8_32 
ROOT
HETATM    1  C1  UNL     1       3.912  44.571 -11.267  1.00  0.00     0.015 C 
HETATM    2  C2  UNL     1       3.281  45.102 -12.142  1.00  0.00    -0.078 C 
HETATM    3  C3  UNL     1       2.506  45.729 -13.227  1.00  0.00     0.128 C 
HETATM    4  C4  UNL     1       1.410  44.802 -13.753  1.00  0.00     0.052 C 
HETATM    5  C5  UNL     1       0.545  45.736 -14.592  1.00  0.00     0.010 C 
HETATM    6  C6  UNL     1       0.514  47.068 -13.816  1.00  0.00     0.002 C 
HETATM    7  C7  UNL     1       0.501  48.302 -14.746  1.00  0.00    -0.004 C 
HETATM    8  C8  UNL     1      -0.775  48.320 -15.624  1.00  0.00     0.010 C 
HETATM    9  C9  UNL     1      -1.386  49.710 -15.830  1.00  0.00     0.035 C 
HETATM   10  C10 UNL     1      -0.302  50.730 -16.042  1.00  0.00    -0.069 C 
HETATM   11  C11 UNL     1      -0.206  51.407 -17.201  1.00  0.00     0.030 C 
HETATM   12  C12 UNL     1       0.930  52.342 -17.444  1.00  0.00     0.032 C 
HETATM   13  N1  UNL     1       0.971  53.268 -18.353  1.00  0.00    -0.271 N 
ATOM     14  H1  UNL     1       1.769  53.885 -18.503  1.00  0.00     0.194 HD
HETATM   15  C24 UNL     1       2.146  52.232 -16.538  1.00  0.00     0.060 C 
HETATM   16  C25 UNL     1       2.096  51.044 -15.580  1.00  0.00     0.020 C 
HETATM   17  C26 UNL     1       0.711  50.876 -14.905  1.00  0.00    -0.016 C 
HETATM   18  C27 UNL     1       0.346  52.130 -14.073  1.00  0.00     0.020 C 
HETATM   19  C28 UNL     1       0.647  49.621 -13.949  1.00  0.00     0.002 C 
HETATM   20  C29 UNL     1       1.764  49.578 -12.880  1.00  0.00     0.007 C 
HETATM   21  C30 UNL     1       2.589  48.294 -12.908  1.00  0.00     0.014 C 
HETATM   22  C31 UNL     1       1.719  47.020 -12.816  1.00  0.00     0.003 C 
HETATM   23  C32 UNL     1       1.135  46.908 -11.378  1.00  0.00     0.020 C 
ENDROOT
BRANCH   3  24
HETATM   24  O1  UNL     1       3.381  46.006 -14.326  1.00  0.00    -0.377 OA
HETATM   25  H2  UNL     1       4.121  45.374 -14.284  1.00  0.00     0.211 HD
ENDBRANCH   3  24
BRANCH  13  26
HETATM   26  O2  UNL     1      -0.213  53.319 -19.106  1.00  0.00    -0.271 OA
BRANCH  26  27
HETATM   27  C13 UNL     1       0.123  53.217 -20.486  1.00  0.00     0.303 C 
BRANCH  27  28
HETATM   28  C14 UNL     1      -0.726  52.116 -21.105  1.00  0.00     0.244 C 
HETATM   29  O3  UNL     1      -1.889  51.918 -20.754  1.00  0.00    -0.271 OA
HETATM   30  N2  UNL     1      -0.065  51.347 -22.052  1.00  0.00    -0.346 N 
HETATM   31  H16 UNL     1       0.798  51.734 -22.409  1.00  0.00     0.163 HD
BRANCH  30  32
HETATM   32  C15 UNL     1      -0.763  50.394 -22.930  1.00  0.00     0.180 C 
BRANCH  32  33
HETATM   33  C16 UNL     1      -1.335  51.215 -24.130  1.00  0.00     0.241 C 
HETATM   34  O4  UNL     1      -1.892  52.306 -23.990  1.00  0.00    -0.271 OA
HETATM   35  N3  UNL     1      -1.107  50.689 -25.390  1.00  0.00    -0.344 N 
HETATM   36  H18 UNL     1      -0.913  49.702 -25.460  1.00  0.00     0.163 HD
BRANCH  35  37
HETATM   37  C17 UNL     1      -1.725  51.323 -26.564  1.00  0.00     0.192 C 
BRANCH  37  38
HETATM   38  C18 UNL     1      -0.693  51.579 -27.660  1.00  0.00     0.146 C 
BRANCH  38  39
HETATM   39  C19 UNL     1      -0.051  52.926 -27.493  1.00  0.00     0.141 C 
HETATM   40  O5  UNL     1       0.564  53.337 -26.526  1.00  0.00    -0.650 OA
BRANCH  39  41
HETATM   41  O6  UNL     1      -0.169  53.680 -28.601  1.00  0.00    -0.776 OA
HETATM   42  H22 UNL     1       0.287  54.520 -28.380  1.00  0.00     0.167 HD
ENDBRANCH  39  41
ENDBRANCH  38  39
ENDBRANCH  37  38
BRANCH  37  43
HETATM   43  C20 UNL     1      -2.842  50.453 -27.156  1.00  0.00     0.164 C 
HETATM   44  O7  UNL     1      -3.563  49.692 -26.527  1.00  0.00    -0.648 OA
BRANCH  43  45
HETATM   45  O8  UNL     1      -3.049  50.641 -28.474  1.00  0.00    -0.775 OA
HETATM   46  H23 UNL     1      -3.736  49.980 -28.707  1.00  0.00     0.167 HD
ENDBRANCH  43  45
ENDBRANCH  37  43
ENDBRANCH  35  37
ENDBRANCH  32  33
BRANCH  32  47
HETATM   47  C21 UNL     1      -1.750  49.451 -22.186  1.00  0.00     0.009 C 
HETATM   48  C22 UNL     1      -3.167  50.049 -22.156  1.00  0.00     0.012 C 
HETATM   49  C23 UNL     1      -1.348  49.146 -20.738  1.00  0.00     0.012 C 
ENDBRANCH  32  47
ENDBRANCH  30  32
ENDBRANCH  27  28
ENDBRANCH  26  27
ENDBRANCH  13  26
TORSDOF 13
ENDMDL
MODEL 7
REMARK minimizedAffinity -7.6460433
REMARK CNNscore 0.186445504
REMARK CNNaffinity 5.25655508
REMARK  13 active torsions:
REMARK  status: ('A' for Active; 'I' for Inactive)
REMARK    1  A    between atoms: C3_3  and  O1_4 
REMARK    2  A    between atoms: N1_14  and  O2_16 
REMARK    3  A    between atoms: O2_16  and  C13_17 
REMARK    4  A    between atoms: C13_17  and  C14_18 
REMARK       I    between atoms: C14_18  and  N2_20 
REMARK    5  A    between atoms: N2_20  and  C15_21 
REMARK    6  A    between atoms: C15_21  and  C16_22 
REMARK    7  A    between atoms: C15_21  and  C21_33 
REMARK       I    between atoms: C16_22  and  N3_24 
REMARK    8  A    between atoms: N3_24  and  C17_25 
REMARK    9  A    between atoms: C17_25  and  C18_26 
REMARK   10  A    between atoms: C17_25  and  C20_30 
REMARK   11  A    between atoms: C18_26  and  C19_27 
REMARK   12  A    between atoms: C19_27  and  O6_29 
REMARK   13  A    between atoms: C20_30  and  O8_32 
ROOT
HETATM    1  C1  UNL     1      -4.546  46.497 -31.924  1.00  0.00     0.015 C 
HETATM    2  C2  UNL     1      -5.546  46.886 -31.380  1.00  0.00    -0.078 C 
HETATM    3  C3  UNL     1      -6.768  47.387 -30.725  1.00  0.00     0.128 C 
HETATM    4  C4  UNL     1      -7.498  48.413 -31.592  1.00  0.00     0.052 C 
HETATM    5  C5  UNL     1      -8.855  48.535 -30.906  1.00  0.00     0.010 C 
HETATM    6  C6  UNL     1      -9.207  47.107 -30.444  1.00  0.00     0.002 C 
HETATM    7  C7  UNL     1      -9.961  47.084 -29.095  1.00  0.00    -0.004 C 
HETATM    8  C8  UNL     1     -11.322  47.815 -29.209  1.00  0.00     0.010 C 
HETATM    9  C9  UNL     1     -12.468  47.149 -28.442  1.00  0.00     0.035 C 
HETATM   10  C10 UNL     1     -11.983  46.648 -27.110  1.00  0.00    -0.069 C 
HETATM   11  C11 UNL     1     -12.480  47.143 -25.962  1.00  0.00     0.030 C 
HETATM   12  C12 UNL     1     -11.924  46.717 -24.646  1.00  0.00     0.032 C 
HETATM   13  N1  UNL     1     -12.502  46.864 -23.493  1.00  0.00    -0.271 N 
ATOM     14  H1  UNL     1     -12.089  46.573 -22.607  1.00  0.00     0.194 HD
HETATM   15  C24 UNL     1     -10.571  46.022 -24.638  1.00  0.00     0.060 C 
HETATM   16  C25 UNL     1      -9.883  45.997 -26.001  1.00  0.00     0.020 C 
HETATM   17  C26 UNL     1     -10.849  45.622 -27.154  1.00  0.00    -0.016 C 
HETATM   18  C27 UNL     1     -11.447  44.210 -26.936  1.00  0.00     0.020 C 
HETATM   19  C28 UNL     1     -10.147  45.640 -28.568  1.00  0.00     0.002 C 
HETATM   20  C29 UNL     1      -8.864  44.780 -28.652  1.00  0.00     0.007 C 
HETATM   21  C30 UNL     1      -7.635  45.559 -29.116  1.00  0.00     0.014 C 
HETATM   22  C31 UNL     1      -7.863  46.301 -30.452  1.00  0.00     0.003 C 
HETATM   23  C32 UNL     1      -7.945  45.258 -31.604  1.00  0.00     0.020 C 
ENDROOT
BRANCH   3  24
HETATM   24  O1  UNL     1      -6.405  48.050 -29.509  1.00  0.00    -0.377 OA
HETATM   25  H2  UNL     1      -5.493  48.376 -29.607  1.00  0.00     0.211 HD
ENDBRANCH   3  24
BRANCH  13  26
HETATM   26  O2  UNL     1     -13.762  47.473 -23.610  1.00  0.00    -0.271 OA
BRANCH  26  27
HETATM   27  C13 UNL     1     -14.710  46.693 -22.888  1.00  0.00     0.303 C 
BRANCH  27  28
HETATM   28  C14 UNL     1     -14.946  47.355 -21.538  1.00  0.00     0.244 C 
HETATM   29  O3  UNL     1     -14.308  48.344 -21.180  1.00  0.00    -0.271 OA
HETATM   30  N2  UNL     1     -15.898  46.725 -20.750  1.00  0.00    -0.346 N 
HETATM   31  H16 UNL     1     -16.499  46.067 -21.227  1.00  0.00     0.163 HD
BRANCH  30  32
HETATM   32  C15 UNL     1     -16.440  47.330 -19.522  1.00  0.00     0.180 C 
BRANCH  32  33
HETATM   33  C16 UNL     1     -15.300  47.295 -18.455  1.00  0.00     0.241 C 
HETATM   34  O4  UNL     1     -15.049  48.246 -17.712  1.00  0.00    -0.271 OA
HETATM   35  N3  UNL     1     -14.626  46.092 -18.325  1.00  0.00    -0.344 N 
HETATM   36  H18 UNL     1     -14.653  45.452 -19.102  1.00  0.00     0.163 HD
BRANCH  35  37
HETATM   37  C17 UNL     1     -13.452  46.010 -17.443  1.00  0.00     0.192 C 
BRANCH  37  38
HETATM   38  C18 UNL     1     -12.673  47.323 -17.438  1.00  0.00     0.146 C 
BRANCH  38  39
HETATM   39  C19 UNL     1     -11.212  47.082 -17.185  1.00  0.00     0.141 C 
HETATM   40  O5  UNL     1     -10.398  46.601 -17.953  1.00  0.00    -0.650 OA
BRANCH  39  41
HETATM   41  O6  UNL     1     -10.832  47.525 -15.973  1.00  0.00    -0.776 OA
HETATM   42  H22 UNL     1      -9.873  47.324 -15.924  1.00  0.00     0.167 HD
ENDBRANCH  39  41
ENDBRANCH  38  39
ENDBRANCH  37  38
BRANCH  37  43
HETATM   43  C20 UNL     1     -13.852  45.688 -15.997  1.00  0.00     0.164 C 
HETATM   44  O7  UNL     1     -14.320  46.480 -15.192  1.00  0.00    -0.648 OA
BRANCH  43  45
HETATM   45  O8  UNL     1     -13.723  44.388 -15.665  1.00  0.00    -0.775 OA
HETATM   46  H23 UNL     1     -13.953  44.359 -14.711  1.00  0.00     0.167 HD
ENDBRANCH  43  45
ENDBRANCH  37  43
ENDBRANCH  35  37
ENDBRANCH  32  33
BRANCH  32  47
HETATM   47  C21 UNL     1     -17.825  46.767 -19.095  1.00  0.00     0.009 C 
HETATM   48  C22 UNL     1     -18.071  45.381 -19.716  1.00  0.00     0.012 C 
HETATM   49  C23 UNL     1     -19.007  47.662 -19.481  1.00  0.00     0.012 C 
ENDBRANCH  32  47
ENDBRANCH  30  32
ENDBRANCH  27  28
ENDBRANCH  26  27
ENDBRANCH  13  26
TORSDOF 13
ENDMDL
MODEL 8
REMARK minimizedAffinity -7.82679987
REMARK CNNscore 0.166796625
REMARK CNNaffinity 5.93569946
REMARK  13 active torsions:
REMARK  status: ('A' for Active; 'I' for Inactive)
REMARK    1  A    between atoms: C3_3  and  O1_4 
REMARK    2  A    between atoms: N1_14  and  O2_16 
REMARK    3  A    between atoms: O2_16  and  C13_17 
REMARK    4  A    between atoms: C13_17  and  C14_18 
REMARK       I    between atoms: C14_18  and  N2_20 
REMARK    5  A    between atoms: N2_20  and  C15_21 
REMARK    6  A    between atoms: C15_21  and  C16_22 
REMARK    7  A    between atoms: C15_21  and  C21_33 
REMARK       I    between atoms: C16_22  and  N3_24 
REMARK    8  A    between atoms: N3_24  and  C17_25 
REMARK    9  A    between atoms: C17_25  and  C18_26 
REMARK   10  A    between atoms: C17_25  and  C20_30 
REMARK   11  A    between atoms: C18_26  and  C19_27 
REMARK   12  A    between atoms: C19_27  and  O6_29 
REMARK   13  A    between atoms: C20_30  and  O8_32 
ROOT
HETATM    1  C1  UNL     1      -0.180  54.572 -27.596  1.00  0.00     0.015 C 
HETATM    2  C2  UNL     1      -0.754  53.624 -27.127  1.00  0.00    -0.078 C 
HETATM    3  C3  UNL     1      -1.464  52.456 -26.578  1.00  0.00     0.128 C 
HETATM    4  C4  UNL     1      -1.252  51.207 -27.435  1.00  0.00     0.052 C 
HETATM    5  C5  UNL     1      -1.764  50.086 -26.537  1.00  0.00     0.010 C 
HETATM    6  C6  UNL     1      -1.321  50.472 -25.111  1.00  0.00     0.002 C 
HETATM    7  C7  UNL     1      -2.354  50.071 -24.035  1.00  0.00    -0.004 C 
HETATM    8  C8  UNL     1      -2.543  48.534 -23.993  1.00  0.00     0.010 C 
HETATM    9  C9  UNL     1      -2.703  47.951 -22.585  1.00  0.00     0.035 C 
HETATM   10  C10 UNL     1      -3.569  48.847 -21.745  1.00  0.00    -0.069 C 
HETATM   11  C11 UNL     1      -4.749  48.415 -21.262  1.00  0.00     0.030 C 
HETATM   12  C12 UNL     1      -5.649  49.339 -20.515  1.00  0.00     0.032 C 
HETATM   13  N1  UNL     1      -6.632  48.984 -19.745  1.00  0.00    -0.271 N 
ATOM     14  H1  UNL     1      -7.240  49.642 -19.256  1.00  0.00     0.194 HD
HETATM   15  C24 UNL     1      -5.392  50.832 -20.636  1.00  0.00     0.060 C 
HETATM   16  C25 UNL     1      -4.314  51.192 -21.656  1.00  0.00     0.020 C 
HETATM   17  C26 UNL     1      -3.066  50.279 -21.556  1.00  0.00    -0.016 C 
HETATM   18  C27 UNL     1      -2.408  50.394 -20.159  1.00  0.00     0.020 C 
HETATM   19  C28 UNL     1      -1.970  50.623 -22.640  1.00  0.00     0.002 C 
HETATM   20  C29 UNL     1      -1.539  52.109 -22.659  1.00  0.00     0.007 C 
HETATM   21  C30 UNL     1      -1.699  52.775 -24.023  1.00  0.00     0.014 C 
HETATM   22  C31 UNL     1      -0.987  52.002 -25.156  1.00  0.00     0.003 C 
HETATM   23  C32 UNL     1       0.551  52.156 -24.985  1.00  0.00     0.020 C 
ENDROOT
BRANCH   3  24
HETATM   24  O1  UNL     1      -2.870  52.724 -26.573  1.00  0.00    -0.377 OA
HETATM   25  H2  UNL     1      -3.053  53.373 -27.276  1.00  0.00     0.211 HD
ENDBRANCH   3  24
BRANCH  13  26
HETATM   26  O2  UNL     1      -6.760  47.588 -19.663  1.00  0.00    -0.271 OA
BRANCH  26  27
HETATM   27  C13 UNL     1      -7.061  47.084 -20.960  1.00  0.00     0.303 C 
BRANCH  27  28
HETATM   28  C14 UNL     1      -8.570  47.142 -21.157  1.00  0.00     0.244 C 
HETATM   29  O3  UNL     1      -9.239  48.098 -20.768  1.00  0.00    -0.271 OA
HETATM   30  N2  UNL     1      -9.111  46.019 -21.766  1.00  0.00    -0.346 N 
HETATM   31  H16 UNL     1      -8.452  45.408 -22.229  1.00  0.00     0.163 HD
BRANCH  30  32
HETATM   32  C15 UNL     1     -10.498  45.972 -22.256  1.00  0.00     0.180 C 
BRANCH  32  33
HETATM   33  C16 UNL     1     -10.471  46.441 -23.745  1.00  0.00     0.241 C 
HETATM   34  O4  UNL     1     -10.027  47.537 -24.094  1.00  0.00    -0.271 OA
HETATM   35  N3  UNL     1     -10.900  45.516 -24.682  1.00  0.00    -0.344 N 
HETATM   36  H18 UNL     1     -11.499  44.769 -24.366  1.00  0.00     0.163 HD
BRANCH  35  37
HETATM   37  C17 UNL     1     -11.035  45.918 -26.091  1.00  0.00     0.192 C 
BRANCH  37  38
HETATM   38  C18 UNL     1     -11.342  47.409 -26.211  1.00  0.00     0.146 C 
BRANCH  38  39
HETATM   39  C19 UNL     1     -12.345  47.666 -27.299  1.00  0.00     0.141 C 
HETATM   40  O5  UNL     1     -12.858  46.848 -28.040  1.00  0.00    -0.650 OA
BRANCH  39  41
HETATM   41  O6  UNL     1     -12.701  48.963 -27.358  1.00  0.00    -0.776 OA
HETATM   42  H22 UNL     1     -13.354  49.008 -28.088  1.00  0.00     0.167 HD
ENDBRANCH  39  41
ENDBRANCH  38  39
ENDBRANCH  37  38
BRANCH  37  43
HETATM   43  C20 UNL     1      -9.755  45.629 -26.887  1.00  0.00     0.164 C 
HETATM   44  O7  UNL     1      -9.701  45.082 -27.978  1.00  0.00    -0.648 OA
BRANCH  43  45
HETATM   45  O8  UNL     1      -8.631  46.109 -26.318  1.00  0.00    -0.775 OA
HETATM   46  H23 UNL     1      -7.910  45.792 -26.904  1.00  0.00     0.167 HD
ENDBRANCH  43  45
ENDBRANCH  37  43
ENDBRANCH  35  37
ENDBRANCH  32  33
BRANCH  32  47
HETATM   47  C21 UNL     1     -11.527  46.662 -21.317  1.00  0.00     0.009 C 
HETATM   48  C22 UNL     1     -11.790  45.808 -20.065  1.00  0.00     0.012 C 
HETATM   49  C23 UNL     1     -12.882  46.943 -21.976  1.00  0.00     0.012 C 
ENDBRANCH  32  47
ENDBRANCH  30  32
ENDBRANCH  27  28
ENDBRANCH  26  27
ENDBRANCH  13  26
TORSDOF 13
ENDMDL
MODEL 9
REMARK minimizedAffinity -8.64818192
REMARK CNNscore 0.157755688
REMARK CNNaffinity 5.70606947
REMARK  13 active torsions:
REMARK  status: ('A' for Active; 'I' for Inactive)
REMARK    1  A    between atoms: C3_3  and  O1_4 
REMARK    2  A    between atoms: N1_14  and  O2_16 
REMARK    3  A    between atoms: O2_16  and  C13_17 
REMARK    4  A    between atoms: C13_17  and  C14_18 
REMARK       I    between atoms: C14_18  and  N2_20 
REMARK    5  A    between atoms: N2_20  and  C15_21 
REMARK    6  A    between atoms: C15_21  and  C16_22 
REMARK    7  A    between atoms: C15_21  and  C21_33 
REMARK       I    between atoms: C16_22  and  N3_24 
REMARK    8  A    between atoms: N3_24  and  C17_25 
REMARK    9  A    between atoms: C17_25  and  C18_26 
REMARK   10  A    between atoms: C17_25  and  C20_30 
REMARK   11  A    between atoms: C18_26  and  C19_27 
REMARK   12  A    between atoms: C19_27  and  O6_29 
REMARK   13  A    between atoms: C20_30  and  O8_32 
ROOT
HETATM    1  C1  UNL     1       0.007  54.393 -27.835  1.00  0.00     0.015 C 
HETATM    2  C2  UNL     1      -0.667  53.524 -27.348  1.00  0.00    -0.078 C 
HETATM    3  C3  UNL     1      -1.501  52.453 -26.775  1.00  0.00     0.128 C 
HETATM    4  C4  UNL     1      -1.609  51.251 -27.715  1.00  0.00     0.052 C 
HETATM    5  C5  UNL     1      -2.202  50.169 -26.819  1.00  0.00     0.010 C 
HETATM    6  C6  UNL     1      -1.540  50.372 -25.442  1.00  0.00     0.002 C 
HETATM    7  C7  UNL     1      -2.497  50.073 -24.267  1.00  0.00    -0.004 C 
HETATM    8  C8  UNL     1      -2.945  48.590 -24.282  1.00  0.00     0.010 C 
HETATM    9  C9  UNL     1      -3.043  47.942 -22.897  1.00  0.00     0.035 C 
HETATM   10  C10 UNL     1      -3.638  48.907 -21.910  1.00  0.00    -0.069 C 
HETATM   11  C11 UNL     1      -4.812  48.643 -21.307  1.00  0.00     0.030 C 
HETATM   12  C12 UNL     1      -5.447  49.648 -20.408  1.00  0.00     0.032 C 
HETATM   13  N1  UNL     1      -6.383  49.407 -19.540  1.00  0.00    -0.271 N 
ATOM     14  H1  UNL     1      -6.807  50.119 -18.947  1.00  0.00     0.194 HD
HETATM   15  C24 UNL     1      -4.950  51.082 -20.482  1.00  0.00     0.060 C 
HETATM   16  C25 UNL     1      -3.949  51.330 -21.608  1.00  0.00     0.020 C 
HETATM   17  C26 UNL     1      -2.875  50.217 -21.712  1.00  0.00    -0.016 C 
HETATM   18  C27 UNL     1      -2.052  50.120 -20.403  1.00  0.00     0.020 C 
HETATM   19  C28 UNL     1      -1.867  50.451 -22.904  1.00  0.00     0.002 C 
HETATM   20  C29 UNL     1      -1.189  51.842 -22.900  1.00  0.00     0.007 C 
HETATM   21  C30 UNL     1      -1.386  52.622 -24.198  1.00  0.00     0.014 C 
HETATM   22  C31 UNL     1      -0.952  51.825 -25.449  1.00  0.00     0.003 C 
HETATM   23  C32 UNL     1       0.599  51.708 -25.463  1.00  0.00     0.020 C 
ENDROOT
BRANCH   3  24
HETATM   24  O1  UNL     1      -2.830  52.951 -26.581  1.00  0.00    -0.377 OA
HETATM   25  H2  UNL     1      -2.975  53.670 -27.222  1.00  0.00     0.211 HD
ENDBRANCH   3  24
BRANCH  13  26
HETATM   26  O2  UNL     1      -6.741  48.049 -19.515  1.00  0.00    -0.271 OA
BRANCH  26  27
HETATM   27  C13 UNL     1      -8.131  47.942 -19.808  1.00  0.00     0.303 C 
BRANCH  27  28
HETATM   28  C14 UNL     1      -8.297  47.016 -21.004  1.00  0.00     0.244 C 
HETATM   29  O3  UNL     1      -9.324  47.008 -21.681  1.00  0.00    -0.271 OA
HETATM   30  N2  UNL     1      -7.220  46.170 -21.228  1.00  0.00    -0.346 N 
HETATM   31  H16 UNL     1      -6.362  46.414 -20.752  1.00  0.00     0.163 HD
BRANCH  30  32
HETATM   32  C15 UNL     1      -7.079  45.371 -22.456  1.00  0.00     0.180 C 
BRANCH  32  33
HETATM   33  C16 UNL     1      -7.336  46.334 -23.658  1.00  0.00     0.241 C 
HETATM   34  O4  UNL     1      -6.622  47.310 -23.899  1.00  0.00    -0.271 OA
HETATM   35  N3  UNL     1      -8.375  45.986 -24.505  1.00  0.00    -0.344 N 
HETATM   36  H18 UNL     1      -9.091  45.375 -24.145  1.00  0.00     0.163 HD
BRANCH  35  37
HETATM   37  C17 UNL     1      -8.773  46.905 -25.582  1.00  0.00     0.192 C 
BRANCH  37  38
HETATM   38  C18 UNL     1      -9.040  48.307 -25.039  1.00  0.00     0.146 C 
BRANCH  38  39
HETATM   39  C19 UNL     1      -9.948  49.076 -25.956  1.00  0.00     0.141 C 
HETATM   40  O5  UNL     1     -11.106  48.821 -26.234  1.00  0.00    -0.650 OA
BRANCH  39  41
HETATM   41  O6  UNL     1      -9.355  50.183 -26.438  1.00  0.00    -0.776 OA
HETATM   42  H22 UNL     1     -10.036  50.601 -27.008  1.00  0.00     0.167 HD
ENDBRANCH  39  41
ENDBRANCH  38  39
ENDBRANCH  37  38
BRANCH  37  43
HETATM   43  C20 UNL     1      -7.690  47.012 -26.664  1.00  0.00     0.164 C 
HETATM   44  O7  UNL     1      -7.488  46.198 -27.554  1.00  0.00    -0.648 OA
BRANCH  43  45
HETATM   45  O8  UNL     1      -6.980  48.156 -26.623  1.00  0.00    -0.775 OA
HETATM   46  H23 UNL     1      -6.301  48.044 -27.324  1.00  0.00     0.167 HD
ENDBRANCH  43  45
ENDBRANCH  37  43
ENDBRANCH  35  37
ENDBRANCH  32  33
BRANCH  32  47
HETATM   47  C21 UNL     1      -7.874  44.035 -22.438  1.00  0.00     0.009 C 
HETATM   48  C22 UNL     1      -8.060  43.524 -21.000  1.00  0.00     0.012 C 
HETATM   49  C23 UNL     1      -7.218  42.910 -23.246  1.00  0.00     0.012 C 
ENDBRANCH  32  47
ENDBRANCH  30  32
ENDBRANCH  27  28
ENDBRANCH  26  27
ENDBRANCH  13  26
TORSDOF 13
ENDMDL
