MODEL 1
REMARK minimizedAffinity -7.26179743
REMARK CNNscore 0.631084919
REMARK CNNaffinity 6.79188728
REMARK  10 active torsions:
REMARK  status: ('A' for Active; 'I' for Inactive)
REMARK    1  A    between atoms: C2_2  and  C3_3 
REMARK    2  A    between atoms: C2_2  and  C9_12 
REMARK    3  A    between atoms: C3_3  and  C4_4 
REMARK    4  A    between atoms: C4_4  and  C5_5 
REMARK    5  A    between atoms: C5_5  and  O1_6 
REMARK    6  A    between atoms: C5_5  and  C6_7 
REMARK    7  A    between atoms: C6_7  and  O2_9 
REMARK    8  A    between atoms: C6_7  and  C8_10 
REMARK    9  A    between atoms: C8_10  and  O3_11 
REMARK   10  A    between atoms: C16_19  and  O4_20 
ROOT
HETATM    1  C9  UNL     1     -11.526  14.521   2.117  1.00  0.00    -0.002 C 
HETATM    2  C10 UNL     1     -10.220  14.854   1.341  1.00  0.00     0.007 C 
HETATM    3  C11 UNL     1      -9.302  15.636   2.302  1.00  0.00     0.015 C 
HETATM    4  C12 UNL     1      -9.925  15.446   3.702  1.00  0.00    -0.005 C 
HETATM    5  C13 UNL     1      -9.423  14.069   4.236  1.00  0.00     0.021 C 
HETATM    6  C14 UNL     1      -9.635  16.434   4.830  1.00  0.00     0.002 C 
HETATM    7  C15 UNL     1     -10.542  16.669   5.817  1.00  0.00    -0.032 C 
HETATM    8  C16 UNL     1     -11.906  15.961   5.796  1.00  0.00     0.149 C 
HETATM    9  C17 UNL     1     -12.256  15.096   4.565  1.00  0.00     0.047 C 
HETATM   10  C18 UNL     1     -11.459  15.506   3.324  1.00  0.00    -0.026 C 
HETATM   11  C19 UNL     1     -11.922  16.925   2.871  1.00  0.00     0.016 C 
HETATM   12  C20 UNL     1     -10.301  17.735   6.934  1.00  0.00    -0.012 C 
HETATM   13  C21 UNL     1     -10.933  19.041   6.393  1.00  0.00     0.021 C 
HETATM   14  C22 UNL     1     -10.977  17.363   8.280  1.00  0.00     0.021 C 
HETATM   15  C23 UNL     1     -10.655  18.315   9.420  1.00  0.00     0.080 C 
HETATM   16  C24 UNL     1      -9.167  18.375   9.646  1.00  0.00     0.135 C 
HETATM   17  O5  UNL     1      -8.717  18.274  10.789  1.00  0.00    -0.297 OA
HETATM   18  C25 UNL     1      -8.277  18.673   8.430  1.00  0.00     0.018 C 
HETATM   19  C26 UNL     1      -6.827  18.265   8.798  1.00  0.00     0.023 C 
HETATM   20  C27 UNL     1      -8.268  20.193   8.212  1.00  0.00     0.023 C 
HETATM   21  C28 UNL     1      -8.758  17.822   7.201  1.00  0.00     0.020 C 
HETATM   22  C29 UNL     1      -8.016  18.154   5.904  1.00  0.00     0.090 C 
HETATM   23  C30 UNL     1      -8.306  17.128   4.836  1.00  0.00     0.157 C 
HETATM   24  O6  UNL     1      -7.460  16.887   3.974  1.00  0.00    -0.293 OA
ENDROOT
BRANCH   1  25
HETATM   25  C2  UNL     1     -12.769  14.512   1.186  1.00  0.00    -0.014 C 
HETATM   26  C1  UNL     1     -14.074  14.125   1.891  1.00  0.00     0.010 C 
BRANCH  25  27
HETATM   27  C3  UNL     1     -12.562  13.656  -0.096  1.00  0.00     0.007 C 
BRANCH  27  28
HETATM   28  C4  UNL     1     -12.870  12.145  -0.054  1.00  0.00     0.035 C 
BRANCH  28  29
HETATM   29  C5  UNL     1     -13.619  11.573  -1.262  1.00  0.00     0.154 C 
BRANCH  29  30
HETATM   30  O1  UNL     1     -12.788  11.637  -2.431  1.00  0.00    -0.392 OA
HETATM   31  H10 UNL     1     -11.949  11.193  -2.219  1.00  0.00     0.210 HD
ENDBRANCH  29  30
BRANCH  29  32
HETATM   32  C6  UNL     1     -14.200  10.132  -1.120  1.00  0.00     0.101 C 
HETATM   33  C7  UNL     1     -13.499   9.376   0.015  1.00  0.00     0.051 C 
BRANCH  32  34
HETATM   34  O2  UNL     1     -15.591  10.252  -0.741  1.00  0.00    -0.385 OA
HETATM   35  H14 UNL     1     -15.810  11.209  -0.770  1.00  0.00     0.210 HD
ENDBRANCH  32  34
BRANCH  32  36
HETATM   36  C8  UNL     1     -14.187   9.299  -2.415  1.00  0.00     0.204 C 
BRANCH  36  37
HETATM   37  O3  UNL     1     -12.966   8.607  -2.617  1.00  0.00    -0.398 OA
HETATM   38  H17 UNL     1     -13.069   8.075  -3.428  1.00  0.00     0.209 HD
ENDBRANCH  36  37
ENDBRANCH  32  36
ENDBRANCH  29  32
ENDBRANCH  28  29
ENDBRANCH  27  28
ENDBRANCH  25  27
ENDBRANCH   1  25
BRANCH   8  39
HETATM   39  O4  UNL     1     -12.015  15.113   6.933  1.00  0.00    -0.391 OA
HETATM   40  H27 UNL     1     -11.265  14.494   6.907  1.00  0.00     0.210 HD
ENDBRANCH   8  39
TORSDOF 10
ENDMDL
MODEL 2
REMARK minimizedAffinity -6.74515438
REMARK CNNscore 0.629415333
REMARK CNNaffinity 6.49684525
REMARK  10 active torsions:
REMARK  status: ('A' for Active; 'I' for Inactive)
REMARK    1  A    between atoms: C2_2  and  C3_3 
REMARK    2  A    between atoms: C2_2  and  C9_12 
REMARK    3  A    between atoms: C3_3  and  C4_4 
REMARK    4  A    between atoms: C4_4  and  C5_5 
REMARK    5  A    between atoms: C5_5  and  O1_6 
REMARK    6  A    between atoms: C5_5  and  C6_7 
REMARK    7  A    between atoms: C6_7  and  O2_9 
REMARK    8  A    between atoms: C6_7  and  C8_10 
REMARK    9  A    between atoms: C8_10  and  O3_11 
REMARK   10  A    between atoms: C16_19  and  O4_20 
ROOT
HETATM    1  C9  UNL     1     -14.917  -4.046  14.063  1.00  0.00    -0.002 C 
HETATM    2  C10 UNL     1     -13.668  -3.599  14.873  1.00  0.00     0.007 C 
HETATM    3  C11 UNL     1     -13.887  -2.128  15.281  1.00  0.00     0.015 C 
HETATM    4  C12 UNL     1     -15.383  -1.853  15.014  1.00  0.00    -0.005 C 
HETATM    5  C13 UNL     1     -16.168  -2.383  16.252  1.00  0.00     0.021 C 
HETATM    6  C14 UNL     1     -15.891  -0.428  14.807  1.00  0.00     0.002 C 
HETATM    7  C15 UNL     1     -16.976  -0.169  14.026  1.00  0.00    -0.032 C 
HETATM    8  C16 UNL     1     -17.697  -1.317  13.302  1.00  0.00     0.149 C 
HETATM    9  C17 UNL     1     -17.074  -2.729  13.380  1.00  0.00     0.047 C 
HETATM   10  C18 UNL     1     -15.575  -2.684  13.683  1.00  0.00    -0.026 C 
HETATM   11  C19 UNL     1     -14.830  -2.064  12.461  1.00  0.00     0.016 C 
HETATM   12  C20 UNL     1     -17.465   1.286  13.734  1.00  0.00    -0.012 C 
HETATM   13  C21 UNL     1     -16.745   1.703  12.429  1.00  0.00     0.021 C 
HETATM   14  C22 UNL     1     -19.000   1.376  13.520  1.00  0.00     0.021 C 
HETATM   15  C23 UNL     1     -19.521   2.795  13.361  1.00  0.00     0.080 C 
HETATM   16  C24 UNL     1     -19.170   3.620  14.571  1.00  0.00     0.135 C 
HETATM   17  O5  UNL     1     -20.033   4.316  15.110  1.00  0.00    -0.297 OA
HETATM   18  C25 UNL     1     -17.699   3.636  15.016  1.00  0.00     0.018 C 
HETATM   19  C26 UNL     1     -17.655   4.166  16.472  1.00  0.00     0.023 C 
HETATM   20  C27 UNL     1     -16.954   4.659  14.148  1.00  0.00     0.023 C 
HETATM   21  C28 UNL     1     -17.120   2.177  14.979  1.00  0.00     0.020 C 
HETATM   22  C29 UNL     1     -15.620   2.109  15.275  1.00  0.00     0.090 C 
HETATM   23  C30 UNL     1     -15.175   0.687  15.509  1.00  0.00     0.157 C 
HETATM   24  O6  UNL     1     -14.223   0.459  16.255  1.00  0.00    -0.293 OA
ENDROOT
BRANCH   1  25
HETATM   25  C2  UNL     1     -14.556  -5.074  12.957  1.00  0.00    -0.014 C 
HETATM   26  C1  UNL     1     -13.059  -5.388  12.862  1.00  0.00     0.010 C 
BRANCH  25  27
HETATM   27  C3  UNL     1     -15.127  -4.693  11.561  1.00  0.00     0.007 C 
BRANCH  27  28
HETATM   28  C4  UNL     1     -14.265  -4.923  10.304  1.00  0.00     0.035 C 
BRANCH  28  29
HETATM   29  C5  UNL     1     -14.803  -4.333   8.997  1.00  0.00     0.154 C 
BRANCH  29  30
HETATM   30  O1  UNL     1     -14.858  -2.901   9.089  1.00  0.00    -0.392 OA
HETATM   31  H10 UNL     1     -13.973  -2.590   9.347  1.00  0.00     0.210 HD
ENDBRANCH  29  30
BRANCH  29  32
HETATM   32  C6  UNL     1     -14.070  -4.736   7.680  1.00  0.00     0.101 C 
HETATM   33  C7  UNL     1     -14.879  -4.298   6.454  1.00  0.00     0.051 C 
BRANCH  32  34
HETATM   34  O2  UNL     1     -12.818  -4.012   7.631  1.00  0.00    -0.385 OA
HETATM   35  H14 UNL     1     -12.733  -3.537   8.488  1.00  0.00     0.210 HD
ENDBRANCH  32  34
BRANCH  32  36
HETATM   36  C8  UNL     1     -13.696  -6.227   7.578  1.00  0.00     0.204 C 
BRANCH  36  37
HETATM   37  O3  UNL     1     -12.297  -6.453   7.637  1.00  0.00    -0.398 OA
HETATM   38  H17 UNL     1     -12.162  -7.419   7.612  1.00  0.00     0.209 HD
ENDBRANCH  36  37
ENDBRANCH  32  36
ENDBRANCH  29  32
ENDBRANCH  28  29
ENDBRANCH  27  28
ENDBRANCH  25  27
ENDBRANCH   1  25
BRANCH   8  39
HETATM   39  O4  UNL     1     -19.025  -1.430  13.800  1.00  0.00    -0.391 OA
HETATM   40  H27 UNL     1     -18.964  -1.566  14.762  1.00  0.00     0.210 HD
ENDBRANCH   8  39
TORSDOF 10
ENDMDL
MODEL 3
REMARK minimizedAffinity -8.87189198
REMARK CNNscore 0.62470305
REMARK CNNaffinity 6.9171586
REMARK  10 active torsions:
REMARK  status: ('A' for Active; 'I' for Inactive)
REMARK    1  A    between atoms: C2_2  and  C3_3 
REMARK    2  A    between atoms: C2_2  and  C9_12 
REMARK    3  A    between atoms: C3_3  and  C4_4 
REMARK    4  A    between atoms: C4_4  and  C5_5 
REMARK    5  A    between atoms: C5_5  and  O1_6 
REMARK    6  A    between atoms: C5_5  and  C6_7 
REMARK    7  A    between atoms: C6_7  and  O2_9 
REMARK    8  A    between atoms: C6_7  and  C8_10 
REMARK    9  A    between atoms: C8_10  and  O3_11 
REMARK   10  A    between atoms: C16_19  and  O4_20 
ROOT
HETATM    1  C9  UNL     1      -5.168   6.564  14.849  1.00  0.00    -0.002 C 
HETATM    2  C10 UNL     1      -5.529   5.352  13.944  1.00  0.00     0.007 C 
HETATM    3  C11 UNL     1      -4.312   5.079  13.037  1.00  0.00     0.015 C 
HETATM    4  C12 UNL     1      -3.154   5.891  13.657  1.00  0.00    -0.005 C 
HETATM    5  C13 UNL     1      -2.568   5.029  14.817  1.00  0.00     0.021 C 
HETATM    6  C14 UNL     1      -1.944   6.296  12.818  1.00  0.00     0.002 C 
HETATM    7  C15 UNL     1      -1.241   7.429  13.089  1.00  0.00    -0.032 C 
HETATM    8  C16 UNL     1      -1.679   8.353  14.237  1.00  0.00     0.149 C 
HETATM    9  C17 UNL     1      -3.000   8.026  14.969  1.00  0.00     0.047 C 
HETATM   10  C18 UNL     1      -3.945   7.184  14.108  1.00  0.00    -0.026 C 
HETATM   11  C19 UNL     1      -4.440   8.047  12.907  1.00  0.00     0.016 C 
HETATM   12  C20 UNL     1      -0.051   7.906  12.196  1.00  0.00    -0.012 C 
HETATM   13  C21 UNL     1      -0.683   8.853  11.148  1.00  0.00     0.021 C 
HETATM   14  C22 UNL     1       1.032   8.681  12.994  1.00  0.00     0.021 C 
HETATM   15  C23 UNL     1       2.261   9.045  12.178  1.00  0.00     0.080 C 
HETATM   16  C24 UNL     1       2.899   7.805  11.611  1.00  0.00     0.135 C 
HETATM   17  O5  UNL     1       4.116   7.639  11.714  1.00  0.00    -0.297 OA
HETATM   18  C25 UNL     1       1.998   6.842  10.822  1.00  0.00     0.018 C 
HETATM   19  C26 UNL     1       2.739   5.483  10.720  1.00  0.00     0.023 C 
HETATM   20  C27 UNL     1       1.865   7.384   9.391  1.00  0.00     0.023 C 
HETATM   21  C28 UNL     1       0.644   6.637  11.589  1.00  0.00     0.020 C 
HETATM   22  C29 UNL     1      -0.376   5.800  10.812  1.00  0.00     0.090 C 
HETATM   23  C30 UNL     1      -1.531   5.394  11.694  1.00  0.00     0.157 C 
HETATM   24  O6  UNL     1      -2.131   4.342  11.470  1.00  0.00    -0.293 OA
ENDROOT
BRANCH   1  25
HETATM   25  C2  UNL     1      -6.410   7.438  15.171  1.00  0.00    -0.014 C 
HETATM   26  C1  UNL     1      -6.069   8.857  15.643  1.00  0.00     0.010 C 
BRANCH  25  27
HETATM   27  C3  UNL     1      -7.398   6.753  16.158  1.00  0.00     0.007 C 
BRANCH  27  28
HETATM   28  C4  UNL     1      -8.916   6.874  15.913  1.00  0.00     0.035 C 
BRANCH  28  29
HETATM   29  C5  UNL     1      -9.352   7.074  14.458  1.00  0.00     0.154 C 
BRANCH  29  30
HETATM   30  O1  UNL     1      -9.308   5.824  13.755  1.00  0.00    -0.392 OA
HETATM   31  H10 UNL     1      -9.840   5.185  14.259  1.00  0.00     0.210 HD
ENDBRANCH  29  30
BRANCH  29  32
HETATM   32  C6  UNL     1     -10.737   7.752  14.218  1.00  0.00     0.101 C 
HETATM   33  C7  UNL     1     -11.274   7.407  12.825  1.00  0.00     0.051 C 
BRANCH  32  34
HETATM   34  O2  UNL     1     -11.672   7.196  15.172  1.00  0.00    -0.385 OA
HETATM   35  H14 UNL     1     -11.153   6.614  15.770  1.00  0.00     0.210 HD
ENDBRANCH  32  34
BRANCH  32  36
HETATM   36  C8  UNL     1     -10.760   9.275  14.446  1.00  0.00     0.204 C 
BRANCH  36  37
HETATM   37  O3  UNL     1     -10.963   9.630  15.804  1.00  0.00    -0.398 OA
HETATM   38  H17 UNL     1     -10.916  10.603  15.856  1.00  0.00     0.209 HD
ENDBRANCH  36  37
ENDBRANCH  32  36
ENDBRANCH  29  32
ENDBRANCH  28  29
ENDBRANCH  27  28
ENDBRANCH  25  27
ENDBRANCH   1  25
BRANCH   8  39
HETATM   39  O4  UNL     1      -0.661   8.386  15.231  1.00  0.00    -0.391 OA
HETATM   40  H27 UNL     1      -0.505   7.469  15.518  1.00  0.00     0.210 HD
ENDBRANCH   8  39
TORSDOF 10
ENDMDL
MODEL 4
REMARK minimizedAffinity -7.64998245
REMARK CNNscore 0.507762492
REMARK CNNaffinity 6.78480768
REMARK  10 active torsions:
REMARK  status: ('A' for Active; 'I' for Inactive)
REMARK    1  A    between atoms: C2_2  and  C3_3 
REMARK    2  A    between atoms: C2_2  and  C9_12 
REMARK    3  A    between atoms: C3_3  and  C4_4 
REMARK    4  A    between atoms: C4_4  and  C5_5 
REMARK    5  A    between atoms: C5_5  and  O1_6 
REMARK    6  A    between atoms: C5_5  and  C6_7 
REMARK    7  A    between atoms: C6_7  and  O2_9 
REMARK    8  A    between atoms: C6_7  and  C8_10 
REMARK    9  A    between atoms: C8_10  and  O3_11 
REMARK   10  A    between atoms: C16_19  and  O4_20 
ROOT
HETATM    1  C9  UNL     1      -7.720   6.768  15.115  1.00  0.00    -0.002 C 
HETATM    2  C10 UNL     1      -7.768   5.401  14.376  1.00  0.00     0.007 C 
HETATM    3  C11 UNL     1      -6.342   5.101  13.872  1.00  0.00     0.015 C 
HETATM    4  C12 UNL     1      -5.432   6.103  14.614  1.00  0.00    -0.005 C 
HETATM    5  C13 UNL     1      -5.136   5.491  16.017  1.00  0.00     0.021 C 
HETATM    6  C14 UNL     1      -4.062   6.479  14.053  1.00  0.00     0.002 C 
HETATM    7  C15 UNL     1      -3.511   7.701  14.291  1.00  0.00    -0.032 C 
HETATM    8  C16 UNL     1      -4.281   8.750  15.108  1.00  0.00     0.149 C 
HETATM    9  C17 UNL     1      -5.732   8.422  15.525  1.00  0.00     0.047 C 
HETATM   10  C18 UNL     1      -6.373   7.373  14.613  1.00  0.00    -0.026 C 
HETATM   11  C19 UNL     1      -6.570   7.988  13.194  1.00  0.00     0.016 C 
HETATM   12  C20 UNL     1      -2.149   8.138  13.661  1.00  0.00    -0.012 C 
HETATM   13  C21 UNL     1      -2.522   8.847  12.336  1.00  0.00     0.021 C 
HETATM   14  C22 UNL     1      -1.356   9.125  14.559  1.00  0.00     0.021 C 
HETATM   15  C23 UNL     1       0.028   9.467  14.033  1.00  0.00     0.080 C 
HETATM   16  C24 UNL     1       0.852   8.216  13.874  1.00  0.00     0.135 C 
HETATM   17  O5  UNL     1       2.003   8.181  14.311  1.00  0.00    -0.297 OA
HETATM   18  C25 UNL     1       0.240   7.063  13.063  1.00  0.00     0.018 C 
HETATM   19  C26 UNL     1       1.044   5.779  13.394  1.00  0.00     0.023 C 
HETATM   20  C27 UNL     1       0.468   7.359  11.574  1.00  0.00     0.023 C 
HETATM   21  C28 UNL     1      -1.259   6.858  13.484  1.00  0.00     0.020 C 
HETATM   22  C29 UNL     1      -1.994   5.820  12.632  1.00  0.00     0.090 C 
HETATM   23  C30 UNL     1      -3.322   5.454  13.248  1.00  0.00     0.157 C 
HETATM   24  O6  UNL     1      -3.790   4.330  13.067  1.00  0.00    -0.293 OA
ENDROOT
BRANCH   1  25
HETATM   25  C2  UNL     1      -9.042   7.565  14.951  1.00  0.00    -0.014 C 
HETATM   26  C1  UNL     1      -9.531   8.235  16.241  1.00  0.00     0.010 C 
BRANCH  25  27
HETATM   27  C3  UNL     1     -10.181   6.728  14.301  1.00  0.00     0.007 C 
BRANCH  27  28
HETATM   28  C4  UNL     1     -10.768   7.176  12.947  1.00  0.00     0.035 C 
BRANCH  28  29
HETATM   29  C5  UNL     1     -12.186   7.754  12.983  1.00  0.00     0.154 C 
BRANCH  29  30
HETATM   30  O1  UNL     1     -12.816   7.435  14.233  1.00  0.00    -0.392 OA
HETATM   31  H10 UNL     1     -12.229   7.743  14.945  1.00  0.00     0.210 HD
ENDBRANCH  29  30
BRANCH  29  32
HETATM   32  C6  UNL     1     -12.338   9.282  12.705  1.00  0.00     0.101 C 
HETATM   33  C7  UNL     1     -11.605  10.102  13.772  1.00  0.00     0.051 C 
BRANCH  32  34
HETATM   34  O2  UNL     1     -11.689   9.568  11.444  1.00  0.00    -0.385 OA
HETATM   35  H14 UNL     1     -11.414   8.704  11.065  1.00  0.00     0.210 HD
ENDBRANCH  32  34
BRANCH  32  36
HETATM   36  C8  UNL     1     -13.791   9.770  12.550  1.00  0.00     0.204 C 
BRANCH  36  37
HETATM   37  O3  UNL     1     -13.896  11.182  12.474  1.00  0.00    -0.398 OA
HETATM   38  H17 UNL     1     -14.838  11.392  12.331  1.00  0.00     0.209 HD
ENDBRANCH  36  37
ENDBRANCH  32  36
ENDBRANCH  29  32
ENDBRANCH  28  29
ENDBRANCH  27  28
ENDBRANCH  25  27
ENDBRANCH   1  25
BRANCH   8  39
HETATM   39  O4  UNL     1      -3.568   9.032  16.307  1.00  0.00    -0.391 OA
HETATM   40  H27 UNL     1      -3.452   8.190  16.781  1.00  0.00     0.210 HD
ENDBRANCH   8  39
TORSDOF 10
ENDMDL
MODEL 5
REMARK minimizedAffinity -6.45721006
REMARK CNNscore 0.489927143
REMARK CNNaffinity 6.4089818
REMARK  10 active torsions:
REMARK  status: ('A' for Active; 'I' for Inactive)
REMARK    1  A    between atoms: C2_2  and  C3_3 
REMARK    2  A    between atoms: C2_2  and  C9_12 
REMARK    3  A    between atoms: C3_3  and  C4_4 
REMARK    4  A    between atoms: C4_4  and  C5_5 
REMARK    5  A    between atoms: C5_5  and  O1_6 
REMARK    6  A    between atoms: C5_5  and  C6_7 
REMARK    7  A    between atoms: C6_7  and  O2_9 
REMARK    8  A    between atoms: C6_7  and  C8_10 
REMARK    9  A    between atoms: C8_10  and  O3_11 
REMARK   10  A    between atoms: C16_19  and  O4_20 
ROOT
HETATM    1  C9  UNL     1      -2.086  15.187   4.173  1.00  0.00    -0.002 C 
HETATM    2  C10 UNL     1      -2.866  15.121   2.830  1.00  0.00     0.007 C 
HETATM    3  C11 UNL     1      -1.827  14.939   1.704  1.00  0.00     0.015 C 
HETATM    4  C12 UNL     1      -0.516  14.554   2.423  1.00  0.00    -0.005 C 
HETATM    5  C13 UNL     1      -0.585  13.021   2.699  1.00  0.00     0.021 C 
HETATM    6  C14 UNL     1       0.838  14.770   1.750  1.00  0.00     0.002 C 
HETATM    7  C15 UNL     1       1.961  15.015   2.480  1.00  0.00    -0.032 C 
HETATM    8  C16 UNL     1       1.879  15.113   4.011  1.00  0.00     0.149 C 
HETATM    9  C17 UNL     1       0.482  15.063   4.669  1.00  0.00     0.047 C 
HETATM   10  C18 UNL     1      -0.628  15.478   3.700  1.00  0.00    -0.026 C 
HETATM   11  C19 UNL     1      -0.474  16.995   3.374  1.00  0.00     0.016 C 
HETATM   12  C20 UNL     1       3.340  15.321   1.811  1.00  0.00    -0.012 C 
HETATM   13  C21 UNL     1       3.396  16.862   1.681  1.00  0.00     0.021 C 
HETATM   14  C22 UNL     1       4.545  14.838   2.662  1.00  0.00     0.021 C 
HETATM   15  C23 UNL     1       5.892  15.006   1.980  1.00  0.00     0.080 C 
HETATM   16  C24 UNL     1       5.914  14.257   0.673  1.00  0.00     0.135 C 
HETATM   17  O5  UNL     1       6.870  13.528   0.401  1.00  0.00    -0.297 OA
HETATM   18  C25 UNL     1       4.773  14.530  -0.319  1.00  0.00     0.018 C 
HETATM   19  C26 UNL     1       4.764  13.374  -1.353  1.00  0.00     0.023 C 
HETATM   20  C27 UNL     1       5.114  15.813  -1.091  1.00  0.00     0.023 C 
HETATM   21  C28 UNL     1       3.402  14.551   0.445  1.00  0.00     0.020 C 
HETATM   22  C29 UNL     1       2.218  14.952  -0.439  1.00  0.00     0.090 C 
HETATM   23  C30 UNL     1       0.906  14.683   0.255  1.00  0.00     0.157 C 
HETATM   24  O6  UNL     1      -0.094  14.416  -0.412  1.00  0.00    -0.293 OA
ENDROOT
BRANCH   1  25
HETATM   25  C2  UNL     1      -2.774  16.126   5.200  1.00  0.00    -0.014 C 
HETATM   26  C1  UNL     1      -2.887  17.583   4.736  1.00  0.00     0.010 C 
BRANCH  25  27
HETATM   27  C3  UNL     1      -2.140  16.048   6.618  1.00  0.00     0.007 C 
BRANCH  27  28
HETATM   28  C4  UNL     1      -1.347  17.256   7.158  1.00  0.00     0.035 C 
BRANCH  28  29
HETATM   29  C5  UNL     1      -1.928  17.948   8.395  1.00  0.00     0.154 C 
BRANCH  29  30
HETATM   30  O1  UNL     1      -3.226  17.411   8.695  1.00  0.00    -0.392 OA
HETATM   31  H10 UNL     1      -3.134  16.446   8.769  1.00  0.00     0.210 HD
ENDBRANCH  29  30
BRANCH  29  32
HETATM   32  C6  UNL     1      -1.056  17.939   9.689  1.00  0.00     0.101 C 
HETATM   33  C7  UNL     1      -1.005  19.337  10.316  1.00  0.00     0.051 C 
BRANCH  32  34
HETATM   34  O2  UNL     1      -1.703  17.076  10.653  1.00  0.00    -0.385 OA
HETATM   35  H14 UNL     1      -2.464  16.659  10.192  1.00  0.00     0.210 HD
ENDBRANCH  32  34
BRANCH  32  36
HETATM   36  C8  UNL     1       0.366  17.375   9.507  1.00  0.00     0.204 C 
BRANCH  36  37
HETATM   37  O3  UNL     1       0.772  16.540  10.579  1.00  0.00    -0.398 OA
HETATM   38  H17 UNL     1       1.656  16.196  10.355  1.00  0.00     0.209 HD
ENDBRANCH  36  37
ENDBRANCH  32  36
ENDBRANCH  29  32
ENDBRANCH  28  29
ENDBRANCH  27  28
ENDBRANCH  25  27
ENDBRANCH   1  25
BRANCH   8  39
HETATM   39  O4  UNL     1       2.641  14.061   4.593  1.00  0.00    -0.391 OA
HETATM   40  H27 UNL     1       2.290  13.222   4.246  1.00  0.00     0.210 HD
ENDBRANCH   8  39
TORSDOF 10
ENDMDL
MODEL 6
REMARK minimizedAffinity -8.0927248
REMARK CNNscore 0.440765917
REMARK CNNaffinity 6.47080994
REMARK  10 active torsions:
REMARK  status: ('A' for Active; 'I' for Inactive)
REMARK    1  A    between atoms: C2_2  and  C3_3 
REMARK    2  A    between atoms: C2_2  and  C9_12 
REMARK    3  A    between atoms: C3_3  and  C4_4 
REMARK    4  A    between atoms: C4_4  and  C5_5 
REMARK    5  A    between atoms: C5_5  and  O1_6 
REMARK    6  A    between atoms: C5_5  and  C6_7 
REMARK    7  A    between atoms: C6_7  and  O2_9 
REMARK    8  A    between atoms: C6_7  and  C8_10 
REMARK    9  A    between atoms: C8_10  and  O3_11 
REMARK   10  A    between atoms: C16_19  and  O4_20 
ROOT
HETATM    1  C9  UNL     1       6.701  10.547  15.368  1.00  0.00    -0.002 C 
HETATM    2  C10 UNL     1       7.960  10.203  14.523  1.00  0.00     0.007 C 
HETATM    3  C11 UNL     1       7.468   9.655  13.168  1.00  0.00     0.015 C 
HETATM    4  C12 UNL     1       5.966  10.011  13.110  1.00  0.00    -0.005 C 
HETATM    5  C13 UNL     1       5.871  11.489  12.622  1.00  0.00     0.021 C 
HETATM    6  C14 UNL     1       5.013   9.236  12.202  1.00  0.00     0.002 C 
HETATM    7  C15 UNL     1       3.698   9.085  12.520  1.00  0.00    -0.032 C 
HETATM    8  C16 UNL     1       3.149   9.670  13.830  1.00  0.00     0.149 C 
HETATM    9  C17 UNL     1       4.153  10.302  14.820  1.00  0.00     0.047 C 
HETATM   10  C18 UNL     1       5.574   9.770  14.622  1.00  0.00    -0.026 C 
HETATM   11  C19 UNL     1       5.613   8.265  15.032  1.00  0.00     0.016 C 
HETATM   12  C20 UNL     1       2.723   8.228  11.649  1.00  0.00    -0.012 C 
HETATM   13  C21 UNL     1       2.771   6.808  12.264  1.00  0.00     0.021 C 
HETATM   14  C22 UNL     1       1.262   8.750  11.688  1.00  0.00     0.021 C 
HETATM   15  C23 UNL     1       0.316   8.015  10.752  1.00  0.00     0.080 C 
HETATM   16  C24 UNL     1       0.808   8.110   9.331  1.00  0.00     0.135 C 
HETATM   17  O5  UNL     1       0.026   8.423   8.432  1.00  0.00    -0.297 OA
HETATM   18  C25 UNL     1       2.263   7.698   9.056  1.00  0.00     0.018 C 
HETATM   19  C26 UNL     1       2.660   8.273   7.671  1.00  0.00     0.023 C 
HETATM   20  C27 UNL     1       2.306   6.168   8.930  1.00  0.00     0.023 C 
HETATM   21  C28 UNL     1       3.202   8.307  10.158  1.00  0.00     0.020 C 
HETATM   22  C29 UNL     1       4.655   7.838  10.046  1.00  0.00     0.090 C 
HETATM   23  C30 UNL     1       5.560   8.659  10.931  1.00  0.00     0.157 C 
HETATM   24  O6  UNL     1       6.737   8.830  10.611  1.00  0.00    -0.293 OA
ENDROOT
BRANCH   1  25
HETATM   25  C2  UNL     1       6.938  10.312  16.885  1.00  0.00    -0.014 C 
HETATM   26  C1  UNL     1       6.385  11.426  17.782  1.00  0.00     0.010 C 
BRANCH  25  27
HETATM   27  C3  UNL     1       8.425  10.015  17.231  1.00  0.00     0.007 C 
BRANCH  27  28
HETATM   28  C4  UNL     1       9.156  10.910  18.252  1.00  0.00     0.035 C 
BRANCH  28  29
HETATM   29  C5  UNL     1      10.674  10.724  18.349  1.00  0.00     0.154 C 
BRANCH  29  30
HETATM   30  O1  UNL     1      11.283  10.979  17.075  1.00  0.00    -0.392 OA
HETATM   31  H10 UNL     1      10.995  11.861  16.783  1.00  0.00     0.210 HD
ENDBRANCH  29  30
BRANCH  29  32
HETATM   32  C6  UNL     1      11.420  11.540  19.450  1.00  0.00     0.101 C 
HETATM   33  C7  UNL     1      10.420  12.276  20.349  1.00  0.00     0.051 C 
BRANCH  32  34
HETATM   34  O2  UNL     1      12.124  10.600  20.295  1.00  0.00    -0.385 OA
HETATM   35  H14 UNL     1      12.014   9.714  19.885  1.00  0.00     0.210 HD
ENDBRANCH  32  34
BRANCH  32  36
HETATM   36  C8  UNL     1      12.491  12.513  18.921  1.00  0.00     0.204 C 
BRANCH  36  37
HETATM   37  O3  UNL     1      13.764  12.310  19.512  1.00  0.00    -0.398 OA
HETATM   38  H17 UNL     1      14.380  12.934  19.084  1.00  0.00     0.209 HD
ENDBRANCH  36  37
ENDBRANCH  32  36
ENDBRANCH  29  32
ENDBRANCH  28  29
ENDBRANCH  27  28
ENDBRANCH  25  27
ENDBRANCH   1  25
BRANCH   8  39
HETATM   39  O4  UNL     1       2.185  10.673  13.533  1.00  0.00    -0.391 OA
HETATM   40  H27 UNL     1       2.621  11.339  12.972  1.00  0.00     0.210 HD
ENDBRANCH   8  39
TORSDOF 10
ENDMDL
MODEL 7
REMARK minimizedAffinity -8.87787342
REMARK CNNscore 0.398190528
REMARK CNNaffinity 6.60949659
REMARK  10 active torsions:
REMARK  status: ('A' for Active; 'I' for Inactive)
REMARK    1  A    between atoms: C2_2  and  C3_3 
REMARK    2  A    between atoms: C2_2  and  C9_12 
REMARK    3  A    between atoms: C3_3  and  C4_4 
REMARK    4  A    between atoms: C4_4  and  C5_5 
REMARK    5  A    between atoms: C5_5  and  O1_6 
REMARK    6  A    between atoms: C5_5  and  C6_7 
REMARK    7  A    between atoms: C6_7  and  O2_9 
REMARK    8  A    between atoms: C6_7  and  C8_10 
REMARK    9  A    between atoms: C8_10  and  O3_11 
REMARK   10  A    between atoms: C16_19  and  O4_20 
ROOT
HETATM    1  C9  UNL     1       0.266   8.697  13.896  1.00  0.00    -0.002 C 
HETATM    2  C10 UNL     1       0.691   7.483  13.022  1.00  0.00     0.007 C 
HETATM    3  C11 UNL     1      -0.580   6.661  12.729  1.00  0.00     0.015 C 
HETATM    4  C12 UNL     1      -1.756   7.579  13.130  1.00  0.00    -0.005 C 
HETATM    5  C13 UNL     1      -2.015   8.533  11.924  1.00  0.00     0.021 C 
HETATM    6  C14 UNL     1      -3.126   6.993  13.468  1.00  0.00     0.002 C 
HETATM    7  C15 UNL     1      -3.963   7.611  14.346  1.00  0.00    -0.032 C 
HETATM    8  C16 UNL     1      -3.526   8.906  15.047  1.00  0.00     0.149 C 
HETATM    9  C17 UNL     1      -2.077   9.397  14.830  1.00  0.00     0.047 C 
HETATM   10  C18 UNL     1      -1.138   8.262  14.414  1.00  0.00    -0.026 C 
HETATM   11  C19 UNL     1      -0.974   7.277  15.612  1.00  0.00     0.016 C 
HETATM   12  C20 UNL     1      -5.333   6.990  14.769  1.00  0.00    -0.012 C 
HETATM   13  C21 UNL     1      -5.027   6.159  16.039  1.00  0.00     0.021 C 
HETATM   14  C22 UNL     1      -6.404   8.061  15.108  1.00  0.00     0.021 C 
HETATM   15  C23 UNL     1      -7.782   7.490  15.399  1.00  0.00     0.080 C 
HETATM   16  C24 UNL     1      -8.277   6.692  14.221  1.00  0.00     0.135 C 
HETATM   17  O5  UNL     1      -9.420   6.870  13.798  1.00  0.00    -0.297 OA
HETATM   18  C25 UNL     1      -7.350   5.600  13.665  1.00  0.00     0.018 C 
HETATM   19  C26 UNL     1      -7.858   5.230  12.248  1.00  0.00     0.023 C 
HETATM   20  C27 UNL     1      -7.518   4.347  14.538  1.00  0.00     0.023 C 
HETATM   21  C28 UNL     1      -5.884   6.153  13.562  1.00  0.00     0.020 C 
HETATM   22  C29 UNL     1      -4.861   5.092  13.147  1.00  0.00     0.090 C 
HETATM   23  C30 UNL     1      -3.539   5.724  12.786  1.00  0.00     0.157 C 
HETATM   24  O6  UNL     1      -2.809   5.182  11.955  1.00  0.00    -0.293 OA
ENDROOT
BRANCH   1  25
HETATM   25  C2  UNL     1       1.377   9.106  14.901  1.00  0.00    -0.014 C 
HETATM   26  C1  UNL     1       1.806  10.574  14.794  1.00  0.00     0.010 C 
BRANCH  25  27
HETATM   27  C3  UNL     1       2.616   8.167  14.856  1.00  0.00     0.007 C 
BRANCH  27  28
HETATM   28  C4  UNL     1       3.961   8.716  14.341  1.00  0.00     0.035 C 
BRANCH  28  29
HETATM   29  C5  UNL     1       5.221   8.023  14.869  1.00  0.00     0.154 C 
BRANCH  29  30
HETATM   30  O1  UNL     1       4.860   6.966  15.770  1.00  0.00    -0.392 OA
HETATM   31  H10 UNL     1       4.236   6.383  15.304  1.00  0.00     0.210 HD
ENDBRANCH  29  30
BRANCH  29  32
HETATM   32  C6  UNL     1       6.228   7.477  13.810  1.00  0.00     0.101 C 
HETATM   33  C7  UNL     1       7.583   8.182  13.937  1.00  0.00     0.051 C 
BRANCH  32  34
HETATM   34  O2  UNL     1       6.459   6.078  14.101  1.00  0.00    -0.385 OA
HETATM   35  H14 UNL     1       5.845   5.836  14.828  1.00  0.00     0.210 HD
ENDBRANCH  32  34
BRANCH  32  36
HETATM   36  C8  UNL     1       5.727   7.526  12.354  1.00  0.00     0.204 C 
BRANCH  36  37
HETATM   37  O3  UNL     1       5.200   6.287  11.908  1.00  0.00    -0.398 OA
HETATM   38  H17 UNL     1       4.868   6.427  11.001  1.00  0.00     0.209 HD
ENDBRANCH  36  37
ENDBRANCH  32  36
ENDBRANCH  29  32
ENDBRANCH  28  29
ENDBRANCH  27  28
ENDBRANCH  25  27
ENDBRANCH   1  25
BRANCH   8  39
HETATM   39  O4  UNL     1      -4.381   9.972  14.648  1.00  0.00    -0.391 OA
HETATM   40  H27 UNL     1      -4.336  10.031  13.677  1.00  0.00     0.210 HD
ENDBRANCH   8  39
TORSDOF 10
ENDMDL
MODEL 8
REMARK minimizedAffinity -8.42098141
REMARK CNNscore 0.367757171
REMARK CNNaffinity 6.64703989
REMARK  10 active torsions:
REMARK  status: ('A' for Active; 'I' for Inactive)
REMARK    1  A    between atoms: C2_2  and  C3_3 
REMARK    2  A    between atoms: C2_2  and  C9_12 
REMARK    3  A    between atoms: C3_3  and  C4_4 
REMARK    4  A    between atoms: C4_4  and  C5_5 
REMARK    5  A    between atoms: C5_5  and  O1_6 
REMARK    6  A    between atoms: C5_5  and  C6_7 
REMARK    7  A    between atoms: C6_7  and  O2_9 
REMARK    8  A    between atoms: C6_7  and  C8_10 
REMARK    9  A    between atoms: C8_10  and  O3_11 
REMARK   10  A    between atoms: C16_19  and  O4_20 
ROOT
HETATM    1  C9  UNL     1       1.583   9.279  13.156  1.00  0.00    -0.002 C 
HETATM    2  C10 UNL     1       2.505   8.359  12.306  1.00  0.00     0.007 C 
HETATM    3  C11 UNL     1       1.649   7.169  11.826  1.00  0.00     0.015 C 
HETATM    4  C12 UNL     1       0.187   7.585  12.101  1.00  0.00    -0.005 C 
HETATM    5  C13 UNL     1      -0.262   8.477  10.904  1.00  0.00     0.021 C 
HETATM    6  C14 UNL     1      -0.912   6.534  12.242  1.00  0.00     0.002 C 
HETATM    7  C15 UNL     1      -2.004   6.752  13.025  1.00  0.00    -0.032 C 
HETATM    8  C16 UNL     1      -2.136   8.062  13.817  1.00  0.00     0.149 C 
HETATM    9  C17 UNL     1      -0.943   9.043  13.803  1.00  0.00     0.047 C 
HETATM   10  C18 UNL     1       0.378   8.342  13.476  1.00  0.00    -0.026 C 
HETATM   11  C19 UNL     1       0.751   7.389  14.653  1.00  0.00     0.016 C 
HETATM   12  C20 UNL     1      -3.100   5.661  13.248  1.00  0.00    -0.012 C 
HETATM   13  C21 UNL     1      -2.659   4.896  14.520  1.00  0.00     0.021 C 
HETATM   14  C22 UNL     1      -4.513   6.262  13.481  1.00  0.00     0.021 C 
HETATM   15  C23 UNL     1      -5.620   5.225  13.575  1.00  0.00     0.080 C 
HETATM   16  C24 UNL     1      -5.667   4.396  12.318  1.00  0.00     0.135 C 
HETATM   17  O5  UNL     1      -6.746   4.193  11.758  1.00  0.00    -0.297 OA
HETATM   18  C25 UNL     1      -4.357   3.741  11.851  1.00  0.00     0.018 C 
HETATM   19  C26 UNL     1      -4.543   3.325  10.369  1.00  0.00     0.023 C 
HETATM   20  C27 UNL     1      -4.163   2.447  12.655  1.00  0.00     0.023 C 
HETATM   21  C28 UNL     1      -3.182   4.778  11.955  1.00  0.00     0.020 C 
HETATM   22  C29 UNL     1      -1.810   4.176  11.640  1.00  0.00     0.090 C 
HETATM   23  C30 UNL     1      -0.769   5.255  11.473  1.00  0.00     0.157 C 
HETATM   24  O6  UNL     1       0.191   5.067  10.726  1.00  0.00    -0.293 OA
ENDROOT
BRANCH   1  25
HETATM   25  C2  UNL     1       2.358   9.973  14.308  1.00  0.00    -0.014 C 
HETATM   26  C1  UNL     1       2.914  11.354  13.942  1.00  0.00     0.010 C 
BRANCH  25  27
HETATM   27  C3  UNL     1       3.473   9.077  14.920  1.00  0.00     0.007 C 
BRANCH  27  28
HETATM   28  C4  UNL     1       4.934   9.277  14.471  1.00  0.00     0.035 C 
BRANCH  28  29
HETATM   29  C5  UNL     1       5.969   8.339  15.099  1.00  0.00     0.154 C 
BRANCH  29  30
HETATM   30  O1  UNL     1       5.339   7.118  15.514  1.00  0.00    -0.392 OA
HETATM   31  H10 UNL     1       4.868   6.754  14.745  1.00  0.00     0.210 HD
ENDBRANCH  29  30
BRANCH  29  32
HETATM   32  C6  UNL     1       7.233   8.002  14.247  1.00  0.00     0.101 C 
HETATM   33  C7  UNL     1       8.121   9.241  14.085  1.00  0.00     0.051 C 
BRANCH  32  34
HETATM   34  O2  UNL     1       8.011   7.026  14.977  1.00  0.00    -0.385 OA
HETATM   35  H14 UNL     1       7.481   6.774  15.765  1.00  0.00     0.210 HD
ENDBRANCH  32  34
BRANCH  32  36
HETATM   36  C8  UNL     1       6.938   7.364  12.876  1.00  0.00     0.204 C 
BRANCH  36  37
HETATM   37  O3  UNL     1       6.123   6.207  12.967  1.00  0.00    -0.398 OA
HETATM   38  H17 UNL     1       5.953   5.904  12.056  1.00  0.00     0.209 HD
ENDBRANCH  36  37
ENDBRANCH  32  36
ENDBRANCH  29  32
ENDBRANCH  28  29
ENDBRANCH  27  28
ENDBRANCH  25  27
ENDBRANCH   1  25
BRANCH   8  39
HETATM   39  O4  UNL     1      -3.265   8.788  13.345  1.00  0.00    -0.391 OA
HETATM   40  H27 UNL     1      -3.140   8.932  12.391  1.00  0.00     0.210 HD
ENDBRANCH   8  39
TORSDOF 10
ENDMDL
MODEL 9
REMARK minimizedAffinity -7.19436836
REMARK CNNscore 0.362563759
REMARK CNNaffinity 6.35699987
REMARK  10 active torsions:
REMARK  status: ('A' for Active; 'I' for Inactive)
REMARK    1  A    between atoms: C2_2  and  C3_3 
REMARK    2  A    between atoms: C2_2  and  C9_12 
REMARK    3  A    between atoms: C3_3  and  C4_4 
REMARK    4  A    between atoms: C4_4  and  C5_5 
REMARK    5  A    between atoms: C5_5  and  O1_6 
REMARK    6  A    between atoms: C5_5  and  C6_7 
REMARK    7  A    between atoms: C6_7  and  O2_9 
REMARK    8  A    between atoms: C6_7  and  C8_10 
REMARK    9  A    between atoms: C8_10  and  O3_11 
REMARK   10  A    between atoms: C16_19  and  O4_20 
ROOT
HETATM    1  C9  UNL     1      -1.681   8.240  14.644  1.00  0.00    -0.002 C 
HETATM    2  C10 UNL     1      -0.776   9.086  13.704  1.00  0.00     0.007 C 
HETATM    3  C11 UNL     1      -0.780  10.531  14.241  1.00  0.00     0.015 C 
HETATM    4  C12 UNL     1      -1.389  10.435  15.657  1.00  0.00    -0.005 C 
HETATM    5  C13 UNL     1      -0.235  10.012  16.616  1.00  0.00     0.021 C 
HETATM    6  C14 UNL     1      -2.023  11.656  16.320  1.00  0.00     0.002 C 
HETATM    7  C15 UNL     1      -3.037  11.526  17.220  1.00  0.00    -0.032 C 
HETATM    8  C16 UNL     1      -3.591  10.134  17.562  1.00  0.00     0.149 C 
HETATM    9  C17 UNL     1      -3.061   8.924  16.761  1.00  0.00     0.047 C 
HETATM   10  C18 UNL     1      -2.494   9.335  15.400  1.00  0.00    -0.026 C 
HETATM   11  C19 UNL     1      -3.661   9.840  14.497  1.00  0.00     0.016 C 
HETATM   12  C20 UNL     1      -3.756  12.762  17.849  1.00  0.00    -0.012 C 
HETATM   13  C21 UNL     1      -4.959  13.050  16.919  1.00  0.00     0.021 C 
HETATM   14  C22 UNL     1      -4.277  12.492  19.286  1.00  0.00     0.021 C 
HETATM   15  C23 UNL     1      -4.867  13.713  19.972  1.00  0.00     0.080 C 
HETATM   16  C24 UNL     1      -3.844  14.815  20.047  1.00  0.00     0.135 C 
HETATM   17  O5  UNL     1      -3.663  15.412  21.111  1.00  0.00    -0.297 OA
HETATM   18  C25 UNL     1      -3.141  15.220  18.742  1.00  0.00     0.018 C 
HETATM   19  C26 UNL     1      -1.872  16.027  19.123  1.00  0.00     0.023 C 
HETATM   20  C27 UNL     1      -4.068  16.182  17.985  1.00  0.00     0.023 C 
HETATM   21  C28 UNL     1      -2.717  13.934  17.949  1.00  0.00     0.020 C 
HETATM   22  C29 UNL     1      -2.130  14.236  16.568  1.00  0.00     0.090 C 
HETATM   23  C30 UNL     1      -1.483  13.010  15.972  1.00  0.00     0.157 C 
HETATM   24  O6  UNL     1      -0.535  13.135  15.196  1.00  0.00    -0.293 OA
ENDROOT
BRANCH   1  25
HETATM   25  C2  UNL     1      -2.419   7.110  13.878  1.00  0.00    -0.014 C 
HETATM   26  C1  UNL     1      -3.155   6.117  14.786  1.00  0.00     0.010 C 
BRANCH  25  27
HETATM   27  C3  UNL     1      -1.503   6.358  12.870  1.00  0.00     0.007 C 
BRANCH  27  28
HETATM   28  C4  UNL     1      -1.675   4.837  12.684  1.00  0.00     0.035 C 
BRANCH  28  29
HETATM   29  C5  UNL     1      -1.420   4.295  11.273  1.00  0.00     0.154 C 
BRANCH  29  30
HETATM   30  O1  UNL     1      -0.015   4.329  10.980  1.00  0.00    -0.392 OA
HETATM   31  H10 UNL     1       0.445   3.852  11.693  1.00  0.00     0.210 HD
ENDBRANCH  29  30
BRANCH  29  32
HETATM   32  C6  UNL     1      -1.981   2.877  10.945  1.00  0.00     0.101 C 
HETATM   33  C7  UNL     1      -3.202   2.563  11.816  1.00  0.00     0.051 C 
BRANCH  32  34
HETATM   34  O2  UNL     1      -2.443   2.892   9.573  1.00  0.00    -0.385 OA
HETATM   35  H14 UNL     1      -2.189   3.764   9.199  1.00  0.00     0.210 HD
ENDBRANCH  32  34
BRANCH  32  36
HETATM   36  C8  UNL     1      -0.949   1.737  11.028  1.00  0.00     0.204 C 
BRANCH  36  37
HETATM   37  O3  UNL     1      -1.464   0.490  10.590  1.00  0.00    -0.398 OA
HETATM   38  H17 UNL     1      -0.732  -0.153  10.634  1.00  0.00     0.209 HD
ENDBRANCH  36  37
ENDBRANCH  32  36
ENDBRANCH  29  32
ENDBRANCH  28  29
ENDBRANCH  27  28
ENDBRANCH  25  27
ENDBRANCH   1  25
BRANCH   8  39
HETATM   39  O4  UNL     1      -3.346   9.852  18.935  1.00  0.00    -0.391 OA
HETATM   40  H27 UNL     1      -2.386   9.926  19.080  1.00  0.00     0.210 HD
ENDBRANCH   8  39
TORSDOF 10
ENDMDL
