MODEL 1
REMARK minimizedAffinity -8.5262537
REMARK CNNscore 0.809353352
REMARK CNNaffinity 8.10828686
REMARK  14 active torsions:
REMARK  status: ('A' for Active; 'I' for Inactive)
REMARK    1  A    between atoms: C2_2  and  C3_3 
REMARK    2  A    between atoms: C6_6  and  C7_7 
REMARK    3  A    between atoms: C7_7  and  C8_8 
REMARK    4  A    between atoms: C14_17  and  C15_18 
REMARK    5  A    between atoms: C15_18  and  O3_20 
REMARK    6  A    between atoms: C19_24  and  C20_25 
REMARK    7  A    between atoms: C20_25  and  C21_26 
REMARK    8  A    between atoms: C22_27  and  C23_28 
REMARK    9  A    between atoms: C25_30  and  C26_31 
REMARK   10  A    between atoms: C27_33  and  C28_34 
REMARK   11  A    between atoms: C29_38  and  C30_39 
REMARK   12  A    between atoms: C30_39  and  C31_40 
REMARK   13  A    between atoms: C31_40  and  C32_41 
REMARK   14  A    between atoms: C32_41  and  O7_43 
ROOT
HETATM    1  C8  UNL     1       0.346  50.871 -16.344  1.00  0.00     0.016 C 
HETATM    2  N1  UNL     1      -0.528  51.045 -15.407  1.00  0.00    -0.362 N 
ATOM      3  H1  UNL     1      -1.531  50.870 -15.477  1.00  0.00     0.165 HD
HETATM    4  C9  UNL     1       0.142  51.510 -14.297  1.00  0.00     0.024 C 
HETATM    5  C10 UNL     1      -0.538  52.043 -13.271  1.00  0.00     0.014 A 
HETATM    6  C11 UNL     1      -0.020  52.629 -12.098  1.00  0.00     0.056 A 
HETATM    7  C12 UNL     1      -0.985  53.076 -11.248  1.00  0.00     0.046 A 
HETATM    8  C13 UNL     1      -2.289  52.805 -11.826  1.00  0.00     0.180 A 
HETATM    9  O1  UNL     1      -3.361  53.075 -11.303  1.00  0.00    -0.291 OA
HETATM   10  C14 UNL     1      -2.093  52.107 -13.197  1.00  0.00     0.197 A 
HETATM   11  C17 UNL     1      -0.362  53.617 -10.107  1.00  0.00    -0.023 A 
HETATM   12  C18 UNL     1      -1.068  54.194  -8.933  1.00  0.00     0.051 C 
HETATM   13  C19 UNL     1       1.020  53.463 -10.321  1.00  0.00     0.022 A 
HETATM   14  N3  UNL     1       1.196  52.865 -11.571  1.00  0.00    -0.357 N 
HETATM   15  C29 UNL     1       1.642  51.382 -14.460  1.00  0.00     0.046 C 
HETATM   16  C33 UNL     1       1.774  51.209 -15.982  1.00  0.00     0.041 C 
HETATM   17  C34 UNL     1       2.195  52.503 -16.671  1.00  0.00     0.017 C 
HETATM   18  H25 UNL     1       2.094  52.645 -11.976  1.00  0.00     0.166 HD
ENDROOT
BRANCH  10  19
HETATM   19  C15 UNL     1      -2.700  50.729 -13.173  1.00  0.00     0.274 C 
HETATM   20  O2  UNL     1      -3.248  50.175 -14.119  1.00  0.00    -0.264 OA
BRANCH  19  21
HETATM   21  O3  UNL     1      -2.516  50.158 -11.947  1.00  0.00    -0.326 OA
HETATM   22  C16 UNL     1      -1.951  48.848 -11.998  1.00  0.00     0.213 C 
ENDBRANCH  19  21
ENDBRANCH  10  19
BRANCH  15  23
HETATM   23  C30 UNL     1       2.167  50.173 -13.660  1.00  0.00     0.022 C 
BRANCH  23  24
HETATM   24  C31 UNL     1       3.126  50.570 -12.540  1.00  0.00     0.110 C 
BRANCH  24  25
HETATM   25  C32 UNL     1       4.421  49.813 -12.624  1.00  0.00     0.139 C 
HETATM   26  O6  UNL     1       5.138  49.503 -11.687  1.00  0.00    -0.650 OA
BRANCH  25  27
HETATM   27  O7  UNL     1       4.767  49.517 -13.887  1.00  0.00    -0.776 OA
HETATM   28  H31 UNL     1       5.616  49.037 -13.814  1.00  0.00     0.167 HD
ENDBRANCH  25  27
ENDBRANCH  24  25
ENDBRANCH  23  24
ENDBRANCH  15  23
BRANCH   1  29
HETATM   29  C7  UNL     1      -0.015  50.491 -17.724  1.00  0.00     0.055 C 
BRANCH  29  30
HETATM   30  C6  UNL     1       0.005  51.279 -18.803  1.00  0.00     0.043 A 
HETATM   31  C4  UNL     1      -0.031  51.025 -20.231  1.00  0.00    -0.019 A 
HETATM   32  C3  UNL     1       0.100  52.178 -20.930  1.00  0.00     0.039 A 
HETATM   33  C5  UNL     1      -0.223  49.661 -20.795  1.00  0.00     0.052 C 
HETATM   34  C35 UNL     1       0.193  53.261 -19.901  1.00  0.00     0.256 A 
HETATM   35  N4  UNL     1       0.103  52.633 -18.684  1.00  0.00    -0.322 N 
HETATM   36  O8  UNL     1       0.334  54.456 -20.074  1.00  0.00    -0.267 OA
HETATM   37  H36 UNL     1       0.134  53.154 -17.821  1.00  0.00     0.169 HD
BRANCH  32  38
HETATM   38  C2  UNL     1       0.147  52.364 -22.362  1.00  0.00     0.007 C 
HETATM   39  C1  UNL     1      -0.895  52.344 -23.200  1.00  0.00     0.012 C 
ENDBRANCH  32  38
ENDBRANCH  29  30
ENDBRANCH   1  29
BRANCH  13  40
HETATM   40  C20 UNL     1       2.240  53.751  -9.486  1.00  0.00     0.115 C 
BRANCH  40  41
HETATM   41  C21 UNL     1       2.118  54.901  -8.537  1.00  0.00     0.022 A 
HETATM   42  C22 UNL     1       2.728  56.147  -8.511  1.00  0.00    -0.020 A 
HETATM   43  C25 UNL     1       2.244  56.830  -7.337  1.00  0.00     0.040 A 
HETATM   44  C27 UNL     1       1.366  55.970  -6.691  1.00  0.00     0.084 A 
HETATM   45  N2  UNL     1       1.313  54.812  -7.428  1.00  0.00    -0.356 N 
HETATM   46  H24 UNL     1       0.737  54.015  -7.176  1.00  0.00     0.166 HD
BRANCH  42  47
HETATM   47  C23 UNL     1       3.707  56.675  -9.519  1.00  0.00     0.037 C 
HETATM   48  C24 UNL     1       3.276  56.380 -10.949  1.00  0.00     0.010 C 
ENDBRANCH  42  47
BRANCH  43  49
HETATM   49  C26 UNL     1       2.605  58.169  -6.892  1.00  0.00     0.273 C 
HETATM   50  O4  UNL     1       3.513  58.406  -6.100  1.00  0.00    -0.301 OA
ENDBRANCH  43  49
BRANCH  44  51
HETATM   51  C28 UNL     1       0.595  56.123  -5.480  1.00  0.00     0.288 C 
HETATM   52  O5  UNL     1      -0.600  56.405  -5.488  1.00  0.00    -0.300 OA
ENDBRANCH  44  51
ENDBRANCH  40  41
ENDBRANCH  13  40
TORSDOF 14
ENDMDL
MODEL 2
REMARK minimizedAffinity -8.0389595
REMARK CNNscore 0.706145704
REMARK CNNaffinity 7.83960104
REMARK  14 active torsions:
REMARK  status: ('A' for Active; 'I' for Inactive)
REMARK    1  A    between atoms: C2_2  and  C3_3 
REMARK    2  A    between atoms: C6_6  and  C7_7 
REMARK    3  A    between atoms: C7_7  and  C8_8 
REMARK    4  A    between atoms: C14_17  and  C15_18 
REMARK    5  A    between atoms: C15_18  and  O3_20 
REMARK    6  A    between atoms: C19_24  and  C20_25 
REMARK    7  A    between atoms: C20_25  and  C21_26 
REMARK    8  A    between atoms: C22_27  and  C23_28 
REMARK    9  A    between atoms: C25_30  and  C26_31 
REMARK   10  A    between atoms: C27_33  and  C28_34 
REMARK   11  A    between atoms: C29_38  and  C30_39 
REMARK   12  A    between atoms: C30_39  and  C31_40 
REMARK   13  A    between atoms: C31_40  and  C32_41 
REMARK   14  A    between atoms: C32_41  and  O7_43 
ROOT
HETATM    1  C8  UNL     1       0.361  50.909 -16.120  1.00  0.00     0.016 C 
HETATM    2  N1  UNL     1      -0.456  51.135 -15.143  1.00  0.00    -0.362 N 
ATOM      3  H1  UNL     1      -1.450  50.907 -15.123  1.00  0.00     0.165 HD
HETATM    4  C9  UNL     1       0.262  51.737 -14.134  1.00  0.00     0.024 C 
HETATM    5  C10 UNL     1      -0.376  52.337 -13.116  1.00  0.00     0.014 A 
HETATM    6  C11 UNL     1       0.188  53.059 -12.045  1.00  0.00     0.056 A 
HETATM    7  C12 UNL     1      -0.740  53.542 -11.174  1.00  0.00     0.046 A 
HETATM    8  C13 UNL     1      -2.064  53.156 -11.628  1.00  0.00     0.180 A 
HETATM    9  O1  UNL     1      -3.110  53.426 -11.058  1.00  0.00    -0.291 OA
HETATM   10  C14 UNL     1      -1.924  52.335 -12.937  1.00  0.00     0.197 A 
HETATM   11  C17 UNL     1      -0.071  54.222 -10.138  1.00  0.00    -0.023 A 
HETATM   12  C18 UNL     1      -0.726  54.878  -8.976  1.00  0.00     0.051 C 
HETATM   13  C19 UNL     1       1.299  54.111 -10.435  1.00  0.00     0.022 A 
HETATM   14  N3  UNL     1       1.423  53.402 -11.631  1.00  0.00    -0.357 N 
HETATM   15  C29 UNL     1       1.752  51.663 -14.391  1.00  0.00     0.046 C 
HETATM   16  C33 UNL     1       1.790  51.348 -15.895  1.00  0.00     0.041 C 
HETATM   17  C34 UNL     1       2.095  52.585 -16.733  1.00  0.00     0.017 C 
HETATM   18  H25 UNL     1       2.302  53.185 -12.078  1.00  0.00     0.166 HD
ENDROOT
BRANCH  10  19
HETATM   19  C15 UNL     1      -2.453  50.940 -12.739  1.00  0.00     0.274 C 
HETATM   20  O2  UNL     1      -3.056  50.280 -13.577  1.00  0.00    -0.264 OA
BRANCH  19  21
HETATM   21  O3  UNL     1      -2.130  50.490 -11.492  1.00  0.00    -0.326 OA
HETATM   22  C16 UNL     1      -2.941  49.405 -11.040  1.00  0.00     0.213 C 
ENDBRANCH  19  21
ENDBRANCH  10  19
BRANCH  15  23
HETATM   23  C30 UNL     1       2.392  50.565 -13.520  1.00  0.00     0.022 C 
BRANCH  23  24
HETATM   24  C31 UNL     1       3.662  51.031 -12.811  1.00  0.00     0.110 C 
BRANCH  24  25
HETATM   25  C32 UNL     1       4.732  49.976 -12.839  1.00  0.00     0.139 C 
HETATM   26  O6  UNL     1       5.440  49.641 -11.902  1.00  0.00    -0.650 OA
BRANCH  25  27
HETATM   27  O7  UNL     1       4.881  49.421 -14.051  1.00  0.00    -0.776 OA
HETATM   28  H31 UNL     1       5.598  48.763 -13.946  1.00  0.00     0.167 HD
ENDBRANCH  25  27
ENDBRANCH  24  25
ENDBRANCH  23  24
ENDBRANCH  15  23
BRANCH   1  29
HETATM   29  C7  UNL     1      -0.071  50.379 -17.427  1.00  0.00     0.055 C 
BRANCH  29  30
HETATM   30  C6  UNL     1      -0.125  51.046 -18.584  1.00  0.00     0.043 A 
HETATM   31  C4  UNL     1      -0.367  50.651 -19.960  1.00  0.00    -0.019 A 
HETATM   32  C3  UNL     1      -0.231  51.707 -20.796  1.00  0.00     0.039 A 
HETATM   33  C5  UNL     1      -0.746  49.261 -20.336  1.00  0.00     0.052 C 
HETATM   34  C35 UNL     1       0.085  52.876 -19.916  1.00  0.00     0.256 A 
HETATM   35  N4  UNL     1       0.102  52.388 -18.634  1.00  0.00    -0.322 N 
HETATM   36  O8  UNL     1       0.303  54.027 -20.242  1.00  0.00    -0.267 OA
HETATM   37  H36 UNL     1       0.288  52.991 -17.847  1.00  0.00     0.169 HD
BRANCH  32  38
HETATM   38  C2  UNL     1      -0.355  51.739 -22.235  1.00  0.00     0.007 C 
HETATM   39  C1  UNL     1      -1.469  51.515 -22.942  1.00  0.00     0.012 C 
ENDBRANCH  32  38
ENDBRANCH  29  30
ENDBRANCH   1  29
BRANCH  13  40
HETATM   40  C20 UNL     1       2.556  54.537  -9.722  1.00  0.00     0.115 C 
BRANCH  40  41
HETATM   41  C21 UNL     1       3.549  53.450  -9.457  1.00  0.00     0.022 A 
HETATM   42  C22 UNL     1       4.937  53.450  -9.442  1.00  0.00    -0.020 A 
HETATM   43  C25 UNL     1       5.356  52.101  -9.152  1.00  0.00     0.040 A 
HETATM   44  C27 UNL     1       4.208  51.333  -9.011  1.00  0.00     0.084 A 
HETATM   45  N2  UNL     1       3.133  52.165  -9.207  1.00  0.00    -0.356 N 
HETATM   46  H24 UNL     1       2.168  51.854  -9.154  1.00  0.00     0.166 HD
BRANCH  42  47
HETATM   47  C23 UNL     1       5.825  54.635  -9.685  1.00  0.00     0.037 C 
HETATM   48  C24 UNL     1       6.007  55.483  -8.433  1.00  0.00     0.010 C 
ENDBRANCH  42  47
BRANCH  43  49
HETATM   49  C26 UNL     1       6.724  51.616  -9.035  1.00  0.00     0.273 C 
HETATM   50  O4  UNL     1       7.198  50.726  -9.736  1.00  0.00    -0.301 OA
ENDBRANCH  43  49
BRANCH  44  51
HETATM   51  C28 UNL     1       4.025  49.931  -8.721  1.00  0.00     0.288 C 
HETATM   52  O5  UNL     1       4.303  49.438  -7.630  1.00  0.00    -0.300 OA
ENDBRANCH  44  51
ENDBRANCH  40  41
ENDBRANCH  13  40
TORSDOF 14
ENDMDL
MODEL 3
REMARK minimizedAffinity -7.14087868
REMARK CNNscore 0.372370571
REMARK CNNaffinity 6.97531462
REMARK  14 active torsions:
REMARK  status: ('A' for Active; 'I' for Inactive)
REMARK    1  A    between atoms: C2_2  and  C3_3 
REMARK    2  A    between atoms: C6_6  and  C7_7 
REMARK    3  A    between atoms: C7_7  and  C8_8 
REMARK    4  A    between atoms: C14_17  and  C15_18 
REMARK    5  A    between atoms: C15_18  and  O3_20 
REMARK    6  A    between atoms: C19_24  and  C20_25 
REMARK    7  A    between atoms: C20_25  and  C21_26 
REMARK    8  A    between atoms: C22_27  and  C23_28 
REMARK    9  A    between atoms: C25_30  and  C26_31 
REMARK   10  A    between atoms: C27_33  and  C28_34 
REMARK   11  A    between atoms: C29_38  and  C30_39 
REMARK   12  A    between atoms: C30_39  and  C31_40 
REMARK   13  A    between atoms: C31_40  and  C32_41 
REMARK   14  A    between atoms: C32_41  and  O7_43 
ROOT
HETATM    1  C8  UNL     1      -0.522  51.370 -13.670  1.00  0.00     0.016 C 
HETATM    2  N1  UNL     1      -0.723  52.052 -12.590  1.00  0.00    -0.362 N 
ATOM      3  H1  UNL     1      -1.619  52.194 -12.124  1.00  0.00     0.165 HD
HETATM    4  C9  UNL     1       0.495  52.550 -12.183  1.00  0.00     0.024 C 
HETATM    5  C10 UNL     1       0.553  53.520 -11.257  1.00  0.00     0.014 A 
HETATM    6  C11 UNL     1       1.694  54.194 -10.778  1.00  0.00     0.056 A 
HETATM    7  C12 UNL     1       1.409  55.131  -9.832  1.00  0.00     0.046 A 
HETATM    8  C13 UNL     1      -0.025  55.151  -9.600  1.00  0.00     0.180 A 
HETATM    9  O1  UNL     1      -0.599  55.874  -8.800  1.00  0.00    -0.291 OA
HETATM   10  C14 UNL     1      -0.694  54.094 -10.519  1.00  0.00     0.197 A 
HETATM   11  C17 UNL     1       2.614  55.722  -9.408  1.00  0.00    -0.023 A 
HETATM   12  C18 UNL     1       2.736  56.779  -8.370  1.00  0.00     0.051 C 
HETATM   13  C19 UNL     1       3.629  55.085 -10.145  1.00  0.00     0.022 A 
HETATM   14  N3  UNL     1       3.023  54.159 -10.997  1.00  0.00    -0.357 N 
HETATM   15  C29 UNL     1       1.639  51.912 -12.942  1.00  0.00     0.046 C 
HETATM   16  C33 UNL     1       0.908  51.317 -14.157  1.00  0.00     0.041 C 
HETATM   17  C34 UNL     1       1.068  52.181 -15.403  1.00  0.00     0.017 C 
HETATM   18  H25 UNL     1       3.522  53.566 -11.643  1.00  0.00     0.166 HD
ENDROOT
BRANCH  10  19
HETATM   19  C15 UNL     1      -1.377  53.039  -9.691  1.00  0.00     0.274 C 
HETATM   20  O2  UNL     1      -2.485  52.566  -9.912  1.00  0.00    -0.264 OA
BRANCH  19  21
HETATM   21  O3  UNL     1      -0.563  52.648  -8.668  1.00  0.00    -0.326 OA
HETATM   22  C16 UNL     1      -1.235  52.505  -7.416  1.00  0.00     0.213 C 
ENDBRANCH  19  21
ENDBRANCH  10  19
BRANCH  15  23
HETATM   23  C30 UNL     1       2.337  50.852 -12.069  1.00  0.00     0.022 C 
BRANCH  23  24
HETATM   24  C31 UNL     1       2.815  49.641 -12.868  1.00  0.00     0.110 C 
BRANCH  24  25
HETATM   25  C32 UNL     1       4.311  49.628 -13.012  1.00  0.00     0.139 C 
HETATM   26  O6  UNL     1       4.935  49.615 -14.061  1.00  0.00    -0.650 OA
BRANCH  25  27
HETATM   27  O7  UNL     1       4.945  49.594 -11.830  1.00  0.00    -0.776 OA
HETATM   28  H31 UNL     1       5.898  49.584 -12.051  1.00  0.00     0.167 HD
ENDBRANCH  25  27
ENDBRANCH  24  25
ENDBRANCH  23  24
ENDBRANCH  15  23
BRANCH   1  29
HETATM   29  C7  UNL     1      -1.615  50.780 -14.467  1.00  0.00     0.055 C 
BRANCH  29  30
HETATM   30  C6  UNL     1      -1.642  50.619 -15.794  1.00  0.00     0.043 A 
HETATM   31  C4  UNL     1      -0.916  49.764 -16.716  1.00  0.00    -0.019 A 
HETATM   32  C3  UNL     1      -1.253  50.042 -17.998  1.00  0.00     0.039 A 
HETATM   33  C5  UNL     1       0.033  48.714 -16.252  1.00  0.00     0.052 C 
HETATM   34  C35 UNL     1      -2.287  51.121 -17.915  1.00  0.00     0.256 A 
HETATM   35  N4  UNL     1      -2.462  51.372 -16.577  1.00  0.00    -0.322 N 
HETATM   36  O8  UNL     1      -2.859  51.687 -18.825  1.00  0.00    -0.267 OA
HETATM   37  H36 UNL     1      -3.122  52.065 -16.257  1.00  0.00     0.169 HD
BRANCH  32  38
HETATM   38  C2  UNL     1      -0.742  49.448 -19.212  1.00  0.00     0.007 C 
HETATM   39  C1  UNL     1      -1.250  48.390 -19.853  1.00  0.00     0.012 C 
ENDBRANCH  32  38
ENDBRANCH  29  30
ENDBRANCH   1  29
BRANCH  13  40
HETATM   40  C20 UNL     1       5.132  55.175 -10.139  1.00  0.00     0.115 C 
BRANCH  40  41
HETATM   41  C21 UNL     1       5.797  54.812  -8.850  1.00  0.00     0.022 A 
HETATM   42  C22 UNL     1       5.787  53.644  -8.100  1.00  0.00    -0.020 A 
HETATM   43  C25 UNL     1       6.591  53.887  -6.928  1.00  0.00     0.040 A 
HETATM   44  C27 UNL     1       7.051  55.195  -7.006  1.00  0.00     0.084 A 
HETATM   45  N2  UNL     1       6.554  55.734  -8.167  1.00  0.00    -0.356 N 
HETATM   46  H24 UNL     1       6.744  56.684  -8.469  1.00  0.00     0.166 HD
BRANCH  42  47
HETATM   47  C23 UNL     1       5.069  52.373  -8.451  1.00  0.00     0.037 C 
HETATM   48  C24 UNL     1       6.004  51.333  -9.053  1.00  0.00     0.010 C 
ENDBRANCH  42  47
BRANCH  43  49
HETATM   49  C26 UNL     1       6.871  52.950  -5.850  1.00  0.00     0.273 C 
HETATM   50  O4  UNL     1       7.976  52.457  -5.640  1.00  0.00    -0.301 OA
ENDBRANCH  43  49
BRANCH  44  51
HETATM   51  C28 UNL     1       7.888  55.969  -6.120  1.00  0.00     0.288 C 
HETATM   52  O5  UNL     1       7.466  56.476  -5.085  1.00  0.00    -0.300 OA
ENDBRANCH  44  51
ENDBRANCH  40  41
ENDBRANCH  13  40
TORSDOF 14
ENDMDL
MODEL 4
REMARK minimizedAffinity -7.54221916
REMARK CNNscore 0.350322574
REMARK CNNaffinity 7.50591469
REMARK  14 active torsions:
REMARK  status: ('A' for Active; 'I' for Inactive)
REMARK    1  A    between atoms: C2_2  and  C3_3 
REMARK    2  A    between atoms: C6_6  and  C7_7 
REMARK    3  A    between atoms: C7_7  and  C8_8 
REMARK    4  A    between atoms: C14_17  and  C15_18 
REMARK    5  A    between atoms: C15_18  and  O3_20 
REMARK    6  A    between atoms: C19_24  and  C20_25 
REMARK    7  A    between atoms: C20_25  and  C21_26 
REMARK    8  A    between atoms: C22_27  and  C23_28 
REMARK    9  A    between atoms: C25_30  and  C26_31 
REMARK   10  A    between atoms: C27_33  and  C28_34 
REMARK   11  A    between atoms: C29_38  and  C30_39 
REMARK   12  A    between atoms: C30_39  and  C31_40 
REMARK   13  A    between atoms: C31_40  and  C32_41 
REMARK   14  A    between atoms: C32_41  and  O7_43 
ROOT
HETATM    1  C8  UNL     1       0.676  50.863 -15.553  1.00  0.00     0.016 C 
HETATM    2  N1  UNL     1      -0.153  51.116 -14.593  1.00  0.00    -0.362 N 
ATOM      3  H1  UNL     1      -1.109  50.768 -14.515  1.00  0.00     0.165 HD
HETATM    4  C9  UNL     1       0.490  51.940 -13.697  1.00  0.00     0.024 C 
HETATM    5  C10 UNL     1      -0.210  52.589 -12.754  1.00  0.00     0.014 A 
HETATM    6  C11 UNL     1       0.266  53.520 -11.807  1.00  0.00     0.056 A 
HETATM    7  C12 UNL     1      -0.708  53.998 -10.985  1.00  0.00     0.046 A 
HETATM    8  C13 UNL     1      -1.975  53.386 -11.345  1.00  0.00     0.180 A 
HETATM    9  O1  UNL     1      -3.042  53.597 -10.787  1.00  0.00    -0.291 OA
HETATM   10  C14 UNL     1      -1.743  52.415 -12.532  1.00  0.00     0.197 A 
HETATM   11  C17 UNL     1      -0.124  54.895 -10.071  1.00  0.00    -0.023 A 
HETATM   12  C18 UNL     1      -0.847  55.618  -8.992  1.00  0.00     0.051 C 
HETATM   13  C19 UNL     1       1.246  54.920 -10.388  1.00  0.00     0.022 A 
HETATM   14  N3  UNL     1       1.450  54.073 -11.480  1.00  0.00    -0.357 N 
HETATM   15  C29 UNL     1       1.974  52.022 -13.983  1.00  0.00     0.046 C 
HETATM   16  C33 UNL     1       2.038  51.508 -15.431  1.00  0.00     0.041 C 
HETATM   17  C34 UNL     1       2.170  52.644 -16.438  1.00  0.00     0.017 C 
HETATM   18  H25 UNL     1       2.344  53.910 -11.917  1.00  0.00     0.166 HD
ENDROOT
BRANCH  10  19
HETATM   19  C15 UNL     1      -2.083  51.005 -12.130  1.00  0.00     0.274 C 
HETATM   20  O2  UNL     1      -3.114  50.410 -12.422  1.00  0.00    -0.264 OA
BRANCH  19  21
HETATM   21  O3  UNL     1      -1.055  50.461 -11.417  1.00  0.00    -0.326 OA
HETATM   22  C16 UNL     1      -0.899  49.054 -11.610  1.00  0.00     0.213 C 
ENDBRANCH  19  21
ENDBRANCH  10  19
BRANCH  15  23
HETATM   23  C30 UNL     1       2.762  51.147 -12.988  1.00  0.00     0.022 C 
BRANCH  23  24
HETATM   24  C31 UNL     1       2.478  49.655 -13.151  1.00  0.00     0.110 C 
BRANCH  24  25
HETATM   25  C32 UNL     1       3.686  48.913 -13.650  1.00  0.00     0.139 C 
HETATM   26  O6  UNL     1       4.774  49.399 -13.913  1.00  0.00    -0.650 OA
BRANCH  25  27
HETATM   27  O7  UNL     1       3.452  47.603 -13.828  1.00  0.00    -0.776 OA
HETATM   28  H31 UNL     1       4.297  47.234 -14.154  1.00  0.00     0.167 HD
ENDBRANCH  25  27
ENDBRANCH  24  25
ENDBRANCH  23  24
ENDBRANCH  15  23
BRANCH   1  29
HETATM   29  C7  UNL     1       0.304  50.105 -16.762  1.00  0.00     0.055 C 
BRANCH  29  30
HETATM   30  C6  UNL     1      -0.087  50.610 -17.936  1.00  0.00     0.043 A 
HETATM   31  C4  UNL     1      -0.700  50.038 -19.121  1.00  0.00    -0.019 A 
HETATM   32  C3  UNL     1      -0.826  50.968 -20.097  1.00  0.00     0.039 A 
HETATM   33  C5  UNL     1      -1.143  48.618 -19.183  1.00  0.00     0.052 C 
HETATM   34  C35 UNL     1      -0.295  52.238 -19.509  1.00  0.00     0.256 A 
HETATM   35  N4  UNL     1       0.091  51.928 -18.229  1.00  0.00    -0.322 N 
HETATM   36  O8  UNL     1      -0.200  53.330 -20.035  1.00  0.00    -0.267 OA
HETATM   37  H36 UNL     1       0.481  52.628 -17.616  1.00  0.00     0.169 HD
BRANCH  32  38
HETATM   38  C2  UNL     1      -1.351  50.807 -21.433  1.00  0.00     0.007 C 
HETATM   39  C1  UNL     1      -2.516  51.278 -21.890  1.00  0.00     0.012 C 
ENDBRANCH  32  38
ENDBRANCH  29  30
ENDBRANCH   1  29
BRANCH  13  40
HETATM   40  C20 UNL     1       2.443  55.598  -9.776  1.00  0.00     0.115 C 
BRANCH  40  41
HETATM   41  C21 UNL     1       2.800  55.156  -8.392  1.00  0.00     0.022 A 
HETATM   42  C22 UNL     1       2.570  55.731  -7.150  1.00  0.00    -0.020 A 
HETATM   43  C25 UNL     1       3.171  54.865  -6.166  1.00  0.00     0.040 A 
HETATM   44  C27 UNL     1       3.750  53.803  -6.848  1.00  0.00     0.084 A 
HETATM   45  N2  UNL     1       3.521  54.004  -8.187  1.00  0.00    -0.356 N 
HETATM   46  H24 UNL     1       3.837  53.367  -8.911  1.00  0.00     0.166 HD
BRANCH  42  47
HETATM   47  C23 UNL     1       1.835  57.014  -6.890  1.00  0.00     0.037 C 
HETATM   48  C24 UNL     1       2.772  58.213  -6.844  1.00  0.00     0.010 C 
ENDBRANCH  42  47
BRANCH  43  49
HETATM   49  C26 UNL     1       3.185  55.058  -4.723  1.00  0.00     0.273 C 
HETATM   50  O4  UNL     1       2.363  54.562  -3.957  1.00  0.00    -0.301 OA
ENDBRANCH  43  49
BRANCH  44  51
HETATM   51  C28 UNL     1       4.480  52.649  -6.379  1.00  0.00     0.288 C 
HETATM   52  O5  UNL     1       5.638  52.717  -5.976  1.00  0.00    -0.300 OA
ENDBRANCH  44  51
ENDBRANCH  40  41
ENDBRANCH  13  40
TORSDOF 14
ENDMDL
MODEL 5
REMARK minimizedAffinity -7.94939232
REMARK CNNscore 0.292498738
REMARK CNNaffinity 7.32224894
REMARK  14 active torsions:
REMARK  status: ('A' for Active; 'I' for Inactive)
REMARK    1  A    between atoms: C2_2  and  C3_3 
REMARK    2  A    between atoms: C6_6  and  C7_7 
REMARK    3  A    between atoms: C7_7  and  C8_8 
REMARK    4  A    between atoms: C14_17  and  C15_18 
REMARK    5  A    between atoms: C15_18  and  O3_20 
REMARK    6  A    between atoms: C19_24  and  C20_25 
REMARK    7  A    between atoms: C20_25  and  C21_26 
REMARK    8  A    between atoms: C22_27  and  C23_28 
REMARK    9  A    between atoms: C25_30  and  C26_31 
REMARK   10  A    between atoms: C27_33  and  C28_34 
REMARK   11  A    between atoms: C29_38  and  C30_39 
REMARK   12  A    between atoms: C30_39  and  C31_40 
REMARK   13  A    between atoms: C31_40  and  C32_41 
REMARK   14  A    between atoms: C32_41  and  O7_43 
ROOT
HETATM    1  C8  UNL     1       0.191  50.361 -16.418  1.00  0.00     0.016 C 
HETATM    2  N1  UNL     1      -0.667  50.353 -15.449  1.00  0.00    -0.362 N 
ATOM      3  H1  UNL     1      -1.510  49.781 -15.395  1.00  0.00     0.165 HD
HETATM    4  C9  UNL     1      -0.235  51.259 -14.506  1.00  0.00     0.024 C 
HETATM    5  C10 UNL     1      -1.063  51.668 -13.533  1.00  0.00     0.014 A 
HETATM    6  C11 UNL     1      -0.818  52.633 -12.535  1.00  0.00     0.056 A 
HETATM    7  C12 UNL     1      -1.872  52.816 -11.693  1.00  0.00     0.046 A 
HETATM    8  C13 UNL     1      -2.956  51.936 -12.091  1.00  0.00     0.180 A 
HETATM    9  O1  UNL     1      -4.038  51.852 -11.528  1.00  0.00    -0.291 OA
HETATM   10  C14 UNL     1      -2.506  51.116 -13.329  1.00  0.00     0.197 A 
HETATM   11  C17 UNL     1      -1.514  53.777 -10.728  1.00  0.00    -0.023 A 
HETATM   12  C18 UNL     1      -2.381  54.244  -9.615  1.00  0.00     0.051 C 
HETATM   13  C19 UNL     1      -0.193  54.150 -11.037  1.00  0.00     0.022 A 
HETATM   14  N3  UNL     1       0.199  53.438 -12.172  1.00  0.00    -0.357 N 
HETATM   15  C29 UNL     1       1.183  51.713 -14.781  1.00  0.00     0.046 C 
HETATM   16  C33 UNL     1       1.357  51.308 -16.254  1.00  0.00     0.041 C 
HETATM   17  C34 UNL     1       1.202  52.496 -17.197  1.00  0.00     0.017 C 
HETATM   18  H25 UNL     1       1.103  53.520 -12.613  1.00  0.00     0.166 HD
ENDROOT
BRANCH  10  19
HETATM   19  C15 UNL     1      -2.492  49.646 -13.005  1.00  0.00     0.274 C 
HETATM   20  O2  UNL     1      -2.174  49.157 -11.927  1.00  0.00    -0.264 OA
BRANCH  19  21
HETATM   21  O3  UNL     1      -2.927  48.926 -14.079  1.00  0.00    -0.326 OA
HETATM   22  C16 UNL     1      -3.458  47.645 -13.740  1.00  0.00     0.213 C 
ENDBRANCH  19  21
ENDBRANCH  10  19
BRANCH  15  23
HETATM   23  C30 UNL     1       2.167  51.002 -13.831  1.00  0.00     0.022 C 
BRANCH  23  24
HETATM   24  C31 UNL     1       2.590  49.623 -14.333  1.00  0.00     0.110 C 
BRANCH  24  25
HETATM   25  C32 UNL     1       3.802  49.116 -13.605  1.00  0.00     0.139 C 
HETATM   26  O6  UNL     1       4.939  49.548 -13.707  1.00  0.00    -0.650 OA
BRANCH  25  27
HETATM   27  O7  UNL     1       3.529  48.068 -12.812  1.00  0.00    -0.776 OA
HETATM   28  H31 UNL     1       4.384  47.827 -12.402  1.00  0.00     0.167 HD
ENDBRANCH  25  27
ENDBRANCH  24  25
ENDBRANCH  23  24
ENDBRANCH  15  23
BRANCH   1  29
HETATM   29  C7  UNL     1       0.003  49.601 -17.668  1.00  0.00     0.055 C 
BRANCH  29  30
HETATM   30  C6  UNL     1      -0.342  50.096 -18.862  1.00  0.00     0.043 A 
HETATM   31  C4  UNL     1      -0.824  49.498 -20.094  1.00  0.00    -0.019 A 
HETATM   32  C3  UNL     1      -0.952  50.433 -21.065  1.00  0.00     0.039 A 
HETATM   33  C5  UNL     1      -1.151  48.050 -20.204  1.00  0.00     0.052 C 
HETATM   34  C35 UNL     1      -0.564  51.729 -20.427  1.00  0.00     0.256 A 
HETATM   35  N4  UNL     1      -0.246  51.428 -19.126  1.00  0.00    -0.322 N 
HETATM   36  O8  UNL     1      -0.516  52.834 -20.932  1.00  0.00    -0.267 OA
HETATM   37  H36 UNL     1       0.045  52.145 -18.478  1.00  0.00     0.169 HD
BRANCH  32  38
HETATM   38  C2  UNL     1      -1.367  50.254 -22.438  1.00  0.00     0.007 C 
HETATM   39  C1  UNL     1      -2.626  50.184 -22.883  1.00  0.00     0.012 C 
ENDBRANCH  32  38
ENDBRANCH  29  30
ENDBRANCH   1  29
BRANCH  13  40
HETATM   40  C20 UNL     1       0.809  55.064 -10.383  1.00  0.00     0.115 C 
BRANCH  40  41
HETATM   41  C21 UNL     1       2.124  54.440 -10.037  1.00  0.00     0.022 A 
HETATM   42  C22 UNL     1       3.368  54.993  -9.767  1.00  0.00    -0.020 A 
HETATM   43  C25 UNL     1       4.275  53.899  -9.526  1.00  0.00     0.040 A 
HETATM   44  C27 UNL     1       3.549  52.722  -9.667  1.00  0.00     0.084 A 
HETATM   45  N2  UNL     1       2.260  53.074  -9.983  1.00  0.00    -0.356 N 
HETATM   46  H24 UNL     1       1.518  52.398 -10.136  1.00  0.00     0.166 HD
BRANCH  42  47
HETATM   47  C23 UNL     1       3.698  56.458  -9.736  1.00  0.00     0.037 C 
HETATM   48  C24 UNL     1       3.677  57.022  -8.322  1.00  0.00     0.010 C 
ENDBRANCH  42  47
BRANCH  43  49
HETATM   49  C26 UNL     1       5.691  53.991  -9.202  1.00  0.00     0.273 C 
HETATM   50  O4  UNL     1       6.479  54.734  -9.780  1.00  0.00    -0.301 OA
ENDBRANCH  43  49
BRANCH  44  51
HETATM   51  C28 UNL     1       3.938  51.338  -9.541  1.00  0.00     0.288 C 
HETATM   52  O5  UNL     1       4.456  50.709 -10.459  1.00  0.00    -0.300 OA
ENDBRANCH  44  51
ENDBRANCH  40  41
ENDBRANCH  13  40
TORSDOF 14
ENDMDL
MODEL 6
REMARK minimizedAffinity -7.33673859
REMARK CNNscore 0.176379502
REMARK CNNaffinity 6.97528505
REMARK  14 active torsions:
REMARK  status: ('A' for Active; 'I' for Inactive)
REMARK    1  A    between atoms: C2_2  and  C3_3 
REMARK    2  A    between atoms: C6_6  and  C7_7 
REMARK    3  A    between atoms: C7_7  and  C8_8 
REMARK    4  A    between atoms: C14_17  and  C15_18 
REMARK    5  A    between atoms: C15_18  and  O3_20 
REMARK    6  A    between atoms: C19_24  and  C20_25 
REMARK    7  A    between atoms: C20_25  and  C21_26 
REMARK    8  A    between atoms: C22_27  and  C23_28 
REMARK    9  A    between atoms: C25_30  and  C26_31 
REMARK   10  A    between atoms: C27_33  and  C28_34 
REMARK   11  A    between atoms: C29_38  and  C30_39 
REMARK   12  A    between atoms: C30_39  and  C31_40 
REMARK   13  A    between atoms: C31_40  and  C32_41 
REMARK   14  A    between atoms: C32_41  and  O7_43 
ROOT
HETATM    1  C8  UNL     1       0.499  50.748 -15.385  1.00  0.00     0.016 C 
HETATM    2  N1  UNL     1      -0.173  50.926 -14.294  1.00  0.00    -0.362 N 
ATOM      3  H1  UNL     1      -1.032  50.443 -14.029  1.00  0.00     0.165 HD
HETATM    4  C9  UNL     1       0.483  51.885 -13.555  1.00  0.00     0.024 C 
HETATM    5  C10 UNL     1      -0.129  52.472 -12.515  1.00  0.00     0.014 A 
HETATM    6  C11 UNL     1       0.358  53.513 -11.698  1.00  0.00     0.056 A 
HETATM    7  C12 UNL     1      -0.515  53.884 -10.721  1.00  0.00     0.046 A 
HETATM    8  C13 UNL     1      -1.714  53.069 -10.822  1.00  0.00     0.180 A 
HETATM    9  O1  UNL     1      -2.682  53.148 -10.081  1.00  0.00    -0.291 OA
HETATM   10  C14 UNL     1      -1.549  52.082 -12.007  1.00  0.00     0.197 A 
HETATM   11  C17 UNL     1       0.076  54.906  -9.956  1.00  0.00    -0.023 A 
HETATM   12  C18 UNL     1      -0.546  55.571  -8.780  1.00  0.00     0.051 C 
HETATM   13  C19 UNL     1       1.345  55.120 -10.524  1.00  0.00     0.022 A 
HETATM   14  N3  UNL     1       1.479  54.255 -11.612  1.00  0.00    -0.357 N 
HETATM   15  C29 UNL     1       1.859  52.173 -14.115  1.00  0.00     0.046 C 
HETATM   16  C33 UNL     1       1.742  51.596 -15.536  1.00  0.00     0.041 C 
HETATM   17  C34 UNL     1       1.509  52.683 -16.579  1.00  0.00     0.017 C 
HETATM   18  H25 UNL     1       2.294  54.205 -12.204  1.00  0.00     0.166 HD
ENDROOT
BRANCH  10  19
HETATM   19  C15 UNL     1      -1.585  50.660 -11.511  1.00  0.00     0.274 C 
HETATM   20  O2  UNL     1      -1.025  50.243 -10.504  1.00  0.00    -0.264 OA
BRANCH  19  21
HETATM   21  O3  UNL     1      -2.370  49.900 -12.328  1.00  0.00    -0.326 OA
HETATM   22  C16 UNL     1      -3.464  50.613 -12.906  1.00  0.00     0.213 C 
ENDBRANCH  19  21
ENDBRANCH  10  19
BRANCH  15  23
HETATM   23  C30 UNL     1       2.942  51.482 -13.263  1.00  0.00     0.022 C 
BRANCH  23  24
HETATM   24  C31 UNL     1       3.759  50.460 -14.050  1.00  0.00     0.110 C 
BRANCH  24  25
HETATM   25  C32 UNL     1       4.184  49.306 -13.187  1.00  0.00     0.139 C 
HETATM   26  O6  UNL     1       3.663  48.203 -13.148  1.00  0.00    -0.650 OA
BRANCH  25  27
HETATM   27  O7  UNL     1       5.221  49.609 -12.390  1.00  0.00    -0.776 OA
HETATM   28  H31 UNL     1       5.400  48.794 -11.881  1.00  0.00     0.167 HD
ENDBRANCH  25  27
ENDBRANCH  24  25
ENDBRANCH  23  24
ENDBRANCH  15  23
BRANCH   1  29
HETATM   29  C7  UNL     1       0.039  49.878 -16.484  1.00  0.00     0.055 C 
BRANCH  29  30
HETATM   30  C6  UNL     1      -0.690  50.243 -17.543  1.00  0.00     0.043 A 
HETATM   31  C4  UNL     1      -2.085  50.600 -17.726  1.00  0.00    -0.019 A 
HETATM   32  C3  UNL     1      -2.360  50.814 -19.035  1.00  0.00     0.039 A 
HETATM   33  C5  UNL     1      -3.032  50.731 -16.585  1.00  0.00     0.052 C 
HETATM   34  C35 UNL     1      -1.062  50.620 -19.754  1.00  0.00     0.256 A 
HETATM   35  N4  UNL     1      -0.139  50.311 -18.787  1.00  0.00    -0.322 N 
HETATM   36  O8  UNL     1      -0.842  50.699 -20.947  1.00  0.00    -0.267 OA
HETATM   37  H36 UNL     1       0.827  50.139 -19.021  1.00  0.00     0.169 HD
BRANCH  32  38
HETATM   38  C2  UNL     1      -3.625  51.155 -19.645  1.00  0.00     0.007 C 
HETATM   39  C1  UNL     1      -4.421  50.331 -20.335  1.00  0.00     0.012 C 
ENDBRANCH  32  38
ENDBRANCH  29  30
ENDBRANCH   1  29
BRANCH  13  40
HETATM   40  C20 UNL     1       2.510  56.002 -10.163  1.00  0.00     0.115 C 
BRANCH  40  41
HETATM   41  C21 UNL     1       3.418  55.473  -9.098  1.00  0.00     0.022 A 
HETATM   42  C22 UNL     1       3.477  55.711  -7.732  1.00  0.00    -0.020 A 
HETATM   43  C25 UNL     1       4.583  54.942  -7.217  1.00  0.00     0.040 A 
HETATM   44  C27 UNL     1       5.158  54.274  -8.291  1.00  0.00     0.084 A 
HETATM   45  N2  UNL     1       4.444  54.616  -9.414  1.00  0.00    -0.356 N 
HETATM   46  H24 UNL     1       4.655  54.260 -10.340  1.00  0.00     0.166 HD
BRANCH  42  47
HETATM   47  C23 UNL     1       2.560  56.603  -6.948  1.00  0.00     0.037 C 
HETATM   48  C24 UNL     1       2.948  58.071  -7.064  1.00  0.00     0.010 C 
ENDBRANCH  42  47
BRANCH  43  49
HETATM   49  C26 UNL     1       5.032  54.873  -5.834  1.00  0.00     0.273 C 
HETATM   50  O4  UNL     1       5.964  55.534  -5.383  1.00  0.00    -0.301 OA
ENDBRANCH  43  49
BRANCH  44  51
HETATM   51  C28 UNL     1       6.283  53.373  -8.365  1.00  0.00     0.288 C 
HETATM   52  O5  UNL     1       7.177  53.496  -9.198  1.00  0.00    -0.300 OA
ENDBRANCH  44  51
ENDBRANCH  40  41
ENDBRANCH  13  40
TORSDOF 14
ENDMDL
MODEL 7
REMARK minimizedAffinity -8.44531441
REMARK CNNscore 0.141021609
REMARK CNNaffinity 7.15458918
REMARK  14 active torsions:
REMARK  status: ('A' for Active; 'I' for Inactive)
REMARK    1  A    between atoms: C2_2  and  C3_3 
REMARK    2  A    between atoms: C6_6  and  C7_7 
REMARK    3  A    between atoms: C7_7  and  C8_8 
REMARK    4  A    between atoms: C14_17  and  C15_18 
REMARK    5  A    between atoms: C15_18  and  O3_20 
REMARK    6  A    between atoms: C19_24  and  C20_25 
REMARK    7  A    between atoms: C20_25  and  C21_26 
REMARK    8  A    between atoms: C22_27  and  C23_28 
REMARK    9  A    between atoms: C25_30  and  C26_31 
REMARK   10  A    between atoms: C27_33  and  C28_34 
REMARK   11  A    between atoms: C29_38  and  C30_39 
REMARK   12  A    between atoms: C30_39  and  C31_40 
REMARK   13  A    between atoms: C31_40  and  C32_41 
REMARK   14  A    between atoms: C32_41  and  O7_43 
ROOT
HETATM    1  C8  UNL     1      -5.055  49.080 -22.754  1.00  0.00     0.016 C 
HETATM    2  N1  UNL     1      -4.053  49.072 -21.935  1.00  0.00    -0.362 N 
ATOM      3  H1  UNL     1      -3.963  48.497 -21.098  1.00  0.00     0.165 HD
HETATM    4  C9  UNL     1      -3.131  49.982 -22.402  1.00  0.00     0.024 C 
HETATM    5  C10 UNL     1      -2.125  50.390 -21.612  1.00  0.00     0.014 A 
HETATM    6  C11 UNL     1      -1.141  51.359 -21.893  1.00  0.00     0.056 A 
HETATM    7  C12 UNL     1      -0.257  51.540 -20.873  1.00  0.00     0.046 A 
HETATM    8  C13 UNL     1      -0.609  50.654 -19.777  1.00  0.00     0.180 A 
HETATM    9  O1  UNL     1      -0.003  50.568 -18.719  1.00  0.00    -0.291 OA
HETATM   10  C14 UNL     1      -1.862  49.833 -20.180  1.00  0.00     0.197 A 
HETATM   11  C17 UNL     1       0.690  52.504 -21.266  1.00  0.00    -0.023 A 
HETATM   12  C18 UNL     1       1.836  52.971 -20.443  1.00  0.00     0.051 C 
HETATM   13  C19 UNL     1       0.327  52.882 -22.572  1.00  0.00     0.022 A 
HETATM   14  N3  UNL     1      -0.821  52.168 -22.921  1.00  0.00    -0.357 N 
HETATM   15  C29 UNL     1      -3.463  50.441 -23.805  1.00  0.00     0.046 C 
HETATM   16  C33 UNL     1      -4.941  50.033 -23.922  1.00  0.00     0.041 C 
HETATM   17  C34 UNL     1      -5.880  51.217 -23.724  1.00  0.00     0.017 C 
HETATM   18  H25 UNL     1      -1.298  52.252 -23.806  1.00  0.00     0.166 HD
ENDROOT
BRANCH  10  19
HETATM   19  C15 UNL     1      -1.536  48.364 -20.213  1.00  0.00     0.274 C 
HETATM   20  O2  UNL     1      -0.547  47.865 -20.737  1.00  0.00    -0.264 OA
BRANCH  19  21
HETATM   21  O3  UNL     1      -2.486  47.658 -19.534  1.00  0.00    -0.326 OA
HETATM   22  C16 UNL     1      -2.460  47.864 -18.121  1.00  0.00     0.213 C 
ENDBRANCH  19  21
ENDBRANCH  10  19
BRANCH  15  23
HETATM   23  C30 UNL     1      -2.552  49.736 -24.830  1.00  0.00     0.022 C 
BRANCH  23  24
HETATM   24  C31 UNL     1      -3.274  48.645 -25.619  1.00  0.00     0.110 C 
BRANCH  24  25
HETATM   25  C32 UNL     1      -3.261  48.928 -27.095  1.00  0.00     0.139 C 
HETATM   26  O6  UNL     1      -3.680  48.192 -27.973  1.00  0.00    -0.650 OA
BRANCH  25  27
HETATM   27  O7  UNL     1      -2.689  50.105 -27.392  1.00  0.00    -0.776 OA
HETATM   28  H31 UNL     1      -2.735  50.173 -28.367  1.00  0.00     0.167 HD
ENDBRANCH  25  27
ENDBRANCH  24  25
ENDBRANCH  23  24
ENDBRANCH  15  23
BRANCH   1  29
HETATM   29  C7  UNL     1      -6.296  48.317 -22.518  1.00  0.00     0.055 C 
BRANCH  29  30
HETATM   30  C6  UNL     1      -6.947  47.553 -23.401  1.00  0.00     0.043 A 
HETATM   31  C4  UNL     1      -7.336  46.155 -23.423  1.00  0.00    -0.019 A 
HETATM   32  C3  UNL     1      -7.915  45.834 -24.604  1.00  0.00     0.039 A 
HETATM   33  C5  UNL     1      -7.131  45.251 -22.258  1.00  0.00     0.052 C 
HETATM   34  C35 UNL     1      -7.940  47.104 -25.396  1.00  0.00     0.256 A 
HETATM   35  N4  UNL     1      -7.370  48.060 -24.592  1.00  0.00    -0.322 N 
HETATM   36  O8  UNL     1      -8.358  47.282 -26.523  1.00  0.00    -0.267 OA
HETATM   37  H36 UNL     1      -7.276  49.016 -24.901  1.00  0.00     0.169 HD
BRANCH  32  38
HETATM   38  C2  UNL     1      -8.412  44.551 -25.045  1.00  0.00     0.007 C 
HETATM   39  C1  UNL     1      -7.843  43.361 -24.823  1.00  0.00     0.012 C 
ENDBRANCH  32  38
ENDBRANCH  29  30
ENDBRANCH   1  29
BRANCH  13  40
HETATM   40  C20 UNL     1       0.938  53.800 -23.596  1.00  0.00     0.115 C 
BRANCH  40  41
HETATM   41  C21 UNL     1       0.548  53.538 -25.016  1.00  0.00     0.022 A 
HETATM   42  C22 UNL     1       0.710  52.424 -25.829  1.00  0.00    -0.020 A 
HETATM   43  C25 UNL     1       0.160  52.759 -27.119  1.00  0.00     0.040 A 
HETATM   44  C27 UNL     1      -0.306  54.065 -27.043  1.00  0.00     0.084 A 
HETATM   45  N2  UNL     1      -0.054  54.515 -25.771  1.00  0.00    -0.356 N 
HETATM   46  H24 UNL     1      -0.302  55.445 -25.447  1.00  0.00     0.166 HD
BRANCH  42  47
HETATM   47  C23 UNL     1       1.341  51.122 -25.431  1.00  0.00     0.037 C 
HETATM   48  C24 UNL     1       2.697  50.914 -26.093  1.00  0.00     0.010 C 
ENDBRANCH  42  47
BRANCH  43  49
HETATM   49  C26 UNL     1       0.104  51.903 -28.296  1.00  0.00     0.273 C 
HETATM   50  O4  UNL     1       1.093  51.545 -28.930  1.00  0.00    -0.301 OA
ENDBRANCH  43  49
BRANCH  44  51
HETATM   51  C28 UNL     1      -0.946  54.910 -28.023  1.00  0.00     0.288 C 
HETATM   52  O5  UNL     1      -2.045  54.651 -28.505  1.00  0.00    -0.300 OA
ENDBRANCH  44  51
ENDBRANCH  40  41
ENDBRANCH  13  40
TORSDOF 14
ENDMDL
MODEL 8
REMARK minimizedAffinity -9.30826569
REMARK CNNscore 0.112007752
REMARK CNNaffinity 6.9942193
REMARK  14 active torsions:
REMARK  status: ('A' for Active; 'I' for Inactive)
REMARK    1  A    between atoms: C2_2  and  C3_3 
REMARK    2  A    between atoms: C6_6  and  C7_7 
REMARK    3  A    between atoms: C7_7  and  C8_8 
REMARK    4  A    between atoms: C14_17  and  C15_18 
REMARK    5  A    between atoms: C15_18  and  O3_20 
REMARK    6  A    between atoms: C19_24  and  C20_25 
REMARK    7  A    between atoms: C20_25  and  C21_26 
REMARK    8  A    between atoms: C22_27  and  C23_28 
REMARK    9  A    between atoms: C25_30  and  C26_31 
REMARK   10  A    between atoms: C27_33  and  C28_34 
REMARK   11  A    between atoms: C29_38  and  C30_39 
REMARK   12  A    between atoms: C30_39  and  C31_40 
REMARK   13  A    between atoms: C31_40  and  C32_41 
REMARK   14  A    between atoms: C32_41  and  O7_43 
ROOT
HETATM    1  C8  UNL     1      -3.512  49.102 -24.798  1.00  0.00     0.016 C 
HETATM    2  N1  UNL     1      -2.616  49.997 -25.061  1.00  0.00    -0.362 N 
ATOM      3  H1  UNL     1      -2.219  50.202 -25.978  1.00  0.00     0.165 HD
HETATM    4  C9  UNL     1      -2.298  50.625 -23.877  1.00  0.00     0.024 C 
HETATM    5  C10 UNL     1      -1.204  51.397 -23.795  1.00  0.00     0.014 A 
HETATM    6  C11 UNL     1      -0.689  52.052 -22.658  1.00  0.00     0.056 A 
HETATM    7  C12 UNL     1       0.444  52.764 -22.913  1.00  0.00     0.046 A 
HETATM    8  C13 UNL     1       0.784  52.626 -24.319  1.00  0.00     0.180 A 
HETATM    9  O1  UNL     1       1.741  53.153 -24.866  1.00  0.00    -0.291 OA
HETATM   10  C14 UNL     1      -0.272  51.718 -25.002  1.00  0.00     0.197 A 
HETATM   11  C17 UNL     1       0.856  53.392 -21.723  1.00  0.00    -0.023 A 
HETATM   12  C18 UNL     1       2.042  54.277 -21.584  1.00  0.00     0.051 C 
HETATM   13  C19 UNL     1      -0.091  53.023 -20.751  1.00  0.00     0.022 A 
HETATM   14  N3  UNL     1      -1.022  52.178 -21.359  1.00  0.00    -0.357 N 
HETATM   15  C29 UNL     1      -3.275  50.267 -22.778  1.00  0.00     0.046 C 
HETATM   16  C33 UNL     1      -3.931  48.998 -23.349  1.00  0.00     0.041 C 
HETATM   17  C34 UNL     1      -3.359  47.728 -22.729  1.00  0.00     0.017 C 
HETATM   18  H25 UNL     1      -1.809  51.762 -20.885  1.00  0.00     0.166 HD
ENDROOT
BRANCH  10  19
HETATM   19  C15 UNL     1      -1.004  52.484 -26.073  1.00  0.00     0.274 C 
HETATM   20  O2  UNL     1      -2.092  53.031 -25.941  1.00  0.00    -0.264 OA
BRANCH  19  21
HETATM   21  O3  UNL     1      -0.258  52.517 -27.215  1.00  0.00    -0.326 OA
HETATM   22  C16 UNL     1      -0.419  53.716 -27.975  1.00  0.00     0.213 C 
ENDBRANCH  19  21
ENDBRANCH  10  19
BRANCH  15  23
HETATM   23  C30 UNL     1      -4.272  51.420 -22.550  1.00  0.00     0.022 C 
BRANCH  23  24
HETATM   24  C31 UNL     1      -4.598  51.643 -21.074  1.00  0.00     0.110 C 
BRANCH  24  25
HETATM   25  C32 UNL     1      -5.373  50.493 -20.497  1.00  0.00     0.139 C 
HETATM   26  O6  UNL     1      -4.936  49.632 -19.750  1.00  0.00    -0.650 OA
BRANCH  25  27
HETATM   27  O7  UNL     1      -6.647  50.463 -20.917  1.00  0.00    -0.776 OA
HETATM   28  H31 UNL     1      -7.041  49.680 -20.484  1.00  0.00     0.167 HD
ENDBRANCH  25  27
ENDBRANCH  24  25
ENDBRANCH  23  24
ENDBRANCH  15  23
BRANCH   1  29
HETATM   29  C7  UNL     1      -4.014  48.144 -25.801  1.00  0.00     0.055 C 
BRANCH  29  30
HETATM   30  C6  UNL     1      -5.257  48.072 -26.289  1.00  0.00     0.043 A 
HETATM   31  C4  UNL     1      -6.548  47.761 -25.703  1.00  0.00    -0.019 A 
HETATM   32  C3  UNL     1      -7.515  47.737 -26.651  1.00  0.00     0.039 A 
HETATM   33  C5  UNL     1      -6.730  47.541 -24.242  1.00  0.00     0.052 C 
HETATM   34  C35 UNL     1      -6.826  48.088 -27.933  1.00  0.00     0.256 A 
HETATM   35  N4  UNL     1      -5.508  48.289 -27.610  1.00  0.00    -0.322 N 
HETATM   36  O8  UNL     1      -7.305  48.170 -29.048  1.00  0.00    -0.267 OA
HETATM   37  H36 UNL     1      -4.830  48.545 -28.311  1.00  0.00     0.169 HD
BRANCH  32  38
HETATM   38  C2  UNL     1      -8.920  47.439 -26.498  1.00  0.00     0.007 C 
HETATM   39  C1  UNL     1      -9.878  48.296 -26.127  1.00  0.00     0.012 C 
ENDBRANCH  32  38
ENDBRANCH  29  30
ENDBRANCH   1  29
BRANCH  13  40
HETATM   40  C20 UNL     1      -0.295  53.391 -19.306  1.00  0.00     0.115 C 
BRANCH  40  41
HETATM   41  C21 UNL     1       0.153  52.370 -18.308  1.00  0.00     0.022 A 
HETATM   42  C22 UNL     1      -0.298  51.087 -18.032  1.00  0.00    -0.020 A 
HETATM   43  C25 UNL     1       0.499  50.585 -16.940  1.00  0.00     0.040 A 
HETATM   44  C27 UNL     1       1.396  51.586 -16.589  1.00  0.00     0.084 A 
HETATM   45  N2  UNL     1       1.163  52.653 -17.421  1.00  0.00    -0.356 N 
HETATM   46  H24 UNL     1       1.690  53.520 -17.379  1.00  0.00     0.166 HD
BRANCH  42  47
HETATM   47  C23 UNL     1      -1.408  50.367 -18.741  1.00  0.00     0.037 C 
HETATM   48  C24 UNL     1      -0.886  49.279 -19.670  1.00  0.00     0.010 C 
ENDBRANCH  42  47
BRANCH  43  49
HETATM   49  C26 UNL     1       0.390  49.279 -16.305  1.00  0.00     0.273 C 
HETATM   50  O4  UNL     1       0.350  49.109 -15.090  1.00  0.00    -0.301 OA
ENDBRANCH  43  49
BRANCH  44  51
HETATM   51  C28 UNL     1       2.422  51.637 -15.575  1.00  0.00     0.288 C 
HETATM   52  O5  UNL     1       2.189  51.960 -14.413  1.00  0.00    -0.300 OA
ENDBRANCH  44  51
ENDBRANCH  40  41
ENDBRANCH  13  40
TORSDOF 14
ENDMDL
MODEL 9
REMARK minimizedAffinity -7.14150476
REMARK CNNscore 0.0902324021
REMARK CNNaffinity 6.3303237
REMARK  14 active torsions:
REMARK  status: ('A' for Active; 'I' for Inactive)
REMARK    1  A    between atoms: C2_2  and  C3_3 
REMARK    2  A    between atoms: C6_6  and  C7_7 
REMARK    3  A    between atoms: C7_7  and  C8_8 
REMARK    4  A    between atoms: C14_17  and  C15_18 
REMARK    5  A    between atoms: C15_18  and  O3_20 
REMARK    6  A    between atoms: C19_24  and  C20_25 
REMARK    7  A    between atoms: C20_25  and  C21_26 
REMARK    8  A    between atoms: C22_27  and  C23_28 
REMARK    9  A    between atoms: C25_30  and  C26_31 
REMARK   10  A    between atoms: C27_33  and  C28_34 
REMARK   11  A    between atoms: C29_38  and  C30_39 
REMARK   12  A    between atoms: C30_39  and  C31_40 
REMARK   13  A    between atoms: C31_40  and  C32_41 
REMARK   14  A    between atoms: C32_41  and  O7_43 
ROOT
HETATM    1  C8  UNL     1      -0.784  50.833 -16.024  1.00  0.00     0.016 C 
HETATM    2  N1  UNL     1      -1.234  51.142 -14.852  1.00  0.00    -0.362 N 
ATOM      3  H1  UNL     1      -2.215  51.248 -14.591  1.00  0.00     0.165 HD
HETATM    4  C9  UNL     1      -0.148  51.303 -14.020  1.00  0.00     0.024 C 
HETATM    5  C10 UNL     1      -0.294  51.895 -12.825  1.00  0.00     0.014 A 
HETATM    6  C11 UNL     1       0.708  52.206 -11.884  1.00  0.00     0.056 A 
HETATM    7  C12 UNL     1       0.225  52.809 -10.763  1.00  0.00     0.046 A 
HETATM    8  C13 UNL     1      -1.215  52.953 -10.884  1.00  0.00     0.180 A 
HETATM    9  O1  UNL     1      -1.947  53.445 -10.038  1.00  0.00    -0.291 OA
HETATM   10  C14 UNL     1      -1.663  52.363 -12.247  1.00  0.00     0.197 A 
HETATM   11  C17 UNL     1       1.299  53.052  -9.886  1.00  0.00    -0.023 A 
HETATM   12  C18 UNL     1       1.189  53.680  -8.543  1.00  0.00     0.051 C 
HETATM   13  C19 UNL     1       2.442  52.557 -10.540  1.00  0.00     0.022 A 
HETATM   14  N3  UNL     1       2.043  52.058 -11.782  1.00  0.00    -0.357 N 
HETATM   15  C29 UNL     1       1.125  50.796 -14.665  1.00  0.00     0.046 C 
HETATM   16  C33 UNL     1       0.720  50.743 -16.147  1.00  0.00     0.041 C 
HETATM   17  C34 UNL     1       1.253  51.938 -16.930  1.00  0.00     0.017 C 
HETATM   18  H25 UNL     1       2.668  51.648 -12.459  1.00  0.00     0.166 HD
ENDROOT
BRANCH  10  19
HETATM   19  C15 UNL     1      -2.596  51.200 -12.032  1.00  0.00     0.274 C 
HETATM   20  O2  UNL     1      -3.574  50.935 -12.721  1.00  0.00    -0.264 OA
BRANCH  19  21
HETATM   21  O3  UNL     1      -2.172  50.451 -10.974  1.00  0.00    -0.326 OA
HETATM   22  C16 UNL     1      -3.234  49.886 -10.204  1.00  0.00     0.213 C 
ENDBRANCH  19  21
ENDBRANCH  10  19
BRANCH  15  23
HETATM   23  C30 UNL     1       1.508  49.420 -14.086  1.00  0.00     0.022 C 
BRANCH  23  24
HETATM   24  C31 UNL     1       2.701  49.484 -13.135  1.00  0.00     0.110 C 
BRANCH  24  25
HETATM   25  C32 UNL     1       3.931  50.008 -13.821  1.00  0.00     0.139 C 
HETATM   26  O6  UNL     1       4.945  49.375 -14.067  1.00  0.00    -0.650 OA
BRANCH  25  27
HETATM   27  O7  UNL     1       3.837  51.311 -14.131  1.00  0.00    -0.776 OA
HETATM   28  H31 UNL     1       4.686  51.533 -14.562  1.00  0.00     0.167 HD
ENDBRANCH  25  27
ENDBRANCH  24  25
ENDBRANCH  23  24
ENDBRANCH  15  23
BRANCH   1  29
HETATM   29  C7  UNL     1      -1.649  50.698 -17.212  1.00  0.00     0.055 C 
BRANCH  29  30
HETATM   30  C6  UNL     1      -1.692  49.665 -18.059  1.00  0.00     0.043 A 
HETATM   31  C4  UNL     1      -1.177  49.444 -19.398  1.00  0.00    -0.019 A 
HETATM   32  C3  UNL     1      -1.565  48.236 -19.870  1.00  0.00     0.039 A 
HETATM   33  C5  UNL     1      -0.312  50.436 -20.095  1.00  0.00     0.052 C 
HETATM   34  C35 UNL     1      -2.355  47.609 -18.764  1.00  0.00     0.256 A 
HETATM   35  N4  UNL     1      -2.351  48.518 -17.737  1.00  0.00    -0.322 N 
HETATM   36  O8  UNL     1      -2.909  46.527 -18.754  1.00  0.00    -0.267 OA
HETATM   37  H36 UNL     1      -2.817  48.324 -16.863  1.00  0.00     0.169 HD
BRANCH  32  38
HETATM   38  C2  UNL     1      -1.297  47.645 -21.161  1.00  0.00     0.007 C 
HETATM   39  C1  UNL     1      -2.174  47.485 -22.159  1.00  0.00     0.012 C 
ENDBRANCH  32  38
ENDBRANCH  29  30
ENDBRANCH   1  29
BRANCH  13  40
HETATM   40  C20 UNL     1       3.890  52.429 -10.149  1.00  0.00     0.115 C 
BRANCH  40  41
HETATM   41  C21 UNL     1       4.382  53.425  -9.147  1.00  0.00     0.022 A 
HETATM   42  C22 UNL     1       4.722  54.766  -9.266  1.00  0.00    -0.020 A 
HETATM   43  C25 UNL     1       5.159  55.208  -7.966  1.00  0.00     0.040 A 
HETATM   44  C27 UNL     1       5.076  54.118  -7.109  1.00  0.00     0.084 A 
HETATM   45  N2  UNL     1       4.613  53.055  -7.845  1.00  0.00    -0.356 N 
HETATM   46  H24 UNL     1       4.456  52.131  -7.455  1.00  0.00     0.166 HD
BRANCH  42  47
HETATM   47  C23 UNL     1       4.647  55.590 -10.519  1.00  0.00     0.037 C 
HETATM   48  C24 UNL     1       3.267  56.200 -10.724  1.00  0.00     0.010 C 
ENDBRANCH  42  47
BRANCH  43  49
HETATM   49  C26 UNL     1       5.614  56.543  -7.602  1.00  0.00     0.273 C 
HETATM   50  O4  UNL     1       4.863  57.457  -7.275  1.00  0.00    -0.301 OA
ENDBRANCH  43  49
BRANCH  44  51
HETATM   51  C28 UNL     1       5.382  53.980  -5.705  1.00  0.00     0.288 C 
HETATM   52  O5  UNL     1       6.511  54.151  -5.254  1.00  0.00    -0.300 OA
ENDBRANCH  44  51
ENDBRANCH  40  41
ENDBRANCH  13  40
TORSDOF 14
ENDMDL
