MODEL 1
REMARK minimizedAffinity -9.86379623
REMARK  4 active torsions:
REMARK  status: ('A' for Active; 'I' for Inactive)
REMARK    1  A    between atoms: C14_16  and  C15_17 
REMARK    2  A    between atoms: C15_17  and  C17_19 
REMARK    3  A    between atoms: C17_19  and  C18_20 
REMARK    4  A    between atoms: C18_20  and  C19_21 
ROOT
HETATM    1  C1  UNL     1      -2.616  49.970 -27.396  1.00  0.00     0.017 C 
HETATM    2  C2  UNL     1      -2.782  50.631 -26.234  1.00  0.00    -0.060 C 
HETATM    3  C3  UNL     1      -3.439  51.998 -26.226  1.00  0.00     0.212 C 
HETATM    4  O1  UNL     1      -2.581  52.968 -25.631  1.00  0.00    -0.317 OA
HETATM    5  C4  UNL     1      -1.367  53.054 -26.238  1.00  0.00     0.259 C 
HETATM    6  O2  UNL     1      -1.183  53.122 -27.445  1.00  0.00    -0.265 OA
HETATM    7  C5  UNL     1      -0.283  52.933 -25.204  1.00  0.00     0.112 C 
HETATM    8  C6  UNL     1      -0.168  51.492 -24.688  1.00  0.00     0.020 C 
HETATM    9  C7  UNL     1      -1.435  50.941 -23.991  1.00  0.00    -0.024 A 
HETATM   10  C8  UNL     1      -2.090  51.838 -22.963  1.00  0.00     0.022 A 
HETATM   11  C9  UNL     1      -1.417  50.578 -22.463  1.00  0.00    -0.027 A 
HETATM   12  C10 UNL     1      -0.092  50.754 -21.708  1.00  0.00     0.011 C 
HETATM   13  C11 UNL     1      -0.064  50.487 -20.192  1.00  0.00     0.011 C 
HETATM   14  C12 UNL     1      -1.356  49.899 -19.617  1.00  0.00    -0.032 C 
HETATM   15  C13 UNL     1      -2.338  51.075 -19.370  1.00  0.00     0.016 C 
HETATM   16  C14 UNL     1      -1.197  49.051 -18.311  1.00  0.00    -0.002 C 
HETATM   17  C23 UNL     1      -2.389  48.056 -18.367  1.00  0.00     0.006 C 
HETATM   18  C24 UNL     1      -2.976  48.131 -19.786  1.00  0.00     0.011 C 
HETATM   19  C25 UNL     1      -1.887  48.820 -20.630  1.00  0.00    -0.032 C 
HETATM   20  C26 UNL     1      -0.848  47.718 -21.014  1.00  0.00     0.016 C 
HETATM   21  C27 UNL     1      -2.414  49.522 -21.909  1.00  0.00     0.004 C 
HETATM   22  C28 UNL     1      -2.899  48.554 -22.995  1.00  0.00     0.007 C 
HETATM   23  C29 UNL     1      -3.433  49.318 -24.202  1.00  0.00     0.010 C 
HETATM   24  C30 UNL     1      -2.279  50.029 -24.923  1.00  0.00     0.025 C 
ENDROOT
BRANCH  16  25
HETATM   25  C15 UNL     1      -0.971  49.680 -16.904  1.00  0.00    -0.014 C 
HETATM   26  C16 UNL     1      -1.996  50.722 -16.436  1.00  0.00     0.010 C 
BRANCH  25  27
HETATM   27  C17 UNL     1       0.471  50.219 -16.753  1.00  0.00     0.008 C 
BRANCH  27  28
HETATM   28  C18 UNL     1       0.594  51.750 -16.711  1.00  0.00     0.028 C 
BRANCH  28  29
HETATM   29  C19 UNL     1       2.021  52.218 -16.804  1.00  0.00    -0.025 C 
HETATM   30  C20 UNL     1       2.973  52.203 -15.850  1.00  0.00    -0.091 C 
HETATM   31  C21 UNL     1       4.358  52.723 -16.146  1.00  0.00     0.042 C 
HETATM   32  C22 UNL     1       2.798  51.697 -14.446  1.00  0.00     0.042 C 
ENDBRANCH  28  29
ENDBRANCH  27  28
ENDBRANCH  25  27
ENDBRANCH  16  25
TORSDOF 4
ENDMDL
MODEL 2
REMARK minimizedAffinity -9.4795475
REMARK  4 active torsions:
REMARK  status: ('A' for Active; 'I' for Inactive)
REMARK    1  A    between atoms: C14_16  and  C15_17 
REMARK    2  A    between atoms: C15_17  and  C17_19 
REMARK    3  A    between atoms: C17_19  and  C18_20 
REMARK    4  A    between atoms: C18_20  and  C19_21 
ROOT
HETATM    1  C1  UNL     1      -2.725  50.984 -15.690  1.00  0.00     0.017 C 
HETATM    2  C2  UNL     1      -2.176  50.390 -16.767  1.00  0.00    -0.060 C 
HETATM    3  C3  UNL     1      -0.941  49.526 -16.609  1.00  0.00     0.212 C 
HETATM    4  O1  UNL     1       0.118  50.001 -17.437  1.00  0.00    -0.317 OA
HETATM    5  C4  UNL     1       0.443  51.300 -17.198  1.00  0.00     0.259 C 
HETATM    6  O2  UNL     1       0.618  51.794 -16.093  1.00  0.00    -0.265 OA
HETATM    7  C5  UNL     1       0.438  52.061 -18.494  1.00  0.00     0.112 C 
HETATM    8  C6  UNL     1      -0.994  52.283 -19.000  1.00  0.00     0.020 C 
HETATM    9  C7  UNL     1      -1.791  50.991 -19.303  1.00  0.00    -0.024 A 
HETATM   10  C8  UNL     1      -1.083  49.930 -20.118  1.00  0.00     0.022 A 
HETATM   11  C9  UNL     1      -2.243  50.652 -20.769  1.00  0.00    -0.027 A 
HETATM   12  C10 UNL     1      -1.898  51.665 -21.870  1.00  0.00     0.011 C 
HETATM   13  C11 UNL     1      -2.253  51.321 -23.328  1.00  0.00     0.011 C 
HETATM   14  C12 UNL     1      -3.083  50.047 -23.507  1.00  0.00    -0.032 C 
HETATM   15  C13 UNL     1      -2.105  48.842 -23.483  1.00  0.00     0.016 C 
HETATM   16  C14 UNL     1      -3.974  49.987 -24.791  1.00  0.00    -0.002 C 
HETATM   17  C23 UNL     1      -5.148  49.053 -24.387  1.00  0.00     0.006 C 
HETATM   18  C24 UNL     1      -5.080  48.876 -22.861  1.00  0.00     0.011 C 
HETATM   19  C25 UNL     1      -4.168  50.015 -22.368  1.00  0.00    -0.032 C 
HETATM   20  C26 UNL     1      -5.055  51.297 -22.278  1.00  0.00     0.016 C 
HETATM   21  C27 UNL     1      -3.483  49.745 -21.004  1.00  0.00     0.004 C 
HETATM   22  C28 UNL     1      -4.447  49.757 -19.810  1.00  0.00     0.007 C 
HETATM   23  C29 UNL     1      -3.707  49.449 -18.513  1.00  0.00     0.010 C 
HETATM   24  C30 UNL     1      -2.770  50.612 -18.158  1.00  0.00     0.025 C 
ENDROOT
BRANCH  16  25
HETATM   25  C15 UNL     1      -3.408  49.702 -26.214  1.00  0.00    -0.014 C 
HETATM   26  C16 UNL     1      -3.840  48.390 -26.883  1.00  0.00     0.010 C 
BRANCH  25  27
HETATM   27  C17 UNL     1      -1.870  49.857 -26.250  1.00  0.00     0.008 C 
BRANCH  27  28
HETATM   28  C18 UNL     1      -1.355  51.095 -27.002  1.00  0.00     0.028 C 
BRANCH  28  29
HETATM   29  C19 UNL     1       0.141  51.096 -27.159  1.00  0.00    -0.025 C 
HETATM   30  C20 UNL     1       1.073  51.574 -26.310  1.00  0.00    -0.091 C 
HETATM   31  C21 UNL     1       2.538  51.479 -26.653  1.00  0.00     0.042 C 
HETATM   32  C22 UNL     1       0.797  52.227 -24.985  1.00  0.00     0.042 C 
ENDBRANCH  28  29
ENDBRANCH  27  28
ENDBRANCH  25  27
ENDBRANCH  16  25
TORSDOF 4
ENDMDL
MODEL 3
REMARK minimizedAffinity -9.07422733
REMARK  4 active torsions:
REMARK  status: ('A' for Active; 'I' for Inactive)
REMARK    1  A    between atoms: C14_16  and  C15_17 
REMARK    2  A    between atoms: C15_17  and  C17_19 
REMARK    3  A    between atoms: C17_19  and  C18_20 
REMARK    4  A    between atoms: C18_20  and  C19_21 
ROOT
HETATM    1  C1  UNL     1       0.249  54.630 -25.179  1.00  0.00     0.017 C 
HETATM    2  C2  UNL     1      -0.002  53.320 -24.986  1.00  0.00    -0.060 C 
HETATM    3  C3  UNL     1       0.245  52.328 -26.106  1.00  0.00     0.212 C 
HETATM    4  O1  UNL     1      -0.944  51.602 -26.410  1.00  0.00    -0.317 OA
HETATM    5  C4  UNL     1      -1.991  52.404 -26.741  1.00  0.00     0.259 C 
HETATM    6  O2  UNL     1      -1.945  53.339 -27.527  1.00  0.00    -0.265 OA
HETATM    7  C5  UNL     1      -3.184  52.037 -25.902  1.00  0.00     0.112 C 
HETATM    8  C6  UNL     1      -3.004  52.501 -24.451  1.00  0.00     0.020 C 
HETATM    9  C7  UNL     1      -1.798  51.878 -23.707  1.00  0.00    -0.024 A 
HETATM   10  C8  UNL     1      -1.626  50.379 -23.826  1.00  0.00     0.022 A 
HETATM   11  C9  UNL     1      -2.017  50.931 -22.473  1.00  0.00    -0.027 A 
HETATM   12  C10 UNL     1      -3.463  50.685 -22.016  1.00  0.00     0.011 C 
HETATM   13  C11 UNL     1      -3.716  49.697 -20.864  1.00  0.00     0.011 C 
HETATM   14  C12 UNL     1      -2.452  49.179 -20.169  1.00  0.00    -0.032 C 
HETATM   15  C13 UNL     1      -1.894  48.009 -21.022  1.00  0.00     0.016 C 
HETATM   16  C14 UNL     1      -2.629  48.722 -18.684  1.00  0.00    -0.002 C 
HETATM   17  C23 UNL     1      -1.226  48.945 -18.055  1.00  0.00     0.006 C 
HETATM   18  C24 UNL     1      -0.414  49.790 -19.051  1.00  0.00     0.011 C 
HETATM   19  C25 UNL     1      -1.460  50.389 -20.010  1.00  0.00    -0.032 C 
HETATM   20  C26 UNL     1      -2.065  51.639 -19.295  1.00  0.00     0.016 C 
HETATM   21  C27 UNL     1      -0.901  50.790 -21.400  1.00  0.00     0.004 C 
HETATM   22  C28 UNL     1       0.032  52.007 -21.368  1.00  0.00     0.007 C 
HETATM   23  C29 UNL     1       0.566  52.316 -22.763  1.00  0.00     0.010 C 
HETATM   24  C30 UNL     1      -0.572  52.830 -23.656  1.00  0.00     0.025 C 
ENDROOT
BRANCH  16  25
HETATM   25  C15 UNL     1      -3.290  47.371 -18.276  1.00  0.00    -0.014 C 
HETATM   26  C16 UNL     1      -3.521  46.345 -19.393  1.00  0.00     0.010 C 
BRANCH  25  27
HETATM   27  C17 UNL     1      -4.586  47.601 -17.463  1.00  0.00     0.008 C 
BRANCH  27  28
HETATM   28  C18 UNL     1      -5.845  46.932 -18.039  1.00  0.00     0.028 C 
BRANCH  28  29
HETATM   29  C19 UNL     1      -7.101  47.702 -17.734  1.00  0.00    -0.025 C 
HETATM   30  C20 UNL     1      -7.656  48.712 -18.433  1.00  0.00    -0.091 C 
HETATM   31  C21 UNL     1      -8.932  49.359 -17.956  1.00  0.00     0.042 C 
HETATM   32  C22 UNL     1      -7.114  49.296 -19.708  1.00  0.00     0.042 C 
ENDBRANCH  28  29
ENDBRANCH  27  28
ENDBRANCH  25  27
ENDBRANCH  16  25
TORSDOF 4
ENDMDL
MODEL 4
REMARK minimizedAffinity -9.04781628
REMARK  4 active torsions:
REMARK  status: ('A' for Active; 'I' for Inactive)
REMARK    1  A    between atoms: C14_16  and  C15_17 
REMARK    2  A    between atoms: C15_17  and  C17_19 
REMARK    3  A    between atoms: C17_19  and  C18_20 
REMARK    4  A    between atoms: C18_20  and  C19_21 
ROOT
HETATM    1  C1  UNL     1       0.119  53.526 -26.088  1.00  0.00     0.017 C 
HETATM    2  C2  UNL     1      -0.204  52.441 -25.358  1.00  0.00    -0.060 C 
HETATM    3  C3  UNL     1      -0.360  51.092 -26.033  1.00  0.00     0.212 C 
HETATM    4  O1  UNL     1      -1.654  50.548 -25.783  1.00  0.00    -0.317 OA
HETATM    5  C4  UNL     1      -2.665  51.369 -26.176  1.00  0.00     0.259 C 
HETATM    6  O2  UNL     1      -2.732  51.943 -27.254  1.00  0.00    -0.265 OA
HETATM    7  C5  UNL     1      -3.627  51.555 -25.036  1.00  0.00     0.112 C 
HETATM    8  C6  UNL     1      -3.027  52.454 -23.946  1.00  0.00     0.020 C 
HETATM    9  C7  UNL     1      -1.738  51.910 -23.284  1.00  0.00    -0.024 A 
HETATM   10  C8  UNL     1      -1.756  50.461 -22.848  1.00  0.00     0.022 A 
HETATM   11  C9  UNL     1      -1.721  51.516 -21.763  1.00  0.00    -0.027 A 
HETATM   12  C10 UNL     1      -3.014  51.727 -20.962  1.00  0.00     0.011 C 
HETATM   13  C11 UNL     1      -3.055  51.272 -19.492  1.00  0.00     0.011 C 
HETATM   14  C12 UNL     1      -1.713  50.798 -18.926  1.00  0.00    -0.032 C 
HETATM   15  C13 UNL     1      -1.519  49.320 -19.356  1.00  0.00     0.016 C 
HETATM   16  C14 UNL     1      -1.540  50.932 -17.377  1.00  0.00    -0.002 C 
HETATM   17  C23 UNL     1      -0.007  51.087 -17.185  1.00  0.00     0.006 C 
HETATM   18  C24 UNL     1       0.598  51.357 -18.573  1.00  0.00     0.011 C 
HETATM   19  C25 UNL     1      -0.597  51.772 -19.453  1.00  0.00    -0.032 C 
HETATM   20  C26 UNL     1      -0.864  53.284 -19.168  1.00  0.00     0.016 C 
HETATM   21  C27 UNL     1      -0.384  51.547 -20.972  1.00  0.00     0.004 C 
HETATM   22  C28 UNL     1       0.643  52.495 -21.604  1.00  0.00     0.007 C 
HETATM   23  C29 UNL     1       0.822  52.189 -23.087  1.00  0.00     0.010 C 
HETATM   24  C30 UNL     1      -0.452  52.566 -23.856  1.00  0.00     0.025 C 
ENDROOT
BRANCH  16  25
HETATM   25  C15 UNL     1      -2.204  49.962 -16.353  1.00  0.00    -0.014 C 
HETATM   26  C16 UNL     1      -3.063  48.828 -16.928  1.00  0.00     0.010 C 
BRANCH  25  27
HETATM   27  C17 UNL     1      -2.977  50.739 -15.262  1.00  0.00     0.008 C 
BRANCH  27  28
HETATM   28  C18 UNL     1      -2.225  50.921 -13.934  1.00  0.00     0.028 C 
BRANCH  28  29
HETATM   29  C19 UNL     1      -2.728  52.097 -13.140  1.00  0.00    -0.025 C 
HETATM   30  C20 UNL     1      -3.445  52.094 -12.000  1.00  0.00    -0.091 C 
HETATM   31  C21 UNL     1      -3.855  53.393 -11.353  1.00  0.00     0.042 C 
HETATM   32  C22 UNL     1      -3.906  50.870 -11.258  1.00  0.00     0.042 C 
ENDBRANCH  28  29
ENDBRANCH  27  28
ENDBRANCH  25  27
ENDBRANCH  16  25
TORSDOF 4
ENDMDL
MODEL 5
REMARK minimizedAffinity -9.01796055
REMARK  4 active torsions:
REMARK  status: ('A' for Active; 'I' for Inactive)
REMARK    1  A    between atoms: C14_16  and  C15_17 
REMARK    2  A    between atoms: C15_17  and  C17_19 
REMARK    3  A    between atoms: C17_19  and  C18_20 
REMARK    4  A    between atoms: C18_20  and  C19_21 
ROOT
HETATM    1  C1  UNL     1      -2.689  49.653 -27.070  1.00  0.00     0.017 C 
HETATM    2  C2  UNL     1      -2.762  50.495 -26.021  1.00  0.00    -0.060 C 
HETATM    3  C3  UNL     1      -3.439  51.842 -26.176  1.00  0.00     0.212 C 
HETATM    4  O1  UNL     1      -2.548  52.900 -25.828  1.00  0.00    -0.317 OA
HETATM    5  C4  UNL     1      -1.396  52.888 -26.550  1.00  0.00     0.259 C 
HETATM    6  O2  UNL     1      -1.322  52.758 -27.763  1.00  0.00    -0.265 OA
HETATM    7  C5  UNL     1      -0.221  52.941 -25.613  1.00  0.00     0.112 C 
HETATM    8  C6  UNL     1      -0.035  51.605 -24.882  1.00  0.00     0.020 C 
HETATM    9  C7  UNL     1      -1.224  51.172 -23.992  1.00  0.00    -0.024 A 
HETATM   10  C8  UNL     1      -1.800  52.223 -23.068  1.00  0.00     0.022 A 
HETATM   11  C9  UNL     1      -1.063  51.064 -22.433  1.00  0.00    -0.027 A 
HETATM   12  C10 UNL     1       0.322  51.365 -21.841  1.00  0.00     0.011 C 
HETATM   13  C11 UNL     1       0.491  51.351 -20.311  1.00  0.00     0.011 C 
HETATM   14  C12 UNL     1      -0.734  50.860 -19.532  1.00  0.00    -0.032 C 
HETATM   15  C13 UNL     1      -1.711  52.058 -19.391  1.00  0.00     0.016 C 
HETATM   16  C14 UNL     1      -0.444  50.239 -18.126  1.00  0.00    -0.002 C 
HETATM   17  C23 UNL     1      -1.618  49.244 -17.909  1.00  0.00     0.006 C 
HETATM   18  C24 UNL     1      -2.331  49.085 -19.262  1.00  0.00     0.011 C 
HETATM   19  C25 UNL     1      -1.335  49.629 -20.303  1.00  0.00    -0.032 C 
HETATM   20  C26 UNL     1      -0.315  48.482 -20.596  1.00  0.00     0.016 C 
HETATM   21  C27 UNL     1      -1.987  50.110 -21.625  1.00  0.00     0.004 C 
HETATM   22  C28 UNL     1      -2.550  48.976 -22.491  1.00  0.00     0.007 C 
HETATM   23  C29 UNL     1      -3.204  49.530 -23.752  1.00  0.00     0.010 C 
HETATM   24  C30 UNL     1      -2.132  50.117 -24.681  1.00  0.00     0.025 C 
ENDROOT
BRANCH  16  25
HETATM   25  C15 UNL     1      -0.103  51.090 -16.866  1.00  0.00    -0.014 C 
HETATM   26  C16 UNL     1       1.109  52.025 -16.966  1.00  0.00     0.010 C 
BRANCH  25  27
HETATM   27  C17 UNL     1      -0.015  50.208 -15.598  1.00  0.00     0.008 C 
BRANCH  27  28
HETATM   28  C18 UNL     1       1.408  49.964 -15.070  1.00  0.00     0.028 C 
BRANCH  28  29
HETATM   29  C19 UNL     1       1.704  50.748 -13.821  1.00  0.00    -0.025 C 
HETATM   30  C20 UNL     1       2.834  50.762 -13.087  1.00  0.00    -0.091 C 
HETATM   31  C21 UNL     1       2.934  51.627 -11.855  1.00  0.00     0.042 C 
HETATM   32  C22 UNL     1       4.077  49.969 -13.378  1.00  0.00     0.042 C 
ENDBRANCH  28  29
ENDBRANCH  27  28
ENDBRANCH  25  27
ENDBRANCH  16  25
TORSDOF 4
ENDMDL
MODEL 6
REMARK minimizedAffinity -8.95968819
REMARK  4 active torsions:
REMARK  status: ('A' for Active; 'I' for Inactive)
REMARK    1  A    between atoms: C14_16  and  C15_17 
REMARK    2  A    between atoms: C15_17  and  C17_19 
REMARK    3  A    between atoms: C17_19  and  C18_20 
REMARK    4  A    between atoms: C18_20  and  C19_21 
ROOT
HETATM    1  C1  UNL     1      -0.472  51.074 -27.562  1.00  0.00     0.017 C 
HETATM    2  C2  UNL     1      -1.180  51.458 -26.482  1.00  0.00    -0.060 C 
HETATM    3  C3  UNL     1      -1.790  52.845 -26.429  1.00  0.00     0.212 C 
HETATM    4  O1  UNL     1      -1.334  53.555 -25.280  1.00  0.00    -0.317 OA
HETATM    5  C4  UNL     1       0.021  53.654 -25.215  1.00  0.00     0.259 C 
HETATM    6  O2  UNL     1       0.751  53.984 -26.138  1.00  0.00    -0.265 OA
HETATM    7  C5  UNL     1       0.491  53.183 -23.867  1.00  0.00     0.112 C 
HETATM    8  C6  UNL     1       0.378  51.657 -23.743  1.00  0.00     0.020 C 
HETATM    9  C7  UNL     1      -1.057  51.093 -23.876  1.00  0.00    -0.024 A 
HETATM   10  C8  UNL     1      -2.138  51.786 -23.075  1.00  0.00     0.022 A 
HETATM   11  C9  UNL     1      -1.755  50.381 -22.661  1.00  0.00    -0.027 A 
HETATM   12  C10 UNL     1      -0.947  50.237 -21.364  1.00  0.00     0.011 C 
HETATM   13  C11 UNL     1      -1.632  49.622 -20.130  1.00  0.00     0.011 C 
HETATM   14  C12 UNL     1      -3.031  49.051 -20.387  1.00  0.00    -0.032 C 
HETATM   15  C13 UNL     1      -4.036  50.232 -20.330  1.00  0.00     0.016 C 
HETATM   16  C14 UNL     1      -3.490  47.910 -19.421  1.00  0.00    -0.002 C 
HETATM   17  C23 UNL     1      -4.494  47.084 -20.272  1.00  0.00     0.006 C 
HETATM   18  C24 UNL     1      -4.343  47.550 -21.729  1.00  0.00     0.011 C 
HETATM   19  C25 UNL     1      -2.999  48.302 -21.769  1.00  0.00    -0.032 C 
HETATM   20  C26 UNL     1      -1.880  47.219 -21.898  1.00  0.00     0.016 C 
HETATM   21  C27 UNL     1      -2.874  49.334 -22.920  1.00  0.00     0.004 C 
HETATM   22  C28 UNL     1      -2.769  48.703 -24.313  1.00  0.00     0.007 C 
HETATM   23  C29 UNL     1      -2.686  49.779 -25.391  1.00  0.00     0.010 C 
HETATM   24  C30 UNL     1      -1.343  50.516 -25.289  1.00  0.00     0.025 C 
ENDROOT
BRANCH  16  25
HETATM   25  C15 UNL     1      -3.968  48.164 -17.960  1.00  0.00    -0.014 C 
HETATM   26  C16 UNL     1      -5.384  47.695 -17.601  1.00  0.00     0.010 C 
BRANCH  25  27
HETATM   27  C17 UNL     1      -3.756  49.640 -17.547  1.00  0.00     0.008 C 
BRANCH  27  28
HETATM   28  C18 UNL     1      -2.857  49.851 -16.318  1.00  0.00     0.028 C 
BRANCH  28  29
HETATM   29  C19 UNL     1      -1.651  50.698 -16.623  1.00  0.00    -0.025 C 
HETATM   30  C20 UNL     1      -0.358  50.324 -16.684  1.00  0.00    -0.091 C 
HETATM   31  C21 UNL     1       0.714  51.334 -17.009  1.00  0.00     0.042 C 
HETATM   32  C22 UNL     1       0.164  48.933 -16.454  1.00  0.00     0.042 C 
ENDBRANCH  28  29
ENDBRANCH  27  28
ENDBRANCH  25  27
ENDBRANCH  16  25
TORSDOF 4
ENDMDL
MODEL 7
REMARK minimizedAffinity -8.95035362
REMARK  4 active torsions:
REMARK  status: ('A' for Active; 'I' for Inactive)
REMARK    1  A    between atoms: C14_16  and  C15_17 
REMARK    2  A    between atoms: C15_17  and  C17_19 
REMARK    3  A    between atoms: C17_19  and  C18_20 
REMARK    4  A    between atoms: C18_20  and  C19_21 
ROOT
HETATM    1  C1  UNL     1      -2.626  49.725 -27.081  1.00  0.00     0.017 C 
HETATM    2  C2  UNL     1      -2.745  50.532 -26.009  1.00  0.00    -0.060 C 
HETATM    3  C3  UNL     1      -3.439  51.873 -26.144  1.00  0.00     0.212 C 
HETATM    4  O1  UNL     1      -2.577  52.933 -25.734  1.00  0.00    -0.317 OA
HETATM    5  C4  UNL     1      -1.402  52.961 -26.419  1.00  0.00     0.259 C 
HETATM    6  O2  UNL     1      -1.288  52.871 -27.632  1.00  0.00    -0.265 OA
HETATM    7  C5  UNL     1      -0.259  53.003 -25.444  1.00  0.00     0.112 C 
HETATM    8  C6  UNL     1      -0.074  51.646 -24.749  1.00  0.00     0.020 C 
HETATM    9  C7  UNL     1      -1.284  51.168 -23.911  1.00  0.00    -0.024 A 
HETATM   10  C8  UNL     1      -1.906  52.180 -22.974  1.00  0.00     0.022 A 
HETATM   11  C9  UNL     1      -1.170  51.013 -22.352  1.00  0.00    -0.027 A 
HETATM   12  C10 UNL     1       0.190  51.316 -21.707  1.00  0.00     0.011 C 
HETATM   13  C11 UNL     1       0.311  51.256 -20.174  1.00  0.00     0.011 C 
HETATM   14  C12 UNL     1      -0.929  50.722 -19.450  1.00  0.00    -0.032 C 
HETATM   15  C13 UNL     1      -1.929  51.900 -19.303  1.00  0.00     0.016 C 
HETATM   16  C14 UNL     1      -0.674  50.061 -18.055  1.00  0.00    -0.002 C 
HETATM   17  C23 UNL     1      -1.837  49.043 -17.907  1.00  0.00     0.006 C 
HETATM   18  C24 UNL     1      -2.505  48.915 -19.287  1.00  0.00     0.011 C 
HETATM   19  C25 UNL     1      -1.485  49.507 -20.278  1.00  0.00    -0.032 C 
HETATM   20  C26 UNL     1      -0.439  48.386 -20.573  1.00  0.00     0.016 C 
HETATM   21  C27 UNL     1      -2.103  50.020 -21.605  1.00  0.00     0.004 C 
HETATM   22  C28 UNL     1      -2.621  48.905 -22.522  1.00  0.00     0.007 C 
HETATM   23  C29 UNL     1      -3.243  49.489 -23.786  1.00  0.00     0.010 C 
HETATM   24  C30 UNL     1      -2.152  50.121 -24.662  1.00  0.00     0.025 C 
ENDROOT
BRANCH  16  25
HETATM   25  C15 UNL     1      -0.387  50.877 -16.759  1.00  0.00    -0.014 C 
HETATM   26  C16 UNL     1       1.045  51.394 -16.567  1.00  0.00     0.010 C 
BRANCH  25  27
HETATM   27  C17 UNL     1      -0.873  50.122 -15.500  1.00  0.00     0.008 C 
BRANCH  27  28
HETATM   28  C18 UNL     1      -1.886  50.886 -14.631  1.00  0.00     0.028 C 
BRANCH  28  29
HETATM   29  C19 UNL     1      -1.227  51.662 -13.523  1.00  0.00    -0.025 C 
HETATM   30  C20 UNL     1      -1.797  52.220 -12.437  1.00  0.00    -0.091 C 
HETATM   31  C21 UNL     1      -0.955  52.964 -11.431  1.00  0.00     0.042 C 
HETATM   32  C22 UNL     1      -3.261  52.180 -12.097  1.00  0.00     0.042 C 
ENDBRANCH  28  29
ENDBRANCH  27  28
ENDBRANCH  25  27
ENDBRANCH  16  25
TORSDOF 4
ENDMDL
MODEL 8
REMARK minimizedAffinity -8.91067028
REMARK  4 active torsions:
REMARK  status: ('A' for Active; 'I' for Inactive)
REMARK    1  A    between atoms: C14_16  and  C15_17 
REMARK    2  A    between atoms: C15_17  and  C17_19 
REMARK    3  A    between atoms: C17_19  and  C18_20 
REMARK    4  A    between atoms: C18_20  and  C19_21 
ROOT
HETATM    1  C1  UNL     1      -7.906  47.352 -24.656  1.00  0.00     0.017 C 
HETATM    2  C2  UNL     1      -6.949  47.356 -23.708  1.00  0.00    -0.060 C 
HETATM    3  C3  UNL     1      -6.819  46.182 -22.758  1.00  0.00     0.212 C 
HETATM    4  O1  UNL     1      -6.918  46.615 -21.403  1.00  0.00    -0.317 OA
HETATM    5  C4  UNL     1      -8.072  47.284 -21.138  1.00  0.00     0.259 C 
HETATM    6  O2  UNL     1      -9.192  46.923 -21.469  1.00  0.00    -0.265 OA
HETATM    7  C5  UNL     1      -7.746  48.595 -20.478  1.00  0.00     0.112 C 
HETATM    8  C6  UNL     1      -7.144  49.587 -21.483  1.00  0.00     0.020 C 
HETATM    9  C7  UNL     1      -5.813  49.136 -22.133  1.00  0.00    -0.024 A 
HETATM   10  C8  UNL     1      -4.752  48.590 -21.202  1.00  0.00     0.022 A 
HETATM   11  C9  UNL     1      -4.481  49.924 -21.864  1.00  0.00    -0.027 A 
HETATM   12  C10 UNL     1      -4.562  51.170 -20.971  1.00  0.00     0.011 C 
HETATM   13  C11 UNL     1      -3.261  51.914 -20.620  1.00  0.00     0.011 C 
HETATM   14  C12 UNL     1      -2.014  51.415 -21.357  1.00  0.00    -0.032 C 
HETATM   15  C13 UNL     1      -1.484  50.172 -20.593  1.00  0.00     0.016 C 
HETATM   16  C14 UNL     1      -0.865  52.461 -21.540  1.00  0.00    -0.002 C 
HETATM   17  C23 UNL     1      -0.135  51.991 -22.828  1.00  0.00     0.006 C 
HETATM   18  C24 UNL     1      -1.035  50.940 -23.500  1.00  0.00     0.011 C 
HETATM   19  C25 UNL     1      -2.419  51.126 -22.849  1.00  0.00    -0.032 C 
HETATM   20  C26 UNL     1      -3.105  52.324 -23.581  1.00  0.00     0.016 C 
HETATM   21  C27 UNL     1      -3.331  49.874 -22.908  1.00  0.00     0.004 C 
HETATM   22  C28 UNL     1      -3.838  49.540 -24.317  1.00  0.00     0.007 C 
HETATM   23  C29 UNL     1      -4.696  48.279 -24.299  1.00  0.00     0.010 C 
HETATM   24  C30 UNL     1      -6.013  48.555 -23.559  1.00  0.00     0.025 C 
ENDROOT
BRANCH  16  25
HETATM   25  C15 UNL     1       0.100  52.883 -20.392  1.00  0.00    -0.014 C 
HETATM   26  C16 UNL     1       1.394  53.598 -20.802  1.00  0.00     0.010 C 
BRANCH  25  27
HETATM   27  C17 UNL     1       0.402  51.697 -19.446  1.00  0.00     0.008 C 
BRANCH  27  28
HETATM   28  C18 UNL     1       0.441  52.049 -17.950  1.00  0.00     0.028 C 
BRANCH  28  29
HETATM   29  C19 UNL     1       1.810  52.475 -17.491  1.00  0.00    -0.025 C 
HETATM   30  C20 UNL     1       2.441  52.170 -16.340  1.00  0.00    -0.091 C 
HETATM   31  C21 UNL     1       3.825  52.701 -16.065  1.00  0.00     0.042 C 
HETATM   32  C22 UNL     1       1.887  51.310 -15.239  1.00  0.00     0.042 C 
ENDBRANCH  28  29
ENDBRANCH  27  28
ENDBRANCH  25  27
ENDBRANCH  16  25
TORSDOF 4
ENDMDL
MODEL 9
REMARK minimizedAffinity -8.84455395
REMARK  4 active torsions:
REMARK  status: ('A' for Active; 'I' for Inactive)
REMARK    1  A    between atoms: C14_16  and  C15_17 
REMARK    2  A    between atoms: C15_17  and  C17_19 
REMARK    3  A    between atoms: C17_19  and  C18_20 
REMARK    4  A    between atoms: C18_20  and  C19_21 
ROOT
HETATM    1  C1  UNL     1       0.535  50.716 -26.647  1.00  0.00     0.017 C 
HETATM    2  C2  UNL     1      -0.587  51.194 -26.074  1.00  0.00    -0.060 C 
HETATM    3  C3  UNL     1      -1.076  52.589 -26.412  1.00  0.00     0.212 C 
HETATM    4  O1  UNL     1      -1.197  53.383 -25.234  1.00  0.00    -0.317 OA
HETATM    5  C4  UNL     1      -0.039  53.470 -24.526  1.00  0.00     0.259 C 
HETATM    6  O2  UNL     1       1.062  53.716 -24.998  1.00  0.00    -0.265 OA
HETATM    7  C5  UNL     1      -0.303  53.102 -23.093  1.00  0.00     0.112 C 
HETATM    8  C6  UNL     1      -0.537  51.593 -22.942  1.00  0.00     0.020 C 
HETATM    9  C7  UNL     1      -1.756  51.037 -23.718  1.00  0.00    -0.024 A 
HETATM   10  C8  UNL     1      -3.053  51.806 -23.589  1.00  0.00     0.022 A 
HETATM   11  C9  UNL     1      -2.988  50.434 -22.952  1.00  0.00    -0.027 A 
HETATM   12  C10 UNL     1      -2.915  50.385 -21.420  1.00  0.00     0.011 C 
HETATM   13  C11 UNL     1      -4.140  49.878 -20.637  1.00  0.00     0.011 C 
HETATM   14  C12 UNL     1      -5.267  49.307 -21.503  1.00  0.00    -0.032 C 
HETATM   15  C13 UNL     1      -6.115  50.501 -22.017  1.00  0.00     0.016 C 
HETATM   16  C14 UNL     1      -6.192  48.252 -20.811  1.00  0.00    -0.002 C 
HETATM   17  C23 UNL     1      -6.700  47.373 -21.987  1.00  0.00     0.006 C 
HETATM   18  C24 UNL     1      -5.841  47.720 -23.214  1.00  0.00     0.011 C 
HETATM   19  C25 UNL     1      -4.609  48.448 -22.645  1.00  0.00    -0.032 C 
HETATM   20  C26 UNL     1      -3.623  47.345 -22.145  1.00  0.00     0.016 C 
HETATM   21  C27 UNL     1      -3.893  49.384 -23.654  1.00  0.00     0.004 C 
HETATM   22  C28 UNL     1      -3.160  48.642 -24.778  1.00  0.00     0.007 C 
HETATM   23  C29 UNL     1      -2.514  49.628 -25.746  1.00  0.00     0.010 C 
HETATM   24  C30 UNL     1      -1.352  50.353 -25.052  1.00  0.00     0.025 C 
ENDROOT
BRANCH  16  25
HETATM   25  C15 UNL     1      -7.303  48.628 -19.785  1.00  0.00    -0.014 C 
HETATM   26  C16 UNL     1      -6.958  48.468 -18.298  1.00  0.00     0.010 C 
BRANCH  25  27
HETATM   27  C17 UNL     1      -8.639  47.925 -20.119  1.00  0.00     0.008 C 
BRANCH  27  28
HETATM   28  C18 UNL     1      -9.718  48.020 -19.028  1.00  0.00     0.028 C 
BRANCH  28  29
HETATM   29  C19 UNL     1     -11.078  48.340 -19.586  1.00  0.00    -0.025 C 
HETATM   30  C20 UNL     1     -12.287  48.058 -19.061  1.00  0.00    -0.091 C 
HETATM   31  C21 UNL     1     -13.546  48.469 -19.782  1.00  0.00     0.042 C 
HETATM   32  C22 UNL     1     -12.533  47.342 -17.762  1.00  0.00     0.042 C 
ENDBRANCH  28  29
ENDBRANCH  27  28
ENDBRANCH  25  27
ENDBRANCH  16  25
TORSDOF 4
ENDMDL
