MODEL 1
REMARK minimizedAffinity -6.81198359
REMARK CNNscore 0.604628682
REMARK CNNaffinity 5.38689375
REMARK  5 active torsions:
REMARK  status: ('A' for Active; 'I' for Inactive)
REMARK    1  A    between atoms: C4_4  and  C5_5 
REMARK    2  A    between atoms: C5_5  and  C6_6 
REMARK    3  A    between atoms: C6_6  and  C7_7 
REMARK    4  A    between atoms: C7_7  and  C9_9 
REMARK    5  A    between atoms: C24_24  and  O1_25 
ROOT
HETATM    1  C9  UNL     1      -5.491 -11.178   1.537  1.00  0.00    -0.002 C 
HETATM    2  C10 UNL     1      -4.171 -10.466   1.165  1.00  0.00     0.007 C 
HETATM    3  C11 UNL     1      -3.472 -10.088   2.493  1.00  0.00     0.015 C 
HETATM    4  C12 UNL     1      -4.286 -10.792   3.598  1.00  0.00    -0.013 C 
HETATM    5  C13 UNL     1      -3.709 -12.239   3.733  1.00  0.00     0.021 C 
HETATM    6  C14 UNL     1      -4.272 -10.241   5.021  1.00  0.00    -0.068 C 
HETATM    7  C15 UNL     1      -5.341 -10.453   5.836  1.00  0.00    -0.068 C 
HETATM    8  C16 UNL     1      -6.616 -11.141   5.333  1.00  0.00     0.036 C 
HETATM    9  C17 UNL     1      -6.664 -11.558   3.847  1.00  0.00     0.015 C 
HETATM   10  C18 UNL     1      -5.735 -10.690   2.996  1.00  0.00    -0.029 C 
HETATM   11  C19 UNL     1      -6.306  -9.239   2.981  1.00  0.00     0.016 C 
HETATM   12  C20 UNL     1      -5.347  -9.953   7.298  1.00  0.00    -0.017 C 
HETATM   13  C21 UNL     1      -6.072  -8.584   7.295  1.00  0.00     0.020 C 
HETATM   14  C22 UNL     1      -6.091 -10.920   8.263  1.00  0.00     0.016 C 
HETATM   15  C23 UNL     1      -5.995 -10.503   9.733  1.00  0.00     0.033 C 
HETATM   16  C24 UNL     1      -4.553 -10.311  10.190  1.00  0.00     0.118 C 
HETATM   17  C25 UNL     1      -3.767  -9.385   9.262  1.00  0.00     0.037 C 
HETATM   18  C26 UNL     1      -3.872  -9.848   7.804  1.00  0.00     0.001 C 
HETATM   19  C27 UNL     1      -3.028  -8.972   6.881  1.00  0.00     0.010 C 
HETATM   20  C28 UNL     1      -3.003  -9.544   5.464  1.00  0.00     0.036 C 
ENDROOT
BRANCH   1  21
HETATM   21  C7  UNL     1      -6.676 -11.104   0.532  1.00  0.00    -0.014 C 
HETATM   22  C8  UNL     1      -6.988 -12.510  -0.006  1.00  0.00     0.010 C 
BRANCH  21  23
HETATM   23  C6  UNL     1      -6.634 -10.035  -0.591  1.00  0.00     0.008 C 
BRANCH  23  24
HETATM   24  C5  UNL     1      -7.657 -10.104  -1.746  1.00  0.00     0.028 C 
BRANCH  24  25
HETATM   25  C4  UNL     1      -7.673  -8.906  -2.651  1.00  0.00    -0.025 C 
HETATM   26  C2  UNL     1      -8.262  -7.709  -2.462  1.00  0.00    -0.091 C 
HETATM   27  C1  UNL     1      -9.073  -7.311  -1.259  1.00  0.00     0.042 C 
HETATM   28  C3  UNL     1      -8.145  -6.629  -3.507  1.00  0.00     0.042 C 
ENDBRANCH  24  25
ENDBRANCH  23  24
ENDBRANCH  21  23
ENDBRANCH   1  21
BRANCH  16  29
HETATM   29  O1  UNL     1      -4.539  -9.784  11.514  1.00  0.00    -0.396 OA
HETATM   30  H39 UNL     1      -4.943  -8.899  11.488  1.00  0.00     0.210 HD
ENDBRANCH  16  29
TORSDOF 5
ENDMDL
MODEL 2
REMARK minimizedAffinity -6.27427483
REMARK CNNscore 0.533786118
REMARK CNNaffinity 6.50896454
REMARK  5 active torsions:
REMARK  status: ('A' for Active; 'I' for Inactive)
REMARK    1  A    between atoms: C4_4  and  C5_5 
REMARK    2  A    between atoms: C5_5  and  C6_6 
REMARK    3  A    between atoms: C6_6  and  C7_7 
REMARK    4  A    between atoms: C7_7  and  C9_9 
REMARK    5  A    between atoms: C24_24  and  O1_25 
ROOT
HETATM    1  C9  UNL     1     -10.034   7.197  14.169  1.00  0.00    -0.002 C 
HETATM    2  C10 UNL     1     -11.470   6.644  14.305  1.00  0.00     0.007 C 
HETATM    3  C11 UNL     1     -12.366   7.822  14.760  1.00  0.00     0.015 C 
HETATM    4  C12 UNL     1     -11.475   9.077  14.654  1.00  0.00    -0.013 C 
HETATM    5  C13 UNL     1     -11.589   9.589  13.181  1.00  0.00     0.021 C 
HETATM    6  C14 UNL     1     -11.783  10.302  15.510  1.00  0.00    -0.068 C 
HETATM    7  C15 UNL     1     -10.777  11.148  15.861  1.00  0.00    -0.068 C 
HETATM    8  C16 UNL     1      -9.312  10.851  15.513  1.00  0.00     0.036 C 
HETATM    9  C17 UNL     1      -9.008   9.529  14.775  1.00  0.00     0.015 C 
HETATM   10  C18 UNL     1     -10.081   8.474  15.059  1.00  0.00    -0.029 C 
HETATM   11  C19 UNL     1      -9.983   8.076  16.564  1.00  0.00     0.016 C 
HETATM   12  C20 UNL     1     -11.052  12.425  16.687  1.00  0.00    -0.017 C 
HETATM   13  C21 UNL     1     -10.786  12.061  18.169  1.00  0.00     0.020 C 
HETATM   14  C22 UNL     1     -10.136  13.615  16.282  1.00  0.00     0.016 C 
HETATM   15  C23 UNL     1     -10.484  14.921  17.000  1.00  0.00     0.033 C 
HETATM   16  C24 UNL     1     -11.950  15.306  16.830  1.00  0.00     0.118 C 
HETATM   17  C25 UNL     1     -12.897  14.162  17.193  1.00  0.00     0.037 C 
HETATM   18  C26 UNL     1     -12.528  12.880  16.437  1.00  0.00     0.001 C 
HETATM   19  C27 UNL     1     -13.515  11.754  16.738  1.00  0.00     0.010 C 
HETATM   20  C28 UNL     1     -13.238  10.540  15.852  1.00  0.00     0.036 C 
ENDROOT
BRANCH   1  21
HETATM   21  C7  UNL     1      -8.845   6.213  14.364  1.00  0.00    -0.014 C 
HETATM   22  C8  UNL     1      -8.251   6.390  15.771  1.00  0.00     0.010 C 
BRANCH  21  23
HETATM   23  C6  UNL     1      -7.752   6.139  13.265  1.00  0.00     0.008 C 
BRANCH  23  24
HETATM   24  C5  UNL     1      -6.547   5.190  13.453  1.00  0.00     0.028 C 
BRANCH  24  25
HETATM   25  C4  UNL     1      -6.627   3.904  12.680  1.00  0.00    -0.025 C 
HETATM   26  C2  UNL     1      -5.633   3.192  12.115  1.00  0.00    -0.091 C 
HETATM   27  C1  UNL     1      -4.174   3.560  12.130  1.00  0.00     0.042 C 
HETATM   28  C3  UNL     1      -5.935   1.909  11.385  1.00  0.00     0.042 C 
ENDBRANCH  24  25
ENDBRANCH  23  24
ENDBRANCH  21  23
ENDBRANCH   1  21
BRANCH  16  29
HETATM   29  O1  UNL     1     -12.241  16.442  17.639  1.00  0.00    -0.396 OA
HETATM   30  H39 UNL     1     -12.128  16.183  18.570  1.00  0.00     0.210 HD
ENDBRANCH  16  29
TORSDOF 5
ENDMDL
MODEL 3
REMARK minimizedAffinity -7.26102304
REMARK CNNscore 0.528277695
REMARK CNNaffinity 6.86497307
REMARK  5 active torsions:
REMARK  status: ('A' for Active; 'I' for Inactive)
REMARK    1  A    between atoms: C4_4  and  C5_5 
REMARK    2  A    between atoms: C5_5  and  C6_6 
REMARK    3  A    between atoms: C6_6  and  C7_7 
REMARK    4  A    between atoms: C7_7  and  C9_9 
REMARK    5  A    between atoms: C24_24  and  O1_25 
ROOT
HETATM    1  C9  UNL     1      -8.075   6.342  14.622  1.00  0.00    -0.002 C 
HETATM    2  C10 UNL     1      -8.949   5.941  13.412  1.00  0.00     0.007 C 
HETATM    3  C11 UNL     1      -8.054   5.107  12.465  1.00  0.00     0.015 C 
HETATM    4  C12 UNL     1      -6.753   4.849  13.253  1.00  0.00    -0.013 C 
HETATM    5  C13 UNL     1      -6.994   3.568  14.116  1.00  0.00     0.021 C 
HETATM    6  C14 UNL     1      -5.454   4.568  12.505  1.00  0.00    -0.068 C 
HETATM    7  C15 UNL     1      -4.262   4.887  13.080  1.00  0.00    -0.068 C 
HETATM    8  C16 UNL     1      -4.186   5.626  14.422  1.00  0.00     0.036 C 
HETATM    9  C17 UNL     1      -5.517   6.034  15.090  1.00  0.00     0.015 C 
HETATM   10  C18 UNL     1      -6.632   6.197  14.054  1.00  0.00    -0.029 C 
HETATM   11  C19 UNL     1      -6.287   7.428  13.161  1.00  0.00     0.016 C 
HETATM   12  C20 UNL     1      -2.922   4.576  12.377  1.00  0.00    -0.017 C 
HETATM   13  C21 UNL     1      -2.503   5.866  11.630  1.00  0.00     0.020 C 
HETATM   14  C22 UNL     1      -1.796   4.176  13.374  1.00  0.00     0.016 C 
HETATM   15  C23 UNL     1      -0.501   3.741  12.685  1.00  0.00     0.033 C 
HETATM   16  C24 UNL     1      -0.728   2.622  11.673  1.00  0.00     0.118 C 
HETATM   17  C25 UNL     1      -1.843   2.953  10.681  1.00  0.00     0.037 C 
HETATM   18  C26 UNL     1      -3.127   3.363  11.411  1.00  0.00     0.001 C 
HETATM   19  C27 UNL     1      -4.266   3.623  10.428  1.00  0.00     0.010 C 
HETATM   20  C28 UNL     1      -5.580   3.862  11.171  1.00  0.00     0.036 C 
ENDROOT
BRANCH   1  21
HETATM   21  C7  UNL     1      -8.432   7.649  15.387  1.00  0.00    -0.014 C 
HETATM   22  C8  UNL     1      -8.530   7.356  16.894  1.00  0.00     0.010 C 
BRANCH  21  23
HETATM   23  C6  UNL     1      -9.614   8.513  14.874  1.00  0.00     0.008 C 
BRANCH  23  24
HETATM   24  C5  UNL     1      -9.626  10.031  15.160  1.00  0.00     0.028 C 
BRANCH  24  25
HETATM   25  C4  UNL     1     -10.372  10.435  16.400  1.00  0.00    -0.025 C 
HETATM   26  C2  UNL     1     -10.338  11.606  17.066  1.00  0.00    -0.091 C 
HETATM   27  C1  UNL     1      -9.499  12.800  16.697  1.00  0.00     0.042 C 
HETATM   28  C3  UNL     1     -11.183  11.807  18.297  1.00  0.00     0.042 C 
ENDBRANCH  24  25
ENDBRANCH  23  24
ENDBRANCH  21  23
ENDBRANCH   1  21
BRANCH  16  29
HETATM   29  O1  UNL     1       0.482   2.367  10.965  1.00  0.00    -0.396 OA
HETATM   30  H39 UNL     1       0.702   3.165  10.453  1.00  0.00     0.210 HD
ENDBRANCH  16  29
TORSDOF 5
ENDMDL
MODEL 4
REMARK minimizedAffinity -6.61957932
REMARK CNNscore 0.467240721
REMARK CNNaffinity 6.37549448
REMARK  5 active torsions:
REMARK  status: ('A' for Active; 'I' for Inactive)
REMARK    1  A    between atoms: C4_4  and  C5_5 
REMARK    2  A    between atoms: C5_5  and  C6_6 
REMARK    3  A    between atoms: C6_6  and  C7_7 
REMARK    4  A    between atoms: C7_7  and  C9_9 
REMARK    5  A    between atoms: C24_24  and  O1_25 
ROOT
HETATM    1  C9  UNL     1      -1.340  12.450  18.942  1.00  0.00    -0.002 C 
HETATM    2  C10 UNL     1      -2.738  13.100  18.839  1.00  0.00     0.007 C 
HETATM    3  C11 UNL     1      -3.585  12.205  17.902  1.00  0.00     0.015 C 
HETATM    4  C12 UNL     1      -2.735  10.939  17.668  1.00  0.00    -0.013 C 
HETATM    5  C13 UNL     1      -3.048   9.962  18.847  1.00  0.00     0.021 C 
HETATM    6  C14 UNL     1      -2.947  10.103  16.410  1.00  0.00    -0.068 C 
HETATM    7  C15 UNL     1      -1.916   9.370  15.907  1.00  0.00    -0.068 C 
HETATM    8  C16 UNL     1      -0.506   9.442  16.505  1.00  0.00     0.036 C 
HETATM    9  C17 UNL     1      -0.280  10.410  17.687  1.00  0.00     0.015 C 
HETATM   10  C18 UNL     1      -1.290  11.560  17.665  1.00  0.00    -0.029 C 
HETATM   11  C19 UNL     1      -0.991  12.443  16.414  1.00  0.00     0.016 C 
HETATM   12  C20 UNL     1      -2.102   8.473  14.663  1.00  0.00    -0.017 C 
HETATM   13  C21 UNL     1      -1.639   9.306  13.442  1.00  0.00     0.020 C 
HETATM   14  C22 UNL     1      -1.264   7.163  14.733  1.00  0.00     0.016 C 
HETATM   15  C23 UNL     1      -1.536   6.206  13.570  1.00  0.00     0.033 C 
HETATM   16  C24 UNL     1      -3.017   5.874  13.423  1.00  0.00     0.118 C 
HETATM   17  C25 UNL     1      -3.891   7.128  13.372  1.00  0.00     0.037 C 
HETATM   18  C26 UNL     1      -3.604   8.048  14.564  1.00  0.00     0.001 C 
HETATM   19  C27 UNL     1      -4.526   9.266  14.560  1.00  0.00     0.010 C 
HETATM   20  C28 UNL     1      -4.349  10.084  15.838  1.00  0.00     0.036 C 
ENDROOT
BRANCH   1  21
HETATM   21  C7  UNL     1      -0.121  13.368  19.242  1.00  0.00    -0.014 C 
HETATM   22  C8  UNL     1       0.534  13.808  17.922  1.00  0.00     0.010 C 
BRANCH  21  23
HETATM   23  C6  UNL     1       0.921  12.903  20.294  1.00  0.00     0.008 C 
BRANCH  23  24
HETATM   24  C5  UNL     1       2.213  12.200  19.825  1.00  0.00     0.028 C 
BRANCH  24  25
HETATM   25  C4  UNL     1       3.192  11.878  20.919  1.00  0.00    -0.025 C 
HETATM   26  C2  UNL     1       3.264  10.780  21.695  1.00  0.00    -0.091 C 
HETATM   27  C1  UNL     1       2.331   9.600  21.634  1.00  0.00     0.042 C 
HETATM   28  C3  UNL     1       4.343  10.655  22.739  1.00  0.00     0.042 C 
ENDBRANCH  24  25
ENDBRANCH  23  24
ENDBRANCH  21  23
ENDBRANCH   1  21
BRANCH  16  29
HETATM   29  O1  UNL     1      -3.218   5.104  12.241  1.00  0.00    -0.396 OA
HETATM   30  H39 UNL     1      -2.980   5.659  11.478  1.00  0.00     0.210 HD
ENDBRANCH  16  29
TORSDOF 5
ENDMDL
MODEL 5
REMARK minimizedAffinity -6.61399412
REMARK CNNscore 0.44014892
REMARK CNNaffinity 6.38817596
REMARK  5 active torsions:
REMARK  status: ('A' for Active; 'I' for Inactive)
REMARK    1  A    between atoms: C4_4  and  C5_5 
REMARK    2  A    between atoms: C5_5  and  C6_6 
REMARK    3  A    between atoms: C6_6  and  C7_7 
REMARK    4  A    between atoms: C7_7  and  C9_9 
REMARK    5  A    between atoms: C24_24  and  O1_25 
ROOT
HETATM    1  C9  UNL     1      -3.102  12.415  17.933  1.00  0.00    -0.002 C 
HETATM    2  C10 UNL     1      -3.539  11.343  18.955  1.00  0.00     0.007 C 
HETATM    3  C11 UNL     1      -3.162   9.966  18.356  1.00  0.00     0.015 C 
HETATM    4  C12 UNL     1      -2.310  10.283  17.110  1.00  0.00    -0.013 C 
HETATM    5  C13 UNL     1      -0.835  10.448  17.601  1.00  0.00     0.021 C 
HETATM    6  C14 UNL     1      -2.223   9.272  15.971  1.00  0.00    -0.068 C 
HETATM    7  C15 UNL     1      -1.985   9.704  14.702  1.00  0.00    -0.068 C 
HETATM    8  C16 UNL     1      -1.906  11.197  14.359  1.00  0.00     0.036 C 
HETATM    9  C17 UNL     1      -2.145  12.206  15.503  1.00  0.00     0.015 C 
HETATM   10  C18 UNL     1      -3.012  11.598  16.609  1.00  0.00    -0.029 C 
HETATM   11  C19 UNL     1      -4.442  11.365  16.031  1.00  0.00     0.016 C 
HETATM   12  C20 UNL     1      -1.843   8.710  13.529  1.00  0.00    -0.017 C 
HETATM   13  C21 UNL     1      -3.234   8.616  12.855  1.00  0.00     0.020 C 
HETATM   14  C22 UNL     1      -0.796   9.168  12.473  1.00  0.00     0.016 C 
HETATM   15  C23 UNL     1      -0.551   8.133  11.372  1.00  0.00     0.033 C 
HETATM   16  C24 UNL     1      -0.168   6.767  11.932  1.00  0.00     0.118 C 
HETATM   17  C25 UNL     1      -1.153   6.278  12.994  1.00  0.00     0.037 C 
HETATM   18  C26 UNL     1      -1.354   7.333  14.087  1.00  0.00     0.001 C 
HETATM   19  C27 UNL     1      -2.278   6.821  15.190  1.00  0.00     0.010 C 
HETATM   20  C28 UNL     1      -2.335   7.811  16.353  1.00  0.00     0.036 C 
ENDROOT
BRANCH   1  21
HETATM   21  C7  UNL     1      -3.872  13.766  17.907  1.00  0.00    -0.014 C 
HETATM   22  C8  UNL     1      -3.048  14.846  18.626  1.00  0.00     0.010 C 
BRANCH  21  23
HETATM   23  C6  UNL     1      -5.365  13.780  18.331  1.00  0.00     0.008 C 
BRANCH  23  24
HETATM   24  C5  UNL     1      -5.801  14.617  19.554  1.00  0.00     0.028 C 
BRANCH  24  25
HETATM   25  C4  UNL     1      -6.988  14.077  20.299  1.00  0.00    -0.025 C 
HETATM   26  C2  UNL     1      -7.026  13.442  21.486  1.00  0.00    -0.091 C 
HETATM   27  C1  UNL     1      -5.834  13.113  22.343  1.00  0.00     0.042 C 
HETATM   28  C3  UNL     1      -8.341  12.986  22.065  1.00  0.00     0.042 C 
ENDBRANCH  24  25
ENDBRANCH  23  24
ENDBRANCH  21  23
ENDBRANCH   1  21
BRANCH  16  29
HETATM   29  O1  UNL     1      -0.099   5.819  10.871  1.00  0.00    -0.396 OA
HETATM   30  H39 UNL     1      -0.992   5.726  10.495  1.00  0.00     0.210 HD
ENDBRANCH  16  29
TORSDOF 5
ENDMDL
MODEL 6
REMARK minimizedAffinity -7.8724556
REMARK CNNscore 0.416176736
REMARK CNNaffinity 6.61311579
REMARK  5 active torsions:
REMARK  status: ('A' for Active; 'I' for Inactive)
REMARK    1  A    between atoms: C4_4  and  C5_5 
REMARK    2  A    between atoms: C5_5  and  C6_6 
REMARK    3  A    between atoms: C6_6  and  C7_7 
REMARK    4  A    between atoms: C7_7  and  C9_9 
REMARK    5  A    between atoms: C24_24  and  O1_25 
ROOT
HETATM    1  C9  UNL     1      -1.367  10.137  14.812  1.00  0.00    -0.002 C 
HETATM    2  C10 UNL     1      -0.208   9.165  14.500  1.00  0.00     0.007 C 
HETATM    3  C11 UNL     1      -0.845   7.849  13.991  1.00  0.00     0.015 C 
HETATM    4  C12 UNL     1      -2.342   8.168  13.801  1.00  0.00    -0.013 C 
HETATM    5  C13 UNL     1      -2.497   8.771  12.367  1.00  0.00     0.021 C 
HETATM    6  C14 UNL     1      -3.372   7.044  13.856  1.00  0.00    -0.068 C 
HETATM    7  C15 UNL     1      -4.647   7.316  14.248  1.00  0.00    -0.068 C 
HETATM    8  C16 UNL     1      -5.060   8.708  14.743  1.00  0.00     0.036 C 
HETATM    9  C17 UNL     1      -3.964   9.793  14.819  1.00  0.00     0.015 C 
HETATM   10  C18 UNL     1      -2.576   9.170  14.990  1.00  0.00    -0.029 C 
HETATM   11  C19 UNL     1      -2.515   8.499  16.396  1.00  0.00     0.016 C 
HETATM   12  C20 UNL     1      -5.731   6.216  14.272  1.00  0.00    -0.017 C 
HETATM   13  C21 UNL     1      -5.780   5.673  15.722  1.00  0.00     0.020 C 
HETATM   14  C22 UNL     1      -7.140   6.749  13.880  1.00  0.00     0.016 C 
HETATM   15  C23 UNL     1      -8.198   5.647  13.775  1.00  0.00     0.033 C 
HETATM   16  C24 UNL     1      -7.779   4.526  12.830  1.00  0.00     0.118 C 
HETATM   17  C25 UNL     1      -6.388   3.980  13.156  1.00  0.00     0.037 C 
HETATM   18  C26 UNL     1      -5.356   5.111  13.231  1.00  0.00     0.001 C 
HETATM   19  C27 UNL     1      -3.952   4.565  13.482  1.00  0.00     0.010 C 
HETATM   20  C28 UNL     1      -2.911   5.680  13.384  1.00  0.00     0.036 C 
ENDROOT
BRANCH   1  21
HETATM   21  C7  UNL     1      -1.141  11.232  15.894  1.00  0.00    -0.014 C 
HETATM   22  C8  UNL     1       0.351  11.294  16.262  1.00  0.00     0.010 C 
BRANCH  21  23
HETATM   23  C6  UNL     1      -2.061  11.246  17.143  1.00  0.00     0.008 C 
BRANCH  23  24
HETATM   24  C5  UNL     1      -3.203  12.282  17.234  1.00  0.00     0.028 C 
BRANCH  24  25
HETATM   25  C4  UNL     1      -3.896  12.344  18.566  1.00  0.00    -0.025 C 
HETATM   26  C2  UNL     1      -4.664  13.326  19.076  1.00  0.00    -0.091 C 
HETATM   27  C1  UNL     1      -4.991  14.627  18.393  1.00  0.00     0.042 C 
HETATM   28  C3  UNL     1      -5.277  13.180  20.445  1.00  0.00     0.042 C 
ENDBRANCH  24  25
ENDBRANCH  23  24
ENDBRANCH  21  23
ENDBRANCH   1  21
BRANCH  16  29
HETATM   29  O1  UNL     1      -8.733   3.470  12.890  1.00  0.00    -0.396 OA
HETATM   30  H39 UNL     1      -8.711   3.098  13.790  1.00  0.00     0.210 HD
ENDBRANCH  16  29
TORSDOF 5
ENDMDL
MODEL 7
REMARK minimizedAffinity -6.23111629
REMARK CNNscore 0.3763237
REMARK CNNaffinity 6.07904434
REMARK  5 active torsions:
REMARK  status: ('A' for Active; 'I' for Inactive)
REMARK    1  A    between atoms: C4_4  and  C5_5 
REMARK    2  A    between atoms: C5_5  and  C6_6 
REMARK    3  A    between atoms: C6_6  and  C7_7 
REMARK    4  A    between atoms: C7_7  and  C9_9 
REMARK    5  A    between atoms: C24_24  and  O1_25 
ROOT
HETATM    1  C9  UNL     1     -13.622   7.829  23.211  1.00  0.00    -0.002 C 
HETATM    2  C10 UNL     1     -14.207   8.217  24.588  1.00  0.00     0.007 C 
HETATM    3  C11 UNL     1     -13.838   9.701  24.833  1.00  0.00     0.015 C 
HETATM    4  C12 UNL     1     -13.251  10.202  23.497  1.00  0.00    -0.013 C 
HETATM    5  C13 UNL     1     -14.458  10.670  22.621  1.00  0.00     0.021 C 
HETATM    6  C14 UNL     1     -12.288  11.385  23.487  1.00  0.00    -0.068 C 
HETATM    7  C15 UNL     1     -11.361  11.491  22.496  1.00  0.00    -0.068 C 
HETATM    8  C16 UNL     1     -11.180  10.394  21.439  1.00  0.00     0.036 C 
HETATM    9  C17 UNL     1     -12.066   9.135  21.558  1.00  0.00     0.015 C 
HETATM   10  C18 UNL     1     -12.514   8.904  23.003  1.00  0.00    -0.029 C 
HETATM   11  C19 UNL     1     -11.255   8.538  23.848  1.00  0.00     0.016 C 
HETATM   12  C20 UNL     1     -10.399  12.697  22.421  1.00  0.00    -0.017 C 
HETATM   13  C21 UNL     1      -9.086  12.261  23.117  1.00  0.00     0.020 C 
HETATM   14  C22 UNL     1     -10.083  13.128  20.960  1.00  0.00     0.016 C 
HETATM   15  C23 UNL     1      -9.235  14.399  20.872  1.00  0.00     0.033 C 
HETATM   16  C24 UNL     1      -9.851  15.563  21.640  1.00  0.00     0.118 C 
HETATM   17  C25 UNL     1     -10.203  15.188  23.080  1.00  0.00     0.037 C 
HETATM   18  C26 UNL     1     -11.069  13.924  23.123  1.00  0.00     0.001 C 
HETATM   19  C27 UNL     1     -11.488  13.586  24.552  1.00  0.00     0.010 C 
HETATM   20  C28 UNL     1     -12.487  12.429  24.566  1.00  0.00     0.036 C 
ENDROOT
BRANCH   1  21
HETATM   21  C7  UNL     1     -13.252   6.339  22.962  1.00  0.00    -0.014 C 
HETATM   22  C8  UNL     1     -13.946   5.839  21.684  1.00  0.00     0.010 C 
BRANCH  21  23
HETATM   23  C6  UNL     1     -13.380   5.334  24.137  1.00  0.00     0.008 C 
BRANCH  23  24
HETATM   24  C5  UNL     1     -13.865   3.894  23.858  1.00  0.00     0.028 C 
BRANCH  24  25
HETATM   25  C4  UNL     1     -12.795   2.842  23.915  1.00  0.00    -0.025 C 
HETATM   26  C2  UNL     1     -12.381   2.110  24.967  1.00  0.00    -0.091 C 
HETATM   27  C1  UNL     1     -12.920   2.208  26.369  1.00  0.00     0.042 C 
HETATM   28  C3  UNL     1     -11.284   1.090  24.802  1.00  0.00     0.042 C 
ENDBRANCH  24  25
ENDBRANCH  23  24
ENDBRANCH  21  23
ENDBRANCH   1  21
BRANCH  16  29
HETATM   29  O1  UNL     1      -8.947  16.665  21.642  1.00  0.00    -0.396 OA
HETATM   30  H39 UNL     1      -8.150  16.397  22.133  1.00  0.00     0.210 HD
ENDBRANCH  16  29
TORSDOF 5
ENDMDL
MODEL 8
REMARK minimizedAffinity -6.29241323
REMARK CNNscore 0.365067512
REMARK CNNaffinity 6.00636721
REMARK  5 active torsions:
REMARK  status: ('A' for Active; 'I' for Inactive)
REMARK    1  A    between atoms: C4_4  and  C5_5 
REMARK    2  A    between atoms: C5_5  and  C6_6 
REMARK    3  A    between atoms: C6_6  and  C7_7 
REMARK    4  A    between atoms: C7_7  and  C9_9 
REMARK    5  A    between atoms: C24_24  and  O1_25 
ROOT
HETATM    1  C9  UNL     1      -0.394   9.680  16.873  1.00  0.00    -0.002 C 
HETATM    2  C10 UNL     1       0.713  10.704  16.536  1.00  0.00     0.007 C 
HETATM    3  C11 UNL     1       0.332  12.029  17.240  1.00  0.00     0.015 C 
HETATM    4  C12 UNL     1      -0.861  11.679  18.153  1.00  0.00    -0.013 C 
HETATM    5  C13 UNL     1      -0.261  11.161  19.501  1.00  0.00     0.021 C 
HETATM    6  C14 UNL     1      -1.848  12.766  18.566  1.00  0.00    -0.068 C 
HETATM    7  C15 UNL     1      -3.134  12.432  18.861  1.00  0.00    -0.068 C 
HETATM    8  C16 UNL     1      -3.657  11.000  18.688  1.00  0.00     0.036 C 
HETATM    9  C17 UNL     1      -2.679   9.946  18.127  1.00  0.00     0.015 C 
HETATM   10  C18 UNL     1      -1.588  10.597  17.272  1.00  0.00    -0.029 C 
HETATM   11  C19 UNL     1      -2.261  11.182  15.992  1.00  0.00     0.016 C 
HETATM   12  C20 UNL     1      -4.153  13.495  19.328  1.00  0.00    -0.017 C 
HETATM   13  C21 UNL     1      -4.934  13.945  18.069  1.00  0.00     0.020 C 
HETATM   14  C22 UNL     1      -5.158  12.946  20.382  1.00  0.00     0.016 C 
HETATM   15  C23 UNL     1      -6.090  14.020  20.949  1.00  0.00     0.033 C 
HETATM   16  C24 UNL     1      -5.327  15.209  21.521  1.00  0.00     0.118 C 
HETATM   17  C25 UNL     1      -4.306  15.775  20.534  1.00  0.00     0.037 C 
HETATM   18  C26 UNL     1      -3.380  14.673  20.007  1.00  0.00     0.001 C 
HETATM   19  C27 UNL     1      -2.311  15.244  19.078  1.00  0.00     0.010 C 
HETATM   20  C28 UNL     1      -1.294  14.169  18.696  1.00  0.00     0.036 C 
ENDROOT
BRANCH   1  21
HETATM   21  C7  UNL     1      -0.663   8.528  15.863  1.00  0.00    -0.014 C 
HETATM   22  C8  UNL     1      -0.294   8.987  14.443  1.00  0.00     0.010 C 
BRANCH  21  23
HETATM   23  C6  UNL     1      -2.032   7.799  15.913  1.00  0.00     0.008 C 
BRANCH  23  24
HETATM   24  C5  UNL     1      -2.962   7.842  14.681  1.00  0.00     0.028 C 
BRANCH  24  25
HETATM   25  C4  UNL     1      -3.110   6.536  13.953  1.00  0.00    -0.025 C 
HETATM   26  C2  UNL     1      -4.224   5.965  13.455  1.00  0.00    -0.091 C 
HETATM   27  C1  UNL     1      -5.614   6.535  13.539  1.00  0.00     0.042 C 
HETATM   28  C3  UNL     1      -4.147   4.638  12.744  1.00  0.00     0.042 C 
ENDBRANCH  24  25
ENDBRANCH  23  24
ENDBRANCH  21  23
ENDBRANCH   1  21
BRANCH  16  29
HETATM   29  O1  UNL     1      -6.247  16.231  21.895  1.00  0.00    -0.396 OA
HETATM   30  H39 UNL     1      -6.688  16.546  21.087  1.00  0.00     0.210 HD
ENDBRANCH  16  29
TORSDOF 5
ENDMDL
MODEL 9
REMARK minimizedAffinity -6.40329313
REMARK CNNscore 0.34496358
REMARK CNNaffinity 4.87835312
REMARK  5 active torsions:
REMARK  status: ('A' for Active; 'I' for Inactive)
REMARK    1  A    between atoms: C4_4  and  C5_5 
REMARK    2  A    between atoms: C5_5  and  C6_6 
REMARK    3  A    between atoms: C6_6  and  C7_7 
REMARK    4  A    between atoms: C7_7  and  C9_9 
REMARK    5  A    between atoms: C24_24  and  O1_25 
ROOT
HETATM    1  C9  UNL     1       5.658   8.956  13.004  1.00  0.00    -0.002 C 
HETATM    2  C10 UNL     1       6.845   8.832  12.022  1.00  0.00     0.007 C 
HETATM    3  C11 UNL     1       8.127   9.181  12.816  1.00  0.00     0.015 C 
HETATM    4  C12 UNL     1       7.682   9.275  14.290  1.00  0.00    -0.013 C 
HETATM    5  C13 UNL     1       7.743   7.826  14.873  1.00  0.00     0.021 C 
HETATM    6  C14 UNL     1       8.486  10.118  15.274  1.00  0.00    -0.068 C 
HETATM    7  C15 UNL     1       7.866  10.665  16.356  1.00  0.00    -0.068 C 
HETATM    8  C16 UNL     1       6.351  10.550  16.562  1.00  0.00     0.036 C 
HETATM    9  C17 UNL     1       5.535   9.818  15.474  1.00  0.00     0.015 C 
HETATM   10  C18 UNL     1       6.240   9.878  14.116  1.00  0.00    -0.029 C 
HETATM   11  C19 UNL     1       6.235  11.361  13.633  1.00  0.00     0.016 C 
HETATM   12  C20 UNL     1       8.653  11.486  17.402  1.00  0.00    -0.017 C 
HETATM   13  C21 UNL     1       8.497  12.975  17.006  1.00  0.00     0.020 C 
HETATM   14  C22 UNL     1       8.120  11.286  18.850  1.00  0.00     0.016 C 
HETATM   15  C23 UNL     1       8.969  11.991  19.912  1.00  0.00     0.033 C 
HETATM   16  C24 UNL     1      10.440  11.599  19.835  1.00  0.00     0.118 C 
HETATM   17  C25 UNL     1      11.010  11.754  18.425  1.00  0.00     0.037 C 
HETATM   18  C26 UNL     1      10.145  11.017  17.396  1.00  0.00     0.001 C 
HETATM   19  C27 UNL     1      10.749  11.105  15.997  1.00  0.00     0.010 C 
HETATM   20  C28 UNL     1       9.974  10.227  15.015  1.00  0.00     0.036 C 
ENDROOT
BRANCH   1  21
HETATM   21  C7  UNL     1       4.256   9.303  12.425  1.00  0.00    -0.014 C 
HETATM   22  C8  UNL     1       3.312   9.713  13.567  1.00  0.00     0.010 C 
BRANCH  21  23
HETATM   23  C6  UNL     1       3.593   8.309  11.436  1.00  0.00     0.008 C 
BRANCH  23  24
HETATM   24  C5  UNL     1       4.252   8.048  10.063  1.00  0.00     0.028 C 
BRANCH  24  25
HETATM   25  C4  UNL     1       3.320   8.128   8.888  1.00  0.00    -0.025 C 
HETATM   26  C2  UNL     1       2.747   7.128   8.191  1.00  0.00    -0.091 C 
HETATM   27  C1  UNL     1       2.941   5.658   8.447  1.00  0.00     0.042 C 
HETATM   28  C3  UNL     1       1.826   7.434   7.038  1.00  0.00     0.042 C 
ENDBRANCH  24  25
ENDBRANCH  23  24
ENDBRANCH  21  23
ENDBRANCH   1  21
BRANCH  16  29
HETATM   29  O1  UNL     1      11.194  12.395  20.745  1.00  0.00    -0.396 OA
HETATM   30  H39 UNL     1      11.137  13.321  20.450  1.00  0.00     0.210 HD
ENDBRANCH  16  29
TORSDOF 5
ENDMDL
