MODEL 1
REMARK minimizedAffinity -7.93856955
REMARK CNNscore 0.587715685
REMARK CNNaffinity 7.40031195
REMARK  12 active torsions:
REMARK  status: ('A' for Active; 'I' for Inactive)
REMARK    1  A    between atoms: O1_2  and  C2_3 
REMARK    2  A    between atoms: C2_3  and  C3_4 
REMARK    3  A    between atoms: C2_3  and  C7_8 
REMARK    4  A    between atoms: C7_8  and  C8_9 
REMARK    5  A    between atoms: C8_9  and  C10_11 
REMARK    6  A    between atoms: C28_30  and  O3_31 
REMARK    7  A    between atoms: O3_31  and  C29_32 
REMARK    8  A    between atoms: C30_34  and  C31_35 
REMARK    9  A    between atoms: C31_35  and  O5_36 
REMARK   10  A    between atoms: C32_37  and  O6_38 
REMARK   11  A    between atoms: C33_39  and  O7_40 
REMARK   12  A    between atoms: C34_41  and  O8_42 
ROOT
HETATM    1  C10 UNL     1      -5.467   7.095  14.960  1.00  0.00    -0.002 C 
HETATM    2  C11 UNL     1      -6.118   7.763  13.705  1.00  0.00     0.006 C 
HETATM    3  C12 UNL     1      -4.983   8.416  12.887  1.00  0.00     0.011 C 
HETATM    4  C13 UNL     1      -3.695   7.829  13.489  1.00  0.00    -0.029 C 
HETATM    5  C14 UNL     1      -3.551   6.408  12.842  1.00  0.00     0.016 C 
HETATM    6  C15 UNL     1      -2.397   8.674  13.277  1.00  0.00     0.028 C 
HETATM    7  C16 UNL     1      -2.038   8.858  11.819  1.00  0.00    -0.021 C 
HETATM    8  C17 UNL     1      -0.813   8.564  11.352  1.00  0.00     0.008 C 
HETATM    9  C18 UNL     1       0.272   7.980  12.250  1.00  0.00     0.092 C 
HETATM   10  O2  UNL     1       0.744   9.118  13.007  1.00  0.00    -0.374 OA
HETATM   11  C19 UNL     1      -0.072   9.242  14.188  1.00  0.00     0.179 C 
HETATM   12  C20 UNL     1      -1.165   8.143  14.139  1.00  0.00    -0.004 C 
HETATM   13  C21 UNL     1      -1.597   7.806  15.589  1.00  0.00     0.014 C 
HETATM   14  C22 UNL     1      -2.942   7.078  15.769  1.00  0.00     0.011 C 
HETATM   15  C23 UNL     1      -4.077   7.800  15.022  1.00  0.00    -0.032 C 
HETATM   16  C24 UNL     1      -4.268   9.213  15.661  1.00  0.00     0.016 C 
HETATM   17  C25 UNL     1      -0.383   7.070  13.325  1.00  0.00     0.036 C 
HETATM   18  C26 UNL     1       0.634   6.200  14.083  1.00  0.00     0.011 C 
HETATM   19  C27 UNL     1       2.078   6.634  13.920  1.00  0.00     0.033 C 
HETATM   20  C28 UNL     1       2.499   6.635  12.450  1.00  0.00     0.136 C 
HETATM   21  C35 UNL     1       1.460   7.312  11.474  1.00  0.00     0.014 C 
HETATM   22  C36 UNL     1       2.179   8.345  10.567  1.00  0.00     0.021 C 
HETATM   23  C37 UNL     1       0.917   6.194  10.544  1.00  0.00     0.021 C 
ENDROOT
BRANCH  20  24
HETATM   24  O3  UNL     1       3.788   7.254  12.343  1.00  0.00    -0.352 OA
BRANCH  24  25
HETATM   25  C29 UNL     1       3.872   8.556  12.916  1.00  0.00     0.292 C 
HETATM   26  O4  UNL     1       4.988   9.265  12.373  1.00  0.00    -0.348 OA
HETATM   27  C30 UNL     1       6.257   8.612  12.564  1.00  0.00     0.179 C 
HETATM   28  C32 UNL     1       6.304   7.682  13.795  1.00  0.00     0.180 C 
HETATM   29  C33 UNL     1       5.462   8.309  14.901  1.00  0.00     0.183 C 
HETATM   30  C34 UNL     1       3.997   8.443  14.455  1.00  0.00     0.204 C 
BRANCH  27  31
HETATM   31  C31 UNL     1       6.700   7.870  11.295  1.00  0.00     0.198 C 
BRANCH  31  32
HETATM   32  O5  UNL     1       5.687   7.890  10.292  1.00  0.00    -0.398 OA
HETATM   33  H48 UNL     1       5.287   8.786  10.292  1.00  0.00     0.209 HD
ENDBRANCH  31  32
ENDBRANCH  27  31
BRANCH  28  34
HETATM   34  O6  UNL     1       7.657   7.499  14.235  1.00  0.00    -0.390 OA
HETATM   35  H50 UNL     1       7.577   7.132  15.140  1.00  0.00     0.210 HD
ENDBRANCH  28  34
BRANCH  29  36
HETATM   36  O7  UNL     1       5.560   7.508  16.089  1.00  0.00    -0.390 OA
HETATM   37  H52 UNL     1       4.927   7.890  16.729  1.00  0.00     0.210 HD
ENDBRANCH  29  36
BRANCH  30  38
HETATM   38  O8  UNL     1       3.444   9.597  15.116  1.00  0.00    -0.388 OA
HETATM   39  H54 UNL     1       3.848  10.386  14.705  1.00  0.00     0.210 HD
ENDBRANCH  30  38
ENDBRANCH  24  25
ENDBRANCH  20  24
BRANCH   1  40
HETATM   40  C8  UNL     1      -6.420   7.111  16.188  1.00  0.00    -0.011 C 
HETATM   41  C9  UNL     1      -6.945   5.727  16.573  1.00  0.00     0.010 C 
BRANCH  40  42
HETATM   42  C7  UNL     1      -7.600   8.114  16.035  1.00  0.00     0.040 C 
BRANCH  42  43
HETATM   43  C2  UNL     1      -9.047   7.581  16.162  1.00  0.00     0.144 C 
BRANCH  43  44
HETATM   44  O1  UNL     1      -9.830   8.685  16.652  1.00  0.00    -0.387 OA
HETATM   45  C1  UNL     1     -10.330   8.471  17.967  1.00  0.00     0.202 C 
ENDBRANCH  43  44
BRANCH  43  46
HETATM   46  C3  UNL     1      -9.632   7.154  14.844  1.00  0.00     0.007 C 
HETATM   47  C4  UNL     1     -10.516   7.813  14.066  1.00  0.00    -0.089 C 
HETATM   48  C5  UNL     1     -11.084   9.175  14.356  1.00  0.00     0.042 C 
HETATM   49  C6  UNL     1     -11.032   7.186  12.799  1.00  0.00     0.042 C 
ENDBRANCH  43  46
ENDBRANCH  42  43
ENDBRANCH  40  42
ENDBRANCH   1  40
TORSDOF 12
ENDMDL
MODEL 2
REMARK minimizedAffinity -9.07763386
REMARK CNNscore 0.445461512
REMARK CNNaffinity 7.5460124
REMARK  12 active torsions:
REMARK  status: ('A' for Active; 'I' for Inactive)
REMARK    1  A    between atoms: O1_2  and  C2_3 
REMARK    2  A    between atoms: C2_3  and  C3_4 
REMARK    3  A    between atoms: C2_3  and  C7_8 
REMARK    4  A    between atoms: C7_8  and  C8_9 
REMARK    5  A    between atoms: C8_9  and  C10_11 
REMARK    6  A    between atoms: C28_30  and  O3_31 
REMARK    7  A    between atoms: O3_31  and  C29_32 
REMARK    8  A    between atoms: C30_34  and  C31_35 
REMARK    9  A    between atoms: C31_35  and  O5_36 
REMARK   10  A    between atoms: C32_37  and  O6_38 
REMARK   11  A    between atoms: C33_39  and  O7_40 
REMARK   12  A    between atoms: C34_41  and  O8_42 
ROOT
HETATM    1  C10 UNL     1      -7.395   6.653  13.879  1.00  0.00    -0.002 C 
HETATM    2  C11 UNL     1      -7.507   7.230  15.329  1.00  0.00     0.006 C 
HETATM    3  C12 UNL     1      -6.081   7.278  15.919  1.00  0.00     0.011 C 
HETATM    4  C13 UNL     1      -5.160   7.061  14.706  1.00  0.00    -0.029 C 
HETATM    5  C14 UNL     1      -5.080   8.457  13.998  1.00  0.00     0.016 C 
HETATM    6  C15 UNL     1      -3.732   6.512  15.025  1.00  0.00     0.028 C 
HETATM    7  C16 UNL     1      -2.921   7.438  15.905  1.00  0.00    -0.021 C 
HETATM    8  C17 UNL     1      -1.684   7.834  15.561  1.00  0.00     0.008 C 
HETATM    9  C18 UNL     1      -1.043   7.417  14.242  1.00  0.00     0.092 C 
HETATM   10  O2  UNL     1      -0.630   6.051  14.474  1.00  0.00    -0.374 OA
HETATM   11  C19 UNL     1      -1.730   5.185  14.135  1.00  0.00     0.179 C 
HETATM   12  C20 UNL     1      -2.933   6.071  13.717  1.00  0.00    -0.004 C 
HETATM   13  C21 UNL     1      -3.836   5.260  12.753  1.00  0.00     0.014 C 
HETATM   14  C22 UNL     1      -5.279   5.761  12.556  1.00  0.00     0.011 C 
HETATM   15  C23 UNL     1      -5.988   5.980  13.903  1.00  0.00    -0.032 C 
HETATM   16  C24 UNL     1      -6.112   4.601  14.626  1.00  0.00     0.016 C 
HETATM   17  C25 UNL     1      -2.143   7.288  13.153  1.00  0.00     0.036 C 
HETATM   18  C26 UNL     1      -1.574   7.172  11.728  1.00  0.00     0.011 C 
HETATM   19  C27 UNL     1      -0.095   6.838  11.668  1.00  0.00     0.033 C 
HETATM   20  C28 UNL     1       0.745   7.885  12.401  1.00  0.00     0.136 C 
HETATM   21  C35 UNL     1       0.187   8.294  13.819  1.00  0.00     0.014 C 
HETATM   22  C36 UNL     1       1.317   8.209  14.879  1.00  0.00     0.021 C 
HETATM   23  C37 UNL     1      -0.237   9.784  13.727  1.00  0.00     0.021 C 
ENDROOT
BRANCH  20  24
HETATM   24  O3  UNL     1       2.093   7.407  12.494  1.00  0.00    -0.352 OA
BRANCH  24  25
HETATM   25  C29 UNL     1       3.090   8.363  12.145  1.00  0.00     0.292 C 
HETATM   26  O4  UNL     1       3.234   8.433  10.725  1.00  0.00    -0.348 OA
HETATM   27  C30 UNL     1       3.580   7.183  10.101  1.00  0.00     0.179 C 
HETATM   28  C32 UNL     1       4.337   6.208  11.027  1.00  0.00     0.180 C 
HETATM   29  C33 UNL     1       5.254   7.023  11.932  1.00  0.00     0.183 C 
HETATM   30  C34 UNL     1       4.436   7.983  12.810  1.00  0.00     0.204 C 
BRANCH  27  31
HETATM   31  C31 UNL     1       2.348   6.510   9.479  1.00  0.00     0.198 C 
BRANCH  31  32
HETATM   32  O5  UNL     1       2.248   6.782   8.082  1.00  0.00    -0.398 OA
HETATM   33  H48 UNL     1       3.152   6.728   7.704  1.00  0.00     0.209 HD
ENDBRANCH  31  32
ENDBRANCH  27  31
BRANCH  28  34
HETATM   34  O6  UNL     1       5.097   5.269  10.254  1.00  0.00    -0.390 OA
HETATM   35  H50 UNL     1       5.731   4.877  10.892  1.00  0.00     0.210 HD
ENDBRANCH  28  34
BRANCH  29  36
HETATM   36  O7  UNL     1       6.038   6.134  12.745  1.00  0.00    -0.390 OA
HETATM   37  H52 UNL     1       6.528   6.699  13.374  1.00  0.00     0.210 HD
ENDBRANCH  29  36
BRANCH  30  38
HETATM   38  O8  UNL     1       5.248   9.145  13.061  1.00  0.00    -0.388 OA
HETATM   39  H54 UNL     1       5.304   9.644  12.223  1.00  0.00     0.210 HD
ENDBRANCH  30  38
ENDBRANCH  24  25
ENDBRANCH  20  24
BRANCH   1  40
HETATM   40  C8  UNL     1      -8.657   5.839  13.479  1.00  0.00    -0.011 C 
HETATM   41  C9  UNL     1      -8.443   4.941  12.259  1.00  0.00     0.010 C 
BRANCH  40  42
HETATM   42  C7  UNL     1      -9.922   6.723  13.285  1.00  0.00     0.040 C 
BRANCH  42  43
HETATM   43  C2  UNL     1     -10.416   7.582  14.473  1.00  0.00     0.144 C 
BRANCH  43  44
HETATM   44  O1  UNL     1     -10.536   8.923  13.963  1.00  0.00    -0.387 OA
HETATM   45  C1  UNL     1     -10.629   9.903  14.991  1.00  0.00     0.202 C 
ENDBRANCH  43  44
BRANCH  43  46
HETATM   46  C3  UNL     1     -11.767   7.162  14.980  1.00  0.00     0.007 C 
HETATM   47  C4  UNL     1     -12.916   7.019  14.286  1.00  0.00    -0.089 C 
HETATM   48  C5  UNL     1     -13.069   7.224  12.804  1.00  0.00     0.042 C 
HETATM   49  C6  UNL     1     -14.192   6.643  14.992  1.00  0.00     0.042 C 
ENDBRANCH  43  46
ENDBRANCH  42  43
ENDBRANCH  40  42
ENDBRANCH   1  40
TORSDOF 12
ENDMDL
MODEL 3
REMARK minimizedAffinity -9.50311089
REMARK CNNscore 0.265642822
REMARK CNNaffinity 6.88653755
REMARK  12 active torsions:
REMARK  status: ('A' for Active; 'I' for Inactive)
REMARK    1  A    between atoms: O1_2  and  C2_3 
REMARK    2  A    between atoms: C2_3  and  C3_4 
REMARK    3  A    between atoms: C2_3  and  C7_8 
REMARK    4  A    between atoms: C7_8  and  C8_9 
REMARK    5  A    between atoms: C8_9  and  C10_11 
REMARK    6  A    between atoms: C28_30  and  O3_31 
REMARK    7  A    between atoms: O3_31  and  C29_32 
REMARK    8  A    between atoms: C30_34  and  C31_35 
REMARK    9  A    between atoms: C31_35  and  O5_36 
REMARK   10  A    between atoms: C32_37  and  O6_38 
REMARK   11  A    between atoms: C33_39  and  O7_40 
REMARK   12  A    between atoms: C34_41  and  O8_42 
ROOT
HETATM    1  C10 UNL     1      -0.947   5.726  12.612  1.00  0.00    -0.002 C 
HETATM    2  C11 UNL     1      -1.086   5.672  11.055  1.00  0.00     0.006 C 
HETATM    3  C12 UNL     1       0.014   6.578  10.460  1.00  0.00     0.011 C 
HETATM    4  C13 UNL     1       0.959   6.854  11.642  1.00  0.00    -0.029 C 
HETATM    5  C14 UNL     1       1.859   5.575  11.754  1.00  0.00     0.016 C 
HETATM    6  C15 UNL     1       1.833   8.145  11.528  1.00  0.00     0.028 C 
HETATM    7  C16 UNL     1       2.770   8.126  10.340  1.00  0.00    -0.021 C 
HETATM    8  C17 UNL     1       4.085   8.363  10.476  1.00  0.00     0.008 C 
HETATM    9  C18 UNL     1       4.721   8.613  11.839  1.00  0.00     0.092 C 
HETATM   10  O2  UNL     1       4.361   9.980  12.143  1.00  0.00    -0.374 OA
HETATM   11  C19 UNL     1       3.086   9.970  12.815  1.00  0.00     0.179 C 
HETATM   12  C20 UNL     1       2.588   8.502  12.886  1.00  0.00    -0.004 C 
HETATM   13  C21 UNL     1       1.646   8.355  14.109  1.00  0.00     0.014 C 
HETATM   14  C22 UNL     1       0.711   7.133  14.130  1.00  0.00     0.011 C 
HETATM   15  C23 UNL     1      -0.084   7.010  12.819  1.00  0.00    -0.032 C 
HETATM   16  C24 UNL     1      -1.016   8.257  12.687  1.00  0.00     0.016 C 
HETATM   17  C25 UNL     1       3.970   7.787  12.918  1.00  0.00     0.036 C 
HETATM   18  C26 UNL     1       4.714   7.730  14.264  1.00  0.00     0.011 C 
HETATM   19  C27 UNL     1       5.819   8.759  14.415  1.00  0.00     0.033 C 
HETATM   20  C28 UNL     1       6.872   8.613  13.316  1.00  0.00     0.136 C 
HETATM   21  C35 UNL     1       6.281   8.444  11.863  1.00  0.00     0.014 C 
HETATM   22  C36 UNL     1       6.961   9.446  10.893  1.00  0.00     0.021 C 
HETATM   23  C37 UNL     1       6.661   7.018  11.381  1.00  0.00     0.021 C 
ENDROOT
BRANCH  20  24
HETATM   24  O3  UNL     1       7.763   9.735  13.384  1.00  0.00    -0.352 OA
BRANCH  24  25
HETATM   25  C29 UNL     1       9.074   9.485  12.886  1.00  0.00     0.292 C 
HETATM   26  O4  UNL     1       9.696   8.436  13.631  1.00  0.00    -0.348 OA
HETATM   27  C30 UNL     1       9.797   8.690  15.044  1.00  0.00     0.179 C 
HETATM   28  C32 UNL     1       9.840  10.188  15.410  1.00  0.00     0.180 C 
HETATM   29  C33 UNL     1      10.618  10.924  14.326  1.00  0.00     0.183 C 
HETATM   30  C34 UNL     1       9.919  10.781  12.965  1.00  0.00     0.204 C 
BRANCH  27  31
HETATM   31  C31 UNL     1       8.693   7.962  15.824  1.00  0.00     0.198 C 
BRANCH  31  32
HETATM   32  O5  UNL     1       9.155   7.510  17.095  1.00  0.00    -0.398 OA
HETATM   33  H48 UNL     1       9.719   8.219  17.474  1.00  0.00     0.209 HD
ENDBRANCH  31  32
ENDBRANCH  27  31
BRANCH  28  34
HETATM   34  O6  UNL     1      10.459  10.377  16.690  1.00  0.00    -0.390 OA
HETATM   35  H50 UNL     1      10.679  11.331  16.722  1.00  0.00     0.210 HD
ENDBRANCH  28  34
BRANCH  29  36
HETATM   36  O7  UNL     1      10.749  12.309  14.686  1.00  0.00    -0.390 OA
HETATM   37  H52 UNL     1      11.160  12.754  13.918  1.00  0.00     0.210 HD
ENDBRANCH  29  36
BRANCH  30  38
HETATM   38  O8  UNL     1      10.935  10.810  11.945  1.00  0.00    -0.388 OA
HETATM   39  H54 UNL     1      11.427   9.969  12.004  1.00  0.00     0.210 HD
ENDBRANCH  30  38
ENDBRANCH  24  25
ENDBRANCH  20  24
BRANCH   1  40
HETATM   40  C8  UNL     1      -2.319   5.570  13.325  1.00  0.00    -0.011 C 
HETATM   41  C9  UNL     1      -2.250   5.782  14.838  1.00  0.00     0.010 C 
BRANCH  40  42
HETATM   42  C7  UNL     1      -3.030   4.224  12.999  1.00  0.00     0.040 C 
BRANCH  42  43
HETATM   43  C2  UNL     1      -4.196   4.229  11.982  1.00  0.00     0.144 C 
BRANCH  43  44
HETATM   44  O1  UNL     1      -3.981   3.085  11.136  1.00  0.00    -0.387 OA
HETATM   45  C1  UNL     1      -2.826   2.336  11.494  1.00  0.00     0.202 C 
ENDBRANCH  43  44
BRANCH  43  46
HETATM   46  C3  UNL     1      -5.542   4.071  12.633  1.00  0.00     0.007 C 
HETATM   47  C4  UNL     1      -6.445   3.083  12.464  1.00  0.00    -0.089 C 
HETATM   48  C5  UNL     1      -6.259   1.875  11.587  1.00  0.00     0.042 C 
HETATM   49  C6  UNL     1      -7.775   3.136  13.168  1.00  0.00     0.042 C 
ENDBRANCH  43  46
ENDBRANCH  42  43
ENDBRANCH  40  42
ENDBRANCH   1  40
TORSDOF 12
ENDMDL
MODEL 4
REMARK minimizedAffinity -8.09685326
REMARK CNNscore 0.265533864
REMARK CNNaffinity 7.01733351
REMARK  12 active torsions:
REMARK  status: ('A' for Active; 'I' for Inactive)
REMARK    1  A    between atoms: O1_2  and  C2_3 
REMARK    2  A    between atoms: C2_3  and  C3_4 
REMARK    3  A    between atoms: C2_3  and  C7_8 
REMARK    4  A    between atoms: C7_8  and  C8_9 
REMARK    5  A    between atoms: C8_9  and  C10_11 
REMARK    6  A    between atoms: C28_30  and  O3_31 
REMARK    7  A    between atoms: O3_31  and  C29_32 
REMARK    8  A    between atoms: C30_34  and  C31_35 
REMARK    9  A    between atoms: C31_35  and  O5_36 
REMARK   10  A    between atoms: C32_37  and  O6_38 
REMARK   11  A    between atoms: C33_39  and  O7_40 
REMARK   12  A    between atoms: C34_41  and  O8_42 
ROOT
HETATM    1  C10 UNL     1      -5.701   5.518  14.150  1.00  0.00    -0.002 C 
HETATM    2  C11 UNL     1      -5.095   4.737  12.938  1.00  0.00     0.006 C 
HETATM    3  C12 UNL     1      -3.788   5.452  12.532  1.00  0.00     0.011 C 
HETATM    4  C13 UNL     1      -3.494   6.400  13.708  1.00  0.00    -0.029 C 
HETATM    5  C14 UNL     1      -2.839   5.496  14.809  1.00  0.00     0.016 C 
HETATM    6  C15 UNL     1      -2.586   7.630  13.380  1.00  0.00     0.028 C 
HETATM    7  C16 UNL     1      -1.205   7.240  12.904  1.00  0.00    -0.021 C 
HETATM    8  C17 UNL     1      -0.095   7.743  13.471  1.00  0.00     0.008 C 
HETATM    9  C18 UNL     1      -0.160   8.696  14.659  1.00  0.00     0.092 C 
HETATM   10  O2  UNL     1      -0.531   9.963  14.068  1.00  0.00    -0.374 OA
HETATM   11  C19 UNL     1      -1.969  10.032  14.020  1.00  0.00     0.179 C 
HETATM   12  C20 UNL     1      -2.537   8.695  14.566  1.00  0.00    -0.004 C 
HETATM   13  C21 UNL     1      -3.951   8.956  15.147  1.00  0.00     0.014 C 
HETATM   14  C22 UNL     1      -4.864   7.732  15.344  1.00  0.00     0.011 C 
HETATM   15  C23 UNL     1      -4.955   6.886  14.063  1.00  0.00    -0.032 C 
HETATM   16  C24 UNL     1      -5.632   7.747  12.949  1.00  0.00     0.016 C 
HETATM   17  C25 UNL     1      -1.383   8.333  15.545  1.00  0.00     0.036 C 
HETATM   18  C26 UNL     1      -1.365   9.029  16.917  1.00  0.00     0.011 C 
HETATM   19  C27 UNL     1      -0.396  10.192  17.019  1.00  0.00     0.033 C 
HETATM   20  C28 UNL     1       1.039   9.753  16.722  1.00  0.00     0.136 C 
HETATM   21  C35 UNL     1       1.190   8.838  15.446  1.00  0.00     0.014 C 
HETATM   22  C36 UNL     1       2.310   9.391  14.526  1.00  0.00     0.021 C 
HETATM   23  C37 UNL     1       1.658   7.443  15.940  1.00  0.00     0.021 C 
ENDROOT
BRANCH  20  24
HETATM   24  O3  UNL     1       1.863  10.921  16.622  1.00  0.00    -0.352 OA
BRANCH  24  25
HETATM   25  C29 UNL     1       3.199  10.748  17.085  1.00  0.00     0.292 C 
HETATM   26  O4  UNL     1       3.232  10.747  18.514  1.00  0.00    -0.348 OA
HETATM   27  C30 UNL     1       2.701  11.939  19.122  1.00  0.00     0.179 C 
HETATM   28  C32 UNL     1       2.798  13.194  18.229  1.00  0.00     0.180 C 
HETATM   29  C33 UNL     1       4.095  13.116  17.432  1.00  0.00     0.183 C 
HETATM   30  C34 UNL     1       4.098  11.876  16.523  1.00  0.00     0.204 C 
BRANCH  27  31
HETATM   31  C31 UNL     1       1.263  11.722  19.615  1.00  0.00     0.198 C 
BRANCH  31  32
HETATM   32  O5  UNL     1       1.102  10.444  20.226  1.00  0.00    -0.398 OA
HETATM   33  H48 UNL     1       1.901  10.274  20.771  1.00  0.00     0.209 HD
ENDBRANCH  31  32
ENDBRANCH  27  31
BRANCH  28  34
HETATM   34  O6  UNL     1       2.770  14.384  19.029  1.00  0.00    -0.390 OA
HETATM   35  H50 UNL     1       3.094  15.092  18.434  1.00  0.00     0.210 HD
ENDBRANCH  28  34
BRANCH  29  36
HETATM   36  O7  UNL     1       4.255  14.315  16.658  1.00  0.00    -0.390 OA
HETATM   37  H52 UNL     1       5.039  14.172  16.092  1.00  0.00     0.210 HD
ENDBRANCH  29  36
BRANCH  30  38
HETATM   38  O8  UNL     1       5.464  11.442  16.381  1.00  0.00    -0.388 OA
HETATM   39  H54 UNL     1       5.735  11.059  17.237  1.00  0.00     0.210 HD
ENDBRANCH  30  38
ENDBRANCH  24  25
ENDBRANCH  20  24
BRANCH   1  40
HETATM   40  C8  UNL     1      -7.254   5.461  14.160  1.00  0.00    -0.011 C 
HETATM   41  C9  UNL     1      -7.853   4.871  12.882  1.00  0.00     0.010 C 
BRANCH  40  42
HETATM   42  C7  UNL     1      -7.917   6.831  14.486  1.00  0.00     0.040 C 
BRANCH  42  43
HETATM   43  C2  UNL     1      -9.393   6.849  14.949  1.00  0.00     0.144 C 
BRANCH  43  44
HETATM   44  O1  UNL     1      -9.391   7.487  16.239  1.00  0.00    -0.387 OA
HETATM   45  C1  UNL     1      -8.163   7.322  16.939  1.00  0.00     0.202 C 
ENDBRANCH  43  44
BRANCH  43  46
HETATM   46  C3  UNL     1     -10.282   7.654  14.041  1.00  0.00     0.007 C 
HETATM   47  C4  UNL     1     -11.590   7.467  13.769  1.00  0.00    -0.089 C 
HETATM   48  C5  UNL     1     -12.462   6.400  14.372  1.00  0.00     0.042 C 
HETATM   49  C6  UNL     1     -12.296   8.353  12.777  1.00  0.00     0.042 C 
ENDBRANCH  43  46
ENDBRANCH  42  43
ENDBRANCH  40  42
ENDBRANCH   1  40
TORSDOF 12
ENDMDL
MODEL 5
REMARK minimizedAffinity -7.65176916
REMARK CNNscore 0.238768965
REMARK CNNaffinity 6.80726624
REMARK  12 active torsions:
REMARK  status: ('A' for Active; 'I' for Inactive)
REMARK    1  A    between atoms: O1_2  and  C2_3 
REMARK    2  A    between atoms: C2_3  and  C3_4 
REMARK    3  A    between atoms: C2_3  and  C7_8 
REMARK    4  A    between atoms: C7_8  and  C8_9 
REMARK    5  A    between atoms: C8_9  and  C10_11 
REMARK    6  A    between atoms: C28_30  and  O3_31 
REMARK    7  A    between atoms: O3_31  and  C29_32 
REMARK    8  A    between atoms: C30_34  and  C31_35 
REMARK    9  A    between atoms: C31_35  and  O5_36 
REMARK   10  A    between atoms: C32_37  and  O6_38 
REMARK   11  A    between atoms: C33_39  and  O7_40 
REMARK   12  A    between atoms: C34_41  and  O8_42 
ROOT
HETATM    1  C10 UNL     1      -3.452   6.299  14.279  1.00  0.00    -0.002 C 
HETATM    2  C11 UNL     1      -2.071   6.235  13.547  1.00  0.00     0.006 C 
HETATM    3  C12 UNL     1      -1.421   7.631  13.659  1.00  0.00     0.011 C 
HETATM    4  C13 UNL     1      -2.261   8.356  14.725  1.00  0.00    -0.029 C 
HETATM    5  C14 UNL     1      -1.725   7.826  16.100  1.00  0.00     0.016 C 
HETATM    6  C15 UNL     1      -2.225   9.918  14.674  1.00  0.00     0.028 C 
HETATM    7  C16 UNL     1      -0.841  10.488  14.887  1.00  0.00    -0.021 C 
HETATM    8  C17 UNL     1      -0.602  11.435  15.810  1.00  0.00     0.008 C 
HETATM    9  C18 UNL     1      -1.700  11.954  16.732  1.00  0.00     0.092 C 
HETATM   10  O2  UNL     1      -2.463  12.850  15.893  1.00  0.00    -0.374 OA
HETATM   11  C19 UNL     1      -3.482  12.081  15.224  1.00  0.00     0.179 C 
HETATM   12  C20 UNL     1      -3.309  10.593  15.629  1.00  0.00    -0.004 C 
HETATM   13  C21 UNL     1      -4.682   9.883  15.512  1.00  0.00     0.014 C 
HETATM   14  C22 UNL     1      -4.672   8.345  15.443  1.00  0.00     0.011 C 
HETATM   15  C23 UNL     1      -3.708   7.836  14.358  1.00  0.00    -0.032 C 
HETATM   16  C24 UNL     1      -4.229   8.322  12.967  1.00  0.00     0.016 C 
HETATM   17  C25 UNL     1      -2.696  10.805  17.045  1.00  0.00     0.036 C 
HETATM   18  C26 UNL     1      -3.660  11.135  18.198  1.00  0.00     0.011 C 
HETATM   19  C27 UNL     1      -3.718  12.606  18.565  1.00  0.00     0.033 C 
HETATM   20  C28 UNL     1      -2.342  13.137  18.967  1.00  0.00     0.136 C 
HETATM   21  C35 UNL     1      -1.171  12.714  17.999  1.00  0.00     0.014 C 
HETATM   22  C36 UNL     1      -0.343  13.961  17.590  1.00  0.00     0.021 C 
HETATM   23  C37 UNL     1      -0.224  11.788  18.809  1.00  0.00     0.021 C 
ENDROOT
BRANCH  20  24
HETATM   24  O3  UNL     1      -2.420  14.563  19.092  1.00  0.00    -0.352 OA
BRANCH  24  25
HETATM   25  C29 UNL     1      -2.354  15.049  20.430  1.00  0.00     0.292 C 
HETATM   26  O4  UNL     1      -3.635  15.522  20.849  1.00  0.00    -0.348 OA
HETATM   27  C30 UNL     1      -4.182  16.567  20.024  1.00  0.00     0.179 C 
HETATM   28  C32 UNL     1      -3.118  17.409  19.291  1.00  0.00     0.180 C 
HETATM   29  C33 UNL     1      -1.908  17.555  20.208  1.00  0.00     0.183 C 
HETATM   30  C34 UNL     1      -1.300  16.179  20.524  1.00  0.00     0.204 C 
BRANCH  27  31
HETATM   31  C31 UNL     1      -5.223  16.013  19.040  1.00  0.00     0.198 C 
BRANCH  31  32
HETATM   32  O5  UNL     1      -6.553  16.194  19.521  1.00  0.00    -0.398 OA
HETATM   33  H48 UNL     1      -6.602  17.086  19.927  1.00  0.00     0.209 HD
ENDBRANCH  31  32
ENDBRANCH  27  31
BRANCH  28  34
HETATM   34  O6  UNL     1      -3.645  18.697  18.946  1.00  0.00    -0.390 OA
HETATM   35  H50 UNL     1      -2.858  19.241  18.735  1.00  0.00     0.210 HD
ENDBRANCH  28  34
BRANCH  29  36
HETATM   36  O7  UNL     1      -0.936  18.410  19.585  1.00  0.00    -0.390 OA
HETATM   37  H52 UNL     1      -0.145  18.387  20.159  1.00  0.00     0.210 HD
ENDBRANCH  29  36
BRANCH  30  38
HETATM   38  O8  UNL     1      -0.719  16.250  21.840  1.00  0.00    -0.388 OA
HETATM   39  H54 UNL     1      -1.456  16.292  22.479  1.00  0.00     0.210 HD
ENDBRANCH  30  38
ENDBRANCH  24  25
ENDBRANCH  20  24
BRANCH   1  40
HETATM   40  C8  UNL     1      -4.499   5.353  13.629  1.00  0.00    -0.011 C 
HETATM   41  C9  UNL     1      -4.009   4.692  12.339  1.00  0.00     0.010 C 
BRANCH  40  42
HETATM   42  C7  UNL     1      -5.880   6.032  13.398  1.00  0.00     0.040 C 
BRANCH  42  43
HETATM   43  C2  UNL     1      -7.092   5.142  13.036  1.00  0.00     0.144 C 
BRANCH  43  44
HETATM   44  O1  UNL     1      -6.941   3.940  13.814  1.00  0.00    -0.387 OA
HETATM   45  C1  UNL     1      -7.442   2.783  13.154  1.00  0.00     0.202 C 
ENDBRANCH  43  44
BRANCH  43  46
HETATM   46  C3  UNL     1      -8.409   5.765  13.408  1.00  0.00     0.007 C 
HETATM   47  C4  UNL     1      -9.377   6.231  12.591  1.00  0.00    -0.089 C 
HETATM   48  C5  UNL     1      -9.345   6.183  11.089  1.00  0.00     0.042 C 
HETATM   49  C6  UNL     1     -10.609   6.880  13.163  1.00  0.00     0.042 C 
ENDBRANCH  43  46
ENDBRANCH  42  43
ENDBRANCH  40  42
ENDBRANCH   1  40
TORSDOF 12
ENDMDL
MODEL 6
REMARK minimizedAffinity -9.31761456
REMARK CNNscore 0.236519039
REMARK CNNaffinity 7.30948973
REMARK  12 active torsions:
REMARK  status: ('A' for Active; 'I' for Inactive)
REMARK    1  A    between atoms: O1_2  and  C2_3 
REMARK    2  A    between atoms: C2_3  and  C3_4 
REMARK    3  A    between atoms: C2_3  and  C7_8 
REMARK    4  A    between atoms: C7_8  and  C8_9 
REMARK    5  A    between atoms: C8_9  and  C10_11 
REMARK    6  A    between atoms: C28_30  and  O3_31 
REMARK    7  A    between atoms: O3_31  and  C29_32 
REMARK    8  A    between atoms: C30_34  and  C31_35 
REMARK    9  A    between atoms: C31_35  and  O5_36 
REMARK   10  A    between atoms: C32_37  and  O6_38 
REMARK   11  A    between atoms: C33_39  and  O7_40 
REMARK   12  A    between atoms: C34_41  and  O8_42 
ROOT
HETATM    1  C10 UNL     1      -5.395   7.140  14.851  1.00  0.00    -0.002 C 
HETATM    2  C11 UNL     1      -5.748   7.557  13.386  1.00  0.00     0.006 C 
HETATM    3  C12 UNL     1      -4.525   8.302  12.808  1.00  0.00     0.011 C 
HETATM    4  C13 UNL     1      -3.393   8.003  13.805  1.00  0.00    -0.029 C 
HETATM    5  C14 UNL     1      -2.887   6.567  13.432  1.00  0.00     0.016 C 
HETATM    6  C15 UNL     1      -2.211   9.026  13.821  1.00  0.00     0.028 C 
HETATM    7  C16 UNL     1      -1.484   9.115  12.497  1.00  0.00    -0.021 C 
HETATM    8  C17 UNL     1      -0.149   8.983  12.416  1.00  0.00     0.008 C 
HETATM    9  C18 UNL     1       0.706   8.684  13.642  1.00  0.00     0.092 C 
HETATM   10  O2  UNL     1       0.792   9.957  14.323  1.00  0.00    -0.374 OA
HETATM   11  C19 UNL     1      -0.332  10.065  15.217  1.00  0.00     0.179 C 
HETATM   12  C20 UNL     1      -1.213   8.800  15.043  1.00  0.00    -0.004 C 
HETATM   13  C21 UNL     1      -1.987   8.548  16.363  1.00  0.00     0.014 C 
HETATM   14  C22 UNL     1      -3.220   7.629  16.287  1.00  0.00     0.011 C 
HETATM   15  C23 UNL     1      -4.184   8.070  15.172  1.00  0.00    -0.032 C 
HETATM   16  C24 UNL     1      -4.731   9.489  15.526  1.00  0.00     0.016 C 
HETATM   17  C25 UNL     1      -0.099   7.794  14.628  1.00  0.00     0.036 C 
HETATM   18  C26 UNL     1       0.769   7.188  15.744  1.00  0.00     0.011 C 
HETATM   19  C27 UNL     1       2.131   7.839  15.904  1.00  0.00     0.033 C 
HETATM   20  C28 UNL     1       2.944   7.757  14.612  1.00  0.00     0.136 C 
HETATM   21  C35 UNL     1       2.142   8.146  13.310  1.00  0.00     0.014 C 
HETATM   22  C36 UNL     1       2.944   9.186  12.483  1.00  0.00     0.021 C 
HETATM   23  C37 UNL     1       2.035   6.863  12.443  1.00  0.00     0.021 C 
ENDROOT
BRANCH  20  24
HETATM   24  O3  UNL     1       4.117   8.568  14.758  1.00  0.00    -0.352 OA
BRANCH  24  25
HETATM   25  C29 UNL     1       5.289   7.856  15.144  1.00  0.00     0.292 C 
HETATM   26  O4  UNL     1       6.111   8.670  15.982  1.00  0.00    -0.348 OA
HETATM   27  C30 UNL     1       6.523   9.914  15.384  1.00  0.00     0.179 C 
HETATM   28  C32 UNL     1       6.581   9.878  13.843  1.00  0.00     0.180 C 
HETATM   29  C33 UNL     1       7.057   8.495  13.414  1.00  0.00     0.183 C 
HETATM   30  C34 UNL     1       6.071   7.413  13.883  1.00  0.00     0.204 C 
BRANCH  27  31
HETATM   31  C31 UNL     1       5.660  11.084  15.878  1.00  0.00     0.198 C 
BRANCH  31  32
HETATM   32  O5  UNL     1       5.149  10.847  17.188  1.00  0.00    -0.398 OA
HETATM   33  H48 UNL     1       5.867  10.434  17.715  1.00  0.00     0.209 HD
ENDBRANCH  31  32
ENDBRANCH  27  31
BRANCH  28  34
HETATM   34  O6  UNL     1       7.469  10.891  13.350  1.00  0.00    -0.390 OA
HETATM   35  H50 UNL     1       7.648  10.635  12.421  1.00  0.00     0.210 HD
ENDBRANCH  28  34
BRANCH  29  36
HETATM   36  O7  UNL     1       7.206   8.462  11.985  1.00  0.00    -0.390 OA
HETATM   37  H52 UNL     1       7.409   7.534  11.753  1.00  0.00     0.210 HD
ENDBRANCH  29  36
BRANCH  30  38
HETATM   38  O8  UNL     1       6.825   6.210  14.124  1.00  0.00    -0.388 OA
HETATM   39  H54 UNL     1       7.354   6.358  14.932  1.00  0.00     0.210 HD
ENDBRANCH  30  38
ENDBRANCH  24  25
ENDBRANCH  20  24
BRANCH   1  40
HETATM   40  C8  UNL     1      -6.648   7.125  15.770  1.00  0.00    -0.011 C 
HETATM   41  C9  UNL     1      -6.996   5.735  16.306  1.00  0.00     0.010 C 
BRANCH  40  42
HETATM   42  C7  UNL     1      -7.898   7.779  15.114  1.00  0.00     0.040 C 
BRANCH  42  43
HETATM   43  C2  UNL     1      -9.125   6.889  14.807  1.00  0.00     0.144 C 
BRANCH  43  44
HETATM   44  O1  UNL     1     -10.253   7.559  15.400  1.00  0.00    -0.387 OA
HETATM   45  C1  UNL     1     -10.802   8.571  14.564  1.00  0.00     0.202 C 
ENDBRANCH  43  44
BRANCH  43  46
HETATM   46  C3  UNL     1      -9.397   6.753  13.334  1.00  0.00     0.007 C 
HETATM   47  C4  UNL     1      -8.896   5.846  12.469  1.00  0.00    -0.089 C 
HETATM   48  C5  UNL     1      -7.961   4.725  12.828  1.00  0.00     0.042 C 
HETATM   49  C6  UNL     1      -9.247   5.912  11.006  1.00  0.00     0.042 C 
ENDBRANCH  43  46
ENDBRANCH  42  43
ENDBRANCH  40  42
ENDBRANCH   1  40
TORSDOF 12
ENDMDL
MODEL 7
REMARK minimizedAffinity -11.1965494
REMARK CNNscore 0.213094652
REMARK CNNaffinity 7.48792696
REMARK  12 active torsions:
REMARK  status: ('A' for Active; 'I' for Inactive)
REMARK    1  A    between atoms: O1_2  and  C2_3 
REMARK    2  A    between atoms: C2_3  and  C3_4 
REMARK    3  A    between atoms: C2_3  and  C7_8 
REMARK    4  A    between atoms: C7_8  and  C8_9 
REMARK    5  A    between atoms: C8_9  and  C10_11 
REMARK    6  A    between atoms: C28_30  and  O3_31 
REMARK    7  A    between atoms: O3_31  and  C29_32 
REMARK    8  A    between atoms: C30_34  and  C31_35 
REMARK    9  A    between atoms: C31_35  and  O5_36 
REMARK   10  A    between atoms: C32_37  and  O6_38 
REMARK   11  A    between atoms: C33_39  and  O7_40 
REMARK   12  A    between atoms: C34_41  and  O8_42 
ROOT
HETATM    1  C10 UNL     1      -6.468   7.075  14.294  1.00  0.00    -0.002 C 
HETATM    2  C11 UNL     1      -6.360   8.465  15.003  1.00  0.00     0.006 C 
HETATM    3  C12 UNL     1      -4.859   8.775  15.190  1.00  0.00     0.011 C 
HETATM    4  C13 UNL     1      -4.145   7.746  14.297  1.00  0.00    -0.029 C 
HETATM    5  C14 UNL     1      -4.241   8.329  12.844  1.00  0.00     0.016 C 
HETATM    6  C15 UNL     1      -2.662   7.429  14.675  1.00  0.00     0.028 C 
HETATM    7  C16 UNL     1      -1.756   8.637  14.595  1.00  0.00    -0.021 C 
HETATM    8  C17 UNL     1      -0.610   8.613  13.893  1.00  0.00     0.008 C 
HETATM    9  C18 UNL     1      -0.181   7.388  13.095  1.00  0.00     0.092 C 
HETATM   10  O2  UNL     1       0.322   6.478  14.100  1.00  0.00    -0.374 OA
HETATM   11  C19 UNL     1      -0.783   5.691  14.586  1.00  0.00     0.179 C 
HETATM   12  C20 UNL     1      -2.074   6.179  13.878  1.00  0.00    -0.004 C 
HETATM   13  C21 UNL     1      -3.091   5.010  13.836  1.00  0.00     0.014 C 
HETATM   14  C22 UNL     1      -4.565   5.372  13.580  1.00  0.00     0.011 C 
HETATM   15  C23 UNL     1      -5.049   6.473  14.539  1.00  0.00    -0.032 C 
HETATM   16  C24 UNL     1      -4.994   5.917  15.997  1.00  0.00     0.016 C 
HETATM   17  C25 UNL     1      -1.439   6.665  12.542  1.00  0.00     0.036 C 
HETATM   18  C26 UNL     1      -1.111   5.602  11.479  1.00  0.00     0.011 C 
HETATM   19  C27 UNL     1       0.350   5.195  11.429  1.00  0.00     0.033 C 
HETATM   20  C28 UNL     1       1.257   6.396  11.155  1.00  0.00     0.136 C 
HETATM   21  C35 UNL     1       0.926   7.674  12.019  1.00  0.00     0.014 C 
HETATM   22  C36 UNL     1       2.218   8.214  12.686  1.00  0.00     0.021 C 
HETATM   23  C37 UNL     1       0.431   8.770  11.037  1.00  0.00     0.021 C 
ENDROOT
BRANCH  20  24
HETATM   24  O3  UNL     1       2.620   5.991  11.333  1.00  0.00    -0.352 OA
BRANCH  24  25
HETATM   25  C29 UNL     1       3.261   5.522  10.150  1.00  0.00     0.292 C 
HETATM   26  O4  UNL     1       4.678   5.661  10.267  1.00  0.00    -0.348 OA
HETATM   27  C30 UNL     1       5.125   7.008  10.510  1.00  0.00     0.179 C 
HETATM   28  C32 UNL     1       4.163   8.092   9.982  1.00  0.00     0.180 C 
HETATM   29  C33 UNL     1       3.546   7.592   8.681  1.00  0.00     0.183 C 
HETATM   30  C34 UNL     1       2.737   6.308   8.924  1.00  0.00     0.204 C 
BRANCH  27  31
HETATM   31  C31 UNL     1       5.446   7.230  11.995  1.00  0.00     0.198 C 
BRANCH  31  32
HETATM   32  O5  UNL     1       6.094   6.096  12.570  1.00  0.00    -0.398 OA
HETATM   33  H48 UNL     1       6.741   5.760  11.913  1.00  0.00     0.209 HD
ENDBRANCH  31  32
ENDBRANCH  27  31
BRANCH  28  34
HETATM   34  O6  UNL     1       4.865   9.324   9.765  1.00  0.00    -0.390 OA
HETATM   35  H50 UNL     1       4.266   9.856   9.201  1.00  0.00     0.210 HD
ENDBRANCH  28  34
BRANCH  29  36
HETATM   36  O7  UNL     1       2.712   8.620   8.121  1.00  0.00    -0.390 OA
HETATM   37  H52 UNL     1       2.262   8.217   7.352  1.00  0.00     0.210 HD
ENDBRANCH  29  36
BRANCH  30  38
HETATM   38  O8  UNL     1       2.801   5.517   7.723  1.00  0.00    -0.388 OA
HETATM   39  H54 UNL     1       3.710   5.168   7.656  1.00  0.00     0.210 HD
ENDBRANCH  30  38
ENDBRANCH  24  25
ENDBRANCH  20  24
BRANCH   1  40
HETATM   40  C8  UNL     1      -7.743   6.300  14.724  1.00  0.00    -0.011 C 
HETATM   41  C9  UNL     1      -8.175   6.583  16.164  1.00  0.00     0.010 C 
BRANCH  40  42
HETATM   42  C7  UNL     1      -7.641   4.765  14.483  1.00  0.00     0.040 C 
BRANCH  42  43
HETATM   43  C2  UNL     1      -8.220   4.181  13.173  1.00  0.00     0.144 C 
BRANCH  43  44
HETATM   44  O1  UNL     1      -7.848   5.105  12.134  1.00  0.00    -0.387 OA
HETATM   45  C1  UNL     1      -8.968   5.746  11.533  1.00  0.00     0.202 C 
ENDBRANCH  43  44
BRANCH  43  46
HETATM   46  C3  UNL     1      -7.638   2.840  12.821  1.00  0.00     0.007 C 
HETATM   47  C4  UNL     1      -6.613   2.562  11.989  1.00  0.00    -0.089 C 
HETATM   48  C5  UNL     1      -5.793   3.582  11.248  1.00  0.00     0.042 C 
HETATM   49  C6  UNL     1      -6.214   1.136  11.719  1.00  0.00     0.042 C 
ENDBRANCH  43  46
ENDBRANCH  42  43
ENDBRANCH  40  42
ENDBRANCH   1  40
TORSDOF 12
ENDMDL
MODEL 8
REMARK minimizedAffinity -8.03363132
REMARK CNNscore 0.211786285
REMARK CNNaffinity 6.44511557
REMARK  12 active torsions:
REMARK  status: ('A' for Active; 'I' for Inactive)
REMARK    1  A    between atoms: O1_2  and  C2_3 
REMARK    2  A    between atoms: C2_3  and  C3_4 
REMARK    3  A    between atoms: C2_3  and  C7_8 
REMARK    4  A    between atoms: C7_8  and  C8_9 
REMARK    5  A    between atoms: C8_9  and  C10_11 
REMARK    6  A    between atoms: C28_30  and  O3_31 
REMARK    7  A    between atoms: O3_31  and  C29_32 
REMARK    8  A    between atoms: C30_34  and  C31_35 
REMARK    9  A    between atoms: C31_35  and  O5_36 
REMARK   10  A    between atoms: C32_37  and  O6_38 
REMARK   11  A    between atoms: C33_39  and  O7_40 
REMARK   12  A    between atoms: C34_41  and  O8_42 
ROOT
HETATM    1  C10 UNL     1      -0.604   6.496  11.915  1.00  0.00    -0.002 C 
HETATM    2  C11 UNL     1      -1.698   5.539  12.492  1.00  0.00     0.006 C 
HETATM    3  C12 UNL     1      -2.102   6.081  13.881  1.00  0.00     0.011 C 
HETATM    4  C13 UNL     1      -1.500   7.496  13.926  1.00  0.00    -0.029 C 
HETATM    5  C14 UNL     1      -2.499   8.392  13.116  1.00  0.00     0.016 C 
HETATM    6  C15 UNL     1      -1.250   8.084  15.352  1.00  0.00     0.028 C 
HETATM    7  C16 UNL     1      -2.516   8.227  16.167  1.00  0.00    -0.021 C 
HETATM    8  C17 UNL     1      -2.848   9.388  16.756  1.00  0.00     0.008 C 
HETATM    9  C18 UNL     1      -1.997  10.644  16.597  1.00  0.00     0.092 C 
HETATM   10  O2  UNL     1      -0.878  10.420  17.485  1.00  0.00    -0.374 OA
HETATM   11  C19 UNL     1       0.143   9.716  16.752  1.00  0.00     0.179 C 
HETATM   12  C20 UNL     1      -0.395   9.430  15.325  1.00  0.00    -0.004 C 
HETATM   13  C21 UNL     1       0.808   9.313  14.354  1.00  0.00     0.014 C 
HETATM   14  C22 UNL     1       0.554   8.618  13.004  1.00  0.00     0.011 C 
HETATM   15  C23 UNL     1      -0.121   7.249  13.194  1.00  0.00    -0.032 C 
HETATM   16  C24 UNL     1       0.861   6.318  13.974  1.00  0.00     0.016 C 
HETATM   17  C25 UNL     1      -1.350  10.652  15.185  1.00  0.00     0.036 C 
HETATM   18  C26 UNL     1      -0.726  12.008  14.813  1.00  0.00     0.011 C 
HETATM   19  C27 UNL     1      -0.525  12.950  15.985  1.00  0.00     0.033 C 
HETATM   20  C28 UNL     1      -1.846  13.247  16.696  1.00  0.00     0.136 C 
HETATM   21  C35 UNL     1      -2.736  11.975  16.978  1.00  0.00     0.014 C 
HETATM   22  C36 UNL     1      -3.179  11.955  18.464  1.00  0.00     0.021 C 
HETATM   23  C37 UNL     1      -4.023  12.123  16.123  1.00  0.00     0.021 C 
ENDROOT
BRANCH  20  24
HETATM   24  O3  UNL     1      -1.563  13.959  17.908  1.00  0.00    -0.352 OA
BRANCH  24  25
HETATM   25  C29 UNL     1      -2.008  15.312  17.921  1.00  0.00     0.292 C 
HETATM   26  O4  UNL     1      -0.889  16.201  17.898  1.00  0.00    -0.348 OA
HETATM   27  C30 UNL     1       0.032  16.025  18.991  1.00  0.00     0.179 C 
HETATM   28  C32 UNL     1      -0.610  15.432  20.262  1.00  0.00     0.180 C 
HETATM   29  C33 UNL     1      -2.026  15.984  20.386  1.00  0.00     0.183 C 
HETATM   30  C34 UNL     1      -2.877  15.566  19.176  1.00  0.00     0.204 C 
BRANCH  27  31
HETATM   31  C31 UNL     1       1.260  15.210  18.560  1.00  0.00     0.198 C 
BRANCH  31  32
HETATM   32  O5  UNL     1       1.464  15.268  17.150  1.00  0.00    -0.398 OA
HETATM   33  H48 UNL     1       1.290  16.191  16.864  1.00  0.00     0.209 HD
ENDBRANCH  31  32
ENDBRANCH  27  31
BRANCH  28  34
HETATM   34  O6  UNL     1       0.165  15.770  21.421  1.00  0.00    -0.390 OA
HETATM   35  H50 UNL     1      -0.431  15.593  22.179  1.00  0.00     0.210 HD
ENDBRANCH  28  34
BRANCH  29  36
HETATM   36  O7  UNL     1      -2.617  15.518  21.609  1.00  0.00    -0.390 OA
HETATM   37  H52 UNL     1      -3.549  15.810  21.591  1.00  0.00     0.210 HD
ENDBRANCH  29  36
BRANCH  30  38
HETATM   38  O8  UNL     1      -3.848  16.604  18.945  1.00  0.00    -0.388 OA
HETATM   39  H54 UNL     1      -3.366  17.375  18.590  1.00  0.00     0.210 HD
ENDBRANCH  30  38
ENDBRANCH  24  25
ENDBRANCH  20  24
BRANCH   1  40
HETATM   40  C8  UNL     1       0.409   5.742  11.009  1.00  0.00    -0.011 C 
HETATM   41  C9  UNL     1       0.555   4.260  11.358  1.00  0.00     0.010 C 
BRANCH  40  42
HETATM   42  C7  UNL     1       1.806   6.424  10.950  1.00  0.00     0.040 C 
BRANCH  42  43
HETATM   43  C2  UNL     1       2.802   5.980   9.852  1.00  0.00     0.144 C 
BRANCH  43  44
HETATM   44  O1  UNL     1       2.995   4.567  10.047  1.00  0.00    -0.387 OA
HETATM   45  C1  UNL     1       3.951   4.008   9.154  1.00  0.00     0.202 C 
ENDBRANCH  43  44
BRANCH  43  46
HETATM   46  C3  UNL     1       2.268   6.182   8.461  1.00  0.00     0.007 C 
HETATM   47  C4  UNL     1       2.334   7.286   7.689  1.00  0.00    -0.089 C 
HETATM   48  C5  UNL     1       3.015   8.573   8.067  1.00  0.00     0.042 C 
HETATM   49  C6  UNL     1       1.681   7.309   6.333  1.00  0.00     0.042 C 
ENDBRANCH  43  46
ENDBRANCH  42  43
ENDBRANCH  40  42
ENDBRANCH   1  40
TORSDOF 12
ENDMDL
MODEL 9
REMARK minimizedAffinity -8.21309376
REMARK CNNscore 0.201168448
REMARK CNNaffinity 6.78648901
REMARK  12 active torsions:
REMARK  status: ('A' for Active; 'I' for Inactive)
REMARK    1  A    between atoms: O1_2  and  C2_3 
REMARK    2  A    between atoms: C2_3  and  C3_4 
REMARK    3  A    between atoms: C2_3  and  C7_8 
REMARK    4  A    between atoms: C7_8  and  C8_9 
REMARK    5  A    between atoms: C8_9  and  C10_11 
REMARK    6  A    between atoms: C28_30  and  O3_31 
REMARK    7  A    between atoms: O3_31  and  C29_32 
REMARK    8  A    between atoms: C30_34  and  C31_35 
REMARK    9  A    between atoms: C31_35  and  O5_36 
REMARK   10  A    between atoms: C32_37  and  O6_38 
REMARK   11  A    between atoms: C33_39  and  O7_40 
REMARK   12  A    between atoms: C34_41  and  O8_42 
ROOT
HETATM    1  C10 UNL     1       0.245  11.940  18.225  1.00  0.00    -0.002 C 
HETATM    2  C11 UNL     1      -0.936  12.961  18.325  1.00  0.00     0.006 C 
HETATM    3  C12 UNL     1      -1.981  12.567  17.258  1.00  0.00     0.011 C 
HETATM    4  C13 UNL     1      -1.555  11.158  16.812  1.00  0.00    -0.029 C 
HETATM    5  C14 UNL     1      -2.099  10.195  17.923  1.00  0.00     0.016 C 
HETATM    6  C15 UNL     1      -2.047  10.715  15.396  1.00  0.00     0.028 C 
HETATM    7  C16 UNL     1      -3.555  10.668  15.278  1.00  0.00    -0.021 C 
HETATM    8  C17 UNL     1      -4.193   9.576  14.824  1.00  0.00     0.008 C 
HETATM    9  C18 UNL     1      -3.443   8.302  14.452  1.00  0.00     0.092 C 
HETATM   10  O2  UNL     1      -2.869   8.604  13.159  1.00  0.00    -0.374 OA
HETATM   11  C19 UNL     1      -1.584   9.219  13.369  1.00  0.00     0.179 C 
HETATM   12  C20 UNL     1      -1.361   9.364  14.898  1.00  0.00    -0.004 C 
HETATM   13  C21 UNL     1       0.163   9.370  15.180  1.00  0.00     0.014 C 
HETATM   14  C22 UNL     1       0.622   9.928  16.540  1.00  0.00     0.011 C 
HETATM   15  C23 UNL     1       0.017  11.315  16.813  1.00  0.00    -0.032 C 
HETATM   16  C24 UNL     1       0.562  12.311  15.739  1.00  0.00     0.016 C 
HETATM   17  C25 UNL     1      -2.204   8.145  15.375  1.00  0.00     0.036 C 
HETATM   18  C26 UNL     1      -1.556   6.752  15.287  1.00  0.00     0.011 C 
HETATM   19  C27 UNL     1      -1.992   5.931  14.088  1.00  0.00     0.033 C 
HETATM   20  C28 UNL     1      -3.506   5.721  14.073  1.00  0.00     0.136 C 
HETATM   21  C35 UNL     1      -4.348   7.024  14.360  1.00  0.00     0.014 C 
HETATM   22  C36 UNL     1      -5.443   7.199  13.274  1.00  0.00     0.021 C 
HETATM   23  C37 UNL     1      -5.081   6.803  15.711  1.00  0.00     0.021 C 
ENDROOT
BRANCH  20  24
HETATM   24  O3  UNL     1      -3.875   5.133  12.819  1.00  0.00    -0.352 OA
BRANCH  24  25
HETATM   25  C29 UNL     1      -4.433   3.826  12.916  1.00  0.00     0.292 C 
HETATM   26  O4  UNL     1      -3.406   2.839  12.804  1.00  0.00    -0.348 OA
HETATM   27  C30 UNL     1      -2.645   2.908  11.584  1.00  0.00     0.179 C 
HETATM   28  C32 UNL     1      -3.413   3.532  10.401  1.00  0.00     0.180 C 
HETATM   29  C33 UNL     1      -4.875   3.110  10.503  1.00  0.00     0.183 C 
HETATM   30  C34 UNL     1      -5.498   3.628  11.809  1.00  0.00     0.204 C 
BRANCH  27  31
HETATM   31  C31 UNL     1      -1.300   3.616  11.804  1.00  0.00     0.198 C 
BRANCH  31  32
HETATM   32  O5  UNL     1      -0.202   2.794  11.416  1.00  0.00    -0.398 OA
HETATM   33  H48 UNL     1      -0.452   2.339  10.584  1.00  0.00     0.209 HD
ENDBRANCH  31  32
ENDBRANCH  27  31
BRANCH  28  34
HETATM   34  O6  UNL     1      -2.852   3.102   9.154  1.00  0.00    -0.390 OA
HETATM   35  H50 UNL     1      -3.535   3.318   8.485  1.00  0.00     0.210 HD
ENDBRANCH  28  34
BRANCH  29  36
HETATM   36  O7  UNL     1      -5.597   3.604   9.364  1.00  0.00    -0.390 OA
HETATM   37  H52 UNL     1      -6.539   3.398   9.528  1.00  0.00     0.210 HD
ENDBRANCH  29  36
BRANCH  30  38
HETATM   38  O8  UNL     1      -6.511   2.688  12.213  1.00  0.00    -0.388 OA
HETATM   39  H54 UNL     1      -6.052   1.883  12.520  1.00  0.00     0.210 HD
ENDBRANCH  30  38
ENDBRANCH  24  25
ENDBRANCH  20  24
BRANCH   1  40
HETATM   40  C8  UNL     1       1.607  12.588  18.595  1.00  0.00    -0.011 C 
HETATM   41  C9  UNL     1       2.188  13.468  17.486  1.00  0.00     0.010 C 
BRANCH  40  42
HETATM   42  C7  UNL     1       2.668  11.555  19.077  1.00  0.00     0.040 C 
BRANCH  42  43
HETATM   43  C2  UNL     1       3.823  12.047  19.980  1.00  0.00     0.144 C 
BRANCH  43  44
HETATM   44  O1  UNL     1       3.407  13.328  20.486  1.00  0.00    -0.387 OA
HETATM   45  C1  UNL     1       2.712  13.238  21.724  1.00  0.00     0.202 C 
ENDBRANCH  43  44
BRANCH  43  46
HETATM   46  C3  UNL     1       4.069  11.147  21.159  1.00  0.00     0.007 C 
HETATM   47  C4  UNL     1       3.224  10.262  21.730  1.00  0.00    -0.089 C 
HETATM   48  C5  UNL     1       1.829   9.962  21.257  1.00  0.00     0.042 C 
HETATM   49  C6  UNL     1       3.641   9.490  22.953  1.00  0.00     0.042 C 
ENDBRANCH  43  46
ENDBRANCH  42  43
ENDBRANCH  40  42
ENDBRANCH   1  40
TORSDOF 12
ENDMDL
