MODEL 1
REMARK minimizedAffinity -7.59121275
REMARK CNNscore 0.73694551
REMARK CNNaffinity 6.30288887
REMARK  12 active torsions:
REMARK  status: ('A' for Active; 'I' for Inactive)
REMARK    1  A    between atoms: C2_2  and  C3_3 
REMARK    2  A    between atoms: C2_2  and  C26_31 
REMARK    3  A    between atoms: C3_3  and  C4_4 
REMARK    4  A    between atoms: C4_4  and  C5_5 
REMARK    5  A    between atoms: C5_5  and  C7_7 
REMARK    6  A    between atoms: C8_8  and  O1_9 
REMARK    7  A    between atoms: C9_10  and  O2_11 
REMARK    8  A    between atoms: C20_22  and  O3_23 
REMARK    9  A    between atoms: C23_26  and  O4_27 
REMARK   10  A    between atoms: C25_29  and  O5_30 
REMARK   11  A    between atoms: C26_31  and  C28_33 
REMARK   12  A    between atoms: C28_33  and  O6_34 
ROOT
HETATM    1  C7  UNL     1      -6.548  45.591 -30.278  1.00  0.00     0.029 C 
HETATM    2  C8  UNL     1      -7.797  44.819 -29.742  1.00  0.00     0.152 C 
HETATM    3  C9  UNL     1      -7.796  43.434 -30.438  1.00  0.00     0.155 C 
HETATM    4  C10 UNL     1      -6.538  43.430 -31.310  1.00  0.00     0.060 C 
HETATM    5  C11 UNL     1      -6.286  44.920 -31.674  1.00  0.00    -0.029 C 
HETATM    6  C12 UNL     1      -7.238  45.485 -32.754  1.00  0.00     0.016 C 
HETATM    7  C13 UNL     1      -4.826  45.034 -32.177  1.00  0.00     0.011 C 
HETATM    8  C14 UNL     1      -4.222  43.712 -32.692  1.00  0.00     0.009 C 
HETATM    9  C15 UNL     1      -5.236  42.797 -33.420  1.00  0.00     0.029 C 
HETATM   10  C16 UNL     1      -4.555  41.557 -34.144  1.00  0.00    -0.031 C 
HETATM   11  C17 UNL     1      -4.041  42.094 -35.517  1.00  0.00     0.016 C 
HETATM   12  C18 UNL     1      -3.335  40.978 -33.372  1.00  0.00     0.012 C 
HETATM   13  C19 UNL     1      -2.690  39.770 -34.056  1.00  0.00     0.032 C 
HETATM   14  C20 UNL     1      -3.688  38.665 -34.376  1.00  0.00     0.118 C 
HETATM   15  C21 UNL     1      -4.941  39.185 -35.085  1.00  0.00     0.039 C 
HETATM   16  C22 UNL     1      -5.587  40.409 -34.399  1.00  0.00     0.025 C 
HETATM   17  C23 UNL     1      -6.429  40.008 -33.158  1.00  0.00     0.126 C 
HETATM   18  C24 UNL     1      -6.421  41.019 -32.018  1.00  0.00     0.071 C 
HETATM   19  C25 UNL     1      -6.461  42.459 -32.513  1.00  0.00     0.071 C 
ENDROOT
BRANCH   1  20
HETATM   20  C5  UNL     1      -6.666  47.143 -30.183  1.00  0.00    -0.011 C 
HETATM   21  C6  UNL     1      -5.559  47.871 -30.957  1.00  0.00     0.010 C 
BRANCH  20  22
HETATM   22  C4  UNL     1      -6.630  47.591 -28.693  1.00  0.00     0.009 C 
BRANCH  22  23
HETATM   23  C3  UNL     1      -5.255  48.116 -28.242  1.00  0.00     0.034 C 
BRANCH  23  24
HETATM   24  C2  UNL     1      -4.988  48.172 -26.740  1.00  0.00    -0.083 C 
HETATM   25  C1  UNL     1      -5.947  47.977 -25.814  1.00  0.00     0.015 C 
BRANCH  24  26
HETATM   26  C26 UNL     1      -3.517  48.442 -26.379  1.00  0.00     0.033 C 
HETATM   27  C27 UNL     1      -3.235  48.600 -24.875  1.00  0.00     0.017 C 
BRANCH  26  28
HETATM   28  C28 UNL     1      -2.926  49.640 -27.155  1.00  0.00     0.172 C 
BRANCH  28  29
HETATM   29  O6  UNL     1      -2.002  50.402 -26.386  1.00  0.00    -0.400 OA
HETATM   30  H48 UNL     1      -1.374  49.786 -25.973  1.00  0.00     0.209 HD
ENDBRANCH  28  29
ENDBRANCH  26  28
ENDBRANCH  24  26
ENDBRANCH  23  24
ENDBRANCH  22  23
ENDBRANCH  20  22
ENDBRANCH   1  20
BRANCH   2  31
HETATM   31  O1  UNL     1      -9.041  45.460 -30.040  1.00  0.00    -0.393 OA
HETATM   32  H13 UNL     1      -9.115  46.254 -29.480  1.00  0.00     0.210 HD
ENDBRANCH   2  31
BRANCH   3  33
HETATM   33  O2  UNL     1      -8.981  43.235 -31.208  1.00  0.00    -0.392 OA
HETATM   34  H15 UNL     1      -9.541  44.019 -30.998  1.00  0.00     0.210 HD
ENDBRANCH   3  33
BRANCH  19  35
HETATM   35  O5  UNL     1      -7.631  42.572 -33.335  1.00  0.00    -0.389 OA
HETATM   36  H41 UNL     1      -8.395  42.705 -32.728  1.00  0.00     0.210 HD
ENDBRANCH  19  35
BRANCH  17  37
HETATM   37  O4  UNL     1      -6.042  38.748 -32.610  1.00  0.00    -0.395 OA
HETATM   38  H38 UNL     1      -6.727  38.492 -31.968  1.00  0.00     0.210 HD
ENDBRANCH  17  37
BRANCH  14  39
HETATM   39  O3  UNL     1      -3.041  37.705 -35.214  1.00  0.00    -0.396 OA
HETATM   40  H33 UNL     1      -3.679  36.984 -35.353  1.00  0.00     0.210 HD
ENDBRANCH  14  39
TORSDOF 12
ENDMDL
MODEL 2
REMARK minimizedAffinity -7.32654667
REMARK CNNscore 0.655984998
REMARK CNNaffinity 6.12218666
REMARK  12 active torsions:
REMARK  status: ('A' for Active; 'I' for Inactive)
REMARK    1  A    between atoms: C2_2  and  C3_3 
REMARK    2  A    between atoms: C2_2  and  C26_31 
REMARK    3  A    between atoms: C3_3  and  C4_4 
REMARK    4  A    between atoms: C4_4  and  C5_5 
REMARK    5  A    between atoms: C5_5  and  C7_7 
REMARK    6  A    between atoms: C8_8  and  O1_9 
REMARK    7  A    between atoms: C9_10  and  O2_11 
REMARK    8  A    between atoms: C20_22  and  O3_23 
REMARK    9  A    between atoms: C23_26  and  O4_27 
REMARK   10  A    between atoms: C25_29  and  O5_30 
REMARK   11  A    between atoms: C26_31  and  C28_33 
REMARK   12  A    between atoms: C28_33  and  O6_34 
ROOT
HETATM    1  C7  UNL     1      -9.305  46.919 -29.018  1.00  0.00     0.029 C 
HETATM    2  C8  UNL     1      -8.879  47.934 -27.909  1.00  0.00     0.152 C 
HETATM    3  C9  UNL     1     -10.003  47.923 -26.842  1.00  0.00     0.155 C 
HETATM    4  C10 UNL     1     -11.010  46.883 -27.338  1.00  0.00     0.060 C 
HETATM    5  C11 UNL     1     -10.869  46.881 -28.886  1.00  0.00    -0.029 C 
HETATM    6  C12 UNL     1     -11.520  48.095 -29.590  1.00  0.00     0.016 C 
HETATM    7  C13 UNL     1     -11.528  45.580 -29.409  1.00  0.00     0.011 C 
HETATM    8  C14 UNL     1     -12.558  44.954 -28.449  1.00  0.00     0.009 C 
HETATM    9  C15 UNL     1     -13.388  45.988 -27.651  1.00  0.00     0.029 C 
HETATM   10  C16 UNL     1     -14.595  45.339 -26.847  1.00  0.00    -0.031 C 
HETATM   11  C17 UNL     1     -15.759  45.187 -27.877  1.00  0.00     0.016 C 
HETATM   12  C18 UNL     1     -14.276  43.928 -26.277  1.00  0.00     0.012 C 
HETATM   13  C19 UNL     1     -15.430  43.310 -25.483  1.00  0.00     0.032 C 
HETATM   14  C20 UNL     1     -15.951  44.222 -24.382  1.00  0.00     0.118 C 
HETATM   15  C21 UNL     1     -16.227  45.646 -24.872  1.00  0.00     0.039 C 
HETATM   16  C22 UNL     1     -15.066  46.267 -25.679  1.00  0.00     0.025 C 
HETATM   17  C23 UNL     1     -13.923  46.782 -24.761  1.00  0.00     0.126 C 
HETATM   18  C24 UNL     1     -12.520  46.648 -25.340  1.00  0.00     0.071 C 
HETATM   19  C25 UNL     1     -12.472  46.952 -26.832  1.00  0.00     0.071 C 
ENDROOT
BRANCH   1  20
HETATM   20  C5  UNL     1      -8.660  47.187 -30.413  1.00  0.00    -0.011 C 
HETATM   21  C6  UNL     1      -9.129  46.195 -31.484  1.00  0.00     0.010 C 
BRANCH  20  22
HETATM   22  C4  UNL     1      -7.108  47.128 -30.303  1.00  0.00     0.009 C 
BRANCH  22  23
HETATM   23  C3  UNL     1      -6.539  45.701 -30.401  1.00  0.00     0.034 C 
BRANCH  23  24
HETATM   24  C2  UNL     1      -5.559  45.418 -31.536  1.00  0.00    -0.083 C 
HETATM   25  C1  UNL     1      -4.565  46.260 -31.879  1.00  0.00     0.015 C 
BRANCH  24  26
HETATM   26  C26 UNL     1      -5.788  44.065 -32.234  1.00  0.00     0.033 C 
HETATM   27  C27 UNL     1      -6.610  43.047 -31.425  1.00  0.00     0.017 C 
BRANCH  26  28
HETATM   28  C28 UNL     1      -4.471  43.416 -32.716  1.00  0.00     0.172 C 
BRANCH  28  29
HETATM   29  O6  UNL     1      -4.376  42.035 -32.383  1.00  0.00    -0.400 OA
HETATM   30  H48 UNL     1      -5.206  41.604 -32.646  1.00  0.00     0.209 HD
ENDBRANCH  28  29
ENDBRANCH  26  28
ENDBRANCH  24  26
ENDBRANCH  23  24
ENDBRANCH  22  23
ENDBRANCH  20  22
ENDBRANCH   1  20
BRANCH   2  31
HETATM   31  O1  UNL     1      -8.734  49.276 -28.382  1.00  0.00    -0.393 OA
HETATM   32  H13 UNL     1      -7.929  49.320 -28.929  1.00  0.00     0.210 HD
ENDBRANCH   2  31
BRANCH   3  33
HETATM   33  O2  UNL     1     -10.596  49.214 -26.694  1.00  0.00    -0.392 OA
HETATM   34  H15 UNL     1     -10.040  49.802 -27.258  1.00  0.00     0.210 HD
ENDBRANCH   3  33
BRANCH  19  35
HETATM   35  O5  UNL     1     -13.006  48.273 -26.994  1.00  0.00    -0.389 OA
HETATM   36  H41 UNL     1     -12.277  48.903 -26.789  1.00  0.00     0.210 HD
ENDBRANCH  19  35
BRANCH  17  37
HETATM   37  O4  UNL     1     -13.916  46.150 -23.481  1.00  0.00    -0.395 OA
HETATM   38  H38 UNL     1     -13.303  46.652 -22.916  1.00  0.00     0.210 HD
ENDBRANCH  17  37
BRANCH  14  39
HETATM   39  O3  UNL     1     -17.161  43.662 -23.869  1.00  0.00    -0.396 OA
HETATM   40  H33 UNL     1     -17.439  44.230 -23.130  1.00  0.00     0.210 HD
ENDBRANCH  14  39
TORSDOF 12
ENDMDL
MODEL 3
REMARK minimizedAffinity -9.1039505
REMARK CNNscore 0.635050058
REMARK CNNaffinity 6.64309835
REMARK  12 active torsions:
REMARK  status: ('A' for Active; 'I' for Inactive)
REMARK    1  A    between atoms: C2_2  and  C3_3 
REMARK    2  A    between atoms: C2_2  and  C26_31 
REMARK    3  A    between atoms: C3_3  and  C4_4 
REMARK    4  A    between atoms: C4_4  and  C5_5 
REMARK    5  A    between atoms: C5_5  and  C7_7 
REMARK    6  A    between atoms: C8_8  and  O1_9 
REMARK    7  A    between atoms: C9_10  and  O2_11 
REMARK    8  A    between atoms: C20_22  and  O3_23 
REMARK    9  A    between atoms: C23_26  and  O4_27 
REMARK   10  A    between atoms: C25_29  and  O5_30 
REMARK   11  A    between atoms: C26_31  and  C28_33 
REMARK   12  A    between atoms: C28_33  and  O6_34 
ROOT
HETATM    1  C7  UNL     1      -0.397  51.461 -22.754  1.00  0.00     0.029 C 
HETATM    2  C8  UNL     1       0.312  51.871 -21.423  1.00  0.00     0.152 C 
HETATM    3  C9  UNL     1      -0.281  50.971 -20.309  1.00  0.00     0.155 C 
HETATM    4  C10 UNL     1      -1.269  50.049 -21.027  1.00  0.00     0.060 C 
HETATM    5  C11 UNL     1      -1.761  50.858 -22.261  1.00  0.00    -0.029 C 
HETATM    6  C12 UNL     1      -2.780  51.973 -21.931  1.00  0.00     0.016 C 
HETATM    7  C13 UNL     1      -2.412  49.852 -23.243  1.00  0.00     0.011 C 
HETATM    8  C14 UNL     1      -2.888  48.539 -22.592  1.00  0.00     0.009 C 
HETATM    9  C15 UNL     1      -3.447  48.711 -21.160  1.00  0.00     0.029 C 
HETATM   10  C16 UNL     1      -4.144  47.399 -20.596  1.00  0.00    -0.031 C 
HETATM   11  C17 UNL     1      -5.595  47.406 -21.171  1.00  0.00     0.016 C 
HETATM   12  C18 UNL     1      -3.456  46.082 -21.055  1.00  0.00     0.012 C 
HETATM   13  C19 UNL     1      -4.112  44.817 -20.496  1.00  0.00     0.032 C 
HETATM   14  C20 UNL     1      -4.254  44.841 -18.980  1.00  0.00     0.118 C 
HETATM   15  C21 UNL     1      -4.872  46.142 -18.463  1.00  0.00     0.039 C 
HETATM   16  C22 UNL     1      -4.215  47.419 -19.033  1.00  0.00     0.025 C 
HETATM   17  C23 UNL     1      -2.871  47.751 -18.328  1.00  0.00     0.126 C 
HETATM   18  C24 UNL     1      -1.812  48.384 -19.222  1.00  0.00     0.071 C 
HETATM   19  C25 UNL     1      -2.403  49.381 -20.211  1.00  0.00     0.071 C 
ENDROOT
BRANCH   1  20
HETATM   20  C5  UNL     1      -0.402  52.575 -23.846  1.00  0.00    -0.011 C 
HETATM   21  C6  UNL     1      -1.804  52.862 -24.395  1.00  0.00     0.010 C 
BRANCH  20  22
HETATM   22  C4  UNL     1       0.538  52.174 -25.020  1.00  0.00     0.009 C 
BRANCH  22  23
HETATM   23  C3  UNL     1       0.079  50.911 -25.771  1.00  0.00     0.034 C 
BRANCH  23  24
HETATM   24  C2  UNL     1      -0.765  51.114 -27.027  1.00  0.00    -0.083 C 
HETATM   25  C1  UNL     1      -1.992  50.581 -27.183  1.00  0.00     0.015 C 
BRANCH  24  26
HETATM   26  C26 UNL     1      -0.100  52.010 -28.087  1.00  0.00     0.033 C 
HETATM   27  C27 UNL     1       1.421  51.830 -28.227  1.00  0.00     0.017 C 
BRANCH  26  28
HETATM   28  C28 UNL     1      -0.439  53.505 -27.895  1.00  0.00     0.172 C 
BRANCH  28  29
HETATM   29  O6  UNL     1      -1.803  53.807 -28.168  1.00  0.00    -0.400 OA
HETATM   30  H48 UNL     1      -2.354  53.162 -27.696  1.00  0.00     0.209 HD
ENDBRANCH  28  29
ENDBRANCH  26  28
ENDBRANCH  24  26
ENDBRANCH  23  24
ENDBRANCH  22  23
ENDBRANCH  20  22
ENDBRANCH   1  20
BRANCH   2  31
HETATM   31  O1  UNL     1       0.093  53.234 -21.051  1.00  0.00    -0.393 OA
HETATM   32  H13 UNL     1       0.599  53.801 -21.660  1.00  0.00     0.210 HD
ENDBRANCH   2  31
BRANCH   3  33
HETATM   33  O2  UNL     1      -0.915  51.748 -19.292  1.00  0.00    -0.392 OA
HETATM   34  H15 UNL     1      -0.707  52.680 -19.534  1.00  0.00     0.210 HD
ENDBRANCH   3  33
BRANCH  19  35
HETATM   35  O5  UNL     1      -3.112  50.354 -19.432  1.00  0.00    -0.389 OA
HETATM   36  H41 UNL     1      -2.443  50.998 -19.101  1.00  0.00     0.210 HD
ENDBRANCH  19  35
BRANCH  17  37
HETATM   37  O4  UNL     1      -2.276  46.612 -17.707  1.00  0.00    -0.395 OA
HETATM   38  H38 UNL     1      -1.553  46.937 -17.142  1.00  0.00     0.210 HD
ENDBRANCH  17  37
BRANCH  14  39
HETATM   39  O3  UNL     1      -5.081  43.743 -18.589  1.00  0.00    -0.396 OA
HETATM   40  H33 UNL     1      -5.105  43.747 -17.616  1.00  0.00     0.210 HD
ENDBRANCH  14  39
TORSDOF 12
ENDMDL
MODEL 4
REMARK minimizedAffinity -9.58247566
REMARK CNNscore 0.60994792
REMARK CNNaffinity 6.80522919
REMARK  12 active torsions:
REMARK  status: ('A' for Active; 'I' for Inactive)
REMARK    1  A    between atoms: C2_2  and  C3_3 
REMARK    2  A    between atoms: C2_2  and  C26_31 
REMARK    3  A    between atoms: C3_3  and  C4_4 
REMARK    4  A    between atoms: C4_4  and  C5_5 
REMARK    5  A    between atoms: C5_5  and  C7_7 
REMARK    6  A    between atoms: C8_8  and  O1_9 
REMARK    7  A    between atoms: C9_10  and  O2_11 
REMARK    8  A    between atoms: C20_22  and  O3_23 
REMARK    9  A    between atoms: C23_26  and  O4_27 
REMARK   10  A    between atoms: C25_29  and  O5_30 
REMARK   11  A    between atoms: C26_31  and  C28_33 
REMARK   12  A    between atoms: C28_33  and  O6_34 
ROOT
HETATM    1  C7  UNL     1      -0.083  50.983 -20.694  1.00  0.00     0.029 C 
HETATM    2  C8  UNL     1      -0.386  51.619 -19.299  1.00  0.00     0.152 C 
HETATM    3  C9  UNL     1      -1.692  50.962 -18.786  1.00  0.00     0.155 C 
HETATM    4  C10 UNL     1      -2.077  49.948 -19.865  1.00  0.00     0.060 C 
HETATM    5  C11 UNL     1      -1.499  50.520 -21.190  1.00  0.00    -0.029 C 
HETATM    6  C12 UNL     1      -2.301  51.705 -21.779  1.00  0.00     0.016 C 
HETATM    7  C13 UNL     1      -1.474  49.364 -22.221  1.00  0.00     0.011 C 
HETATM    8  C14 UNL     1      -2.450  48.211 -21.914  1.00  0.00     0.009 C 
HETATM    9  C15 UNL     1      -3.784  48.667 -21.277  1.00  0.00     0.029 C 
HETATM   10  C16 UNL     1      -4.864  47.505 -21.183  1.00  0.00    -0.031 C 
HETATM   11  C17 UNL     1      -5.545  47.441 -22.587  1.00  0.00     0.016 C 
HETATM   12  C18 UNL     1      -4.250  46.106 -20.888  1.00  0.00     0.012 C 
HETATM   13  C19 UNL     1      -5.290  44.989 -20.775  1.00  0.00     0.032 C 
HETATM   14  C20 UNL     1      -6.396  45.303 -19.777  1.00  0.00     0.118 C 
HETATM   15  C21 UNL     1      -6.999  46.695 -19.981  1.00  0.00     0.039 C 
HETATM   16  C22 UNL     1      -5.950  47.822 -20.103  1.00  0.00     0.025 C 
HETATM   17  C23 UNL     1      -5.384  48.247 -18.720  1.00  0.00     0.126 C 
HETATM   18  C24 UNL     1      -3.919  48.670 -18.725  1.00  0.00     0.071 C 
HETATM   19  C25 UNL     1      -3.549  49.477 -19.963  1.00  0.00     0.071 C 
ENDROOT
BRANCH   1  20
HETATM   20  C5  UNL     1       0.803  51.868 -21.623  1.00  0.00    -0.011 C 
HETATM   21  C6  UNL     1       1.478  53.024 -20.874  1.00  0.00     0.010 C 
BRANCH  20  22
HETATM   22  C4  UNL     1      -0.053  52.442 -22.789  1.00  0.00     0.009 C 
BRANCH  22  23
HETATM   23  C3  UNL     1       0.733  52.614 -24.101  1.00  0.00     0.034 C 
BRANCH  23  24
HETATM   24  C2  UNL     1       0.179  51.919 -25.342  1.00  0.00    -0.083 C 
HETATM   25  C1  UNL     1      -1.008  51.281 -25.361  1.00  0.00     0.015 C 
BRANCH  24  26
HETATM   26  C26 UNL     1       1.085  52.040 -26.581  1.00  0.00     0.033 C 
HETATM   27  C27 UNL     1       0.464  51.533 -27.893  1.00  0.00     0.017 C 
BRANCH  26  28
HETATM   28  C28 UNL     1       2.470  51.391 -26.367  1.00  0.00     0.172 C 
BRANCH  28  29
HETATM   29  O6  UNL     1       3.333  51.537 -27.489  1.00  0.00    -0.400 OA
HETATM   30  H48 UNL     1       3.317  52.469 -27.763  1.00  0.00     0.209 HD
ENDBRANCH  28  29
ENDBRANCH  26  28
ENDBRANCH  24  26
ENDBRANCH  23  24
ENDBRANCH  22  23
ENDBRANCH  20  22
ENDBRANCH   1  20
BRANCH   2  31
HETATM   31  O1  UNL     1      -0.591  53.033 -19.344  1.00  0.00    -0.393 OA
HETATM   32  H13 UNL     1       0.268  53.461 -19.509  1.00  0.00     0.210 HD
ENDBRANCH   2  31
BRANCH   3  33
HETATM   33  O2  UNL     1      -2.717  51.934 -18.575  1.00  0.00    -0.392 OA
HETATM   34  H15 UNL     1      -2.266  52.798 -18.723  1.00  0.00     0.210 HD
ENDBRANCH   3  33
BRANCH  19  35
HETATM   35  O5  UNL     1      -4.442  50.598 -19.999  1.00  0.00    -0.389 OA
HETATM   36  H41 UNL     1      -4.076  51.275 -19.384  1.00  0.00     0.210 HD
ENDBRANCH  19  35
BRANCH  17  37
HETATM   37  O4  UNL     1      -5.528  47.231 -17.728  1.00  0.00    -0.395 OA
HETATM   38  H38 UNL     1      -5.324  47.638 -16.868  1.00  0.00     0.210 HD
ENDBRANCH  17  37
BRANCH  14  39
HETATM   39  O3  UNL     1      -7.424  44.322 -19.923  1.00  0.00    -0.396 OA
HETATM   40  H33 UNL     1      -8.087  44.511 -19.236  1.00  0.00     0.210 HD
ENDBRANCH  14  39
TORSDOF 12
ENDMDL
MODEL 5
REMARK minimizedAffinity -7.57743216
REMARK CNNscore 0.60904789
REMARK CNNaffinity 6.55059052
REMARK  12 active torsions:
REMARK  status: ('A' for Active; 'I' for Inactive)
REMARK    1  A    between atoms: C2_2  and  C3_3 
REMARK    2  A    between atoms: C2_2  and  C26_31 
REMARK    3  A    between atoms: C3_3  and  C4_4 
REMARK    4  A    between atoms: C4_4  and  C5_5 
REMARK    5  A    between atoms: C5_5  and  C7_7 
REMARK    6  A    between atoms: C8_8  and  O1_9 
REMARK    7  A    between atoms: C9_10  and  O2_11 
REMARK    8  A    between atoms: C20_22  and  O3_23 
REMARK    9  A    between atoms: C23_26  and  O4_27 
REMARK   10  A    between atoms: C25_29  and  O5_30 
REMARK   11  A    between atoms: C26_31  and  C28_33 
REMARK   12  A    between atoms: C28_33  and  O6_34 
ROOT
HETATM    1  C7  UNL     1      -4.556  49.769 -21.419  1.00  0.00     0.029 C 
HETATM    2  C8  UNL     1      -4.694  51.065 -22.281  1.00  0.00     0.152 C 
HETATM    3  C9  UNL     1      -5.783  50.777 -23.345  1.00  0.00     0.155 C 
HETATM    4  C10 UNL     1      -6.267  49.356 -23.043  1.00  0.00     0.060 C 
HETATM    5  C11 UNL     1      -5.051  48.639 -22.391  1.00  0.00    -0.029 C 
HETATM    6  C12 UNL     1      -3.940  48.230 -23.387  1.00  0.00     0.016 C 
HETATM    7  C13 UNL     1      -5.588  47.370 -21.683  1.00  0.00     0.011 C 
HETATM    8  C14 UNL     1      -6.942  46.863 -22.218  1.00  0.00     0.009 C 
HETATM    9  C15 UNL     1      -7.128  47.050 -23.743  1.00  0.00     0.029 C 
HETATM   10  C16 UNL     1      -8.418  46.317 -24.312  1.00  0.00    -0.031 C 
HETATM   11  C17 UNL     1      -7.998  44.830 -24.537  1.00  0.00     0.016 C 
HETATM   12  C18 UNL     1      -9.625  46.328 -23.331  1.00  0.00     0.012 C 
HETATM   13  C19 UNL     1     -10.875  45.642 -23.886  1.00  0.00     0.032 C 
HETATM   14  C20 UNL     1     -11.294  46.178 -25.248  1.00  0.00     0.118 C 
HETATM   15  C21 UNL     1     -10.130  46.247 -26.241  1.00  0.00     0.039 C 
HETATM   16  C22 UNL     1      -8.866  46.932 -25.679  1.00  0.00     0.025 C 
HETATM   17  C23 UNL     1      -8.988  48.481 -25.682  1.00  0.00     0.126 C 
HETATM   18  C24 UNL     1      -8.293  49.186 -24.524  1.00  0.00     0.071 C 
HETATM   19  C25 UNL     1      -6.959  48.544 -24.165  1.00  0.00     0.071 C 
ENDROOT
BRANCH   1  20
HETATM   20  C5  UNL     1      -3.177  49.617 -20.707  1.00  0.00    -0.011 C 
HETATM   21  C6  UNL     1      -3.218  48.627 -19.536  1.00  0.00     0.010 C 
BRANCH  20  22
HETATM   22  C4  UNL     1      -2.688  51.002 -20.192  1.00  0.00     0.009 C 
BRANCH  22  23
HETATM   23  C3  UNL     1      -1.180  51.044 -19.882  1.00  0.00     0.034 C 
BRANCH  23  24
HETATM   24  C2  UNL     1      -0.268  51.661 -20.939  1.00  0.00    -0.083 C 
HETATM   25  C1  UNL     1      -0.231  51.237 -22.218  1.00  0.00     0.015 C 
BRANCH  24  26
HETATM   26  C26 UNL     1       0.585  52.832 -20.420  1.00  0.00     0.033 C 
HETATM   27  C27 UNL     1       0.014  53.555 -19.187  1.00  0.00     0.017 C 
BRANCH  26  28
HETATM   28  C28 UNL     1       0.917  53.859 -21.526  1.00  0.00     0.172 C 
BRANCH  28  29
HETATM   29  O6  UNL     1       2.145  54.543 -21.300  1.00  0.00    -0.400 OA
HETATM   30  H48 UNL     1       2.824  53.880 -21.089  1.00  0.00     0.209 HD
ENDBRANCH  28  29
ENDBRANCH  26  28
ENDBRANCH  24  26
ENDBRANCH  23  24
ENDBRANCH  22  23
ENDBRANCH  20  22
ENDBRANCH   1  20
BRANCH   2  31
HETATM   31  O1  UNL     1      -3.494  51.431 -22.966  1.00  0.00    -0.393 OA
HETATM   32  H13 UNL     1      -2.858  51.766 -22.309  1.00  0.00     0.210 HD
ENDBRANCH   2  31
BRANCH   3  33
HETATM   33  O2  UNL     1      -5.262  50.894 -24.670  1.00  0.00    -0.392 OA
HETATM   34  H15 UNL     1      -4.347  51.237 -24.541  1.00  0.00     0.210 HD
ENDBRANCH   3  33
BRANCH  19  35
HETATM   35  O5  UNL     1      -6.170  48.552 -25.362  1.00  0.00    -0.389 OA
HETATM   36  H41 UNL     1      -5.776  49.452 -25.438  1.00  0.00     0.210 HD
ENDBRANCH  19  35
BRANCH  17  37
HETATM   37  O4  UNL     1     -10.344  48.928 -25.699  1.00  0.00    -0.395 OA
HETATM   38  H38 UNL     1     -10.328  49.883 -25.887  1.00  0.00     0.210 HD
ENDBRANCH  17  37
BRANCH  14  39
HETATM   39  O3  UNL     1     -12.309  45.322 -25.776  1.00  0.00    -0.396 OA
HETATM   40  H33 UNL     1     -12.599  45.719 -26.615  1.00  0.00     0.210 HD
ENDBRANCH  14  39
TORSDOF 12
ENDMDL
MODEL 6
REMARK minimizedAffinity -8.39479446
REMARK CNNscore 0.606806099
REMARK CNNaffinity 6.35366774
REMARK  12 active torsions:
REMARK  status: ('A' for Active; 'I' for Inactive)
REMARK    1  A    between atoms: C2_2  and  C3_3 
REMARK    2  A    between atoms: C2_2  and  C26_31 
REMARK    3  A    between atoms: C3_3  and  C4_4 
REMARK    4  A    between atoms: C4_4  and  C5_5 
REMARK    5  A    between atoms: C5_5  and  C7_7 
REMARK    6  A    between atoms: C8_8  and  O1_9 
REMARK    7  A    between atoms: C9_10  and  O2_11 
REMARK    8  A    between atoms: C20_22  and  O3_23 
REMARK    9  A    between atoms: C23_26  and  O4_27 
REMARK   10  A    between atoms: C25_29  and  O5_30 
REMARK   11  A    between atoms: C26_31  and  C28_33 
REMARK   12  A    between atoms: C28_33  and  O6_34 
ROOT
HETATM    1  C7  UNL     1      -1.678  51.554 -21.047  1.00  0.00     0.029 C 
HETATM    2  C8  UNL     1      -3.191  51.164 -20.985  1.00  0.00     0.152 C 
HETATM    3  C9  UNL     1      -3.485  50.758 -19.519  1.00  0.00     0.155 C 
HETATM    4  C10 UNL     1      -2.163  50.965 -18.776  1.00  0.00     0.060 C 
HETATM    5  C11 UNL     1      -1.055  50.756 -19.847  1.00  0.00    -0.029 C 
HETATM    6  C12 UNL     1      -0.804  49.278 -20.228  1.00  0.00     0.016 C 
HETATM    7  C13 UNL     1       0.254  51.362 -19.282  1.00  0.00     0.011 C 
HETATM    8  C14 UNL     1       0.290  51.489 -17.746  1.00  0.00     0.009 C 
HETATM    9  C15 UNL     1      -0.429  50.340 -17.000  1.00  0.00     0.029 C 
HETATM   10  C16 UNL     1      -0.186  50.360 -15.430  1.00  0.00    -0.031 C 
HETATM   11  C17 UNL     1       1.190  49.657 -15.204  1.00  0.00     0.016 C 
HETATM   12  C18 UNL     1      -0.092  51.793 -14.833  1.00  0.00     0.012 C 
HETATM   13  C19 UNL     1       0.121  51.816 -13.317  1.00  0.00     0.032 C 
HETATM   14  C20 UNL     1      -0.910  50.991 -12.559  1.00  0.00     0.118 C 
HETATM   15  C21 UNL     1      -1.089  49.586 -13.140  1.00  0.00     0.039 C 
HETATM   16  C22 UNL     1      -1.296  49.562 -14.671  1.00  0.00     0.025 C 
HETATM   17  C23 UNL     1      -2.750  49.937 -15.070  1.00  0.00     0.126 C 
HETATM   18  C24 UNL     1      -2.882  50.705 -16.381  1.00  0.00     0.071 C 
HETATM   19  C25 UNL     1      -1.919  50.205 -17.450  1.00  0.00     0.071 C 
ENDROOT
BRANCH   1  20
HETATM   20  C5  UNL     1      -1.042  51.429 -22.465  1.00  0.00    -0.011 C 
HETATM   21  C6  UNL     1       0.230  52.271 -22.621  1.00  0.00     0.010 C 
BRANCH  20  22
HETATM   22  C4  UNL     1      -2.073  51.849 -23.552  1.00  0.00     0.009 C 
BRANCH  22  23
HETATM   23  C3  UNL     1      -1.424  52.277 -24.881  1.00  0.00     0.034 C 
BRANCH  23  24
HETATM   24  C2  UNL     1      -1.244  51.200 -25.948  1.00  0.00    -0.083 C 
HETATM   25  C1  UNL     1      -0.038  50.730 -26.323  1.00  0.00     0.015 C 
BRANCH  24  26
HETATM   26  C26 UNL     1      -2.567  50.676 -26.534  1.00  0.00     0.033 C 
HETATM   27  C27 UNL     1      -2.716  49.145 -26.536  1.00  0.00     0.017 C 
BRANCH  26  28
HETATM   28  C28 UNL     1      -2.853  51.236 -27.945  1.00  0.00     0.172 C 
BRANCH  28  29
HETATM   29  O6  UNL     1      -3.565  50.324 -28.773  1.00  0.00    -0.400 OA
HETATM   30  H48 UNL     1      -4.323  49.986 -28.267  1.00  0.00     0.209 HD
ENDBRANCH  28  29
ENDBRANCH  26  28
ENDBRANCH  24  26
ENDBRANCH  23  24
ENDBRANCH  22  23
ENDBRANCH  20  22
ENDBRANCH   1  20
BRANCH   2  31
HETATM   31  O1  UNL     1      -3.534  50.059 -21.826  1.00  0.00    -0.393 OA
HETATM   32  H13 UNL     1      -3.504  50.360 -22.752  1.00  0.00     0.210 HD
ENDBRANCH   2  31
BRANCH   3  33
HETATM   33  O2  UNL     1      -3.941  49.407 -19.433  1.00  0.00    -0.392 OA
HETATM   34  H15 UNL     1      -4.043  49.126 -20.372  1.00  0.00     0.210 HD
ENDBRANCH   3  33
BRANCH  19  35
HETATM   35  O5  UNL     1      -2.181  48.804 -17.609  1.00  0.00    -0.389 OA
HETATM   36  H41 UNL     1      -2.964  48.725 -18.202  1.00  0.00     0.210 HD
ENDBRANCH  19  35
BRANCH  17  37
HETATM   37  O4  UNL     1      -3.422  50.695 -14.065  1.00  0.00    -0.395 OA
HETATM   38  H38 UNL     1      -4.364  50.724 -14.309  1.00  0.00     0.210 HD
ENDBRANCH  17  37
BRANCH  14  39
HETATM   39  O3  UNL     1      -0.486  50.883 -11.199  1.00  0.00    -0.396 OA
HETATM   40  H33 UNL     1      -1.189  50.404 -10.726  1.00  0.00     0.210 HD
ENDBRANCH  14  39
TORSDOF 12
ENDMDL
MODEL 7
REMARK minimizedAffinity -7.60925674
REMARK CNNscore 0.594172478
REMARK CNNaffinity 5.93760347
REMARK  12 active torsions:
REMARK  status: ('A' for Active; 'I' for Inactive)
REMARK    1  A    between atoms: C2_2  and  C3_3 
REMARK    2  A    between atoms: C2_2  and  C26_31 
REMARK    3  A    between atoms: C3_3  and  C4_4 
REMARK    4  A    between atoms: C4_4  and  C5_5 
REMARK    5  A    between atoms: C5_5  and  C7_7 
REMARK    6  A    between atoms: C8_8  and  O1_9 
REMARK    7  A    between atoms: C9_10  and  O2_11 
REMARK    8  A    between atoms: C20_22  and  O3_23 
REMARK    9  A    between atoms: C23_26  and  O4_27 
REMARK   10  A    between atoms: C25_29  and  O5_30 
REMARK   11  A    between atoms: C26_31  and  C28_33 
REMARK   12  A    between atoms: C28_33  and  O6_34 
ROOT
HETATM    1  C7  UNL     1      -6.715  48.935 -23.949  1.00  0.00     0.029 C 
HETATM    2  C8  UNL     1      -7.747  49.361 -22.855  1.00  0.00     0.152 C 
HETATM    3  C9  UNL     1      -6.926  49.811 -21.620  1.00  0.00     0.155 C 
HETATM    4  C10 UNL     1      -5.462  49.676 -22.047  1.00  0.00     0.060 C 
HETATM    5  C11 UNL     1      -5.448  48.540 -23.109  1.00  0.00    -0.029 C 
HETATM    6  C12 UNL     1      -5.586  47.115 -22.525  1.00  0.00     0.016 C 
HETATM    7  C13 UNL     1      -4.108  48.644 -23.880  1.00  0.00     0.011 C 
HETATM    8  C14 UNL     1      -2.989  49.384 -23.120  1.00  0.00     0.009 C 
HETATM    9  C15 UNL     1      -3.000  49.146 -21.591  1.00  0.00     0.029 C 
HETATM   10  C16 UNL     1      -1.713  49.720 -20.857  1.00  0.00    -0.031 C 
HETATM   11  C17 UNL     1      -0.605  48.633 -21.027  1.00  0.00     0.016 C 
HETATM   12  C18 UNL     1      -1.181  51.044 -21.477  1.00  0.00     0.012 C 
HETATM   13  C19 UNL     1       0.046  51.611 -20.759  1.00  0.00     0.032 C 
HETATM   14  C20 UNL     1      -0.165  51.775 -19.260  1.00  0.00     0.118 C 
HETATM   15  C21 UNL     1      -0.746  50.520 -18.602  1.00  0.00     0.039 C 
HETATM   16  C22 UNL     1      -1.979  49.943 -19.332  1.00  0.00     0.025 C 
HETATM   17  C23 UNL     1      -3.274  50.737 -19.010  1.00  0.00     0.126 C 
HETATM   18  C24 UNL     1      -4.275  50.833 -20.156  1.00  0.00     0.071 C 
HETATM   19  C25 UNL     1      -4.371  49.541 -20.957  1.00  0.00     0.071 C 
ENDROOT
BRANCH   1  20
HETATM   20  C5  UNL     1      -7.277  47.935 -25.005  1.00  0.00    -0.011 C 
HETATM   21  C6  UNL     1      -6.316  47.707 -26.177  1.00  0.00     0.010 C 
BRANCH  20  22
HETATM   22  C4  UNL     1      -8.641  48.447 -25.552  1.00  0.00     0.009 C 
BRANCH  22  23
HETATM   23  C3  UNL     1      -9.665  47.325 -25.797  1.00  0.00     0.034 C 
BRANCH  23  24
HETATM   24  C2  UNL     1     -10.235  47.195 -27.208  1.00  0.00    -0.083 C 
HETATM   25  C1  UNL     1      -9.551  47.549 -28.313  1.00  0.00     0.015 C 
BRANCH  24  26
HETATM   26  C26 UNL     1     -11.651  46.594 -27.255  1.00  0.00     0.033 C 
HETATM   27  C27 UNL     1     -11.828  45.425 -28.239  1.00  0.00     0.017 C 
BRANCH  26  28
HETATM   28  C28 UNL     1     -12.740  47.662 -27.503  1.00  0.00     0.172 C 
BRANCH  28  29
HETATM   29  O6  UNL     1     -12.328  48.974 -27.136  1.00  0.00    -0.400 OA
HETATM   30  H48 UNL     1     -11.452  49.134 -27.525  1.00  0.00     0.209 HD
ENDBRANCH  28  29
ENDBRANCH  26  28
ENDBRANCH  24  26
ENDBRANCH  23  24
ENDBRANCH  22  23
ENDBRANCH  20  22
ENDBRANCH   1  20
BRANCH   2  31
HETATM   31  O1  UNL     1      -8.618  48.304 -22.444  1.00  0.00    -0.393 OA
HETATM   32  H13 UNL     1      -9.245  48.128 -23.168  1.00  0.00     0.210 HD
ENDBRANCH   2  31
BRANCH   3  33
HETATM   33  O2  UNL     1      -7.225  49.012 -20.475  1.00  0.00    -0.392 OA
HETATM   34  H15 UNL     1      -7.972  48.440 -20.767  1.00  0.00     0.210 HD
ENDBRANCH   3  33
BRANCH  19  35
HETATM   35  O5  UNL     1      -4.710  48.508 -20.021  1.00  0.00    -0.389 OA
HETATM   36  H41 UNL     1      -5.684  48.556 -19.882  1.00  0.00     0.210 HD
ENDBRANCH  19  35
BRANCH  17  37
HETATM   37  O4  UNL     1      -3.011  52.068 -18.564  1.00  0.00    -0.395 OA
HETATM   38  H38 UNL     1      -3.846  52.423 -18.213  1.00  0.00     0.210 HD
ENDBRANCH  17  37
BRANCH  14  39
HETATM   39  O3  UNL     1       1.095  52.077 -18.659  1.00  0.00    -0.396 OA
HETATM   40  H33 UNL     1       0.922  52.234 -17.715  1.00  0.00     0.210 HD
ENDBRANCH  14  39
TORSDOF 12
ENDMDL
MODEL 8
REMARK minimizedAffinity -7.48884726
REMARK CNNscore 0.590117931
REMARK CNNaffinity 6.22388029
REMARK  12 active torsions:
REMARK  status: ('A' for Active; 'I' for Inactive)
REMARK    1  A    between atoms: C2_2  and  C3_3 
REMARK    2  A    between atoms: C2_2  and  C26_31 
REMARK    3  A    between atoms: C3_3  and  C4_4 
REMARK    4  A    between atoms: C4_4  and  C5_5 
REMARK    5  A    between atoms: C5_5  and  C7_7 
REMARK    6  A    between atoms: C8_8  and  O1_9 
REMARK    7  A    between atoms: C9_10  and  O2_11 
REMARK    8  A    between atoms: C20_22  and  O3_23 
REMARK    9  A    between atoms: C23_26  and  O4_27 
REMARK   10  A    between atoms: C25_29  and  O5_30 
REMARK   11  A    between atoms: C26_31  and  C28_33 
REMARK   12  A    between atoms: C28_33  and  O6_34 
ROOT
HETATM    1  C7  UNL     1      -7.262  47.790 -22.610  1.00  0.00     0.029 C 
HETATM    2  C8  UNL     1      -8.108  48.404 -21.449  1.00  0.00     0.152 C 
HETATM    3  C9  UNL     1      -7.116  49.154 -20.525  1.00  0.00     0.155 C 
HETATM    4  C10 UNL     1      -5.750  48.992 -21.195  1.00  0.00     0.060 C 
HETATM    5  C11 UNL     1      -5.833  47.650 -21.975  1.00  0.00    -0.029 C 
HETATM    6  C12 UNL     1      -5.736  46.387 -21.088  1.00  0.00     0.016 C 
HETATM    7  C13 UNL     1      -4.671  47.638 -23.000  1.00  0.00     0.011 C 
HETATM    8  C14 UNL     1      -3.500  48.578 -22.651  1.00  0.00     0.009 C 
HETATM    9  C15 UNL     1      -3.209  48.687 -21.135  1.00  0.00     0.029 C 
HETATM   10  C16 UNL     1      -1.864  49.468 -20.809  1.00  0.00    -0.031 C 
HETATM   11  C17 UNL     1      -0.716  48.421 -20.962  1.00  0.00     0.016 C 
HETATM   12  C18 UNL     1      -1.572  50.642 -21.787  1.00  0.00     0.012 C 
HETATM   13  C19 UNL     1      -0.288  51.409 -21.462  1.00  0.00     0.032 C 
HETATM   14  C20 UNL     1      -0.234  51.894 -20.020  1.00  0.00     0.118 C 
HETATM   15  C21 UNL     1      -0.572  50.794 -19.011  1.00  0.00     0.039 C 
HETATM   16  C22 UNL     1      -1.864  50.014 -19.343  1.00  0.00     0.025 C 
HETATM   17  C23 UNL     1      -3.142  50.802 -18.945  1.00  0.00     0.126 C 
HETATM   18  C24 UNL     1      -4.340  50.595 -19.864  1.00  0.00     0.071 C 
HETATM   19  C25 UNL     1      -4.469  49.153 -20.339  1.00  0.00     0.071 C 
ENDROOT
BRANCH   1  20
HETATM   20  C5  UNL     1      -7.920  46.555 -23.299  1.00  0.00    -0.011 C 
HETATM   21  C6  UNL     1      -7.603  45.237 -22.582  1.00  0.00     0.010 C 
BRANCH  20  22
HETATM   22  C4  UNL     1      -7.454  46.459 -24.781  1.00  0.00     0.009 C 
BRANCH  22  23
HETATM   23  C3  UNL     1      -7.422  47.818 -25.504  1.00  0.00     0.034 C 
BRANCH  23  24
HETATM   24  C2  UNL     1      -7.218  47.798 -27.017  1.00  0.00    -0.083 C 
HETATM   25  C1  UNL     1      -8.229  47.929 -27.897  1.00  0.00     0.015 C 
BRANCH  24  26
HETATM   26  C26 UNL     1      -5.748  47.649 -27.445  1.00  0.00     0.033 C 
HETATM   27  C27 UNL     1      -4.734  48.395 -26.561  1.00  0.00     0.017 C 
BRANCH  26  28
HETATM   28  C28 UNL     1      -5.523  48.014 -28.929  1.00  0.00     0.172 C 
BRANCH  28  29
HETATM   29  O6  UNL     1      -4.601  49.084 -29.107  1.00  0.00    -0.400 OA
HETATM   30  H48 UNL     1      -3.813  48.895 -28.571  1.00  0.00     0.209 HD
ENDBRANCH  28  29
ENDBRANCH  26  28
ENDBRANCH  24  26
ENDBRANCH  23  24
ENDBRANCH  22  23
ENDBRANCH  20  22
ENDBRANCH   1  20
BRANCH   2  31
HETATM   31  O1  UNL     1      -8.794  47.428 -20.659  1.00  0.00    -0.393 OA
HETATM   32  H13 UNL     1      -9.526  47.066 -21.190  1.00  0.00     0.210 HD
ENDBRANCH   2  31
BRANCH   3  33
HETATM   33  O2  UNL     1      -7.130  48.620 -19.200  1.00  0.00    -0.392 OA
HETATM   34  H15 UNL     1      -7.865  47.964 -19.211  1.00  0.00     0.210 HD
ENDBRANCH   3  33
BRANCH  19  35
HETATM   35  O5  UNL     1      -4.539  48.342 -19.158  1.00  0.00    -0.389 OA
HETATM   36  H41 UNL     1      -5.472  48.377 -18.843  1.00  0.00     0.210 HD
ENDBRANCH  19  35
BRANCH  17  37
HETATM   37  O4  UNL     1      -2.918  52.209 -18.852  1.00  0.00    -0.395 OA
HETATM   38  H38 UNL     1      -3.702  52.597 -18.425  1.00  0.00     0.210 HD
ENDBRANCH  17  37
BRANCH  14  39
HETATM   39  O3  UNL     1       1.085  52.379 -19.759  1.00  0.00    -0.396 OA
HETATM   40  H33 UNL     1       1.075  52.736 -18.854  1.00  0.00     0.210 HD
ENDBRANCH  14  39
TORSDOF 12
ENDMDL
MODEL 9
REMARK minimizedAffinity -8.26071453
REMARK CNNscore 0.587718129
REMARK CNNaffinity 6.63866043
REMARK  12 active torsions:
REMARK  status: ('A' for Active; 'I' for Inactive)
REMARK    1  A    between atoms: C2_2  and  C3_3 
REMARK    2  A    between atoms: C2_2  and  C26_31 
REMARK    3  A    between atoms: C3_3  and  C4_4 
REMARK    4  A    between atoms: C4_4  and  C5_5 
REMARK    5  A    between atoms: C5_5  and  C7_7 
REMARK    6  A    between atoms: C8_8  and  O1_9 
REMARK    7  A    between atoms: C9_10  and  O2_11 
REMARK    8  A    between atoms: C20_22  and  O3_23 
REMARK    9  A    between atoms: C23_26  and  O4_27 
REMARK   10  A    between atoms: C25_29  and  O5_30 
REMARK   11  A    between atoms: C26_31  and  C28_33 
REMARK   12  A    between atoms: C28_33  and  O6_34 
ROOT
HETATM    1  C7  UNL     1      -4.499  47.895 -21.892  1.00  0.00     0.029 C 
HETATM    2  C8  UNL     1      -5.671  47.572 -22.875  1.00  0.00     0.152 C 
HETATM    3  C9  UNL     1      -5.377  48.347 -24.185  1.00  0.00     0.155 C 
HETATM    4  C10 UNL     1      -4.040  49.049 -23.939  1.00  0.00     0.060 C 
HETATM    5  C11 UNL     1      -3.977  49.284 -22.404  1.00  0.00    -0.029 C 
HETATM    6  C12 UNL     1      -4.870  50.441 -21.895  1.00  0.00     0.016 C 
HETATM    7  C13 UNL     1      -2.501  49.589 -22.042  1.00  0.00     0.011 C 
HETATM    8  C14 UNL     1      -1.648  50.104 -23.219  1.00  0.00     0.009 C 
HETATM    9  C15 UNL     1      -2.418  51.011 -24.207  1.00  0.00     0.029 C 
HETATM   10  C16 UNL     1      -1.477  51.717 -25.275  1.00  0.00    -0.031 C 
HETATM   11  C17 UNL     1      -0.893  52.977 -24.561  1.00  0.00     0.016 C 
HETATM   12  C18 UNL     1      -0.282  50.833 -25.733  1.00  0.00     0.012 C 
HETATM   13  C19 UNL     1       0.615  51.503 -26.778  1.00  0.00     0.032 C 
HETATM   14  C20 UNL     1      -0.159  52.016 -27.985  1.00  0.00     0.118 C 
HETATM   15  C21 UNL     1      -1.385  52.846 -27.594  1.00  0.00     0.039 C 
HETATM   16  C22 UNL     1      -2.285  52.174 -26.534  1.00  0.00     0.025 C 
HETATM   17  C23 UNL     1      -3.197  51.078 -27.150  1.00  0.00     0.126 C 
HETATM   18  C24 UNL     1      -3.476  49.885 -26.243  1.00  0.00     0.071 C 
HETATM   19  C25 UNL     1      -3.676  50.291 -24.789  1.00  0.00     0.071 C 
ENDROOT
BRANCH   1  20
HETATM   20  C5  UNL     1      -4.861  47.719 -20.385  1.00  0.00    -0.011 C 
HETATM   21  C6  UNL     1      -4.870  49.047 -19.618  1.00  0.00     0.010 C 
BRANCH  20  22
HETATM   22  C4  UNL     1      -3.860  46.741 -19.706  1.00  0.00     0.009 C 
BRANCH  22  23
HETATM   23  C3  UNL     1      -4.510  45.835 -18.644  1.00  0.00     0.034 C 
BRANCH  23  24
HETATM   24  C2  UNL     1      -3.607  45.300 -17.536  1.00  0.00    -0.083 C 
HETATM   25  C1  UNL     1      -2.963  46.097 -16.662  1.00  0.00     0.015 C 
BRANCH  24  26
HETATM   26  C26 UNL     1      -3.524  43.764 -17.488  1.00  0.00     0.033 C 
HETATM   27  C27 UNL     1      -2.196  43.201 -16.952  1.00  0.00     0.017 C 
BRANCH  26  28
HETATM   28  C28 UNL     1      -3.864  43.109 -18.846  1.00  0.00     0.172 C 
BRANCH  28  29
HETATM   29  O6  UNL     1      -2.988  42.041 -19.185  1.00  0.00    -0.400 OA
HETATM   30  H48 UNL     1      -2.916  41.454 -18.414  1.00  0.00     0.209 HD
ENDBRANCH  28  29
ENDBRANCH  26  28
ENDBRANCH  24  26
ENDBRANCH  23  24
ENDBRANCH  22  23
ENDBRANCH  20  22
ENDBRANCH   1  20
BRANCH   2  31
HETATM   31  O1  UNL     1      -6.953  47.986 -22.396  1.00  0.00    -0.393 OA
HETATM   32  H13 UNL     1      -7.213  47.392 -21.670  1.00  0.00     0.210 HD
ENDBRANCH   2  31
BRANCH   3  33
HETATM   33  O2  UNL     1      -6.420  49.273 -24.489  1.00  0.00    -0.392 OA
HETATM   34  H15 UNL     1      -7.113  49.088 -23.813  1.00  0.00     0.210 HD
ENDBRANCH   3  33
BRANCH  19  35
HETATM   35  O5  UNL     1      -4.745  51.247 -24.779  1.00  0.00    -0.389 OA
HETATM   36  H41 UNL     1      -5.586  50.736 -24.806  1.00  0.00     0.210 HD
ENDBRANCH  19  35
BRANCH  17  37
HETATM   37  O4  UNL     1      -2.689  50.564 -28.382  1.00  0.00    -0.395 OA
HETATM   38  H38 UNL     1      -3.398  50.032 -28.785  1.00  0.00     0.210 HD
ENDBRANCH  17  37
BRANCH  14  39
HETATM   39  O3  UNL     1       0.720  52.822 -28.772  1.00  0.00    -0.396 OA
HETATM   40  H33 UNL     1       0.219  53.087 -29.563  1.00  0.00     0.210 HD
ENDBRANCH  14  39
TORSDOF 12
ENDMDL
