MODEL 1
REMARK minimizedAffinity -8.79471588
REMARK CNNscore 0.689532101
REMARK CNNaffinity 8.02147388
REMARK  12 active torsions:
REMARK  status: ('A' for Active; 'I' for Inactive)
REMARK    1  A    between atoms: C3_3  and  C4_4 
REMARK    2  A    between atoms: C4_4  and  C5_5 
REMARK    3  A    between atoms: C4_4  and  N3_26 
REMARK       I    between atoms: C5_5  and  N1_7 
REMARK    4  A    between atoms: N1_7  and  C6_8 
REMARK    5  A    between atoms: C6_8  and  C7_9 
REMARK    6  A    between atoms: C6_8  and  C15_19 
REMARK    7  A    between atoms: C8_10  and  C9_11 
REMARK    8  A    between atoms: C9_11  and  O3_13 
REMARK    9  A    between atoms: O3_13  and  C10_14 
REMARK   10  A    between atoms: C15_19  and  C16_20 
REMARK   11  A    between atoms: C23_30  and  N4_31 
REMARK       I    between atoms: N4_31  and  C24_32 
REMARK   12  A    between atoms: C24_32  and  C25_34 
ROOT
HETATM    1  C1  UNL     1       2.846  51.776 -27.392  1.00  0.00     0.012 C 
HETATM    2  C2  UNL     1       1.711  51.390 -27.328  1.00  0.00    -0.115 C 
HETATM    3  C3  UNL     1       0.311  50.936 -27.250  1.00  0.00     0.128 C 
ENDROOT
BRANCH   3   4
HETATM    4  C4  UNL     1      -0.688  52.098 -27.046  1.00  0.00     0.195 C 
BRANCH   4   5
HETATM    5  C5  UNL     1      -2.113  51.546 -26.781  1.00  0.00     0.242 C 
HETATM    6  O1  UNL     1      -3.085  52.286 -26.643  1.00  0.00    -0.271 OA
HETATM    7  N1  UNL     1      -2.241  50.172 -26.779  1.00  0.00    -0.351 N 
HETATM    8  H5  UNL     1      -1.387  49.632 -26.730  1.00  0.00     0.163 HD
BRANCH   7   9
HETATM    9  C6  UNL     1      -3.494  49.495 -26.497  1.00  0.00     0.108 C 
BRANCH   9  10
HETATM   10  C7  UNL     1      -3.305  48.835 -25.154  1.00  0.00     0.004 C 
HETATM   11  C8  UNL     1      -2.658  49.414 -24.128  1.00  0.00     0.080 C 
BRANCH  11  12
HETATM   12  C9  UNL     1      -2.531  48.817 -22.782  1.00  0.00     0.283 C 
HETATM   13  O2  UNL     1      -1.492  48.857 -22.143  1.00  0.00    -0.260 OA
BRANCH  12  14
HETATM   14  O3  UNL     1      -3.713  48.295 -22.368  1.00  0.00    -0.313 OA
BRANCH  14  15
HETATM   15  C10 UNL     1      -4.447  49.092 -21.437  1.00  0.00     0.132 C 
HETATM   16  C11 UNL     1      -4.347  50.574 -21.775  1.00  0.00     0.032 C 
HETATM   17  C12 UNL     1      -4.600  51.245 -20.437  1.00  0.00     0.002 C 
HETATM   18  C13 UNL     1      -3.836  50.376 -19.445  1.00  0.00     0.002 C 
HETATM   19  C14 UNL     1      -3.814  48.972 -20.048  1.00  0.00     0.032 C 
ENDBRANCH  14  15
ENDBRANCH  12  14
ENDBRANCH  11  12
ENDBRANCH   9  10
BRANCH   9  20
HETATM   20  C15 UNL     1      -3.824  48.420 -27.559  1.00  0.00     0.043 C 
BRANCH  20  21
HETATM   21  C16 UNL     1      -5.279  48.330 -28.023  1.00  0.00     0.081 C 
HETATM   22  C17 UNL     1      -6.242  47.485 -27.191  1.00  0.00     0.034 C 
HETATM   23  C18 UNL     1      -7.302  47.051 -28.193  1.00  0.00     0.123 C 
HETATM   24  N2  UNL     1      -6.622  47.064 -29.450  1.00  0.00    -0.361 N 
HETATM   25  C19 UNL     1      -5.431  47.752 -29.414  1.00  0.00     0.222 C 
HETATM   26  H25 UNL     1      -6.920  46.576 -30.287  1.00  0.00     0.162 HD
HETATM   27  O4  UNL     1      -4.666  47.899 -30.350  1.00  0.00    -0.273 OA
ENDBRANCH  20  21
ENDBRANCH   9  20
ENDBRANCH   7   9
ENDBRANCH   4   5
BRANCH   4  28
HETATM   28  N3  UNL     1      -0.238  53.066 -26.004  1.00  0.00    -0.308 N 
HETATM   29  C20 UNL     1       0.073  54.379 -26.335  1.00  0.00     0.095 A 
HETATM   30  C21 UNL     1       0.474  55.252 -25.406  1.00  0.00     0.020 A 
HETATM   31  C22 UNL     1       0.569  54.855 -24.024  1.00  0.00     0.037 A 
HETATM   32  C23 UNL     1       0.292  53.602 -23.635  1.00  0.00     0.104 A 
HETATM   33  C29 UNL     1      -0.119  52.596 -24.692  1.00  0.00     0.275 A 
HETATM   34  O7  UNL     1      -0.328  51.433 -24.353  1.00  0.00    -0.265 OA
BRANCH  32  35
HETATM   35  N4  UNL     1       0.325  53.118 -22.346  1.00  0.00    -0.317 N 
HETATM   36  C24 UNL     1       1.085  53.542 -21.271  1.00  0.00     0.274 C 
HETATM   37  O5  UNL     1       1.941  54.421 -21.308  1.00  0.00    -0.266 OA
HETATM   38  H29 UNL     1      -0.336  52.361 -22.149  1.00  0.00     0.169 HD
BRANCH  36  39
HETATM   39  C25 UNL     1       0.790  52.817 -20.030  1.00  0.00     0.125 A 
HETATM   40  C26 UNL     1       0.010  51.641 -19.882  1.00  0.00     0.071 A 
HETATM   41  C27 UNL     1       0.032  51.380 -18.534  1.00  0.00     0.075 A 
HETATM   42  C28 UNL     1      -0.583  50.349 -17.679  1.00  0.00     0.079 C 
HETATM   43  O6  UNL     1       0.780  52.325 -17.907  1.00  0.00    -0.242 OA
HETATM   44  N5  UNL     1       1.260  53.229 -18.839  1.00  0.00    -0.256 N 
ATOM     45  H5  UNL     1       1.849  54.041 -18.659  1.00  0.00     0.195 HD
ENDBRANCH  36  39
ENDBRANCH  32  35
ENDBRANCH   4  28
ENDBRANCH   3   4
TORSDOF 12
ENDMDL
MODEL 2
REMARK minimizedAffinity -8.01508141
REMARK CNNscore 0.624562204
REMARK CNNaffinity 7.76738024
REMARK  12 active torsions:
REMARK  status: ('A' for Active; 'I' for Inactive)
REMARK    1  A    between atoms: C3_3  and  C4_4 
REMARK    2  A    between atoms: C4_4  and  C5_5 
REMARK    3  A    between atoms: C4_4  and  N3_26 
REMARK       I    between atoms: C5_5  and  N1_7 
REMARK    4  A    between atoms: N1_7  and  C6_8 
REMARK    5  A    between atoms: C6_8  and  C7_9 
REMARK    6  A    between atoms: C6_8  and  C15_19 
REMARK    7  A    between atoms: C8_10  and  C9_11 
REMARK    8  A    between atoms: C9_11  and  O3_13 
REMARK    9  A    between atoms: O3_13  and  C10_14 
REMARK   10  A    between atoms: C15_19  and  C16_20 
REMARK   11  A    between atoms: C23_30  and  N4_31 
REMARK       I    between atoms: N4_31  and  C24_32 
REMARK   12  A    between atoms: C24_32  and  C25_34 
ROOT
HETATM    1  C1  UNL     1       2.043  51.670 -27.784  1.00  0.00     0.012 C 
HETATM    2  C2  UNL     1       1.054  51.199 -27.295  1.00  0.00    -0.115 C 
HETATM    3  C3  UNL     1      -0.169  50.640 -26.691  1.00  0.00     0.128 C 
ENDROOT
BRANCH   3   4
HETATM    4  C4  UNL     1      -1.099  51.724 -26.100  1.00  0.00     0.195 C 
BRANCH   4   5
HETATM    5  C5  UNL     1      -2.383  51.077 -25.518  1.00  0.00     0.242 C 
HETATM    6  O1  UNL     1      -3.400  51.730 -25.293  1.00  0.00    -0.271 OA
HETATM    7  N1  UNL     1      -2.343  49.710 -25.333  1.00  0.00    -0.351 N 
HETATM    8  H5  UNL     1      -1.435  49.268 -25.377  1.00  0.00     0.163 HD
BRANCH   7   9
HETATM    9  C6  UNL     1      -3.441  48.959 -24.751  1.00  0.00     0.108 C 
BRANCH   9  10
HETATM   10  C7  UNL     1      -4.348  48.608 -25.903  1.00  0.00     0.004 C 
HETATM   11  C8  UNL     1      -5.557  48.041 -25.750  1.00  0.00     0.080 C 
BRANCH  11  12
HETATM   12  C9  UNL     1      -6.492  47.762 -26.860  1.00  0.00     0.283 C 
HETATM   13  O2  UNL     1      -6.147  47.795 -28.031  1.00  0.00    -0.260 OA
BRANCH  12  14
HETATM   14  O3  UNL     1      -7.718  47.422 -26.389  1.00  0.00    -0.313 OA
BRANCH  14  15
HETATM   15  C10 UNL     1      -7.976  46.021 -26.295  1.00  0.00     0.132 C 
HETATM   16  C11 UNL     1      -7.584  45.296 -27.576  1.00  0.00     0.032 C 
HETATM   17  C12 UNL     1      -8.459  44.056 -27.547  1.00  0.00     0.002 C 
HETATM   18  C13 UNL     1      -9.802  44.572 -27.042  1.00  0.00     0.002 C 
HETATM   19  C14 UNL     1      -9.483  45.784 -26.166  1.00  0.00     0.032 C 
ENDBRANCH  14  15
ENDBRANCH  12  14
ENDBRANCH  11  12
ENDBRANCH   9  10
BRANCH   9  20
HETATM   20  C15 UNL     1      -4.227  49.793 -23.711  1.00  0.00     0.043 C 
BRANCH  20  21
HETATM   21  C16 UNL     1      -4.236  49.274 -22.272  1.00  0.00     0.081 C 
HETATM   22  C17 UNL     1      -5.558  48.755 -21.709  1.00  0.00     0.034 C 
HETATM   23  C18 UNL     1      -5.422  48.970 -20.209  1.00  0.00     0.123 C 
HETATM   24  N2  UNL     1      -4.505  50.061 -20.093  1.00  0.00    -0.361 N 
HETATM   25  C19 UNL     1      -3.816  50.314 -21.256  1.00  0.00     0.222 C 
HETATM   26  H25 UNL     1      -4.393  50.652 -19.277  1.00  0.00     0.162 HD
HETATM   27  O4  UNL     1      -2.988  51.192 -21.414  1.00  0.00    -0.273 OA
ENDBRANCH  20  21
ENDBRANCH   9  20
ENDBRANCH   7   9
ENDBRANCH   4   5
BRANCH   4  28
HETATM   28  N3  UNL     1      -0.402  52.609 -25.123  1.00  0.00    -0.308 N 
HETATM   29  C20 UNL     1       0.125  53.833 -25.516  1.00  0.00     0.095 A 
HETATM   30  C21 UNL     1       0.749  54.631 -24.644  1.00  0.00     0.020 A 
HETATM   31  C22 UNL     1       0.867  54.249 -23.259  1.00  0.00     0.037 A 
HETATM   32  C23 UNL     1       0.389  53.079 -22.813  1.00  0.00     0.104 A 
HETATM   33  C29 UNL     1      -0.279  52.150 -23.807  1.00  0.00     0.275 A 
HETATM   34  O7  UNL     1      -0.677  51.053 -23.417  1.00  0.00    -0.265 OA
BRANCH  32  35
HETATM   35  N4  UNL     1       0.424  52.622 -21.514  1.00  0.00    -0.317 N 
HETATM   36  C24 UNL     1       0.847  53.271 -20.368  1.00  0.00     0.274 C 
HETATM   37  O5  UNL     1       1.343  54.393 -20.330  1.00  0.00    -0.266 OA
HETATM   38  H29 UNL     1       0.047  51.680 -21.374  1.00  0.00     0.169 HD
BRANCH  36  39
HETATM   39  C25 UNL     1       0.666  52.475 -19.150  1.00  0.00     0.125 A 
HETATM   40  C26 UNL     1      -0.059  51.263 -19.010  1.00  0.00     0.071 A 
HETATM   41  C27 UNL     1       0.067  50.936 -17.683  1.00  0.00     0.075 A 
HETATM   42  C28 UNL     1      -0.448  49.842 -16.842  1.00  0.00     0.079 C 
HETATM   43  O6  UNL     1       0.825  51.877 -17.060  1.00  0.00    -0.242 OA
HETATM   44  N5  UNL     1       1.205  52.844 -17.974  1.00  0.00    -0.256 N 
ATOM     45  H5  UNL     1       1.777  53.669 -17.793  1.00  0.00     0.195 HD
ENDBRANCH  36  39
ENDBRANCH  32  35
ENDBRANCH   4  28
ENDBRANCH   3   4
TORSDOF 12
ENDMDL
MODEL 3
REMARK minimizedAffinity -8.65396786
REMARK CNNscore 0.562076032
REMARK CNNaffinity 7.79624176
REMARK  12 active torsions:
REMARK  status: ('A' for Active; 'I' for Inactive)
REMARK    1  A    between atoms: C3_3  and  C4_4 
REMARK    2  A    between atoms: C4_4  and  C5_5 
REMARK    3  A    between atoms: C4_4  and  N3_26 
REMARK       I    between atoms: C5_5  and  N1_7 
REMARK    4  A    between atoms: N1_7  and  C6_8 
REMARK    5  A    between atoms: C6_8  and  C7_9 
REMARK    6  A    between atoms: C6_8  and  C15_19 
REMARK    7  A    between atoms: C8_10  and  C9_11 
REMARK    8  A    between atoms: C9_11  and  O3_13 
REMARK    9  A    between atoms: O3_13  and  C10_14 
REMARK   10  A    between atoms: C15_19  and  C16_20 
REMARK   11  A    between atoms: C23_30  and  N4_31 
REMARK       I    between atoms: N4_31  and  C24_32 
REMARK   12  A    between atoms: C24_32  and  C25_34 
ROOT
HETATM    1  C1  UNL     1       2.929  51.867 -27.390  1.00  0.00     0.012 C 
HETATM    2  C2  UNL     1       1.858  51.328 -27.360  1.00  0.00    -0.115 C 
HETATM    3  C3  UNL     1       0.532  50.684 -27.323  1.00  0.00     0.128 C 
ENDROOT
BRANCH   3   4
HETATM    4  C4  UNL     1      -0.610  51.676 -27.006  1.00  0.00     0.195 C 
BRANCH   4   5
HETATM    5  C5  UNL     1      -1.922  50.909 -26.694  1.00  0.00     0.242 C 
HETATM    6  O1  UNL     1      -3.030  51.414 -26.862  1.00  0.00    -0.271 OA
HETATM    7  N1  UNL     1      -1.775  49.601 -26.281  1.00  0.00    -0.351 N 
HETATM    8  H5  UNL     1      -0.847  49.308 -26.005  1.00  0.00     0.163 HD
BRANCH   7   9
HETATM    9  C6  UNL     1      -2.898  48.762 -25.901  1.00  0.00     0.108 C 
BRANCH   9  10
HETATM   10  C7  UNL     1      -3.957  49.004 -26.946  1.00  0.00     0.004 C 
HETATM   11  C8  UNL     1      -4.236  48.136 -27.934  1.00  0.00     0.080 C 
BRANCH  11  12
HETATM   12  C9  UNL     1      -5.321  48.318 -28.920  1.00  0.00     0.283 C 
HETATM   13  O2  UNL     1      -6.501  48.237 -28.618  1.00  0.00    -0.260 OA
BRANCH  12  14
HETATM   14  O3  UNL     1      -4.821  48.633 -30.141  1.00  0.00    -0.313 OA
BRANCH  14  15
HETATM   15  C10 UNL     1      -5.312  47.849 -31.229  1.00  0.00     0.132 C 
HETATM   16  C11 UNL     1      -4.803  46.415 -31.155  1.00  0.00     0.032 C 
HETATM   17  C12 UNL     1      -4.869  45.955 -32.600  1.00  0.00     0.002 C 
HETATM   18  C13 UNL     1      -4.384  47.166 -33.389  1.00  0.00     0.002 C 
HETATM   19  C14 UNL     1      -4.748  48.389 -32.546  1.00  0.00     0.032 C 
ENDBRANCH  14  15
ENDBRANCH  12  14
ENDBRANCH  11  12
ENDBRANCH   9  10
BRANCH   9  20
HETATM   20  C15 UNL     1      -3.454  49.136 -24.506  1.00  0.00     0.043 C 
BRANCH  20  21
HETATM   21  C16 UNL     1      -4.322  50.393 -24.423  1.00  0.00     0.081 C 
HETATM   22  C17 UNL     1      -3.814  51.556 -23.572  1.00  0.00     0.034 C 
HETATM   23  C18 UNL     1      -5.085  52.278 -23.149  1.00  0.00     0.123 C 
HETATM   24  N2  UNL     1      -6.090  51.262 -23.172  1.00  0.00    -0.361 N 
HETATM   25  C19 UNL     1      -5.702  50.134 -23.857  1.00  0.00     0.222 C 
HETATM   26  H25 UNL     1      -6.982  51.303 -22.691  1.00  0.00     0.162 HD
HETATM   27  O4  UNL     1      -6.375  49.130 -24.012  1.00  0.00    -0.273 OA
ENDBRANCH  20  21
ENDBRANCH   9  20
ENDBRANCH   7   9
ENDBRANCH   4   5
BRANCH   4  28
HETATM   28  N3  UNL     1      -0.243  52.656 -25.944  1.00  0.00    -0.308 N 
HETATM   29  C20 UNL     1       0.024  53.983 -26.255  1.00  0.00     0.095 A 
HETATM   30  C21 UNL     1       0.351  54.865 -25.306  1.00  0.00     0.020 A 
HETATM   31  C22 UNL     1       0.409  54.463 -23.924  1.00  0.00     0.037 A 
HETATM   32  C23 UNL     1       0.170  53.197 -23.553  1.00  0.00     0.104 A 
HETATM   33  C29 UNL     1      -0.156  52.182 -24.630  1.00  0.00     0.275 A 
HETATM   34  O7  UNL     1      -0.328  51.008 -24.305  1.00  0.00    -0.265 OA
BRANCH  32  35
HETATM   35  N4  UNL     1       0.174  52.707 -22.265  1.00  0.00    -0.317 N 
HETATM   36  C24 UNL     1       0.687  53.274 -21.113  1.00  0.00     0.274 C 
HETATM   37  O5  UNL     1       1.309  54.331 -21.058  1.00  0.00    -0.266 OA
HETATM   38  H29 UNL     1      -0.306  51.810 -22.141  1.00  0.00     0.169 HD
BRANCH  36  39
HETATM   39  C25 UNL     1       0.436  52.472 -19.910  1.00  0.00     0.125 A 
HETATM   40  C26 UNL     1       0.930  52.703 -18.601  1.00  0.00     0.071 A 
HETATM   41  C27 UNL     1       0.421  51.672 -17.852  1.00  0.00     0.075 A 
HETATM   42  C28 UNL     1       0.548  51.268 -16.441  1.00  0.00     0.079 C 
HETATM   43  O6  UNL     1      -0.339  50.874 -18.648  1.00  0.00    -0.242 OA
HETATM   44  N5  UNL     1      -0.335  51.371 -19.940  1.00  0.00    -0.256 N 
ATOM     45  H5  UNL     1      -0.818  50.981 -20.749  1.00  0.00     0.195 HD
ENDBRANCH  36  39
ENDBRANCH  32  35
ENDBRANCH   4  28
ENDBRANCH   3   4
TORSDOF 12
ENDMDL
MODEL 4
REMARK minimizedAffinity -8.59962463
REMARK CNNscore 0.401911706
REMARK CNNaffinity 7.54489183
REMARK  12 active torsions:
REMARK  status: ('A' for Active; 'I' for Inactive)
REMARK    1  A    between atoms: C3_3  and  C4_4 
REMARK    2  A    between atoms: C4_4  and  C5_5 
REMARK    3  A    between atoms: C4_4  and  N3_26 
REMARK       I    between atoms: C5_5  and  N1_7 
REMARK    4  A    between atoms: N1_7  and  C6_8 
REMARK    5  A    between atoms: C6_8  and  C7_9 
REMARK    6  A    between atoms: C6_8  and  C15_19 
REMARK    7  A    between atoms: C8_10  and  C9_11 
REMARK    8  A    between atoms: C9_11  and  O3_13 
REMARK    9  A    between atoms: O3_13  and  C10_14 
REMARK   10  A    between atoms: C15_19  and  C16_20 
REMARK   11  A    between atoms: C23_30  and  N4_31 
REMARK       I    between atoms: N4_31  and  C24_32 
REMARK   12  A    between atoms: C24_32  and  C25_34 
ROOT
HETATM    1  C1  UNL     1       2.231  51.711 -27.482  1.00  0.00     0.012 C 
HETATM    2  C2  UNL     1       1.202  51.218 -27.108  1.00  0.00    -0.115 C 
HETATM    3  C3  UNL     1      -0.069  50.631 -26.647  1.00  0.00     0.128 C 
ENDROOT
BRANCH   3   4
HETATM    4  C4  UNL     1      -1.038  51.682 -26.059  1.00  0.00     0.195 C 
BRANCH   4   5
HETATM    5  C5  UNL     1      -2.337  50.999 -25.557  1.00  0.00     0.242 C 
HETATM    6  O1  UNL     1      -3.359  51.636 -25.315  1.00  0.00    -0.271 OA
HETATM    7  N1  UNL     1      -2.301  49.622 -25.463  1.00  0.00    -0.351 N 
HETATM    8  H5  UNL     1      -1.392  49.183 -25.514  1.00  0.00     0.163 HD
BRANCH   7   9
HETATM    9  C6  UNL     1      -3.414  48.835 -24.963  1.00  0.00     0.108 C 
BRANCH   9  10
HETATM   10  C7  UNL     1      -4.369  48.701 -26.122  1.00  0.00     0.004 C 
HETATM   11  C8  UNL     1      -3.972  48.514 -27.392  1.00  0.00     0.080 C 
BRANCH  11  12
HETATM   12  C9  UNL     1      -4.892  48.302 -28.529  1.00  0.00     0.283 C 
HETATM   13  O2  UNL     1      -4.685  48.772 -29.636  1.00  0.00    -0.260 OA
BRANCH  12  14
HETATM   14  O3  UNL     1      -5.922  47.491 -28.176  1.00  0.00    -0.313 OA
BRANCH  14  15
HETATM   15  C10 UNL     1      -6.651  46.914 -29.261  1.00  0.00     0.132 C 
HETATM   16  C11 UNL     1      -7.190  45.537 -28.897  1.00  0.00     0.032 C 
HETATM   17  C12 UNL     1      -7.343  44.864 -30.249  1.00  0.00     0.002 C 
HETATM   18  C13 UNL     1      -6.098  45.298 -31.013  1.00  0.00     0.002 C 
HETATM   19  C14 UNL     1      -5.705  46.658 -30.437  1.00  0.00     0.032 C 
ENDBRANCH  14  15
ENDBRANCH  12  14
ENDBRANCH  11  12
ENDBRANCH   9  10
BRANCH   9  20
HETATM   20  C15 UNL     1      -4.131  49.530 -23.781  1.00  0.00     0.043 C 
BRANCH  20  21
HETATM   21  C16 UNL     1      -4.352  48.695 -22.519  1.00  0.00     0.081 C 
HETATM   22  C17 UNL     1      -5.146  49.326 -21.375  1.00  0.00     0.034 C 
HETATM   23  C18 UNL     1      -4.626  48.612 -20.136  1.00  0.00     0.123 C 
HETATM   24  N2  UNL     1      -3.302  48.209 -20.493  1.00  0.00    -0.361 N 
HETATM   25  C19 UNL     1      -3.064  48.269 -21.847  1.00  0.00     0.222 C 
HETATM   26  H25 UNL     1      -2.565  47.962 -19.842  1.00  0.00     0.162 HD
HETATM   27  O4  UNL     1      -2.016  47.986 -22.398  1.00  0.00    -0.273 OA
ENDBRANCH  20  21
ENDBRANCH   9  20
ENDBRANCH   7   9
ENDBRANCH   4   5
BRANCH   4  28
HETATM   28  N3  UNL     1      -0.396  52.541 -25.022  1.00  0.00    -0.308 N 
HETATM   29  C20 UNL     1       0.096  53.800 -25.341  1.00  0.00     0.095 A 
HETATM   30  C21 UNL     1       0.670  54.575 -24.416  1.00  0.00     0.020 A 
HETATM   31  C22 UNL     1       0.769  54.129 -23.049  1.00  0.00     0.037 A 
HETATM   32  C23 UNL     1       0.321  52.922 -22.673  1.00  0.00     0.104 A 
HETATM   33  C29 UNL     1      -0.289  52.021 -23.727  1.00  0.00     0.275 A 
HETATM   34  O7  UNL     1      -0.657  50.893 -23.402  1.00  0.00    -0.265 OA
BRANCH  32  35
HETATM   35  N4  UNL     1       0.341  52.403 -21.397  1.00  0.00    -0.317 N 
HETATM   36  C24 UNL     1       0.714  53.008 -20.211  1.00  0.00     0.274 C 
HETATM   37  O5  UNL     1       1.169  54.143 -20.105  1.00  0.00    -0.266 OA
HETATM   38  H29 UNL     1      -0.005  51.443 -21.313  1.00  0.00     0.169 HD
BRANCH  36  39
HETATM   39  C25 UNL     1       0.533  52.146 -19.038  1.00  0.00     0.125 A 
HETATM   40  C26 UNL     1       0.995  52.378 -17.717  1.00  0.00     0.071 A 
HETATM   41  C27 UNL     1       0.580  51.279 -17.007  1.00  0.00     0.075 A 
HETATM   42  C28 UNL     1       0.736  50.840 -15.609  1.00  0.00     0.079 C 
HETATM   43  O6  UNL     1      -0.096  50.440 -17.836  1.00  0.00    -0.242 OA
HETATM   44  N5  UNL     1      -0.131  50.979 -19.111  1.00  0.00    -0.256 N 
ATOM     45  H5  UNL     1      -0.570  50.573 -19.937  1.00  0.00     0.195 HD
ENDBRANCH  36  39
ENDBRANCH  32  35
ENDBRANCH   4  28
ENDBRANCH   3   4
TORSDOF 12
ENDMDL
MODEL 5
REMARK minimizedAffinity -7.74420738
REMARK CNNscore 0.313170463
REMARK CNNaffinity 6.87372255
REMARK  12 active torsions:
REMARK  status: ('A' for Active; 'I' for Inactive)
REMARK    1  A    between atoms: C3_3  and  C4_4 
REMARK    2  A    between atoms: C4_4  and  C5_5 
REMARK    3  A    between atoms: C4_4  and  N3_26 
REMARK       I    between atoms: C5_5  and  N1_7 
REMARK    4  A    between atoms: N1_7  and  C6_8 
REMARK    5  A    between atoms: C6_8  and  C7_9 
REMARK    6  A    between atoms: C6_8  and  C15_19 
REMARK    7  A    between atoms: C8_10  and  C9_11 
REMARK    8  A    between atoms: C9_11  and  O3_13 
REMARK    9  A    between atoms: O3_13  and  C10_14 
REMARK   10  A    between atoms: C15_19  and  C16_20 
REMARK   11  A    between atoms: C23_30  and  N4_31 
REMARK       I    between atoms: N4_31  and  C24_32 
REMARK   12  A    between atoms: C24_32  and  C25_34 
ROOT
HETATM    1  C1  UNL     1       2.547  47.209 -13.928  1.00  0.00     0.012 C 
HETATM    2  C2  UNL     1       3.069  48.222 -13.549  1.00  0.00    -0.115 C 
HETATM    3  C3  UNL     1       3.692  49.474 -13.085  1.00  0.00     0.128 C 
ENDROOT
BRANCH   3   4
HETATM    4  C4  UNL     1       2.721  50.677 -13.120  1.00  0.00     0.195 C 
BRANCH   4   5
HETATM    5  C5  UNL     1       3.012  51.641 -11.940  1.00  0.00     0.242 C 
HETATM    6  O1  UNL     1       3.440  51.241 -10.860  1.00  0.00    -0.271 OA
HETATM    7  N1  UNL     1       2.829  52.985 -12.195  1.00  0.00    -0.351 N 
HETATM    8  H5  UNL     1       2.321  53.227 -13.036  1.00  0.00     0.163 HD
BRANCH   7   9
HETATM    9  C6  UNL     1       3.008  54.013 -11.185  1.00  0.00     0.108 C 
BRANCH   9  10
HETATM   10  C7  UNL     1       4.330  53.709 -10.528  1.00  0.00     0.004 C 
HETATM   11  C8  UNL     1       5.021  54.605  -9.803  1.00  0.00     0.080 C 
BRANCH  11  12
HETATM   12  C9  UNL     1       6.278  54.304  -9.086  1.00  0.00     0.283 C 
HETATM   13  O2  UNL     1       6.767  53.186  -9.063  1.00  0.00    -0.260 OA
BRANCH  12  14
HETATM   14  O3  UNL     1       6.806  55.427  -8.536  1.00  0.00    -0.313 OA
BRANCH  14  15
HETATM   15  C10 UNL     1       6.355  55.737  -7.217  1.00  0.00     0.132 C 
HETATM   16  C11 UNL     1       5.546  57.028  -7.195  1.00  0.00     0.032 C 
HETATM   17  C12 UNL     1       5.706  57.505  -5.763  1.00  0.00     0.002 C 
HETATM   18  C13 UNL     1       7.169  57.217  -5.445  1.00  0.00     0.002 C 
HETATM   19  C14 UNL     1       7.561  56.024  -6.317  1.00  0.00     0.032 C 
ENDBRANCH  14  15
ENDBRANCH  12  14
ENDBRANCH  11  12
ENDBRANCH   9  10
BRANCH   9  20
HETATM   20  C15 UNL     1       1.884  53.983 -10.123  1.00  0.00     0.043 C 
BRANCH  20  21
HETATM   21  C16 UNL     1       0.575  54.690 -10.482  1.00  0.00     0.081 C 
HETATM   22  C17 UNL     1      -0.266  55.257  -9.338  1.00  0.00     0.034 C 
HETATM   23  C18 UNL     1      -1.684  55.246  -9.892  1.00  0.00     0.123 C 
HETATM   24  N2  UNL     1      -1.673  54.196 -10.862  1.00  0.00    -0.361 N 
HETATM   25  C19 UNL     1      -0.405  53.802 -11.218  1.00  0.00     0.222 C 
HETATM   26  H25 UNL     1      -2.492  53.721 -11.225  1.00  0.00     0.162 HD
HETATM   27  O4  UNL     1      -0.132  52.924 -12.017  1.00  0.00    -0.273 OA
ENDBRANCH  20  21
ENDBRANCH   9  20
ENDBRANCH   7   9
ENDBRANCH   4   5
BRANCH   4  28
HETATM   28  N3  UNL     1       2.706  51.366 -14.442  1.00  0.00    -0.308 N 
HETATM   29  C20 UNL     1       3.813  52.075 -14.891  1.00  0.00     0.095 A 
HETATM   30  C21 UNL     1       3.806  52.693 -16.077  1.00  0.00     0.020 A 
HETATM   31  C22 UNL     1       2.650  52.615 -16.934  1.00  0.00     0.037 A 
HETATM   32  C23 UNL     1       1.545  51.954 -16.560  1.00  0.00     0.104 A 
HETATM   33  C29 UNL     1       1.531  51.291 -15.198  1.00  0.00     0.275 A 
HETATM   34  O7  UNL     1       0.505  50.724 -14.825  1.00  0.00    -0.265 OA
BRANCH  32  35
HETATM   35  N4  UNL     1       0.396  51.794 -17.303  1.00  0.00    -0.317 N 
HETATM   36  C24 UNL     1       0.155  52.121 -18.625  1.00  0.00     0.274 C 
HETATM   37  O5  UNL     1       0.946  52.691 -19.371  1.00  0.00    -0.266 OA
HETATM   38  H29 UNL     1      -0.376  51.333 -16.814  1.00  0.00     0.169 HD
BRANCH  36  39
HETATM   39  C25 UNL     1      -1.182  51.731 -19.085  1.00  0.00     0.125 A 
HETATM   40  C26 UNL     1      -1.623  51.573 -20.424  1.00  0.00     0.071 A 
HETATM   41  C27 UNL     1      -2.944  51.217 -20.314  1.00  0.00     0.075 A 
HETATM   42  C28 UNL     1      -4.014  50.931 -21.285  1.00  0.00     0.079 C 
HETATM   43  O6  UNL     1      -3.281  51.153 -18.999  1.00  0.00    -0.242 OA
HETATM   44  N5  UNL     1      -2.181  51.473 -18.222  1.00  0.00    -0.256 N 
ATOM     45  H5  UNL     1      -2.137  51.505 -17.204  1.00  0.00     0.195 HD
ENDBRANCH  36  39
ENDBRANCH  32  35
ENDBRANCH   4  28
ENDBRANCH   3   4
TORSDOF 12
ENDMDL
MODEL 6
REMARK minimizedAffinity -7.85719442
REMARK CNNscore 0.310028225
REMARK CNNaffinity 7.34511757
REMARK  12 active torsions:
REMARK  status: ('A' for Active; 'I' for Inactive)
REMARK    1  A    between atoms: C3_3  and  C4_4 
REMARK    2  A    between atoms: C4_4  and  C5_5 
REMARK    3  A    between atoms: C4_4  and  N3_26 
REMARK       I    between atoms: C5_5  and  N1_7 
REMARK    4  A    between atoms: N1_7  and  C6_8 
REMARK    5  A    between atoms: C6_8  and  C7_9 
REMARK    6  A    between atoms: C6_8  and  C15_19 
REMARK    7  A    between atoms: C8_10  and  C9_11 
REMARK    8  A    between atoms: C9_11  and  O3_13 
REMARK    9  A    between atoms: O3_13  and  C10_14 
REMARK   10  A    between atoms: C15_19  and  C16_20 
REMARK   11  A    between atoms: C23_30  and  N4_31 
REMARK       I    between atoms: N4_31  and  C24_32 
REMARK   12  A    between atoms: C24_32  and  C25_34 
ROOT
HETATM    1  C1  UNL     1      -3.063  50.329 -27.221  1.00  0.00     0.012 C 
HETATM    2  C2  UNL     1      -3.235  51.230 -26.448  1.00  0.00    -0.115 C 
HETATM    3  C3  UNL     1      -3.439  52.326 -25.484  1.00  0.00     0.128 C 
ENDROOT
BRANCH   3   4
HETATM    4  C4  UNL     1      -3.165  51.901 -24.023  1.00  0.00     0.195 C 
BRANCH   4   5
HETATM    5  C5  UNL     1      -3.648  50.447 -23.783  1.00  0.00     0.242 C 
HETATM    6  O1  UNL     1      -2.907  49.478 -23.934  1.00  0.00    -0.271 OA
HETATM    7  N1  UNL     1      -4.941  50.306 -23.322  1.00  0.00    -0.351 N 
HETATM    8  H5  UNL     1      -5.540  51.119 -23.381  1.00  0.00     0.163 HD
BRANCH   7   9
HETATM    9  C6  UNL     1      -5.563  49.014 -23.095  1.00  0.00     0.108 C 
BRANCH   9  10
HETATM   10  C7  UNL     1      -4.752  48.359 -22.005  1.00  0.00     0.004 C 
HETATM   11  C8  UNL     1      -4.538  47.034 -21.935  1.00  0.00     0.080 C 
BRANCH  11  12
HETATM   12  C9  UNL     1      -3.683  46.383 -20.921  1.00  0.00     0.283 C 
HETATM   13  O2  UNL     1      -3.696  45.177 -20.730  1.00  0.00    -0.260 OA
BRANCH  12  14
HETATM   14  O3  UNL     1      -2.879  47.288 -20.309  1.00  0.00    -0.313 OA
BRANCH  14  15
HETATM   15  C10 UNL     1      -2.810  47.189 -18.885  1.00  0.00     0.132 C 
HETATM   16  C11 UNL     1      -4.143  47.540 -18.239  1.00  0.00     0.032 C 
HETATM   17  C12 UNL     1      -3.738  47.987 -16.846  1.00  0.00     0.002 C 
HETATM   18  C13 UNL     1      -2.475  48.808 -17.081  1.00  0.00     0.002 C 
HETATM   19  C14 UNL     1      -1.833  48.236 -18.345  1.00  0.00     0.032 C 
ENDBRANCH  14  15
ENDBRANCH  12  14
ENDBRANCH  11  12
ENDBRANCH   9  10
BRANCH   9  20
HETATM   20  C15 UNL     1      -5.535  48.127 -24.363  1.00  0.00     0.043 C 
BRANCH  20  21
HETATM   21  C16 UNL     1      -6.887  47.718 -24.950  1.00  0.00     0.081 C 
HETATM   22  C17 UNL     1      -6.971  47.497 -26.461  1.00  0.00     0.034 C 
HETATM   23  C18 UNL     1      -8.429  47.785 -26.788  1.00  0.00     0.123 C 
HETATM   24  N2  UNL     1      -8.847  48.688 -25.762  1.00  0.00    -0.361 N 
HETATM   25  C19 UNL     1      -7.985  48.728 -24.691  1.00  0.00     0.222 C 
HETATM   26  H25 UNL     1      -9.653  49.302 -25.809  1.00  0.00     0.162 HD
HETATM   27  O4  UNL     1      -8.115  49.421 -23.699  1.00  0.00    -0.273 OA
ENDBRANCH  20  21
ENDBRANCH   9  20
ENDBRANCH   7   9
ENDBRANCH   4   5
BRANCH   4  28
HETATM   28  N3  UNL     1      -1.746  52.115 -23.618  1.00  0.00    -0.308 N 
HETATM   29  C20 UNL     1      -0.781  52.471 -24.552  1.00  0.00     0.095 A 
HETATM   30  C21 UNL     1       0.492  52.666 -24.194  1.00  0.00     0.020 A 
HETATM   31  C22 UNL     1       0.891  52.537 -22.816  1.00  0.00     0.037 A 
HETATM   32  C23 UNL     1       0.014  52.189 -21.863  1.00  0.00     0.104 A 
HETATM   33  C29 UNL     1      -1.421  51.922 -22.271  1.00  0.00     0.275 A 
HETATM   34  O7  UNL     1      -2.222  51.554 -21.413  1.00  0.00    -0.265 OA
BRANCH  32  35
HETATM   35  N4  UNL     1       0.276  52.059 -20.517  1.00  0.00    -0.317 N 
HETATM   36  C24 UNL     1       0.906  52.941 -19.659  1.00  0.00     0.274 C 
HETATM   37  O5  UNL     1       1.415  54.009 -19.985  1.00  0.00    -0.266 OA
HETATM   38  H29 UNL     1      -0.082  51.202 -20.086  1.00  0.00     0.169 HD
BRANCH  36  39
HETATM   39  C25 UNL     1       0.937  52.474 -18.268  1.00  0.00     0.125 A 
HETATM   40  C26 UNL     1       0.295  51.332 -17.726  1.00  0.00     0.071 A 
HETATM   41  C27 UNL     1       0.624  51.349 -16.394  1.00  0.00     0.075 A 
HETATM   42  C28 UNL     1       0.283  50.497 -15.241  1.00  0.00     0.079 C 
HETATM   43  O6  UNL     1       1.420  52.422 -16.143  1.00  0.00    -0.242 OA
HETATM   44  N5  UNL     1       1.622  53.131 -17.315  1.00  0.00    -0.256 N 
ATOM     45  H5  UNL     1       2.177  53.979 -17.431  1.00  0.00     0.195 HD
ENDBRANCH  36  39
ENDBRANCH  32  35
ENDBRANCH   4  28
ENDBRANCH   3   4
TORSDOF 12
ENDMDL
MODEL 7
REMARK minimizedAffinity -8.38525963
REMARK CNNscore 0.290585399
REMARK CNNaffinity 7.18295813
REMARK  12 active torsions:
REMARK  status: ('A' for Active; 'I' for Inactive)
REMARK    1  A    between atoms: C3_3  and  C4_4 
REMARK    2  A    between atoms: C4_4  and  C5_5 
REMARK    3  A    between atoms: C4_4  and  N3_26 
REMARK       I    between atoms: C5_5  and  N1_7 
REMARK    4  A    between atoms: N1_7  and  C6_8 
REMARK    5  A    between atoms: C6_8  and  C7_9 
REMARK    6  A    between atoms: C6_8  and  C15_19 
REMARK    7  A    between atoms: C8_10  and  C9_11 
REMARK    8  A    between atoms: C9_11  and  O3_13 
REMARK    9  A    between atoms: O3_13  and  C10_14 
REMARK   10  A    between atoms: C15_19  and  C16_20 
REMARK   11  A    between atoms: C23_30  and  N4_31 
REMARK       I    between atoms: N4_31  and  C24_32 
REMARK   12  A    between atoms: C24_32  and  C25_34 
ROOT
HETATM    1  C1  UNL     1      -5.374  49.936 -19.662  1.00  0.00     0.012 C 
HETATM    2  C2  UNL     1      -4.211  49.999 -19.952  1.00  0.00    -0.115 C 
HETATM    3  C3  UNL     1      -2.779  50.084 -20.290  1.00  0.00     0.128 C 
ENDROOT
BRANCH   3   4
HETATM    4  C4  UNL     1      -1.956  50.851 -19.230  1.00  0.00     0.195 C 
BRANCH   4   5
HETATM    5  C5  UNL     1      -1.394  49.870 -18.168  1.00  0.00     0.242 C 
HETATM    6  O1  UNL     1      -1.005  48.742 -18.460  1.00  0.00    -0.271 OA
HETATM    7  N1  UNL     1      -1.291  50.363 -16.883  1.00  0.00    -0.351 N 
HETATM    8  H5  UNL     1      -1.779  51.226 -16.682  1.00  0.00     0.163 HD
BRANCH   7   9
HETATM    9  C6  UNL     1      -0.834  49.559 -15.763  1.00  0.00     0.108 C 
BRANCH   9  10
HETATM   10  C7  UNL     1      -1.432  50.199 -14.535  1.00  0.00     0.004 C 
HETATM   11  C8  UNL     1      -2.441  49.656 -13.832  1.00  0.00     0.080 C 
BRANCH  11  12
HETATM   12  C9  UNL     1      -2.986  50.227 -12.583  1.00  0.00     0.283 C 
HETATM   13  O2  UNL     1      -4.077  49.906 -12.138  1.00  0.00    -0.260 OA
BRANCH  12  14
HETATM   14  O3  UNL     1      -2.100  51.078 -12.009  1.00  0.00    -0.313 OA
BRANCH  14  15
HETATM   15  C10 UNL     1      -2.510  52.445 -11.947  1.00  0.00     0.132 C 
HETATM   16  C11 UNL     1      -1.724  53.213 -10.892  1.00  0.00     0.032 C 
HETATM   17  C12 UNL     1      -2.659  54.355 -10.535  1.00  0.00     0.002 C 
HETATM   18  C13 UNL     1      -4.035  53.699 -10.501  1.00  0.00     0.002 C 
HETATM   19  C14 UNL     1      -3.964  52.523 -11.475  1.00  0.00     0.032 C 
ENDBRANCH  14  15
ENDBRANCH  12  14
ENDBRANCH  11  12
ENDBRANCH   9  10
BRANCH   9  20
HETATM   20  C15 UNL     1       0.708  49.555 -15.644  1.00  0.00     0.043 C 
BRANCH  20  21
HETATM   21  C16 UNL     1       1.326  50.519 -14.629  1.00  0.00     0.081 C 
HETATM   22  C17 UNL     1       0.989  50.313 -13.153  1.00  0.00     0.034 C 
HETATM   23  C18 UNL     1       1.142  51.702 -12.549  1.00  0.00     0.123 C 
HETATM   24  N2  UNL     1       0.894  52.589 -13.643  1.00  0.00    -0.361 N 
HETATM   25  C19 UNL     1       0.947  51.965 -14.868  1.00  0.00     0.222 C 
HETATM   26  H25 UNL     1       0.637  53.566 -13.562  1.00  0.00     0.162 HD
HETATM   27  O4  UNL     1       0.763  52.500 -15.946  1.00  0.00    -0.273 OA
ENDBRANCH  20  21
ENDBRANCH   9  20
ENDBRANCH   7   9
ENDBRANCH   4   5
BRANCH   4  28
HETATM   28  N3  UNL     1      -0.902  51.716 -19.836  1.00  0.00    -0.308 N 
HETATM   29  C20 UNL     1       0.043  52.353 -19.042  1.00  0.00     0.095 A 
HETATM   30  C21 UNL     1       0.991  53.127 -19.580  1.00  0.00     0.020 A 
HETATM   31  C22 UNL     1       1.071  53.299 -21.008  1.00  0.00     0.037 A 
HETATM   32  C23 UNL     1       0.187  52.719 -21.833  1.00  0.00     0.104 A 
HETATM   33  C29 UNL     1      -0.917  51.877 -21.226  1.00  0.00     0.275 A 
HETATM   34  O7  UNL     1      -1.762  51.382 -21.970  1.00  0.00    -0.265 OA
BRANCH  32  35
HETATM   35  N4  UNL     1       0.180  52.793 -23.208  1.00  0.00    -0.317 N 
HETATM   36  C24 UNL     1       0.754  53.739 -24.038  1.00  0.00     0.274 C 
HETATM   37  O5  UNL     1       1.340  54.750 -23.663  1.00  0.00    -0.266 OA
HETATM   38  H29 UNL     1      -0.287  52.014 -23.683  1.00  0.00     0.169 HD
BRANCH  36  39
HETATM   39  C25 UNL     1       0.588  53.437 -25.464  1.00  0.00     0.125 A 
HETATM   40  C26 UNL     1       0.901  52.226 -26.132  1.00  0.00     0.071 A 
HETATM   41  C27 UNL     1       0.577  52.461 -27.445  1.00  0.00     0.075 A 
HETATM   42  C28 UNL     1       0.669  51.668 -28.683  1.00  0.00     0.079 C 
HETATM   43  O6  UNL     1       0.090  53.724 -27.566  1.00  0.00    -0.242 OA
HETATM   44  N5  UNL     1       0.093  54.342 -26.327  1.00  0.00    -0.256 N 
ATOM     45  H5  UNL     1      -0.217  55.290 -26.113  1.00  0.00     0.195 HD
ENDBRANCH  36  39
ENDBRANCH  32  35
ENDBRANCH   4  28
ENDBRANCH   3   4
TORSDOF 12
ENDMDL
MODEL 8
REMARK minimizedAffinity -8.69340611
REMARK CNNscore 0.278497845
REMARK CNNaffinity 6.67273188
REMARK  12 active torsions:
REMARK  status: ('A' for Active; 'I' for Inactive)
REMARK    1  A    between atoms: C3_3  and  C4_4 
REMARK    2  A    between atoms: C4_4  and  C5_5 
REMARK    3  A    between atoms: C4_4  and  N3_26 
REMARK       I    between atoms: C5_5  and  N1_7 
REMARK    4  A    between atoms: N1_7  and  C6_8 
REMARK    5  A    between atoms: C6_8  and  C7_9 
REMARK    6  A    between atoms: C6_8  and  C15_19 
REMARK    7  A    between atoms: C8_10  and  C9_11 
REMARK    8  A    between atoms: C9_11  and  O3_13 
REMARK    9  A    between atoms: O3_13  and  C10_14 
REMARK   10  A    between atoms: C15_19  and  C16_20 
REMARK   11  A    between atoms: C23_30  and  N4_31 
REMARK       I    between atoms: N4_31  and  C24_32 
REMARK   12  A    between atoms: C24_32  and  C25_34 
ROOT
HETATM    1  C1  UNL     1       1.098  47.491 -14.648  1.00  0.00     0.012 C 
HETATM    2  C2  UNL     1       0.667  48.197 -15.517  1.00  0.00    -0.115 C 
HETATM    3  C3  UNL     1       0.150  49.080 -16.578  1.00  0.00     0.128 C 
ENDROOT
BRANCH   3   4
HETATM    4  C4  UNL     1       0.636  50.540 -16.437  1.00  0.00     0.195 C 
BRANCH   4   5
HETATM    5  C5  UNL     1       0.240  51.366 -17.688  1.00  0.00     0.242 C 
HETATM    6  O1  UNL     1       0.416  52.581 -17.753  1.00  0.00    -0.271 OA
HETATM    7  N1  UNL     1      -0.260  50.648 -18.756  1.00  0.00    -0.351 N 
HETATM    8  H5  UNL     1      -0.533  49.691 -18.577  1.00  0.00     0.163 HD
BRANCH   7   9
HETATM    9  C6  UNL     1      -0.725  51.274 -19.981  1.00  0.00     0.108 C 
BRANCH   9  10
HETATM   10  C7  UNL     1      -1.649  50.270 -20.623  1.00  0.00     0.004 C 
HETATM   11  C8  UNL     1      -1.346  49.594 -21.744  1.00  0.00     0.080 C 
BRANCH  11  12
HETATM   12  C9  UNL     1      -2.204  48.552 -22.344  1.00  0.00     0.283 C 
HETATM   13  O2  UNL     1      -2.136  47.378 -22.016  1.00  0.00    -0.260 OA
BRANCH  12  14
HETATM   14  O3  UNL     1      -3.078  49.091 -23.232  1.00  0.00    -0.313 OA
BRANCH  14  15
HETATM   15  C10 UNL     1      -3.237  48.371 -24.455  1.00  0.00     0.132 C 
HETATM   16  C11 UNL     1      -2.440  49.011 -25.585  1.00  0.00     0.032 C 
HETATM   17  C12 UNL     1      -3.185  48.556 -26.826  1.00  0.00     0.002 C 
HETATM   18  C13 UNL     1      -4.653  48.665 -26.430  1.00  0.00     0.002 C 
HETATM   19  C14 UNL     1      -4.695  48.459 -24.915  1.00  0.00     0.032 C 
ENDBRANCH  14  15
ENDBRANCH  12  14
ENDBRANCH  11  12
ENDBRANCH   9  10
BRANCH   9  20
HETATM   20  C15 UNL     1       0.441  51.593 -20.947  1.00  0.00     0.043 C 
BRANCH  20  21
HETATM   21  C16 UNL     1       0.293  52.842 -21.818  1.00  0.00     0.081 C 
HETATM   22  C17 UNL     1       0.522  52.694 -23.322  1.00  0.00     0.034 C 
HETATM   23  C18 UNL     1       0.972  54.080 -23.759  1.00  0.00     0.123 C 
HETATM   24  N2  UNL     1       1.563  54.643 -22.585  1.00  0.00    -0.361 N 
HETATM   25  C19 UNL     1       1.244  53.956 -21.437  1.00  0.00     0.222 C 
HETATM   26  H25 UNL     1       2.208  55.425 -22.567  1.00  0.00     0.162 HD
HETATM   27  O4  UNL     1       1.629  54.232 -20.314  1.00  0.00    -0.273 OA
ENDBRANCH  20  21
ENDBRANCH   9  20
ENDBRANCH   7   9
ENDBRANCH   4   5
BRANCH   4  28
HETATM   28  N3  UNL     1       0.195  51.172 -15.160  1.00  0.00    -0.308 N 
HETATM   29  C20 UNL     1      -1.128  51.098 -14.745  1.00  0.00     0.095 A 
HETATM   30  C21 UNL     1      -1.529  51.661 -13.601  1.00  0.00     0.020 A 
HETATM   31  C22 UNL     1      -0.584  52.341 -12.752  1.00  0.00     0.037 A 
HETATM   32  C23 UNL     1       0.708  52.456 -13.094  1.00  0.00     0.104 A 
HETATM   33  C29 UNL     1       1.158  51.860 -14.412  1.00  0.00     0.275 A 
HETATM   34  O7  UNL     1       2.329  52.003 -14.758  1.00  0.00    -0.265 OA
BRANCH  32  35
HETATM   35  N4  UNL     1       1.700  53.060 -12.353  1.00  0.00    -0.317 N 
HETATM   36  C24 UNL     1       2.394  52.575 -11.260  1.00  0.00     0.274 C 
HETATM   37  O5  UNL     1       2.187  51.499 -10.707  1.00  0.00    -0.266 OA
HETATM   38  H29 UNL     1       1.988  53.985 -12.685  1.00  0.00     0.169 HD
BRANCH  36  39
HETATM   39  C25 UNL     1       3.434  53.492 -10.780  1.00  0.00     0.125 A 
HETATM   40  C26 UNL     1       4.412  53.243  -9.783  1.00  0.00     0.071 A 
HETATM   41  C27 UNL     1       5.126  54.412  -9.698  1.00  0.00     0.075 A 
HETATM   42  C28 UNL     1       6.249  54.871  -8.863  1.00  0.00     0.079 C 
HETATM   43  O6  UNL     1       4.624  55.308 -10.588  1.00  0.00    -0.242 OA
HETATM   44  N5  UNL     1       3.563  54.738 -11.271  1.00  0.00    -0.256 N 
ATOM     45  H5  UNL     1       2.996  55.173 -11.998  1.00  0.00     0.195 HD
ENDBRANCH  36  39
ENDBRANCH  32  35
ENDBRANCH   4  28
ENDBRANCH   3   4
TORSDOF 12
ENDMDL
MODEL 9
REMARK minimizedAffinity -7.72445202
REMARK CNNscore 0.241299525
REMARK CNNaffinity 7.3328042
REMARK  12 active torsions:
REMARK  status: ('A' for Active; 'I' for Inactive)
REMARK    1  A    between atoms: C3_3  and  C4_4 
REMARK    2  A    between atoms: C4_4  and  C5_5 
REMARK    3  A    between atoms: C4_4  and  N3_26 
REMARK       I    between atoms: C5_5  and  N1_7 
REMARK    4  A    between atoms: N1_7  and  C6_8 
REMARK    5  A    between atoms: C6_8  and  C7_9 
REMARK    6  A    between atoms: C6_8  and  C15_19 
REMARK    7  A    between atoms: C8_10  and  C9_11 
REMARK    8  A    between atoms: C9_11  and  O3_13 
REMARK    9  A    between atoms: O3_13  and  C10_14 
REMARK   10  A    between atoms: C15_19  and  C16_20 
REMARK   11  A    between atoms: C23_30  and  N4_31 
REMARK       I    between atoms: N4_31  and  C24_32 
REMARK   12  A    between atoms: C24_32  and  C25_34 
ROOT
HETATM    1  C1  UNL     1      -1.436  50.749 -15.678  1.00  0.00     0.012 C 
HETATM    2  C2  UNL     1      -0.962  50.101 -16.569  1.00  0.00    -0.115 C 
HETATM    3  C3  UNL     1      -0.388  49.317 -17.679  1.00  0.00     0.128 C 
ENDROOT
BRANCH   3   4
HETATM    4  C4  UNL     1      -0.976  49.704 -19.055  1.00  0.00     0.195 C 
BRANCH   4   5
HETATM    5  C5  UNL     1      -2.526  49.648 -19.017  1.00  0.00     0.242 C 
HETATM    6  O1  UNL     1      -3.136  49.046 -18.137  1.00  0.00    -0.271 OA
HETATM    7  N1  UNL     1      -3.183  50.373 -19.990  1.00  0.00    -0.351 N 
HETATM    8  H5  UNL     1      -2.629  50.700 -20.771  1.00  0.00     0.163 HD
BRANCH   7   9
HETATM    9  C6  UNL     1      -4.628  50.385 -20.126  1.00  0.00     0.108 C 
BRANCH   9  10
HETATM   10  C7  UNL     1      -5.039  48.937 -20.215  1.00  0.00     0.004 C 
HETATM   11  C8  UNL     1      -6.210  48.529 -20.734  1.00  0.00     0.080 C 
BRANCH  11  12
HETATM   12  C9  UNL     1      -6.597  47.113 -20.901  1.00  0.00     0.283 C 
HETATM   13  O2  UNL     1      -7.176  46.705 -21.896  1.00  0.00    -0.260 OA
BRANCH  12  14
HETATM   14  O3  UNL     1      -6.175  46.366 -19.851  1.00  0.00    -0.313 OA
BRANCH  14  15
HETATM   15  C10 UNL     1      -5.644  45.081 -20.181  1.00  0.00     0.132 C 
HETATM   16  C11 UNL     1      -6.461  43.962 -19.549  1.00  0.00     0.032 C 
HETATM   17  C12 UNL     1      -5.464  42.821 -19.461  1.00  0.00     0.002 C 
HETATM   18  C13 UNL     1      -4.170  43.502 -19.031  1.00  0.00     0.002 C 
HETATM   19  C14 UNL     1      -4.248  44.931 -19.570  1.00  0.00     0.032 C 
ENDBRANCH  14  15
ENDBRANCH  12  14
ENDBRANCH  11  12
ENDBRANCH   9  10
BRANCH   9  20
HETATM   20  C15 UNL     1      -5.085  51.131 -21.402  1.00  0.00     0.043 C 
BRANCH  20  21
HETATM   21  C16 UNL     1      -4.168  51.034 -22.623  1.00  0.00     0.081 C 
HETATM   22  C17 UNL     1      -3.480  52.313 -23.102  1.00  0.00     0.034 C 
HETATM   23  C18 UNL     1      -3.251  52.067 -24.586  1.00  0.00     0.123 C 
HETATM   24  N2  UNL     1      -4.279  51.144 -24.951  1.00  0.00    -0.361 N 
HETATM   25  C19 UNL     1      -4.875  50.541 -23.868  1.00  0.00     0.222 C 
HETATM   26  H25 UNL     1      -4.609  50.972 -25.894  1.00  0.00     0.162 HD
HETATM   27  O4  UNL     1      -5.779  49.726 -23.916  1.00  0.00    -0.273 OA
ENDBRANCH  20  21
ENDBRANCH   9  20
ENDBRANCH   7   9
ENDBRANCH   4   5
BRANCH   4  28
HETATM   28  N3  UNL     1      -0.455  51.008 -19.558  1.00  0.00    -0.308 N 
HETATM   29  C20 UNL     1      -0.019  51.990 -18.678  1.00  0.00     0.095 A 
HETATM   30  C21 UNL     1       0.452  53.160 -19.123  1.00  0.00     0.020 A 
HETATM   31  C22 UNL     1       0.543  53.419 -20.538  1.00  0.00     0.037 A 
HETATM   32  C23 UNL     1       0.133  52.519 -21.442  1.00  0.00     0.104 A 
HETATM   33  C29 UNL     1      -0.444  51.210 -20.942  1.00  0.00     0.275 A 
HETATM   34  O7  UNL     1      -0.868  50.397 -21.763  1.00  0.00    -0.265 OA
BRANCH  32  35
HETATM   35  N4  UNL     1       0.194  52.648 -22.812  1.00  0.00    -0.317 N 
HETATM   36  C24 UNL     1       0.754  53.659 -23.573  1.00  0.00     0.274 C 
HETATM   37  O5  UNL     1       1.257  54.686 -23.128  1.00  0.00    -0.266 OA
HETATM   38  H29 UNL     1      -0.199  51.864 -23.341  1.00  0.00     0.169 HD
BRANCH  36  39
HETATM   39  C25 UNL     1       0.682  53.407 -25.016  1.00  0.00     0.125 A 
HETATM   40  C26 UNL     1       0.993  52.203 -25.699  1.00  0.00     0.071 A 
HETATM   41  C27 UNL     1       0.776  52.491 -27.023  1.00  0.00     0.075 A 
HETATM   42  C28 UNL     1       0.928  51.732 -28.277  1.00  0.00     0.079 C 
HETATM   43  O6  UNL     1       0.352  53.777 -27.138  1.00  0.00    -0.242 OA
HETATM   44  N5  UNL     1       0.289  54.357 -25.883  1.00  0.00    -0.256 N 
ATOM     45  H5  UNL     1       0.003  55.311 -25.661  1.00  0.00     0.195 HD
ENDBRANCH  36  39
ENDBRANCH  32  35
ENDBRANCH   4  28
ENDBRANCH   3   4
TORSDOF 12
ENDMDL
