MODEL 1
REMARK minimizedAffinity -8.7234869
REMARK CNNscore 0.866553187
REMARK CNNaffinity 6.86810637
REMARK  9 active torsions:
REMARK  status: ('A' for Active; 'I' for Inactive)
REMARK    1  A    between atoms: C2_2  and  C30_35 
REMARK    2  A    between atoms: C3_3  and  C4_4 
REMARK    3  A    between atoms: C4_4  and  O1_5 
REMARK    4  A    between atoms: C4_4  and  C5_6 
REMARK    5  A    between atoms: C5_6  and  C6_7 
REMARK    6  A    between atoms: C6_7  and  C8_9 
REMARK    7  A    between atoms: C10_11  and  O2_12 
REMARK    8  A    between atoms: C29_33  and  O5_34 
REMARK    9  A    between atoms: C30_35  and  O7_37 
ROOT
HETATM    1  C8  UNL     1      -1.396  52.649 -10.525  1.00  0.00     0.001 C 
HETATM    2  C9  UNL     1      -0.742  52.728 -11.931  1.00  0.00     0.038 C 
HETATM    3  C10 UNL     1       0.530  53.584 -11.784  1.00  0.00     0.132 C 
HETATM    4  C11 UNL     1       0.822  53.601 -10.257  1.00  0.00     0.017 C 
HETATM    5  C12 UNL     1       1.549  52.268  -9.879  1.00  0.00     0.023 C 
HETATM    6  C13 UNL     1       1.688  54.713  -9.650  1.00  0.00    -0.029 C 
HETATM    7  C14 UNL     1       1.590  55.014  -8.327  1.00  0.00     0.002 C 
HETATM    8  C15 UNL     1       0.471  54.371  -7.515  1.00  0.00     0.157 C 
HETATM    9  O3  UNL     1       0.387  54.556  -6.302  1.00  0.00    -0.293 OA
HETATM   10  C16 UNL     1      -0.590  53.512  -8.192  1.00  0.00     0.094 C 
HETATM   11  C17 UNL     1      -0.643  53.740  -9.701  1.00  0.00    -0.019 C 
HETATM   12  C18 UNL     1      -1.262  55.146  -9.956  1.00  0.00     0.017 C 
HETATM   13  C19 UNL     1       2.501  56.048  -7.634  1.00  0.00    -0.008 C 
HETATM   14  C20 UNL     1       1.698  57.374  -7.556  1.00  0.00     0.021 C 
HETATM   15  C21 UNL     1       2.948  55.699  -6.190  1.00  0.00     0.022 C 
HETATM   16  C22 UNL     1       3.642  54.351  -6.088  1.00  0.00     0.080 C 
HETATM   17  C23 UNL     1       4.469  54.045  -7.314  1.00  0.00     0.135 C 
HETATM   18  O4  UNL     1       4.763  52.878  -7.576  1.00  0.00    -0.297 OA
HETATM   19  C24 UNL     1       4.993  55.230  -8.142  1.00  0.00     0.018 C 
HETATM   20  C25 UNL     1       6.093  55.920  -7.291  1.00  0.00     0.023 C 
HETATM   21  C26 UNL     1       5.733  54.669  -9.373  1.00  0.00     0.023 C 
HETATM   22  C27 UNL     1       3.835  56.272  -8.458  1.00  0.00     0.016 C 
HETATM   23  C28 UNL     1       3.501  56.522  -9.941  1.00  0.00     0.043 C 
HETATM   24  C29 UNL     1       2.593  55.476 -10.590  1.00  0.00     0.149 C 
ENDROOT
BRANCH   1  25
HETATM   25  C6  UNL     1      -2.950  52.531 -10.572  1.00  0.00    -0.011 C 
HETATM   26  C7  UNL     1      -3.743  53.821 -10.328  1.00  0.00     0.010 C 
BRANCH  25  27
HETATM   27  C5  UNL     1      -3.456  51.367  -9.681  1.00  0.00     0.040 C 
BRANCH  27  28
HETATM   28  C4  UNL     1      -4.063  50.194 -10.467  1.00  0.00     0.142 C 
BRANCH  28  29
HETATM   29  C3  UNL     1      -5.568  50.210 -10.415  1.00  0.00     0.018 C 
HETATM   30  C2  UNL     1      -6.446  49.241 -10.754  1.00  0.00     0.010 C 
HETATM   31  C1  UNL     1      -6.101  47.909 -11.352  1.00  0.00     0.055 C 
BRANCH  30  32
HETATM   32  C30 UNL     1      -7.882  49.556 -10.544  1.00  0.00     0.171 C 
HETATM   33  O6  UNL     1      -8.813  49.209 -11.249  1.00  0.00    -0.646 OA
BRANCH  32  34
HETATM   34  O7  UNL     1      -8.086  50.316  -9.456  1.00  0.00    -0.773 OA
HETATM   35  H44 UNL     1      -9.058  50.442  -9.444  1.00  0.00     0.167 HD
ENDBRANCH  32  34
ENDBRANCH  30  32
ENDBRANCH  28  29
BRANCH  28  36
HETATM   36  O1  UNL     1      -3.627  50.220 -11.817  1.00  0.00    -0.392 OA
HETATM   37  H6  UNL     1      -4.068  49.482 -12.272  1.00  0.00     0.210 HD
ENDBRANCH  28  36
ENDBRANCH  27  28
ENDBRANCH  25  27
ENDBRANCH   1  25
BRANCH   3  38
HETATM   38  O2  UNL     1       1.565  53.020 -12.573  1.00  0.00    -0.394 OA
HETATM   39  H17 UNL     1       2.401  53.432 -12.267  1.00  0.00     0.210 HD
ENDBRANCH   3  38
BRANCH  24  40
HETATM   40  O5  UNL     1       3.356  54.557 -11.359  1.00  0.00    -0.391 OA
HETATM   41  H43 UNL     1       4.006  55.067 -11.876  1.00  0.00     0.210 HD
ENDBRANCH  24  40
TORSDOF 9
ENDMDL
MODEL 2
REMARK minimizedAffinity -7.92410755
REMARK CNNscore 0.784285784
REMARK CNNaffinity 6.62940454
REMARK  9 active torsions:
REMARK  status: ('A' for Active; 'I' for Inactive)
REMARK    1  A    between atoms: C2_2  and  C30_35 
REMARK    2  A    between atoms: C3_3  and  C4_4 
REMARK    3  A    between atoms: C4_4  and  O1_5 
REMARK    4  A    between atoms: C4_4  and  C5_6 
REMARK    5  A    between atoms: C5_6  and  C6_7 
REMARK    6  A    between atoms: C6_7  and  C8_9 
REMARK    7  A    between atoms: C10_11  and  O2_12 
REMARK    8  A    between atoms: C29_33  and  O5_34 
REMARK    9  A    between atoms: C30_35  and  O7_37 
ROOT
HETATM    1  C8  UNL     1      -1.347  52.589 -10.470  1.00  0.00     0.001 C 
HETATM    2  C9  UNL     1      -0.730  52.689 -11.892  1.00  0.00     0.038 C 
HETATM    3  C10 UNL     1       0.534  53.559 -11.770  1.00  0.00     0.132 C 
HETATM    4  C11 UNL     1       0.866  53.566 -10.251  1.00  0.00     0.017 C 
HETATM    5  C12 UNL     1       1.618  52.240  -9.903  1.00  0.00     0.023 C 
HETATM    6  C13 UNL     1       1.733  54.684  -9.657  1.00  0.00    -0.029 C 
HETATM    7  C14 UNL     1       1.666  54.972  -8.328  1.00  0.00     0.002 C 
HETATM    8  C15 UNL     1       0.577  54.309  -7.494  1.00  0.00     0.157 C 
HETATM    9  O3  UNL     1       0.522  54.482  -6.277  1.00  0.00    -0.293 OA
HETATM   10  C16 UNL     1      -0.491  53.441  -8.151  1.00  0.00     0.094 C 
HETATM   11  C17 UNL     1      -0.586  53.683  -9.656  1.00  0.00    -0.019 C 
HETATM   12  C18 UNL     1      -1.229  55.083  -9.882  1.00  0.00     0.017 C 
HETATM   13  C19 UNL     1       2.581  56.012  -7.650  1.00  0.00    -0.008 C 
HETATM   14  C20 UNL     1       1.765  57.327  -7.540  1.00  0.00     0.021 C 
HETATM   15  C21 UNL     1       3.070  55.656  -6.222  1.00  0.00     0.022 C 
HETATM   16  C22 UNL     1       3.783  54.316  -6.150  1.00  0.00     0.080 C 
HETATM   17  C23 UNL     1       4.582  54.031  -7.399  1.00  0.00     0.135 C 
HETATM   18  O4  UNL     1       4.883  52.870  -7.680  1.00  0.00    -0.297 OA
HETATM   19  C24 UNL     1       5.070  55.230  -8.230  1.00  0.00     0.018 C 
HETATM   20  C25 UNL     1       6.183  55.926  -7.402  1.00  0.00     0.023 C 
HETATM   21  C26 UNL     1       5.784  54.688  -9.485  1.00  0.00     0.023 C 
HETATM   22  C27 UNL     1       3.892  56.259  -8.506  1.00  0.00     0.016 C 
HETATM   23  C28 UNL     1       3.516  56.519  -9.978  1.00  0.00     0.043 C 
HETATM   24  C29 UNL     1       2.604  55.467 -10.612  1.00  0.00     0.149 C 
ENDROOT
BRANCH   1  25
HETATM   25  C6  UNL     1      -2.900  52.452 -10.478  1.00  0.00    -0.011 C 
HETATM   26  C7  UNL     1      -3.703  53.751 -10.335  1.00  0.00     0.010 C 
BRANCH  25  27
HETATM   27  C5  UNL     1      -3.377  51.368  -9.478  1.00  0.00     0.040 C 
BRANCH  27  28
HETATM   28  C4  UNL     1      -4.529  50.495 -10.001  1.00  0.00     0.142 C 
BRANCH  28  29
HETATM   29  C3  UNL     1      -4.230  49.940 -11.368  1.00  0.00     0.018 C 
HETATM   30  C2  UNL     1      -3.194  49.174 -11.772  1.00  0.00     0.010 C 
HETATM   31  C1  UNL     1      -2.026  48.755 -10.929  1.00  0.00     0.055 C 
BRANCH  30  32
HETATM   32  C30 UNL     1      -3.210  48.749 -13.195  1.00  0.00     0.171 C 
HETATM   33  O6  UNL     1      -3.165  47.605 -13.612  1.00  0.00    -0.646 OA
BRANCH  32  34
HETATM   34  O7  UNL     1      -3.265  49.790 -14.041  1.00  0.00    -0.773 OA
HETATM   35  H44 UNL     1      -3.269  49.367 -14.925  1.00  0.00     0.167 HD
ENDBRANCH  32  34
ENDBRANCH  30  32
ENDBRANCH  28  29
BRANCH  28  36
HETATM   36  O1  UNL     1      -4.801  49.434  -9.098  1.00  0.00    -0.392 OA
HETATM   37  H6  UNL     1      -5.509  48.898  -9.495  1.00  0.00     0.210 HD
ENDBRANCH  28  36
ENDBRANCH  27  28
ENDBRANCH  25  27
ENDBRANCH   1  25
BRANCH   3  38
HETATM   38  O2  UNL     1       1.555  53.015 -12.591  1.00  0.00    -0.394 OA
HETATM   39  H17 UNL     1       2.394  53.435 -12.302  1.00  0.00     0.210 HD
ENDBRANCH   3  38
BRANCH  24  40
HETATM   40  O5  UNL     1       3.358  54.564 -11.410  1.00  0.00    -0.391 OA
HETATM   41  H43 UNL     1       3.988  55.087 -11.938  1.00  0.00     0.210 HD
ENDBRANCH  24  40
TORSDOF 9
ENDMDL
MODEL 3
REMARK minimizedAffinity -7.7684927
REMARK CNNscore 0.752215326
REMARK CNNaffinity 6.53459692
REMARK  9 active torsions:
REMARK  status: ('A' for Active; 'I' for Inactive)
REMARK    1  A    between atoms: C2_2  and  C30_35 
REMARK    2  A    between atoms: C3_3  and  C4_4 
REMARK    3  A    between atoms: C4_4  and  O1_5 
REMARK    4  A    between atoms: C4_4  and  C5_6 
REMARK    5  A    between atoms: C5_6  and  C6_7 
REMARK    6  A    between atoms: C6_7  and  C8_9 
REMARK    7  A    between atoms: C10_11  and  O2_12 
REMARK    8  A    between atoms: C29_33  and  O5_34 
REMARK    9  A    between atoms: C30_35  and  O7_37 
ROOT
HETATM    1  C8  UNL     1      -8.173  47.271 -20.390  1.00  0.00     0.001 C 
HETATM    2  C9  UNL     1      -7.483  46.231 -19.465  1.00  0.00     0.038 C 
HETATM    3  C10 UNL     1      -5.968  46.351 -19.711  1.00  0.00     0.132 C 
HETATM    4  C11 UNL     1      -5.788  47.728 -20.412  1.00  0.00     0.017 C 
HETATM    5  C12 UNL     1      -5.805  48.845 -19.318  1.00  0.00     0.023 C 
HETATM    6  C13 UNL     1      -4.533  48.008 -21.249  1.00  0.00    -0.029 C 
HETATM    7  C14 UNL     1      -4.548  48.973 -22.208  1.00  0.00     0.002 C 
HETATM    8  C15 UNL     1      -5.881  49.619 -22.569  1.00  0.00     0.157 C 
HETATM    9  O3  UNL     1      -5.935  50.545 -23.377  1.00  0.00    -0.293 OA
HETATM   10  C16 UNL     1      -7.185  49.111 -21.962  1.00  0.00     0.094 C 
HETATM   11  C17 UNL     1      -7.039  47.712 -21.367  1.00  0.00    -0.019 C 
HETATM   12  C18 UNL     1      -6.899  46.699 -22.541  1.00  0.00     0.017 C 
HETATM   13  C19 UNL     1      -3.296  49.374 -23.014  1.00  0.00    -0.008 C 
HETATM   14  C20 UNL     1      -3.374  48.625 -24.371  1.00  0.00     0.021 C 
HETATM   15  C21 UNL     1      -3.150  50.885 -23.333  1.00  0.00     0.022 C 
HETATM   16  C22 UNL     1      -3.187  51.765 -22.095  1.00  0.00     0.080 C 
HETATM   17  C23 UNL     1      -2.538  51.098 -20.906  1.00  0.00     0.135 C 
HETATM   18  O4  UNL     1      -2.821  51.472 -19.767  1.00  0.00    -0.297 OA
HETATM   19  C24 UNL     1      -1.469  50.027 -21.176  1.00  0.00     0.018 C 
HETATM   20  C25 UNL     1      -0.222  50.768 -21.729  1.00  0.00     0.023 C 
HETATM   21  C26 UNL     1      -1.018  49.442 -19.823  1.00  0.00     0.023 C 
HETATM   22  C27 UNL     1      -1.972  48.964 -22.245  1.00  0.00     0.016 C 
HETATM   23  C28 UNL     1      -2.064  47.496 -21.788  1.00  0.00     0.043 C 
HETATM   24  C29 UNL     1      -3.323  47.139 -20.995  1.00  0.00     0.149 C 
ENDROOT
BRANCH   1  25
HETATM   25  C6  UNL     1      -9.591  46.830 -20.866  1.00  0.00    -0.011 C 
HETATM   26  C7  UNL     1      -9.833  46.822 -22.380  1.00  0.00     0.010 C 
BRANCH  25  27
HETATM   27  C5  UNL     1     -10.705  47.596 -20.108  1.00  0.00     0.040 C 
BRANCH  27  28
HETATM   28  C4  UNL     1     -12.070  46.889 -20.117  1.00  0.00     0.142 C 
BRANCH  28  29
HETATM   29  C3  UNL     1     -12.856  47.182 -18.866  1.00  0.00     0.018 C 
HETATM   30  C2  UNL     1     -13.390  46.322 -17.972  1.00  0.00     0.010 C 
HETATM   31  C1  UNL     1     -13.380  44.826 -18.072  1.00  0.00     0.055 C 
BRANCH  30  32
HETATM   32  C30 UNL     1     -14.079  46.935 -16.807  1.00  0.00     0.171 C 
HETATM   33  O6  UNL     1     -14.113  46.497 -15.670  1.00  0.00    -0.646 OA
BRANCH  32  34
HETATM   34  O7  UNL     1     -14.716  48.072 -17.128  1.00  0.00    -0.773 OA
HETATM   35  H44 UNL     1     -15.117  48.358 -16.280  1.00  0.00     0.167 HD
ENDBRANCH  32  34
ENDBRANCH  30  32
ENDBRANCH  28  29
BRANCH  28  36
HETATM   36  O1  UNL     1     -12.821  47.270 -21.259  1.00  0.00    -0.392 OA
HETATM   37  H6  UNL     1     -13.683  46.824 -21.194  1.00  0.00     0.210 HD
ENDBRANCH  28  36
ENDBRANCH  27  28
ENDBRANCH  25  27
ENDBRANCH   1  25
BRANCH   3  38
HETATM   38  O2  UNL     1      -5.284  46.229 -18.475  1.00  0.00    -0.394 OA
HETATM   39  H17 UNL     1      -4.371  46.553 -18.631  1.00  0.00     0.210 HD
ENDBRANCH   3  38
BRANCH  24  40
HETATM   40  O5  UNL     1      -3.048  47.109 -19.602  1.00  0.00    -0.391 OA
HETATM   41  H43 UNL     1      -2.205  46.636 -19.473  1.00  0.00     0.210 HD
ENDBRANCH  24  40
TORSDOF 9
ENDMDL
MODEL 4
REMARK minimizedAffinity -8.05285835
REMARK CNNscore 0.624063969
REMARK CNNaffinity 6.73277473
REMARK  9 active torsions:
REMARK  status: ('A' for Active; 'I' for Inactive)
REMARK    1  A    between atoms: C2_2  and  C30_35 
REMARK    2  A    between atoms: C3_3  and  C4_4 
REMARK    3  A    between atoms: C4_4  and  O1_5 
REMARK    4  A    between atoms: C4_4  and  C5_6 
REMARK    5  A    between atoms: C5_6  and  C6_7 
REMARK    6  A    between atoms: C6_7  and  C8_9 
REMARK    7  A    between atoms: C10_11  and  O2_12 
REMARK    8  A    between atoms: C29_33  and  O5_34 
REMARK    9  A    between atoms: C30_35  and  O7_37 
ROOT
HETATM    1  C8  UNL     1      -7.336  48.645 -22.118  1.00  0.00     0.001 C 
HETATM    2  C9  UNL     1      -7.947  48.133 -20.785  1.00  0.00     0.038 C 
HETATM    3  C10 UNL     1      -6.787  48.006 -19.781  1.00  0.00     0.132 C 
HETATM    4  C11 UNL     1      -5.637  48.855 -20.395  1.00  0.00     0.017 C 
HETATM    5  C12 UNL     1      -5.901  50.360 -20.060  1.00  0.00     0.023 C 
HETATM    6  C13 UNL     1      -4.183  48.602 -19.974  1.00  0.00    -0.029 C 
HETATM    7  C14 UNL     1      -3.158  48.982 -20.785  1.00  0.00     0.002 C 
HETATM    8  C15 UNL     1      -3.485  49.471 -22.191  1.00  0.00     0.157 C 
HETATM    9  O3  UNL     1      -2.599  49.892 -22.934  1.00  0.00    -0.293 OA
HETATM   10  C16 UNL     1      -4.913  49.417 -22.724  1.00  0.00     0.094 C 
HETATM   11  C17 UNL     1      -5.798  48.473 -21.913  1.00  0.00    -0.019 C 
HETATM   12  C18 UNL     1      -5.360  47.012 -22.225  1.00  0.00     0.017 C 
HETATM   13  C19 UNL     1      -1.677  48.850 -20.378  1.00  0.00    -0.008 C 
HETATM   14  C20 UNL     1      -1.144  47.547 -21.032  1.00  0.00     0.021 C 
HETATM   15  C21 UNL     1      -0.743  50.003 -20.832  1.00  0.00     0.022 C 
HETATM   16  C22 UNL     1      -1.214  51.371 -20.370  1.00  0.00     0.080 C 
HETATM   17  C23 UNL     1      -1.871  51.316 -19.011  1.00  0.00     0.135 C 
HETATM   18  O4  UNL     1      -2.641  52.213 -18.668  1.00  0.00    -0.297 OA
HETATM   19  C24 UNL     1      -1.470  50.171 -18.065  1.00  0.00     0.018 C 
HETATM   20  C25 UNL     1      -0.016  50.459 -17.604  1.00  0.00     0.023 C 
HETATM   21  C26 UNL     1      -2.325  50.281 -16.786  1.00  0.00     0.023 C 
HETATM   22  C27 UNL     1      -1.525  48.766 -18.803  1.00  0.00     0.016 C 
HETATM   23  C28 UNL     1      -2.498  47.713 -18.238  1.00  0.00     0.043 C 
HETATM   24  C29 UNL     1      -3.957  47.877 -18.668  1.00  0.00     0.149 C 
ENDROOT
BRANCH   1  25
HETATM   25  C6  UNL     1      -8.094  48.135 -23.382  1.00  0.00    -0.011 C 
HETATM   26  C7  UNL     1      -7.593  46.823 -23.998  1.00  0.00     0.010 C 
BRANCH  25  27
HETATM   27  C5  UNL     1      -8.235  49.254 -24.446  1.00  0.00     0.040 C 
BRANCH  27  28
HETATM   28  C4  UNL     1      -9.070  48.852 -25.672  1.00  0.00     0.142 C 
BRANCH  28  29
HETATM   29  C3  UNL     1     -10.285  48.054 -25.279  1.00  0.00     0.018 C 
HETATM   30  C2  UNL     1     -11.046  47.230 -26.032  1.00  0.00     0.010 C 
HETATM   31  C1  UNL     1     -10.885  46.977 -27.501  1.00  0.00     0.055 C 
BRANCH  30  32
HETATM   32  C30 UNL     1     -12.164  46.549 -25.329  1.00  0.00     0.171 C 
HETATM   33  O6  UNL     1     -12.196  45.384 -24.973  1.00  0.00    -0.646 OA
BRANCH  32  34
HETATM   34  O7  UNL     1     -13.210  47.363 -25.119  1.00  0.00    -0.773 OA
HETATM   35  H44 UNL     1     -13.858  46.791 -24.658  1.00  0.00     0.167 HD
ENDBRANCH  32  34
ENDBRANCH  30  32
ENDBRANCH  28  29
BRANCH  28  36
HETATM   36  O1  UNL     1      -9.464  50.001 -26.405  1.00  0.00    -0.392 OA
HETATM   37  H6  UNL     1     -10.016  49.692 -27.143  1.00  0.00     0.210 HD
ENDBRANCH  28  36
ENDBRANCH  27  28
ENDBRANCH  25  27
ENDBRANCH   1  25
BRANCH   3  38
HETATM   38  O2  UNL     1      -7.224  48.446 -18.506  1.00  0.00    -0.394 OA
HETATM   39  H17 UNL     1      -6.414  48.586 -17.969  1.00  0.00     0.210 HD
ENDBRANCH   3  38
BRANCH  24  40
HETATM   40  O5  UNL     1      -4.715  48.504 -17.643  1.00  0.00    -0.391 OA
HETATM   41  H43 UNL     1      -4.470  48.091 -16.795  1.00  0.00     0.210 HD
ENDBRANCH  24  40
TORSDOF 9
ENDMDL
MODEL 5
REMARK minimizedAffinity -8.01424122
REMARK CNNscore 0.616042614
REMARK CNNaffinity 6.88987112
REMARK  9 active torsions:
REMARK  status: ('A' for Active; 'I' for Inactive)
REMARK    1  A    between atoms: C2_2  and  C30_35 
REMARK    2  A    between atoms: C3_3  and  C4_4 
REMARK    3  A    between atoms: C4_4  and  O1_5 
REMARK    4  A    between atoms: C4_4  and  C5_6 
REMARK    5  A    between atoms: C5_6  and  C6_7 
REMARK    6  A    between atoms: C6_7  and  C8_9 
REMARK    7  A    between atoms: C10_11  and  O2_12 
REMARK    8  A    between atoms: C29_33  and  O5_34 
REMARK    9  A    between atoms: C30_35  and  O7_37 
ROOT
HETATM    1  C8  UNL     1      -1.085  50.977 -16.127  1.00  0.00     0.001 C 
HETATM    2  C9  UNL     1       0.185  51.346 -16.941  1.00  0.00     0.038 C 
HETATM    3  C10 UNL     1       0.031  50.695 -18.328  1.00  0.00     0.132 C 
HETATM    4  C11 UNL     1      -1.483  50.357 -18.441  1.00  0.00     0.017 C 
HETATM    5  C12 UNL     1      -2.251  51.657 -18.850  1.00  0.00     0.023 C 
HETATM    6  C13 UNL     1      -1.960  49.283 -19.429  1.00  0.00    -0.029 C 
HETATM    7  C14 UNL     1      -3.155  48.660 -19.240  1.00  0.00     0.002 C 
HETATM    8  C15 UNL     1      -3.902  48.899 -17.933  1.00  0.00     0.157 C 
HETATM    9  O3  UNL     1      -5.018  48.415 -17.747  1.00  0.00    -0.293 OA
HETATM   10  C16 UNL     1      -3.271  49.715 -16.810  1.00  0.00     0.094 C 
HETATM   11  C17 UNL     1      -1.759  49.853 -16.976  1.00  0.00    -0.019 C 
HETATM   12  C18 UNL     1      -1.111  48.471 -16.672  1.00  0.00     0.017 C 
HETATM   13  C19 UNL     1      -3.739  47.648 -20.247  1.00  0.00    -0.008 C 
HETATM   14  C20 UNL     1      -3.401  46.232 -19.710  1.00  0.00     0.021 C 
HETATM   15  C21 UNL     1      -5.276  47.704 -20.449  1.00  0.00     0.022 C 
HETATM   16  C22 UNL     1      -5.777  49.080 -20.855  1.00  0.00     0.080 C 
HETATM   17  C23 UNL     1      -4.792  49.803 -21.743  1.00  0.00     0.135 C 
HETATM   18  O4  UNL     1      -4.839  51.030 -21.835  1.00  0.00    -0.297 OA
HETATM   19  C24 UNL     1      -3.818  48.953 -22.577  1.00  0.00     0.018 C 
HETATM   20  C25 UNL     1      -4.659  48.264 -23.684  1.00  0.00     0.023 C 
HETATM   21  C26 UNL     1      -2.869  49.907 -23.331  1.00  0.00     0.023 C 
HETATM   22  C27 UNL     1      -3.106  47.848 -21.685  1.00  0.00     0.016 C 
HETATM   23  C28 UNL     1      -1.570  47.913 -21.577  1.00  0.00     0.043 C 
HETATM   24  C29 UNL     1      -1.031  48.926 -20.566  1.00  0.00     0.149 C 
ENDROOT
BRANCH   1  25
HETATM   25  C6  UNL     1      -0.822  50.852 -14.595  1.00  0.00    -0.011 C 
HETATM   26  C7  UNL     1      -2.048  50.610 -13.707  1.00  0.00     0.010 C 
BRANCH  25  27
HETATM   27  C5  UNL     1       0.044  52.027 -14.073  1.00  0.00     0.040 C 
BRANCH  27  28
HETATM   28  C4  UNL     1       0.741  51.745 -12.732  1.00  0.00     0.142 C 
BRANCH  28  29
HETATM   29  C3  UNL     1       1.769  50.652 -12.858  1.00  0.00     0.018 C 
HETATM   30  C2  UNL     1       2.853  50.586 -13.662  1.00  0.00     0.010 C 
HETATM   31  C1  UNL     1       3.243  51.595 -14.700  1.00  0.00     0.055 C 
BRANCH  30  32
HETATM   32  C30 UNL     1       3.703  49.377 -13.514  1.00  0.00     0.171 C 
HETATM   33  O6  UNL     1       3.377  48.317 -13.009  1.00  0.00    -0.646 OA
BRANCH  32  34
HETATM   34  O7  UNL     1       4.943  49.560 -13.996  1.00  0.00    -0.773 OA
HETATM   35  H44 UNL     1       5.381  48.699 -13.834  1.00  0.00     0.167 HD
ENDBRANCH  32  34
ENDBRANCH  30  32
ENDBRANCH  28  29
BRANCH  28  36
HETATM   36  O1  UNL     1       1.350  52.924 -12.229  1.00  0.00    -0.392 OA
HETATM   37  H6  UNL     1       1.803  52.680 -11.404  1.00  0.00     0.210 HD
ENDBRANCH  28  36
ENDBRANCH  27  28
ENDBRANCH  25  27
ENDBRANCH   1  25
BRANCH   3  38
HETATM   38  O2  UNL     1       0.506  51.592 -19.319  1.00  0.00    -0.394 OA
HETATM   39  H17 UNL     1       0.170  51.258 -20.178  1.00  0.00     0.210 HD
ENDBRANCH   3  38
BRANCH  24  40
HETATM   40  O5  UNL     1      -0.609  50.114 -21.220  1.00  0.00    -0.391 OA
HETATM   41  H43 UNL     1      -0.102  49.855 -22.012  1.00  0.00     0.210 HD
ENDBRANCH  24  40
TORSDOF 9
ENDMDL
MODEL 6
REMARK minimizedAffinity -7.31011534
REMARK CNNscore 0.535106659
REMARK CNNaffinity 6.16612244
REMARK  9 active torsions:
REMARK  status: ('A' for Active; 'I' for Inactive)
REMARK    1  A    between atoms: C2_2  and  C30_35 
REMARK    2  A    between atoms: C3_3  and  C4_4 
REMARK    3  A    between atoms: C4_4  and  O1_5 
REMARK    4  A    between atoms: C4_4  and  C5_6 
REMARK    5  A    between atoms: C5_6  and  C6_7 
REMARK    6  A    between atoms: C6_7  and  C8_9 
REMARK    7  A    between atoms: C10_11  and  O2_12 
REMARK    8  A    between atoms: C29_33  and  O5_34 
REMARK    9  A    between atoms: C30_35  and  O7_37 
ROOT
HETATM    1  C8  UNL     1       0.387  54.284  -9.009  1.00  0.00     0.001 C 
HETATM    2  C9  UNL     1      -0.997  54.646  -9.614  1.00  0.00     0.038 C 
HETATM    3  C10 UNL     1      -1.102  53.907 -10.961  1.00  0.00     0.132 C 
HETATM    4  C11 UNL     1      -0.005  52.807 -10.897  1.00  0.00     0.017 C 
HETATM    5  C12 UNL     1      -0.564  51.600 -10.073  1.00  0.00     0.023 C 
HETATM    6  C13 UNL     1       0.541  52.188 -12.190  1.00  0.00    -0.029 C 
HETATM    7  C14 UNL     1       1.764  51.590 -12.202  1.00  0.00     0.002 C 
HETATM    8  C15 UNL     1       2.653  51.728 -10.971  1.00  0.00     0.157 C 
HETATM    9  O3  UNL     1       3.735  51.146 -10.907  1.00  0.00    -0.293 OA
HETATM   10  C16 UNL     1       2.239  52.619  -9.805  1.00  0.00     0.094 C 
HETATM   11  C17 UNL     1       1.149  53.614 -10.196  1.00  0.00    -0.019 C 
HETATM   12  C18 UNL     1       1.788  54.693 -11.119  1.00  0.00     0.017 C 
HETATM   13  C19 UNL     1       2.328  50.861 -13.438  1.00  0.00    -0.008 C 
HETATM   14  C20 UNL     1       3.282  51.855 -14.152  1.00  0.00     0.021 C 
HETATM   15  C21 UNL     1       3.141  49.571 -13.153  1.00  0.00     0.022 C 
HETATM   16  C22 UNL     1       2.371  48.545 -12.340  1.00  0.00     0.080 C 
HETATM   17  C23 UNL     1       0.899  48.544 -12.677  1.00  0.00     0.135 C 
HETATM   18  O4  UNL     1       0.088  48.087 -11.870  1.00  0.00    -0.297 OA
HETATM   19  C24 UNL     1       0.480  49.038 -14.072  1.00  0.00     0.018 C 
HETATM   20  C25 UNL     1       0.947  47.960 -15.088  1.00  0.00     0.023 C 
HETATM   21  C26 UNL     1      -1.060  49.019 -14.148  1.00  0.00     0.023 C 
HETATM   22  C27 UNL     1       1.163  50.428 -14.422  1.00  0.00     0.016 C 
HETATM   23  C28 UNL     1       0.229  51.624 -14.687  1.00  0.00     0.043 C 
HETATM   24  C29 UNL     1      -0.306  52.322 -13.434  1.00  0.00     0.149 C 
ENDROOT
BRANCH   1  25
HETATM   25  C6  UNL     1       0.996  55.422  -8.134  1.00  0.00    -0.011 C 
HETATM   26  C7  UNL     1       0.019  56.485  -7.618  1.00  0.00     0.010 C 
BRANCH  25  27
HETATM   27  C5  UNL     1       2.234  56.058  -8.816  1.00  0.00     0.040 C 
BRANCH  27  28
HETATM   28  C4  UNL     1       3.437  56.248  -7.879  1.00  0.00     0.142 C 
BRANCH  28  29
HETATM   29  C3  UNL     1       4.521  55.240  -8.155  1.00  0.00     0.018 C 
HETATM   30  C2  UNL     1       5.177  54.983  -9.307  1.00  0.00     0.010 C 
HETATM   31  C1  UNL     1       4.905  55.621 -10.637  1.00  0.00     0.055 C 
BRANCH  30  32
HETATM   32  C30 UNL     1       6.236  53.944  -9.239  1.00  0.00     0.171 C 
HETATM   33  O6  UNL     1       6.068  52.740  -9.156  1.00  0.00    -0.646 OA
BRANCH  32  34
HETATM   34  O7  UNL     1       7.472  54.468  -9.261  1.00  0.00    -0.773 OA
HETATM   35  H44 UNL     1       8.055  53.682  -9.211  1.00  0.00     0.167 HD
ENDBRANCH  32  34
ENDBRANCH  30  32
ENDBRANCH  28  29
BRANCH  28  36
HETATM   36  O1  UNL     1       3.960  57.562  -7.998  1.00  0.00    -0.392 OA
HETATM   37  H6  UNL     1       4.736  57.614  -7.414  1.00  0.00     0.210 HD
ENDBRANCH  28  36
ENDBRANCH  27  28
ENDBRANCH  25  27
ENDBRANCH   1  25
BRANCH   3  38
HETATM   38  O2  UNL     1      -2.422  53.412 -11.119  1.00  0.00    -0.394 OA
HETATM   39  H17 UNL     1      -2.384  52.753 -11.845  1.00  0.00     0.210 HD
ENDBRANCH   3  38
BRANCH  24  40
HETATM   40  O5  UNL     1      -1.631  51.897 -13.150  1.00  0.00    -0.391 OA
HETATM   41  H43 UNL     1      -2.129  51.888 -13.988  1.00  0.00     0.210 HD
ENDBRANCH  24  40
TORSDOF 9
ENDMDL
MODEL 7
REMARK minimizedAffinity -7.5369873
REMARK CNNscore 0.498436213
REMARK CNNaffinity 6.35932922
REMARK  9 active torsions:
REMARK  status: ('A' for Active; 'I' for Inactive)
REMARK    1  A    between atoms: C2_2  and  C30_35 
REMARK    2  A    between atoms: C3_3  and  C4_4 
REMARK    3  A    between atoms: C4_4  and  O1_5 
REMARK    4  A    between atoms: C4_4  and  C5_6 
REMARK    5  A    between atoms: C5_6  and  C6_7 
REMARK    6  A    between atoms: C6_7  and  C8_9 
REMARK    7  A    between atoms: C10_11  and  O2_12 
REMARK    8  A    between atoms: C29_33  and  O5_34 
REMARK    9  A    between atoms: C30_35  and  O7_37 
ROOT
HETATM    1  C8  UNL     1      -6.298  46.531 -17.835  1.00  0.00     0.001 C 
HETATM    2  C9  UNL     1      -5.047  45.716 -17.405  1.00  0.00     0.038 C 
HETATM    3  C10 UNL     1      -3.921  46.072 -18.393  1.00  0.00     0.132 C 
HETATM    4  C11 UNL     1      -4.393  47.388 -19.075  1.00  0.00     0.017 C 
HETATM    5  C12 UNL     1      -4.074  48.583 -18.117  1.00  0.00     0.023 C 
HETATM    6  C13 UNL     1      -3.816  47.801 -20.435  1.00  0.00    -0.029 C 
HETATM    7  C14 UNL     1      -4.503  48.656 -21.241  1.00  0.00     0.002 C 
HETATM    8  C15 UNL     1      -5.931  49.026 -20.860  1.00  0.00     0.157 C 
HETATM    9  O3  UNL     1      -6.566  49.850 -21.518  1.00  0.00    -0.293 OA
HETATM   10  C16 UNL     1      -6.621  48.360 -19.675  1.00  0.00     0.094 C 
HETATM   11  C17 UNL     1      -5.924  47.068 -19.252  1.00  0.00    -0.019 C 
HETATM   12  C18 UNL     1      -6.202  45.990 -20.340  1.00  0.00     0.017 C 
HETATM   13  C19 UNL     1      -3.935  49.190 -22.572  1.00  0.00    -0.008 C 
HETATM   14  C20 UNL     1      -4.539  48.316 -23.703  1.00  0.00     0.021 C 
HETATM   15  C21 UNL     1      -4.269  50.667 -22.908  1.00  0.00     0.022 C 
HETATM   16  C22 UNL     1      -3.847  51.638 -21.818  1.00  0.00     0.080 C 
HETATM   17  C23 UNL     1      -2.570  51.206 -21.137  1.00  0.00     0.135 C 
HETATM   18  O4  UNL     1      -2.306  51.630 -20.011  1.00  0.00    -0.297 OA
HETATM   19  C24 UNL     1      -1.598  50.315 -21.928  1.00  0.00     0.018 C 
HETATM   20  C25 UNL     1      -0.975  51.206 -23.036  1.00  0.00     0.023 C 
HETATM   21  C26 UNL     1      -0.421  49.945 -21.003  1.00  0.00     0.023 C 
HETATM   22  C27 UNL     1      -2.354  49.087 -22.596  1.00  0.00     0.016 C 
HETATM   23  C28 UNL     1      -1.913  47.674 -22.169  1.00  0.00     0.043 C 
HETATM   24  C29 UNL     1      -2.501  47.180 -20.846  1.00  0.00     0.149 C 
ENDROOT
BRANCH   1  25
HETATM   25  C6  UNL     1      -7.644  45.810 -17.519  1.00  0.00    -0.011 C 
HETATM   26  C7  UNL     1      -7.693  44.302 -17.793  1.00  0.00     0.010 C 
BRANCH  25  27
HETATM   27  C5  UNL     1      -8.845  46.551 -18.160  1.00  0.00     0.040 C 
BRANCH  27  28
HETATM   28  C4  UNL     1      -9.465  47.634 -17.262  1.00  0.00     0.142 C 
BRANCH  28  29
HETATM   29  C3  UNL     1     -10.968  47.642 -17.355  1.00  0.00     0.018 C 
HETATM   30  C2  UNL     1     -11.858  46.736 -16.894  1.00  0.00     0.010 C 
HETATM   31  C1  UNL     1     -11.526  45.435 -16.227  1.00  0.00     0.055 C 
BRANCH  30  32
HETATM   32  C30 UNL     1     -13.291  47.060 -17.111  1.00  0.00     0.171 C 
HETATM   33  O6  UNL     1     -13.787  47.518 -18.126  1.00  0.00    -0.646 OA
BRANCH  32  34
HETATM   34  O7  UNL     1     -14.044  46.809 -16.028  1.00  0.00    -0.773 OA
HETATM   35  H44 UNL     1     -14.946  47.065 -16.312  1.00  0.00     0.167 HD
ENDBRANCH  32  34
ENDBRANCH  30  32
ENDBRANCH  28  29
BRANCH  28  36
HETATM   36  O1  UNL     1      -9.067  47.450 -15.912  1.00  0.00    -0.392 OA
HETATM   37  H6  UNL     1      -9.514  48.136 -15.388  1.00  0.00     0.210 HD
ENDBRANCH  28  36
ENDBRANCH  27  28
ENDBRANCH  25  27
ENDBRANCH   1  25
BRANCH   3  38
HETATM   38  O2  UNL     1      -2.698  46.185 -17.685  1.00  0.00    -0.394 OA
HETATM   39  H17 UNL     1      -2.073  46.645 -18.285  1.00  0.00     0.210 HD
ENDBRANCH   3  38
BRANCH  24  40
HETATM   40  O5  UNL     1      -1.560  47.329 -19.792  1.00  0.00    -0.391 OA
HETATM   41  H43 UNL     1      -0.694  47.022 -20.119  1.00  0.00     0.210 HD
ENDBRANCH  24  40
TORSDOF 9
ENDMDL
MODEL 8
REMARK minimizedAffinity -8.03411293
REMARK CNNscore 0.469353408
REMARK CNNaffinity 6.26455069
REMARK  9 active torsions:
REMARK  status: ('A' for Active; 'I' for Inactive)
REMARK    1  A    between atoms: C2_2  and  C30_35 
REMARK    2  A    between atoms: C3_3  and  C4_4 
REMARK    3  A    between atoms: C4_4  and  O1_5 
REMARK    4  A    between atoms: C4_4  and  C5_6 
REMARK    5  A    between atoms: C5_6  and  C6_7 
REMARK    6  A    between atoms: C6_7  and  C8_9 
REMARK    7  A    between atoms: C10_11  and  O2_12 
REMARK    8  A    between atoms: C29_33  and  O5_34 
REMARK    9  A    between atoms: C30_35  and  O7_37 
ROOT
HETATM    1  C8  UNL     1      -4.288  50.794 -22.577  1.00  0.00     0.001 C 
HETATM    2  C9  UNL     1      -5.125  50.817 -23.885  1.00  0.00     0.038 C 
HETATM    3  C10 UNL     1      -5.997  49.549 -23.880  1.00  0.00     0.132 C 
HETATM    4  C11 UNL     1      -5.985  49.066 -22.401  1.00  0.00     0.017 C 
HETATM    5  C12 UNL     1      -7.026  49.912 -21.597  1.00  0.00     0.023 C 
HETATM    6  C13 UNL     1      -6.314  47.605 -22.065  1.00  0.00    -0.029 C 
HETATM    7  C14 UNL     1      -5.884  47.057 -20.896  1.00  0.00     0.002 C 
HETATM    8  C15 UNL     1      -4.909  47.850 -20.034  1.00  0.00     0.157 C 
HETATM    9  O3  UNL     1      -4.550  47.428 -18.936  1.00  0.00    -0.293 OA
HETATM   10  C16 UNL     1      -4.329  49.172 -20.527  1.00  0.00     0.094 C 
HETATM   11  C17 UNL     1      -4.480  49.342 -22.037  1.00  0.00    -0.019 C 
HETATM   12  C18 UNL     1      -3.492  48.361 -22.735  1.00  0.00     0.017 C 
HETATM   13  C19 UNL     1      -6.265  45.629 -20.452  1.00  0.00    -0.008 C 
HETATM   14  C20 UNL     1      -5.073  44.709 -20.825  1.00  0.00     0.021 C 
HETATM   15  C21 UNL     1      -6.531  45.440 -18.935  1.00  0.00     0.022 C 
HETATM   16  C22 UNL     1      -7.597  46.377 -18.393  1.00  0.00     0.080 C 
HETATM   17  C23 UNL     1      -8.687  46.642 -19.404  1.00  0.00     0.135 C 
HETATM   18  O4  UNL     1      -9.388  47.648 -19.296  1.00  0.00    -0.297 OA
HETATM   19  C24 UNL     1      -8.936  45.580 -20.488  1.00  0.00     0.018 C 
HETATM   20  C25 UNL     1      -9.576  44.356 -19.777  1.00  0.00     0.023 C 
HETATM   21  C26 UNL     1     -10.029  46.107 -21.438  1.00  0.00     0.023 C 
HETATM   22  C27 UNL     1      -7.579  45.138 -21.187  1.00  0.00     0.016 C 
HETATM   23  C28 UNL     1      -7.457  45.384 -22.702  1.00  0.00     0.043 C 
HETATM   24  C29 UNL     1      -7.075  46.811 -23.101  1.00  0.00     0.149 C 
ENDROOT
BRANCH   1  25
HETATM   25  C6  UNL     1      -2.893  51.477 -22.723  1.00  0.00    -0.011 C 
HETATM   26  C7  UNL     1      -2.764  52.542 -23.818  1.00  0.00     0.010 C 
BRANCH  25  27
HETATM   27  C5  UNL     1      -1.756  50.427 -22.804  1.00  0.00     0.040 C 
BRANCH  27  28
HETATM   28  C4  UNL     1      -0.630  50.642 -21.780  1.00  0.00     0.142 C 
BRANCH  28  29
HETATM   29  C3  UNL     1       0.186  51.866 -22.100  1.00  0.00     0.018 C 
HETATM   30  C2  UNL     1       0.457  52.939 -21.326  1.00  0.00     0.010 C 
HETATM   31  C1  UNL     1      -0.080  53.191 -19.949  1.00  0.00     0.055 C 
BRANCH  30  32
HETATM   32  C30 UNL     1       1.340  53.972 -21.926  1.00  0.00     0.171 C 
HETATM   33  O6  UNL     1       2.168  54.648 -21.342  1.00  0.00    -0.646 OA
BRANCH  32  34
HETATM   34  O7  UNL     1       1.128  54.126 -23.243  1.00  0.00    -0.773 OA
HETATM   35  H44 UNL     1       1.767  54.824 -23.498  1.00  0.00     0.167 HD
ENDBRANCH  32  34
ENDBRANCH  30  32
ENDBRANCH  28  29
BRANCH  28  36
HETATM   36  O1  UNL     1      -1.161  50.746 -20.468  1.00  0.00    -0.392 OA
HETATM   37  H6  UNL     1      -0.413  50.916 -19.871  1.00  0.00     0.210 HD
ENDBRANCH  28  36
ENDBRANCH  27  28
ENDBRANCH  25  27
ENDBRANCH   1  25
BRANCH   3  38
HETATM   38  O2  UNL     1      -7.285  49.867 -24.382  1.00  0.00    -0.394 OA
HETATM   39  H17 UNL     1      -7.870  49.119 -24.135  1.00  0.00     0.210 HD
ENDBRANCH   3  38
BRANCH  24  40
HETATM   40  O5  UNL     1      -8.222  47.543 -23.508  1.00  0.00    -0.391 OA
HETATM   41  H43 UNL     1      -8.753  46.969 -24.090  1.00  0.00     0.210 HD
ENDBRANCH  24  40
TORSDOF 9
ENDMDL
MODEL 9
REMARK minimizedAffinity -7.20687628
REMARK CNNscore 0.460339934
REMARK CNNaffinity 5.69846153
REMARK  9 active torsions:
REMARK  status: ('A' for Active; 'I' for Inactive)
REMARK    1  A    between atoms: C2_2  and  C30_35 
REMARK    2  A    between atoms: C3_3  and  C4_4 
REMARK    3  A    between atoms: C4_4  and  O1_5 
REMARK    4  A    between atoms: C4_4  and  C5_6 
REMARK    5  A    between atoms: C5_6  and  C6_7 
REMARK    6  A    between atoms: C6_7  and  C8_9 
REMARK    7  A    between atoms: C10_11  and  O2_12 
REMARK    8  A    between atoms: C29_33  and  O5_34 
REMARK    9  A    between atoms: C30_35  and  O7_37 
ROOT
HETATM    1  C8  UNL     1     -13.957  45.528 -27.626  1.00  0.00     0.001 C 
HETATM    2  C9  UNL     1     -13.921  46.970 -27.048  1.00  0.00     0.038 C 
HETATM    3  C10 UNL     1     -12.451  47.425 -27.076  1.00  0.00     0.132 C 
HETATM    4  C11 UNL     1     -11.751  46.446 -28.061  1.00  0.00     0.017 C 
HETATM    5  C12 UNL     1     -12.038  46.926 -29.522  1.00  0.00     0.023 C 
HETATM    6  C13 UNL     1     -10.231  46.245 -27.998  1.00  0.00    -0.029 C 
HETATM    7  C14 UNL     1      -9.667  45.113 -28.501  1.00  0.00     0.002 C 
HETATM    8  C15 UNL     1     -10.583  43.974 -28.936  1.00  0.00     0.157 C 
HETATM    9  O3  UNL     1     -10.123  42.962 -29.462  1.00  0.00    -0.293 OA
HETATM   10  C16 UNL     1     -12.087  44.048 -28.697  1.00  0.00     0.094 C 
HETATM   11  C17 UNL     1     -12.456  45.100 -27.653  1.00  0.00    -0.019 C 
HETATM   12  C18 UNL     1     -12.008  44.574 -26.258  1.00  0.00     0.017 C 
HETATM   13  C19 UNL     1      -8.142  44.894 -28.561  1.00  0.00    -0.008 C 
HETATM   14  C20 UNL     1      -7.763  44.024 -27.333  1.00  0.00     0.021 C 
HETATM   15  C21 UNL     1      -7.611  44.160 -29.821  1.00  0.00     0.022 C 
HETATM   16  C22 UNL     1      -8.019  44.833 -31.121  1.00  0.00     0.080 C 
HETATM   17  C23 UNL     1      -8.068  46.337 -30.990  1.00  0.00     0.135 C 
HETATM   18  O4  UNL     1      -8.739  46.997 -31.784  1.00  0.00    -0.297 OA
HETATM   19  C24 UNL     1      -7.191  46.994 -29.912  1.00  0.00     0.018 C 
HETATM   20  C25 UNL     1      -5.718  46.854 -30.385  1.00  0.00     0.023 C 
HETATM   21  C26 UNL     1      -7.471  48.510 -29.920  1.00  0.00     0.023 C 
HETATM   22  C27 UNL     1      -7.367  46.274 -28.506  1.00  0.00     0.016 C 
HETATM   23  C28 UNL     1      -7.900  47.130 -27.341  1.00  0.00     0.043 C 
HETATM   24  C29 UNL     1      -9.418  47.321 -27.315  1.00  0.00     0.149 C 
ENDROOT
BRANCH   1  25
HETATM   25  C6  UNL     1     -15.089  44.646 -27.016  1.00  0.00    -0.011 C 
HETATM   26  C7  UNL     1     -14.716  43.202 -26.660  1.00  0.00     0.010 C 
BRANCH  25  27
HETATM   27  C5  UNL     1     -16.380  44.712 -27.872  1.00  0.00     0.040 C 
BRANCH  27  28
HETATM   28  C4  UNL     1     -17.641  45.083 -27.076  1.00  0.00     0.142 C 
BRANCH  28  29
HETATM   29  C3  UNL     1     -18.835  44.279 -27.518  1.00  0.00     0.018 C 
HETATM   30  C2  UNL     1     -19.059  42.951 -27.409  1.00  0.00     0.010 C 
HETATM   31  C1  UNL     1     -18.096  41.936 -26.869  1.00  0.00     0.055 C 
BRANCH  30  32
HETATM   32  C30 UNL     1     -20.371  42.466 -27.910  1.00  0.00     0.171 C 
HETATM   33  O6  UNL     1     -20.963  42.864 -28.898  1.00  0.00    -0.646 OA
BRANCH  32  34
HETATM   34  O7  UNL     1     -20.895  41.508 -27.130  1.00  0.00    -0.773 OA
HETATM   35  H44 UNL     1     -21.741  41.289 -27.573  1.00  0.00     0.167 HD
ENDBRANCH  32  34
ENDBRANCH  30  32
ENDBRANCH  28  29
BRANCH  28  36
HETATM   36  O1  UNL     1     -17.426  44.901 -25.685  1.00  0.00    -0.392 OA
HETATM   37  H6  UNL     1     -18.262  45.115 -25.238  1.00  0.00     0.210 HD
ENDBRANCH  28  36
ENDBRANCH  27  28
ENDBRANCH  25  27
ENDBRANCH   1  25
BRANCH   3  38
HETATM   38  O2  UNL     1     -12.393  48.788 -27.464  1.00  0.00    -0.394 OA
HETATM   39  H17 UNL     1     -11.459  48.966 -27.709  1.00  0.00     0.210 HD
ENDBRANCH   3  38
BRANCH  24  40
HETATM   40  O5  UNL     1      -9.774  48.589 -27.847  1.00  0.00    -0.391 OA
HETATM   41  H43 UNL     1      -9.164  49.251 -27.474  1.00  0.00     0.210 HD
ENDBRANCH  24  40
TORSDOF 9
ENDMDL
