MODEL 1
REMARK minimizedAffinity -10.6855698
REMARK CNNscore 0.480158836
REMARK CNNaffinity 8.1059866
REMARK  10 active torsions:
REMARK  status: ('A' for Active; 'I' for Inactive)
REMARK    1  A    between atoms: C2_2  and  O1_3 
REMARK    2  A    between atoms: O1_3  and  C3_4 
REMARK    3  A    between atoms: C3_4  and  C4_6 
REMARK    4  A    between atoms: C5_7  and  C6_8 
REMARK    5  A    between atoms: C12_16  and  C13_17 
REMARK    6  A    between atoms: C23_28  and  O5_29 
REMARK    7  A    between atoms: C27_34  and  C28_35 
REMARK    8  A    between atoms: C28_35  and  O7_36 
REMARK    9  A    between atoms: C38_47  and  C39_48 
REMARK   10  A    between atoms: C39_48  and  O8_49 
ROOT
HETATM    1  C4  UNL     1      -0.034  51.288 -17.186  1.00  0.00     0.165 C 
HETATM    2  C5  UNL     1      -0.570  50.065 -17.387  1.00  0.00     0.053 C 
HETATM    3  C7  UNL     1      -1.418  49.933 -18.579  1.00  0.00    -0.002 C 
HETATM    4  C8  UNL     1      -2.698  49.462 -18.551  1.00  0.00    -0.066 C 
HETATM    5  C9  UNL     1      -3.325  48.800 -17.326  1.00  0.00     0.042 C 
HETATM    6  C10 UNL     1      -4.775  48.356 -17.523  1.00  0.00     0.083 C 
HETATM    7  C11 UNL     1      -4.866  47.575 -18.817  1.00  0.00     0.136 C 
HETATM    8  O4  UNL     1      -5.328  46.435 -18.837  1.00  0.00    -0.297 OA
HETATM    9  C12 UNL     1      -4.347  48.276 -20.071  1.00  0.00     0.092 C 
HETATM   10  C21 UNL     1      -3.705  49.621 -19.690  1.00  0.00     0.052 C 
HETATM   11  C22 UNL     1      -0.854  50.652 -19.754  1.00  0.00     0.044 A 
HETATM   12  C23 UNL     1      -0.770  50.164 -21.064  1.00  0.00     0.091 A 
HETATM   13  C25 UNL     1      -0.260  50.990 -22.049  1.00  0.00     0.013 A 
HETATM   14  C26 UNL     1       0.225  52.255 -21.741  1.00  0.00     0.089 A 
HETATM   15  O6  UNL     1       0.698  52.935 -22.835  1.00  0.00    -0.341 OA
HETATM   16  C27 UNL     1       0.741  51.939 -23.895  1.00  0.00     0.168 C 
HETATM   17  C37 UNL     1      -0.179  50.766 -23.513  1.00  0.00     0.080 C 
HETATM   18  C38 UNL     1       0.231  52.760 -20.449  1.00  0.00     0.034 A 
HETATM   19  C40 UNL     1      -0.282  51.916 -19.453  1.00  0.00     0.101 A 
HETATM   20  O9  UNL     1      -0.165  52.320 -18.128  1.00  0.00    -0.302 OA
ENDROOT
BRANCH   2  21
HETATM   21  C6  UNL     1      -0.135  48.903 -16.571  1.00  0.00     0.273 C 
HETATM   22  O3  UNL     1       0.784  48.958 -15.760  1.00  0.00    -0.301 OA
ENDBRANCH   2  21
BRANCH   1  23
HETATM   23  C3  UNL     1       0.695  51.613 -15.937  1.00  0.00     0.318 C 
HETATM   24  O2  UNL     1       0.149  51.957 -14.899  1.00  0.00    -0.257 OA
BRANCH  23  25
HETATM   25  O1  UNL     1       2.026  51.503 -16.165  1.00  0.00    -0.316 OA
BRANCH  25  26
HETATM   26  C2  UNL     1       2.706  52.732 -16.452  1.00  0.00     0.175 C 
HETATM   27  C1  UNL     1       4.170  52.610 -16.072  1.00  0.00     0.034 C 
ENDBRANCH  25  26
ENDBRANCH  23  25
ENDBRANCH   1  23
BRANCH  12  28
HETATM   28  O5  UNL     1      -1.225  48.922 -21.411  1.00  0.00    -0.354 OA
HETATM   29  C24 UNL     1      -2.075  49.007 -22.556  1.00  0.00     0.210 C 
ENDBRANCH  12  28
BRANCH   9  30
HETATM   30  C13 UNL     1      -5.419  48.475 -21.130  1.00  0.00    -0.046 A 
HETATM   31  C14 UNL     1      -6.181  49.652 -21.127  1.00  0.00     0.010 A 
HETATM   32  C15 UNL     1      -7.198  49.876 -22.063  1.00  0.00     0.031 A 
HETATM   33  C16 UNL     1      -7.438  48.872 -23.007  1.00  0.00     0.042 A 
HETATM   34  N1  UNL     1      -8.352  48.816 -24.034  1.00  0.00    -0.365 N 
HETATM   35  C19 UNL     1      -6.714  47.683 -23.040  1.00  0.00    -0.008 A 
HETATM   36  C17 UNL     1      -8.235  47.631 -24.711  1.00  0.00     0.089 A 
HETATM   37  H14 UNL     1      -9.008  49.553 -24.257  1.00  0.00     0.165 HD
HETATM   38  C18 UNL     1      -7.225  46.908 -24.118  1.00  0.00     0.030 A 
HETATM   39  C20 UNL     1      -5.695  47.481 -22.087  1.00  0.00     0.021 A 
ENDBRANCH   9  30
BRANCH  18  40
HETATM   40  C39 UNL     1       0.815  54.106 -20.138  1.00  0.00     0.208 C 
BRANCH  40  41
HETATM   41  O8  UNL     1       1.968  54.370 -20.931  1.00  0.00    -0.396 OA
HETATM   42  H44 UNL     1       1.978  53.736 -21.666  1.00  0.00     0.209 HD
ENDBRANCH  40  41
ENDBRANCH  18  40
BRANCH  16  43
HETATM   43  C28 UNL     1       0.406  52.584 -25.270  1.00  0.00     0.089 C 
HETATM   44  C29 UNL     1       1.557  52.354 -26.293  1.00  0.00     0.041 C 
HETATM   45  C30 UNL     1       1.090  52.012 -27.710  1.00  0.00     0.004 C 
HETATM   46  C31 UNL     1      -0.103  52.847 -28.150  1.00  0.00     0.007 C 
HETATM   47  C32 UNL     1      -1.294  52.721 -27.189  1.00  0.00     0.021 C 
HETATM   48  C33 UNL     1      -2.473  51.957 -27.826  1.00  0.00     0.274 C 
HETATM   49  C36 UNL     1      -0.934  52.054 -25.844  1.00  0.00     0.030 C 
HETATM   50  N2  UNL     1      -3.501  51.529 -26.870  1.00  0.00     0.083 N 
HETATM   51  C34 UNL     1      -3.481  52.326 -25.644  1.00  0.00     0.270 C 
HETATM   52  H34 UNL     1      -3.343  50.551 -26.625  1.00  0.00     0.315 HD
HETATM   53  C35 UNL     1      -2.146  52.198 -24.895  1.00  0.00     0.038 C 
BRANCH  43  54
HETATM   54  O7  UNL     1       0.274  53.999 -25.042  1.00  0.00    -0.387 OA
HETATM   55  H24 UNL     1       0.324  54.457 -25.900  1.00  0.00     0.210 HD
ENDBRANCH  43  54
ENDBRANCH  16  43
TORSDOF 10
ENDMDL
MODEL 2
REMARK minimizedAffinity -10.1720552
REMARK CNNscore 0.379145145
REMARK CNNaffinity 7.60439062
REMARK  10 active torsions:
REMARK  status: ('A' for Active; 'I' for Inactive)
REMARK    1  A    between atoms: C2_2  and  O1_3 
REMARK    2  A    between atoms: O1_3  and  C3_4 
REMARK    3  A    between atoms: C3_4  and  C4_6 
REMARK    4  A    between atoms: C5_7  and  C6_8 
REMARK    5  A    between atoms: C12_16  and  C13_17 
REMARK    6  A    between atoms: C23_28  and  O5_29 
REMARK    7  A    between atoms: C27_34  and  C28_35 
REMARK    8  A    between atoms: C28_35  and  O7_36 
REMARK    9  A    between atoms: C38_47  and  C39_48 
REMARK   10  A    between atoms: C39_48  and  O8_49 
ROOT
HETATM    1  C4  UNL     1      -0.637  52.442 -24.587  1.00  0.00     0.165 C 
HETATM    2  C5  UNL     1      -1.947  52.115 -24.578  1.00  0.00     0.053 C 
HETATM    3  C7  UNL     1      -2.342  51.107 -23.586  1.00  0.00    -0.002 C 
HETATM    4  C8  UNL     1      -3.017  49.963 -23.893  1.00  0.00    -0.066 C 
HETATM    5  C9  UNL     1      -3.648  49.699 -25.259  1.00  0.00     0.042 C 
HETATM    6  C10 UNL     1      -4.349  48.346 -25.379  1.00  0.00     0.083 C 
HETATM    7  C11 UNL     1      -5.261  48.171 -24.183  1.00  0.00     0.136 C 
HETATM    8  O4  UNL     1      -6.460  47.933 -24.331  1.00  0.00    -0.297 OA
HETATM    9  C12 UNL     1      -4.614  48.318 -22.807  1.00  0.00     0.092 C 
HETATM   10  C21 UNL     1      -3.149  48.757 -22.964  1.00  0.00     0.052 C 
HETATM   11  C22 UNL     1      -1.661  51.309 -22.277  1.00  0.00     0.044 A 
HETATM   12  C23 UNL     1      -2.259  51.246 -21.012  1.00  0.00     0.091 A 
HETATM   13  C25 UNL     1      -1.463  51.409 -19.892  1.00  0.00     0.013 A 
HETATM   14  C26 UNL     1      -0.110  51.698 -20.013  1.00  0.00     0.089 A 
HETATM   15  O6  UNL     1       0.525  51.833 -18.804  1.00  0.00    -0.341 OA
HETATM   16  C27 UNL     1      -0.551  51.870 -17.827  1.00  0.00     0.168 C 
HETATM   17  C37 UNL     1      -1.818  51.267 -18.460  1.00  0.00     0.080 C 
HETATM   18  C38 UNL     1       0.518  51.841 -21.242  1.00  0.00     0.034 A 
HETATM   19  C40 UNL     1      -0.294  51.681 -22.374  1.00  0.00     0.101 A 
HETATM   20  O9  UNL     1       0.256  51.956 -23.620  1.00  0.00    -0.302 OA
ENDROOT
BRANCH   2  21
HETATM   21  C6  UNL     1      -2.930  52.898 -25.371  1.00  0.00     0.273 C 
HETATM   22  O3  UNL     1      -3.064  52.774 -26.584  1.00  0.00    -0.301 OA
ENDBRANCH   2  21
BRANCH   1  23
HETATM   23  C3  UNL     1      -0.068  53.310 -25.646  1.00  0.00     0.318 C 
HETATM   24  O2  UNL     1       0.140  54.506 -25.506  1.00  0.00    -0.257 OA
BRANCH  23  25
HETATM   25  O1  UNL     1       0.130  52.569 -26.763  1.00  0.00    -0.316 OA
BRANCH  25  26
HETATM   26  C2  UNL     1       0.927  51.390 -26.587  1.00  0.00     0.175 C 
HETATM   27  C1  UNL     1       2.360  51.673 -27.000  1.00  0.00     0.034 C 
ENDBRANCH  25  26
ENDBRANCH  23  25
ENDBRANCH   1  23
BRANCH  12  28
HETATM   28  O5  UNL     1      -3.589  50.975 -20.845  1.00  0.00    -0.354 OA
HETATM   29  C24 UNL     1      -3.772  50.006 -19.813  1.00  0.00     0.210 C 
ENDBRANCH  12  28
BRANCH   9  30
HETATM   30  C13 UNL     1      -4.709  47.056 -21.966  1.00  0.00    -0.046 A 
HETATM   31  C14 UNL     1      -3.597  46.639 -21.220  1.00  0.00     0.010 A 
HETATM   32  C15 UNL     1      -3.621  45.472 -20.448  1.00  0.00     0.031 A 
HETATM   33  C16 UNL     1      -4.800  44.720 -20.452  1.00  0.00     0.042 A 
HETATM   34  N1  UNL     1      -5.113  43.551 -19.797  1.00  0.00    -0.365 N 
HETATM   35  C19 UNL     1      -5.924  45.089 -21.187  1.00  0.00    -0.008 A 
HETATM   36  C17 UNL     1      -6.393  43.166 -20.096  1.00  0.00     0.089 A 
HETATM   37  H14 UNL     1      -4.486  43.058 -19.176  1.00  0.00     0.165 HD
HETATM   38  C18 UNL     1      -6.922  44.102 -20.955  1.00  0.00     0.030 A 
HETATM   39  C20 UNL     1      -5.876  46.269 -21.956  1.00  0.00     0.021 A 
ENDBRANCH   9  30
BRANCH  18  40
HETATM   40  C39 UNL     1       1.968  52.211 -21.342  1.00  0.00     0.208 C 
BRANCH  40  41
HETATM   41  O8  UNL     1       2.201  53.538 -20.879  1.00  0.00    -0.396 OA
HETATM   42  H44 UNL     1       1.421  53.821 -20.375  1.00  0.00     0.209 HD
ENDBRANCH  40  41
ENDBRANCH  18  40
BRANCH  16  43
HETATM   43  C28 UNL     1      -0.117  51.180 -16.502  1.00  0.00     0.089 C 
HETATM   44  C29 UNL     1       0.765  52.129 -15.639  1.00  0.00     0.041 C 
HETATM   45  C30 UNL     1       0.463  52.087 -14.138  1.00  0.00     0.004 C 
HETATM   46  C31 UNL     1       0.222  50.674 -13.629  1.00  0.00     0.007 C 
HETATM   47  C32 UNL     1      -0.911  49.964 -14.386  1.00  0.00     0.021 C 
HETATM   48  C33 UNL     1      -2.155  49.754 -13.499  1.00  0.00     0.274 C 
HETATM   49  C36 UNL     1      -1.337  50.687 -15.681  1.00  0.00     0.030 C 
HETATM   50  N2  UNL     1      -3.366  49.377 -14.238  1.00  0.00     0.083 N 
HETATM   51  C34 UNL     1      -3.057  48.785 -15.539  1.00  0.00     0.270 C 
HETATM   52  H34 UNL     1      -3.938  50.209 -14.388  1.00  0.00     0.315 HD
HETATM   53  C35 UNL     1      -2.305  49.762 -16.454  1.00  0.00     0.038 C 
BRANCH  43  54
HETATM   54  O7  UNL     1       0.674  50.035 -16.873  1.00  0.00    -0.387 OA
HETATM   55  H24 UNL     1       1.171  49.736 -16.090  1.00  0.00     0.210 HD
ENDBRANCH  43  54
ENDBRANCH  16  43
TORSDOF 10
ENDMDL
MODEL 3
REMARK minimizedAffinity -7.89983463
REMARK CNNscore 0.233993918
REMARK CNNaffinity 5.78198385
REMARK  10 active torsions:
REMARK  status: ('A' for Active; 'I' for Inactive)
REMARK    1  A    between atoms: C2_2  and  O1_3 
REMARK    2  A    between atoms: O1_3  and  C3_4 
REMARK    3  A    between atoms: C3_4  and  C4_6 
REMARK    4  A    between atoms: C5_7  and  C6_8 
REMARK    5  A    between atoms: C12_16  and  C13_17 
REMARK    6  A    between atoms: C23_28  and  O5_29 
REMARK    7  A    between atoms: C27_34  and  C28_35 
REMARK    8  A    between atoms: C28_35  and  O7_36 
REMARK    9  A    between atoms: C38_47  and  C39_48 
REMARK   10  A    between atoms: C39_48  and  O8_49 
ROOT
HETATM    1  C4  UNL     1     -18.541  43.652 -25.378  1.00  0.00     0.165 C 
HETATM    2  C5  UNL     1     -18.869  44.701 -24.594  1.00  0.00     0.053 C 
HETATM    3  C7  UNL     1     -17.801  45.195 -23.715  1.00  0.00    -0.002 C 
HETATM    4  C8  UNL     1     -17.935  45.341 -22.366  1.00  0.00    -0.066 C 
HETATM    5  C9  UNL     1     -19.272  45.234 -21.635  1.00  0.00     0.042 C 
HETATM    6  C10 UNL     1     -19.181  45.426 -20.122  1.00  0.00     0.083 C 
HETATM    7  C11 UNL     1     -18.374  46.677 -19.845  1.00  0.00     0.136 C 
HETATM    8  O4  UNL     1     -18.833  47.585 -19.153  1.00  0.00    -0.297 OA
HETATM    9  C12 UNL     1     -16.985  46.743 -20.477  1.00  0.00     0.092 C 
HETATM   10  C21 UNL     1     -16.770  45.528 -21.394  1.00  0.00     0.052 C 
HETATM   11  C22 UNL     1     -16.477  45.218 -24.397  1.00  0.00     0.044 A 
HETATM   12  C23 UNL     1     -15.540  46.257 -24.352  1.00  0.00     0.091 A 
HETATM   13  C25 UNL     1     -14.332  46.090 -25.007  1.00  0.00     0.013 A 
HETATM   14  C26 UNL     1     -14.075  44.946 -25.752  1.00  0.00     0.089 A 
HETATM   15  O6  UNL     1     -12.834  44.948 -26.337  1.00  0.00    -0.341 OA
HETATM   16  C27 UNL     1     -12.344  46.305 -26.151  1.00  0.00     0.168 C 
HETATM   17  C37 UNL     1     -13.138  46.968 -25.012  1.00  0.00     0.080 C 
HETATM   18  C38 UNL     1     -14.998  43.918 -25.888  1.00  0.00     0.034 A 
HETATM   19  C40 UNL     1     -16.222  44.095 -25.227  1.00  0.00     0.101 A 
HETATM   20  O9  UNL     1     -17.228  43.162 -25.450  1.00  0.00    -0.302 OA
ENDROOT
BRANCH   2  21
HETATM   21  C6  UNL     1     -20.154  45.422 -24.789  1.00  0.00     0.273 C 
HETATM   22  O3  UNL     1     -20.218  46.594 -25.146  1.00  0.00    -0.301 OA
ENDBRANCH   2  21
BRANCH   1  23
HETATM   23  C3  UNL     1     -19.564  42.942 -26.182  1.00  0.00     0.318 C 
HETATM   24  O2  UNL     1     -19.820  43.209 -27.347  1.00  0.00    -0.257 OA
BRANCH  23  25
HETATM   25  O1  UNL     1     -20.166  42.011 -25.403  1.00  0.00    -0.316 OA
BRANCH  25  26
HETATM   26  C2  UNL     1     -20.896  40.997 -26.107  1.00  0.00     0.175 C 
HETATM   27  C1  UNL     1     -22.109  40.582 -25.296  1.00  0.00     0.034 C 
ENDBRANCH  25  26
ENDBRANCH  23  25
ENDBRANCH   1  23
BRANCH  12  28
HETATM   28  O5  UNL     1     -15.753  47.404 -23.640  1.00  0.00    -0.354 OA
HETATM   29  C24 UNL     1     -14.692  47.616 -22.709  1.00  0.00     0.210 C 
ENDBRANCH  12  28
BRANCH   9  30
HETATM   30  C13 UNL     1     -15.868  46.845 -19.452  1.00  0.00    -0.046 A 
HETATM   31  C14 UNL     1     -15.579  48.086 -18.867  1.00  0.00     0.010 A 
HETATM   32  C15 UNL     1     -14.545  48.242 -17.936  1.00  0.00     0.031 A 
HETATM   33  C16 UNL     1     -13.794  47.108 -17.612  1.00  0.00     0.042 A 
HETATM   34  N1  UNL     1     -12.738  46.959 -16.741  1.00  0.00    -0.365 N 
HETATM   35  C19 UNL     1     -14.037  45.859 -18.176  1.00  0.00    -0.008 A 
HETATM   36  C17 UNL     1     -12.302  45.660 -16.740  1.00  0.00     0.089 A 
HETATM   37  H14 UNL     1     -12.351  47.704 -16.178  1.00  0.00     0.165 HD
HETATM   38  C18 UNL     1     -13.090  44.954 -17.620  1.00  0.00     0.030 A 
HETATM   39  C20 UNL     1     -15.084  45.727 -19.110  1.00  0.00     0.021 A 
ENDBRANCH   9  30
BRANCH  18  40
HETATM   40  C39 UNL     1     -14.715  42.722 -26.747  1.00  0.00     0.208 C 
BRANCH  40  41
HETATM   41  O8  UNL     1     -14.314  43.105 -28.059  1.00  0.00    -0.396 OA
HETATM   42  H44 UNL     1     -14.074  44.045 -28.036  1.00  0.00     0.209 HD
ENDBRANCH  40  41
ENDBRANCH  18  40
BRANCH  16  43
HETATM   43  C28 UNL     1     -10.804  46.309 -25.934  1.00  0.00     0.089 C 
HETATM   44  C29 UNL     1     -10.345  45.047 -25.146  1.00  0.00     0.041 C 
HETATM   45  C30 UNL     1      -9.047  44.415 -25.656  1.00  0.00     0.004 C 
HETATM   46  C31 UNL     1      -7.996  45.452 -26.022  1.00  0.00     0.007 C 
HETATM   47  C32 UNL     1      -8.504  46.460 -27.064  1.00  0.00     0.021 C 
HETATM   48  C33 UNL     1      -7.805  46.282 -28.428  1.00  0.00     0.274 C 
HETATM   49  C36 UNL     1     -10.032  46.413 -27.275  1.00  0.00     0.030 C 
HETATM   50  N2  UNL     1      -8.459  46.987 -29.537  1.00  0.00     0.083 N 
HETATM   51  C34 UNL     1      -9.294  48.094 -29.071  1.00  0.00     0.270 C 
HETATM   52  H34 UNL     1      -9.048  46.329 -30.049  1.00  0.00     0.315 HD
HETATM   53  C35 UNL     1     -10.433  47.615 -28.161  1.00  0.00     0.038 C 
BRANCH  43  54
HETATM   54  O7  UNL     1     -10.501  47.474 -25.144  1.00  0.00    -0.387 OA
HETATM   55  H24 UNL     1      -9.606  47.373 -24.774  1.00  0.00     0.210 HD
ENDBRANCH  43  54
ENDBRANCH  16  43
TORSDOF 10
ENDMDL
MODEL 4
REMARK minimizedAffinity -9.52019215
REMARK CNNscore 0.208436728
REMARK CNNaffinity 7.01624918
REMARK  10 active torsions:
REMARK  status: ('A' for Active; 'I' for Inactive)
REMARK    1  A    between atoms: C2_2  and  O1_3 
REMARK    2  A    between atoms: O1_3  and  C3_4 
REMARK    3  A    between atoms: C3_4  and  C4_6 
REMARK    4  A    between atoms: C5_7  and  C6_8 
REMARK    5  A    between atoms: C12_16  and  C13_17 
REMARK    6  A    between atoms: C23_28  and  O5_29 
REMARK    7  A    between atoms: C27_34  and  C28_35 
REMARK    8  A    between atoms: C28_35  and  O7_36 
REMARK    9  A    between atoms: C38_47  and  C39_48 
REMARK   10  A    between atoms: C39_48  and  O8_49 
ROOT
HETATM    1  C4  UNL     1      -6.253  48.309 -24.837  1.00  0.00     0.165 C 
HETATM    2  C5  UNL     1      -4.967  48.539 -25.181  1.00  0.00     0.053 C 
HETATM    3  C7  UNL     1      -4.075  48.921 -24.079  1.00  0.00    -0.002 C 
HETATM    4  C8  UNL     1      -3.301  50.044 -24.083  1.00  0.00    -0.066 C 
HETATM    5  C9  UNL     1      -3.088  50.916 -25.319  1.00  0.00     0.042 C 
HETATM    6  C10 UNL     1      -2.187  52.128 -25.087  1.00  0.00     0.083 C 
HETATM    7  C11 UNL     1      -0.931  51.664 -24.381  1.00  0.00     0.136 C 
HETATM    8  O4  UNL     1       0.182  51.899 -24.849  1.00  0.00    -0.297 OA
HETATM    9  C12 UNL     1      -1.130  50.890 -23.079  1.00  0.00     0.092 C 
HETATM   10  C21 UNL     1      -2.630  50.638 -22.846  1.00  0.00     0.052 C 
HETATM   11  C22 UNL     1      -4.339  48.133 -22.843  1.00  0.00     0.044 A 
HETATM   12  C23 UNL     1      -3.376  47.550 -22.011  1.00  0.00     0.091 A 
HETATM   13  C25 UNL     1      -3.797  46.891 -20.868  1.00  0.00     0.013 A 
HETATM   14  C26 UNL     1      -5.149  46.750 -20.583  1.00  0.00     0.089 A 
HETATM   15  O6  UNL     1      -5.386  46.067 -19.417  1.00  0.00    -0.341 OA
HETATM   16  C27 UNL     1      -4.093  45.518 -19.043  1.00  0.00     0.168 C 
HETATM   17  C37 UNL     1      -2.989  46.304 -19.772  1.00  0.00     0.080 C 
HETATM   18  C38 UNL     1      -6.145  47.246 -21.410  1.00  0.00     0.034 A 
HETATM   19  C40 UNL     1      -5.713  47.907 -22.570  1.00  0.00     0.101 A 
HETATM   20  O9  UNL     1      -6.672  48.295 -23.498  1.00  0.00    -0.302 OA
ENDROOT
BRANCH   2  21
HETATM   21  C6  UNL     1      -4.475  48.206 -26.543  1.00  0.00     0.273 C 
HETATM   22  O3  UNL     1      -3.284  48.156 -26.832  1.00  0.00    -0.301 OA
ENDBRANCH   2  21
BRANCH   1  23
HETATM   23  C3  UNL     1      -7.297  48.088 -25.867  1.00  0.00     0.318 C 
HETATM   24  O2  UNL     1      -7.056  47.835 -27.038  1.00  0.00    -0.257 OA
BRANCH  23  25
HETATM   25  O1  UNL     1      -8.516  48.255 -25.298  1.00  0.00    -0.316 OA
BRANCH  25  26
HETATM   26  C2  UNL     1      -9.436  49.066 -26.040  1.00  0.00     0.175 C 
HETATM   27  C1  UNL     1     -10.556  48.202 -26.588  1.00  0.00     0.034 C 
ENDBRANCH  25  26
ENDBRANCH  23  25
ENDBRANCH   1  23
BRANCH  12  28
HETATM   28  O5  UNL     1      -2.035  47.655 -22.258  1.00  0.00    -0.354 OA
HETATM   29  C24 UNL     1      -1.313  47.786 -21.033  1.00  0.00     0.210 C 
ENDBRANCH  12  28
BRANCH   9  30
HETATM   30  C13 UNL     1      -0.509  51.578 -21.875  1.00  0.00    -0.046 A 
HETATM   31  C14 UNL     1       0.162  52.797 -22.047  1.00  0.00     0.010 A 
HETATM   32  C15 UNL     1       0.775  53.460 -20.977  1.00  0.00     0.031 A 
HETATM   33  C16 UNL     1       0.703  52.857 -19.718  1.00  0.00     0.042 A 
HETATM   34  N1  UNL     1       1.198  53.272 -18.503  1.00  0.00    -0.365 N 
HETATM   35  C19 UNL     1       0.058  51.642 -19.503  1.00  0.00    -0.008 A 
HETATM   36  C17 UNL     1       0.893  52.358 -17.528  1.00  0.00     0.089 A 
HETATM   37  H14 UNL     1       1.705  54.134 -18.355  1.00  0.00     0.165 HD
HETATM   38  C18 UNL     1       0.184  51.337 -18.119  1.00  0.00     0.030 A 
HETATM   39  C20 UNL     1      -0.552  50.993 -20.595  1.00  0.00     0.021 A 
ENDBRANCH   9  30
BRANCH  18  40
HETATM   40  C39 UNL     1      -7.597  47.027 -21.106  1.00  0.00     0.208 C 
BRANCH  40  41
HETATM   41  O8  UNL     1      -7.843  45.693 -20.673  1.00  0.00    -0.396 OA
HETATM   42  H44 UNL     1      -6.991  45.293 -20.434  1.00  0.00     0.209 HD
ENDBRANCH  40  41
ENDBRANCH  18  40
BRANCH  16  43
HETATM   43  C28 UNL     1      -3.932  45.491 -17.496  1.00  0.00     0.089 C 
HETATM   44  C29 UNL     1      -3.380  44.118 -17.013  1.00  0.00     0.041 C 
HETATM   45  C30 UNL     1      -2.331  44.209 -15.901  1.00  0.00     0.004 C 
HETATM   46  C31 UNL     1      -2.683  45.249 -14.849  1.00  0.00     0.007 C 
HETATM   47  C32 UNL     1      -2.894  46.646 -15.452  1.00  0.00     0.021 C 
HETATM   48  C33 UNL     1      -1.773  47.625 -15.047  1.00  0.00     0.274 C 
HETATM   49  C36 UNL     1      -3.023  46.642 -16.990  1.00  0.00     0.030 C 
HETATM   50  N2  UNL     1      -1.742  48.864 -15.834  1.00  0.00     0.083 N 
HETATM   51  C34 UNL     1      -3.032  49.155 -16.458  1.00  0.00     0.270 C 
HETATM   52  H34 UNL     1      -1.038  48.775 -16.569  1.00  0.00     0.315 HD
HETATM   53  C35 UNL     1      -3.459  48.055 -17.441  1.00  0.00     0.038 C 
BRANCH  43  54
HETATM   54  O7  UNL     1      -5.248  45.673 -16.940  1.00  0.00    -0.387 OA
HETATM   55  H24 UNL     1      -5.228  45.406 -16.004  1.00  0.00     0.210 HD
ENDBRANCH  43  54
ENDBRANCH  16  43
TORSDOF 10
ENDMDL
MODEL 5
REMARK minimizedAffinity -8.95921135
REMARK CNNscore 0.207186878
REMARK CNNaffinity 6.81972361
REMARK  10 active torsions:
REMARK  status: ('A' for Active; 'I' for Inactive)
REMARK    1  A    between atoms: C2_2  and  O1_3 
REMARK    2  A    between atoms: O1_3  and  C3_4 
REMARK    3  A    between atoms: C3_4  and  C4_6 
REMARK    4  A    between atoms: C5_7  and  C6_8 
REMARK    5  A    between atoms: C12_16  and  C13_17 
REMARK    6  A    between atoms: C23_28  and  O5_29 
REMARK    7  A    between atoms: C27_34  and  C28_35 
REMARK    8  A    between atoms: C28_35  and  O7_36 
REMARK    9  A    between atoms: C38_47  and  C39_48 
REMARK   10  A    between atoms: C39_48  and  O8_49 
ROOT
HETATM    1  C4  UNL     1      -0.618  49.395 -15.103  1.00  0.00     0.165 C 
HETATM    2  C5  UNL     1      -0.589  50.623 -15.663  1.00  0.00     0.053 C 
HETATM    3  C7  UNL     1      -0.944  50.679 -17.086  1.00  0.00    -0.002 C 
HETATM    4  C8  UNL     1      -0.155  51.246 -18.044  1.00  0.00    -0.066 C 
HETATM    5  C9  UNL     1       1.076  52.092 -17.728  1.00  0.00     0.042 C 
HETATM    6  C10 UNL     1       1.812  52.619 -18.960  1.00  0.00     0.083 C 
HETATM    7  C11 UNL     1       0.798  53.248 -19.892  1.00  0.00     0.136 C 
HETATM    8  O4  UNL     1       0.927  54.410 -20.276  1.00  0.00    -0.297 OA
HETATM    9  C12 UNL     1      -0.379  52.368 -20.308  1.00  0.00     0.092 C 
HETATM   10  C21 UNL     1      -0.328  51.033 -19.547  1.00  0.00     0.052 C 
HETATM   11  C22 UNL     1      -2.090  49.787 -17.416  1.00  0.00     0.044 A 
HETATM   12  C23 UNL     1      -3.189  50.112 -18.221  1.00  0.00     0.091 A 
HETATM   13  C25 UNL     1      -4.143  49.140 -18.465  1.00  0.00     0.013 A 
HETATM   14  C26 UNL     1      -4.054  47.887 -17.873  1.00  0.00     0.089 A 
HETATM   15  O6  UNL     1      -5.085  47.050 -18.219  1.00  0.00    -0.341 OA
HETATM   16  C27 UNL     1      -6.042  47.909 -18.900  1.00  0.00     0.168 C 
HETATM   17  C37 UNL     1      -5.319  49.185 -19.367  1.00  0.00     0.080 C 
HETATM   18  C38 UNL     1      -3.025  47.537 -17.011  1.00  0.00     0.034 A 
HETATM   19  C40 UNL     1      -2.063  48.527 -16.762  1.00  0.00     0.101 A 
HETATM   20  O9  UNL     1      -1.095  48.273 -15.798  1.00  0.00    -0.302 OA
ENDROOT
BRANCH   2  21
HETATM   21  C6  UNL     1      -0.423  51.837 -14.822  1.00  0.00     0.273 C 
HETATM   22  O3  UNL     1       0.672  52.286 -14.500  1.00  0.00    -0.301 OA
ENDBRANCH   2  21
BRANCH   1  23
HETATM   23  C3  UNL     1      -0.116  49.164 -13.727  1.00  0.00     0.318 C 
HETATM   24  O2  UNL     1      -0.831  49.143 -12.736  1.00  0.00    -0.257 OA
BRANCH  23  25
HETATM   25  O1  UNL     1       1.231  49.029 -13.768  1.00  0.00    -0.316 OA
BRANCH  25  26
HETATM   26  C2  UNL     1       1.720  47.981 -14.616  1.00  0.00     0.175 C 
HETATM   27  C1  UNL     1       2.770  47.172 -13.879  1.00  0.00     0.034 C 
ENDBRANCH  25  26
ENDBRANCH  23  25
ENDBRANCH   1  23
BRANCH  12  28
HETATM   28  O5  UNL     1      -3.323  51.336 -18.816  1.00  0.00    -0.354 OA
HETATM   29  C24 UNL     1      -3.822  51.189 -20.146  1.00  0.00     0.210 C 
ENDBRANCH  12  28
BRANCH   9  30
HETATM   30  C13 UNL     1      -0.444  52.129 -21.807  1.00  0.00    -0.046 A 
HETATM   31  C14 UNL     1      -1.349  51.186 -22.317  1.00  0.00     0.010 A 
HETATM   32  C15 UNL     1      -1.433  50.909 -23.686  1.00  0.00     0.031 A 
HETATM   33  C16 UNL     1      -0.569  51.602 -24.539  1.00  0.00     0.042 A 
HETATM   34  N1  UNL     1      -0.431  51.543 -25.907  1.00  0.00    -0.365 N 
HETATM   35  C19 UNL     1       0.353  52.538 -24.077  1.00  0.00    -0.008 A 
HETATM   36  C17 UNL     1       0.550  52.404 -26.324  1.00  0.00     0.089 A 
HETATM   37  H14 UNL     1      -0.984  50.953 -26.513  1.00  0.00     0.165 HD
HETATM   38  C18 UNL     1       1.053  53.036 -25.211  1.00  0.00     0.030 A 
HETATM   39  C20 UNL     1       0.418  52.802 -22.693  1.00  0.00     0.021 A 
ENDBRANCH   9  30
BRANCH  18  40
HETATM   40  C39 UNL     1      -2.987  46.196 -16.341  1.00  0.00     0.208 C 
BRANCH  40  41
HETATM   41  O8  UNL     1      -2.708  45.155 -17.272  1.00  0.00    -0.396 OA
HETATM   42  H44 UNL     1      -2.361  45.562 -18.082  1.00  0.00     0.209 HD
ENDBRANCH  40  41
ENDBRANCH  18  40
BRANCH  16  43
HETATM   43  C28 UNL     1      -6.761  47.136 -20.042  1.00  0.00     0.089 C 
HETATM   44  C29 UNL     1      -6.628  47.888 -21.398  1.00  0.00     0.041 C 
HETATM   45  C30 UNL     1      -6.363  46.982 -22.604  1.00  0.00     0.004 C 
HETATM   46  C31 UNL     1      -7.190  45.706 -22.570  1.00  0.00     0.007 C 
HETATM   47  C32 UNL     1      -6.971  44.899 -21.282  1.00  0.00     0.021 C 
HETATM   48  C33 UNL     1      -6.215  43.580 -21.548  1.00  0.00     0.274 C 
HETATM   49  C36 UNL     1      -6.231  45.685 -20.179  1.00  0.00     0.030 C 
HETATM   50  N2  UNL     1      -5.700  42.926 -20.339  1.00  0.00     0.083 N 
HETATM   51  C34 UNL     1      -6.419  43.345 -19.136  1.00  0.00     0.270 C 
HETATM   52  H34 UNL     1      -4.713  43.162 -20.227  1.00  0.00     0.315 HD
HETATM   53  C35 UNL     1      -6.282  44.852 -18.877  1.00  0.00     0.038 C 
BRANCH  43  54
HETATM   54  O7  UNL     1      -8.155  47.079 -19.687  1.00  0.00    -0.387 OA
HETATM   55  H24 UNL     1      -8.667  46.840 -20.481  1.00  0.00     0.210 HD
ENDBRANCH  43  54
ENDBRANCH  16  43
TORSDOF 10
ENDMDL
MODEL 6
REMARK minimizedAffinity -9.91111565
REMARK CNNscore 0.199036852
REMARK CNNaffinity 7.14689779
REMARK  10 active torsions:
REMARK  status: ('A' for Active; 'I' for Inactive)
REMARK    1  A    between atoms: C2_2  and  O1_3 
REMARK    2  A    between atoms: O1_3  and  C3_4 
REMARK    3  A    between atoms: C3_4  and  C4_6 
REMARK    4  A    between atoms: C5_7  and  C6_8 
REMARK    5  A    between atoms: C12_16  and  C13_17 
REMARK    6  A    between atoms: C23_28  and  O5_29 
REMARK    7  A    between atoms: C27_34  and  C28_35 
REMARK    8  A    between atoms: C28_35  and  O7_36 
REMARK    9  A    between atoms: C38_47  and  C39_48 
REMARK   10  A    between atoms: C39_48  and  O8_49 
ROOT
HETATM    1  C4  UNL     1      -2.912  47.999 -18.728  1.00  0.00     0.165 C 
HETATM    2  C5  UNL     1      -2.594  49.293 -18.948  1.00  0.00     0.053 C 
HETATM    3  C7  UNL     1      -2.617  49.722 -20.352  1.00  0.00    -0.002 C 
HETATM    4  C8  UNL     1      -1.568  50.328 -20.979  1.00  0.00    -0.066 C 
HETATM    5  C9  UNL     1      -0.333  50.845 -20.244  1.00  0.00     0.042 C 
HETATM    6  C10 UNL     1       0.719  51.483 -21.150  1.00  0.00     0.083 C 
HETATM    7  C11 UNL     1       0.029  52.474 -22.063  1.00  0.00     0.136 C 
HETATM    8  O4  UNL     1       0.395  53.647 -22.114  1.00  0.00    -0.297 OA
HETATM    9  C12 UNL     1      -1.137  51.937 -22.892  1.00  0.00     0.092 C 
HETATM   10  C21 UNL     1      -1.434  50.482 -22.493  1.00  0.00     0.052 C 
HETATM   11  C22 UNL     1      -3.773  49.148 -21.096  1.00  0.00     0.044 A 
HETATM   12  C23 UNL     1      -4.614  49.836 -21.979  1.00  0.00     0.091 A 
HETATM   13  C25 UNL     1      -5.614  49.132 -22.627  1.00  0.00     0.013 A 
HETATM   14  C26 UNL     1      -5.827  47.785 -22.361  1.00  0.00     0.089 A 
HETATM   15  O6  UNL     1      -6.861  47.248 -23.087  1.00  0.00    -0.341 OA
HETATM   16  C27 UNL     1      -7.519  48.394 -23.692  1.00  0.00     0.168 C 
HETATM   17  C37 UNL     1      -6.546  49.586 -23.687  1.00  0.00     0.080 C 
HETATM   18  C38 UNL     1      -5.069  47.074 -21.443  1.00  0.00     0.034 A 
HETATM   19  C40 UNL     1      -4.060  47.793 -20.785  1.00  0.00     0.101 A 
HETATM   20  O9  UNL     1      -3.371  47.163 -19.756  1.00  0.00    -0.302 OA
ENDROOT
BRANCH   2  21
HETATM   21  C6  UNL     1      -2.454  50.244 -17.814  1.00  0.00     0.273 C 
HETATM   22  O3  UNL     1      -2.898  51.387 -17.838  1.00  0.00    -0.301 OA
ENDBRANCH   2  21
BRANCH   1  23
HETATM   23  C3  UNL     1      -2.759  47.387 -17.386  1.00  0.00     0.318 C 
HETATM   24  O2  UNL     1      -3.099  46.244 -17.117  1.00  0.00    -0.257 OA
BRANCH  23  25
HETATM   25  O1  UNL     1      -2.236  48.307 -16.540  1.00  0.00    -0.316 OA
BRANCH  25  26
HETATM   26  C2  UNL     1      -2.257  47.951 -15.152  1.00  0.00     0.175 C 
HETATM   27  C1  UNL     1      -2.150  49.202 -14.299  1.00  0.00     0.034 C 
ENDBRANCH  25  26
ENDBRANCH  23  25
ENDBRANCH   1  23
BRANCH  12  28
HETATM   28  O5  UNL     1      -4.448  51.163 -22.264  1.00  0.00    -0.354 OA
HETATM   29  C24 UNL     1      -4.765  51.421 -23.632  1.00  0.00     0.210 C 
ENDBRANCH  12  28
BRANCH   9  30
HETATM   30  C13 UNL     1      -0.903  52.045 -24.390  1.00  0.00    -0.046 A 
HETATM   31  C14 UNL     1      -1.966  52.406 -25.230  1.00  0.00     0.010 A 
HETATM   32  C15 UNL     1      -1.813  52.496 -26.618  1.00  0.00     0.031 A 
HETATM   33  C16 UNL     1      -0.553  52.202 -27.148  1.00  0.00     0.042 A 
HETATM   34  N1  UNL     1      -0.111  52.211 -28.452  1.00  0.00    -0.365 N 
HETATM   35  C19 UNL     1       0.528  51.828 -26.354  1.00  0.00    -0.008 A 
HETATM   36  C17 UNL     1       1.209  51.850 -28.509  1.00  0.00     0.089 A 
HETATM   37  H14 UNL     1      -0.682  52.459 -29.248  1.00  0.00     0.165 HD
HETATM   38  C18 UNL     1       1.634  51.608 -27.222  1.00  0.00     0.030 A 
HETATM   39  C20 UNL     1       0.350  51.745 -24.958  1.00  0.00     0.021 A 
ENDBRANCH   9  30
BRANCH  18  40
HETATM   40  C39 UNL     1      -5.360  45.636 -21.134  1.00  0.00     0.208 C 
BRANCH  40  41
HETATM   41  O8  UNL     1      -4.163  44.872 -21.030  1.00  0.00    -0.396 OA
HETATM   42  H44 UNL     1      -3.420  45.490 -20.936  1.00  0.00     0.209 HD
ENDBRANCH  40  41
ENDBRANCH  18  40
BRANCH  16  43
HETATM   43  C28 UNL     1      -8.068  48.033 -25.102  1.00  0.00     0.089 C 
HETATM   44  C29 UNL     1      -6.909  47.729 -26.095  1.00  0.00     0.041 C 
HETATM   45  C30 UNL     1      -7.166  46.543 -27.028  1.00  0.00     0.004 C 
HETATM   46  C31 UNL     1      -8.590  46.515 -27.561  1.00  0.00     0.007 C 
HETATM   47  C32 UNL     1      -9.637  46.501 -26.437  1.00  0.00     0.021 C 
HETATM   48  C33 UNL     1     -10.378  45.151 -26.355  1.00  0.00     0.274 C 
HETATM   49  C36 UNL     1      -9.055  46.837 -25.048  1.00  0.00     0.030 C 
HETATM   50  N2  UNL     1     -11.151  44.961 -25.122  1.00  0.00     0.083 N 
HETATM   51  C34 UNL     1     -11.486  46.232 -24.480  1.00  0.00     0.270 C 
HETATM   52  H34 UNL     1     -10.603  44.401 -24.468  1.00  0.00     0.315 HD
HETATM   53  C35 UNL     1     -10.234  47.016 -24.063  1.00  0.00     0.038 C 
BRANCH  43  54
HETATM   54  O7  UNL     1      -8.782  49.190 -25.576  1.00  0.00    -0.387 OA
HETATM   55  H24 UNL     1      -8.913  49.100 -26.537  1.00  0.00     0.210 HD
ENDBRANCH  43  54
ENDBRANCH  16  43
TORSDOF 10
ENDMDL
MODEL 7
REMARK minimizedAffinity -9.01206493
REMARK CNNscore 0.193197176
REMARK CNNaffinity 7.09587431
REMARK  10 active torsions:
REMARK  status: ('A' for Active; 'I' for Inactive)
REMARK    1  A    between atoms: C2_2  and  O1_3 
REMARK    2  A    between atoms: O1_3  and  C3_4 
REMARK    3  A    between atoms: C3_4  and  C4_6 
REMARK    4  A    between atoms: C5_7  and  C6_8 
REMARK    5  A    between atoms: C12_16  and  C13_17 
REMARK    6  A    between atoms: C23_28  and  O5_29 
REMARK    7  A    between atoms: C27_34  and  C28_35 
REMARK    8  A    between atoms: C28_35  and  O7_36 
REMARK    9  A    between atoms: C38_47  and  C39_48 
REMARK   10  A    between atoms: C39_48  and  O8_49 
ROOT
HETATM    1  C4  UNL     1      -1.824  48.880 -15.702  1.00  0.00     0.165 C 
HETATM    2  C5  UNL     1      -1.703  50.149 -16.147  1.00  0.00     0.053 C 
HETATM    3  C7  UNL     1      -1.787  50.321 -17.602  1.00  0.00    -0.002 C 
HETATM    4  C8  UNL     1      -0.840  50.958 -18.348  1.00  0.00    -0.066 C 
HETATM    5  C9  UNL     1       0.304  51.770 -17.742  1.00  0.00     0.042 C 
HETATM    6  C10 UNL     1       1.251  52.389 -18.769  1.00  0.00     0.083 C 
HETATM    7  C11 UNL     1       0.422  53.096 -19.821  1.00  0.00     0.136 C 
HETATM    8  O4  UNL     1       0.609  54.284 -20.080  1.00  0.00    -0.297 OA
HETATM    9  C12 UNL     1      -0.649  52.259 -20.518  1.00  0.00     0.092 C 
HETATM   10  C21 UNL     1      -0.727  50.867 -19.870  1.00  0.00     0.052 C 
HETATM   11  C22 UNL     1      -2.843  49.464 -18.210  1.00  0.00     0.044 A 
HETATM   12  C23 UNL     1      -3.776  49.859 -19.176  1.00  0.00     0.091 A 
HETATM   13  C25 UNL     1      -4.659  48.914 -19.671  1.00  0.00     0.013 A 
HETATM   14  C26 UNL     1      -4.670  47.617 -19.174  1.00  0.00     0.089 A 
HETATM   15  O6  UNL     1      -5.611  46.817 -19.772  1.00  0.00    -0.341 OA
HETATM   16  C27 UNL     1      -6.432  47.733 -20.548  1.00  0.00     0.168 C 
HETATM   17  C37 UNL     1      -5.647  49.038 -20.769  1.00  0.00     0.080 C 
HETATM   18  C38 UNL     1      -3.815  47.194 -18.167  1.00  0.00     0.034 A 
HETATM   19  C40 UNL     1      -2.927  48.156 -17.665  1.00  0.00     0.101 A 
HETATM   20  O9  UNL     1      -2.152  47.820 -16.561  1.00  0.00    -0.302 OA
ENDROOT
BRANCH   2  21
HETATM   21  C6  UNL     1      -1.708  51.290 -15.195  1.00  0.00     0.273 C 
HETATM   22  O3  UNL     1      -2.728  51.716 -14.663  1.00  0.00    -0.301 OA
ENDBRANCH   2  21
BRANCH   1  23
HETATM   23  C3  UNL     1      -1.585  48.537 -14.279  1.00  0.00     0.318 C 
HETATM   24  O2  UNL     1      -0.477  48.507 -13.764  1.00  0.00    -0.257 OA
BRANCH  23  25
HETATM   25  O1  UNL     1      -2.770  48.234 -13.695  1.00  0.00    -0.316 OA
BRANCH  25  26
HETATM   26  C2  UNL     1      -2.841  48.477 -12.284  1.00  0.00     0.175 C 
HETATM   27  C1  UNL     1      -3.765  49.648 -12.010  1.00  0.00     0.034 C 
ENDBRANCH  25  26
ENDBRANCH  23  25
ENDBRANCH   1  23
BRANCH  12  28
HETATM   28  O5  UNL     1      -3.809  51.127 -19.687  1.00  0.00    -0.354 OA
HETATM   29  C24 UNL     1      -4.146  51.095 -21.074  1.00  0.00     0.210 C 
ENDBRANCH  12  28
BRANCH   9  30
HETATM   30  C13 UNL     1      -0.432  52.141 -22.017  1.00  0.00    -0.046 A 
HETATM   31  C14 UNL     1       0.526  52.953 -22.641  1.00  0.00     0.010 A 
HETATM   32  C15 UNL     1       0.749  52.903 -24.022  1.00  0.00     0.031 A 
HETATM   33  C16 UNL     1      -0.029  52.014 -24.770  1.00  0.00     0.042 A 
HETATM   34  N1  UNL     1      -0.028  51.749 -26.120  1.00  0.00    -0.365 N 
HETATM   35  C19 UNL     1      -0.999  51.198 -24.194  1.00  0.00    -0.008 A 
HETATM   36  C17 UNL     1      -0.968  50.798 -26.419  1.00  0.00     0.089 A 
HETATM   37  H14 UNL     1       0.588  52.190 -26.790  1.00  0.00     0.165 HD
HETATM   38  C18 UNL     1      -1.586  50.436 -25.243  1.00  0.00     0.030 A 
HETATM   39  C20 UNL     1      -1.206  51.265 -22.802  1.00  0.00     0.021 A 
ENDBRANCH   9  30
BRANCH  18  40
HETATM   40  C39 UNL     1      -3.890  45.804 -17.610  1.00  0.00     0.208 C 
BRANCH  40  41
HETATM   41  O8  UNL     1      -5.220  45.466 -17.227  1.00  0.00    -0.396 OA
HETATM   42  H44 UNL     1      -5.822  46.109 -17.636  1.00  0.00     0.209 HD
ENDBRANCH  40  41
ENDBRANCH  18  40
BRANCH  16  43
HETATM   43  C28 UNL     1      -6.919  47.057 -21.862  1.00  0.00     0.089 C 
HETATM   44  C29 UNL     1      -8.465  46.883 -21.863  1.00  0.00     0.041 C 
HETATM   45  C30 UNL     1      -9.139  47.186 -23.204  1.00  0.00     0.004 C 
HETATM   46  C31 UNL     1      -8.356  46.639 -24.389  1.00  0.00     0.007 C 
HETATM   47  C32 UNL     1      -6.912  47.160 -24.427  1.00  0.00     0.021 C 
HETATM   48  C33 UNL     1      -6.677  48.128 -25.605  1.00  0.00     0.274 C 
HETATM   49  C36 UNL     1      -6.468  47.848 -23.119  1.00  0.00     0.030 C 
HETATM   50  N2  UNL     1      -5.430  48.897 -25.514  1.00  0.00     0.083 N 
HETATM   51  C34 UNL     1      -4.445  48.250 -24.649  1.00  0.00     0.270 C 
HETATM   52  H34 UNL     1      -5.636  49.823 -25.137  1.00  0.00     0.315 HD
HETATM   53  C35 UNL     1      -4.947  48.112 -23.205  1.00  0.00     0.038 C 
BRANCH  43  54
HETATM   54  O7  UNL     1      -6.313  45.752 -21.905  1.00  0.00    -0.387 OA
HETATM   55  H24 UNL     1      -6.788  45.212 -22.561  1.00  0.00     0.210 HD
ENDBRANCH  43  54
ENDBRANCH  16  43
TORSDOF 10
ENDMDL
MODEL 8
REMARK minimizedAffinity -9.63420677
REMARK CNNscore 0.170997635
REMARK CNNaffinity 6.45136976
REMARK  10 active torsions:
REMARK  status: ('A' for Active; 'I' for Inactive)
REMARK    1  A    between atoms: C2_2  and  O1_3 
REMARK    2  A    between atoms: O1_3  and  C3_4 
REMARK    3  A    between atoms: C3_4  and  C4_6 
REMARK    4  A    between atoms: C5_7  and  C6_8 
REMARK    5  A    between atoms: C12_16  and  C13_17 
REMARK    6  A    between atoms: C23_28  and  O5_29 
REMARK    7  A    between atoms: C27_34  and  C28_35 
REMARK    8  A    between atoms: C28_35  and  O7_36 
REMARK    9  A    between atoms: C38_47  and  C39_48 
REMARK   10  A    between atoms: C39_48  and  O8_49 
ROOT
HETATM    1  C4  UNL     1      -2.178  51.671 -24.332  1.00  0.00     0.165 C 
HETATM    2  C5  UNL     1      -1.103  51.576 -23.520  1.00  0.00     0.053 C 
HETATM    3  C7  UNL     1      -1.379  51.108 -22.156  1.00  0.00    -0.002 C 
HETATM    4  C8  UNL     1      -1.001  51.780 -21.031  1.00  0.00    -0.066 C 
HETATM    5  C9  UNL     1      -0.050  52.975 -21.044  1.00  0.00     0.042 C 
HETATM    6  C10 UNL     1       0.226  53.575 -19.666  1.00  0.00     0.083 C 
HETATM    7  C11 UNL     1       0.587  52.453 -18.716  1.00  0.00     0.136 C 
HETATM    8  O4  UNL     1       1.640  52.475 -18.081  1.00  0.00    -0.297 OA
HETATM    9  C12 UNL     1      -0.417  51.306 -18.608  1.00  0.00     0.092 C 
HETATM   10  C21 UNL     1      -1.548  51.504 -19.631  1.00  0.00     0.052 C 
HETATM   11  C22 UNL     1      -2.374  50.000 -22.131  1.00  0.00     0.044 A 
HETATM   12  C23 UNL     1      -2.286  48.822 -21.379  1.00  0.00     0.091 A 
HETATM   13  C25 UNL     1      -3.332  47.917 -21.438  1.00  0.00     0.013 A 
HETATM   14  C26 UNL     1      -4.418  48.134 -22.276  1.00  0.00     0.089 A 
HETATM   15  O6  UNL     1      -5.357  47.136 -22.213  1.00  0.00    -0.341 OA
HETATM   16  C27 UNL     1      -4.715  46.075 -21.453  1.00  0.00     0.168 C 
HETATM   17  C37 UNL     1      -3.541  46.674 -20.658  1.00  0.00     0.080 C 
HETATM   18  C38 UNL     1      -4.521  49.249 -23.095  1.00  0.00     0.034 A 
HETATM   19  C40 UNL     1      -3.456  50.160 -23.036  1.00  0.00     0.101 A 
HETATM   20  O9  UNL     1      -3.447  51.216 -23.940  1.00  0.00    -0.302 OA
ENDROOT
BRANCH   2  21
HETATM   21  C6  UNL     1       0.272  51.728 -24.061  1.00  0.00     0.273 C 
HETATM   22  O3  UNL     1       0.909  52.774 -23.992  1.00  0.00    -0.301 OA
ENDBRANCH   2  21
BRANCH   1  23
HETATM   23  C3  UNL     1      -2.077  52.293 -25.673  1.00  0.00     0.318 C 
HETATM   24  O2  UNL     1      -2.941  53.007 -26.160  1.00  0.00    -0.257 OA
BRANCH  23  25
HETATM   25  O1  UNL     1      -0.915  51.904 -26.252  1.00  0.00    -0.316 OA
BRANCH  25  26
HETATM   26  C2  UNL     1      -0.524  52.648 -27.412  1.00  0.00     0.175 C 
HETATM   27  C1  UNL     1       0.376  51.798 -28.289  1.00  0.00     0.034 C 
ENDBRANCH  25  26
ENDBRANCH  23  25
ENDBRANCH   1  23
BRANCH  12  28
HETATM   28  O5  UNL     1      -1.231  48.562 -20.549  1.00  0.00    -0.354 OA
HETATM   29  C24 UNL     1      -1.699  48.082 -19.288  1.00  0.00     0.210 C 
ENDBRANCH  12  28
BRANCH   9  30
HETATM   30  C13 UNL     1      -0.984  51.139 -17.208  1.00  0.00    -0.046 A 
HETATM   31  C14 UNL     1      -2.368  51.000 -17.036  1.00  0.00     0.010 A 
HETATM   32  C15 UNL     1      -2.945  50.869 -15.767  1.00  0.00     0.031 A 
HETATM   33  C16 UNL     1      -2.088  50.891 -14.663  1.00  0.00     0.042 A 
HETATM   34  N1  UNL     1      -2.363  50.779 -13.320  1.00  0.00    -0.365 N 
HETATM   35  C19 UNL     1      -0.709  51.038 -14.786  1.00  0.00    -0.008 A 
HETATM   36  C17 UNL     1      -1.208  50.857 -12.589  1.00  0.00     0.089 A 
HETATM   37  H14 UNL     1      -3.289  50.649 -12.934  1.00  0.00     0.165 HD
HETATM   38  C18 UNL     1      -0.164  51.016 -13.471  1.00  0.00     0.030 A 
HETATM   39  C20 UNL     1      -0.150  51.168 -16.074  1.00  0.00     0.021 A 
ENDBRANCH   9  30
BRANCH  18  40
HETATM   40  C39 UNL     1      -5.678  49.427 -24.033  1.00  0.00     0.208 C 
BRANCH  40  41
HETATM   41  O8  UNL     1      -6.131  50.777 -24.051  1.00  0.00    -0.396 OA
HETATM   42  H44 UNL     1      -5.442  51.330 -23.647  1.00  0.00     0.209 HD
ENDBRANCH  40  41
ENDBRANCH  18  40
BRANCH  16  43
HETATM   43  C28 UNL     1      -5.753  45.320 -20.575  1.00  0.00     0.089 C 
HETATM   44  C29 UNL     1      -7.135  45.238 -21.286  1.00  0.00     0.041 C 
HETATM   45  C30 UNL     1      -7.848  43.891 -21.139  1.00  0.00     0.004 C 
HETATM   46  C31 UNL     1      -7.730  43.317 -19.735  1.00  0.00     0.007 C 
HETATM   47  C32 UNL     1      -6.269  43.161 -19.286  1.00  0.00     0.021 C 
HETATM   48  C33 UNL     1      -5.852  41.679 -19.180  1.00  0.00     0.274 C 
HETATM   49  C36 UNL     1      -5.262  43.899 -20.193  1.00  0.00     0.030 C 
HETATM   50  N2  UNL     1      -4.404  41.466 -19.069  1.00  0.00     0.083 N 
HETATM   51  C34 UNL     1      -3.709  42.652 -18.571  1.00  0.00     0.270 C 
HETATM   52  H34 UNL     1      -4.030  41.233 -19.989  1.00  0.00     0.315 HD
HETATM   53  C35 UNL     1      -3.876  43.856 -19.509  1.00  0.00     0.038 C 
BRANCH  43  54
HETATM   54  O7  UNL     1      -5.908  46.087 -19.366  1.00  0.00    -0.387 OA
HETATM   55  H24 UNL     1      -6.721  45.797 -18.917  1.00  0.00     0.210 HD
ENDBRANCH  43  54
ENDBRANCH  16  43
TORSDOF 10
ENDMDL
MODEL 9
REMARK minimizedAffinity -8.56151009
REMARK CNNscore 0.167372569
REMARK CNNaffinity 6.46456671
REMARK  10 active torsions:
REMARK  status: ('A' for Active; 'I' for Inactive)
REMARK    1  A    between atoms: C2_2  and  O1_3 
REMARK    2  A    between atoms: O1_3  and  C3_4 
REMARK    3  A    between atoms: C3_4  and  C4_6 
REMARK    4  A    between atoms: C5_7  and  C6_8 
REMARK    5  A    between atoms: C12_16  and  C13_17 
REMARK    6  A    between atoms: C23_28  and  O5_29 
REMARK    7  A    between atoms: C27_34  and  C28_35 
REMARK    8  A    between atoms: C28_35  and  O7_36 
REMARK    9  A    between atoms: C38_47  and  C39_48 
REMARK   10  A    between atoms: C39_48  and  O8_49 
ROOT
HETATM    1  C4  UNL     1      -7.303  44.064 -20.826  1.00  0.00     0.165 C 
HETATM    2  C5  UNL     1      -6.917  45.224 -20.253  1.00  0.00     0.053 C 
HETATM    3  C7  UNL     1      -6.293  46.200 -21.156  1.00  0.00    -0.002 C 
HETATM    4  C8  UNL     1      -5.073  46.768 -20.934  1.00  0.00    -0.066 C 
HETATM    5  C9  UNL     1      -4.311  46.639 -19.617  1.00  0.00     0.042 C 
HETATM    6  C10 UNL     1      -2.959  47.351 -19.598  1.00  0.00     0.083 C 
HETATM    7  C11 UNL     1      -3.152  48.761 -20.116  1.00  0.00     0.136 C 
HETATM    8  O4  UNL     1      -2.802  49.734 -19.449  1.00  0.00    -0.297 OA
HETATM    9  C12 UNL     1      -3.809  48.896 -21.488  1.00  0.00     0.092 C 
HETATM   10  C21 UNL     1      -4.259  47.514 -21.991  1.00  0.00     0.052 C 
HETATM   11  C22 UNL     1      -6.980  46.266 -22.476  1.00  0.00     0.044 A 
HETATM   12  C23 UNL     1      -7.322  47.429 -23.176  1.00  0.00     0.091 A 
HETATM   13  C25 UNL     1      -7.915  47.305 -24.420  1.00  0.00     0.013 A 
HETATM   14  C26 UNL     1      -8.229  46.056 -24.941  1.00  0.00     0.089 A 
HETATM   15  O6  UNL     1      -8.816  46.118 -26.179  1.00  0.00    -0.341 OA
HETATM   16  C27 UNL     1      -9.121  47.527 -26.370  1.00  0.00     0.168 C 
HETATM   17  C37 UNL     1      -8.256  48.358 -25.406  1.00  0.00     0.080 C 
HETATM   18  C38 UNL     1      -7.977  44.875 -24.258  1.00  0.00     0.034 A 
HETATM   19  C40 UNL     1      -7.381  45.007 -22.994  1.00  0.00     0.101 A 
HETATM   20  O9  UNL     1      -7.241  43.865 -22.214  1.00  0.00    -0.302 OA
ENDROOT
BRANCH   2  21
HETATM   21  C6  UNL     1      -7.311  45.549 -18.858  1.00  0.00     0.273 C 
HETATM   22  O3  UNL     1      -8.304  46.212 -18.578  1.00  0.00    -0.301 OA
ENDBRANCH   2  21
BRANCH   1  23
HETATM   23  C3  UNL     1      -7.784  42.925 -20.009  1.00  0.00     0.318 C 
HETATM   24  O2  UNL     1      -7.045  42.149 -19.420  1.00  0.00    -0.257 OA
BRANCH  23  25
HETATM   25  O1  UNL     1      -9.137  42.881 -20.070  1.00  0.00    -0.316 OA
BRANCH  25  26
HETATM   26  C2  UNL     1      -9.694  41.634 -20.507  1.00  0.00     0.175 C 
HETATM   27  C1  UNL     1     -10.046  41.717 -21.980  1.00  0.00     0.034 C 
ENDBRANCH  25  26
ENDBRANCH  23  25
ENDBRANCH   1  23
BRANCH  12  28
HETATM   28  O5  UNL     1      -7.041  48.679 -22.698  1.00  0.00    -0.354 OA
HETATM   29  C24 UNL     1      -6.550  49.513 -23.748  1.00  0.00     0.210 C 
ENDBRANCH  12  28
BRANCH   9  30
HETATM   30  C13 UNL     1      -2.914  49.574 -22.513  1.00  0.00    -0.046 A 
HETATM   31  C14 UNL     1      -2.998  49.194 -23.860  1.00  0.00     0.010 A 
HETATM   32  C15 UNL     1      -2.181  49.768 -24.841  1.00  0.00     0.031 A 
HETATM   33  C16 UNL     1      -1.260  50.736 -24.429  1.00  0.00     0.042 A 
HETATM   34  N1  UNL     1      -0.346  51.463 -25.157  1.00  0.00    -0.365 N 
HETATM   35  C19 UNL     1      -1.134  51.135 -23.101  1.00  0.00    -0.008 A 
HETATM   36  C17 UNL     1       0.357  52.303 -24.335  1.00  0.00     0.089 A 
HETATM   37  H14 UNL     1      -0.223  51.389 -26.158  1.00  0.00     0.165 HD
HETATM   38  C18 UNL     1      -0.111  52.123 -23.053  1.00  0.00     0.030 A 
HETATM   39  C20 UNL     1      -1.969  50.544 -22.131  1.00  0.00     0.021 A 
ENDBRANCH   9  30
BRANCH  18  40
HETATM   40  C39 UNL     1      -8.380  43.545 -24.819  1.00  0.00     0.208 C 
BRANCH  40  41
HETATM   41  O8  UNL     1      -7.248  42.715 -25.059  1.00  0.00    -0.396 OA
HETATM   42  H44 UNL     1      -6.493  43.092 -24.580  1.00  0.00     0.209 HD
ENDBRANCH  40  41
ENDBRANCH  18  40
BRANCH  16  43
HETATM   43  C28 UNL     1      -8.964  47.927 -27.865  1.00  0.00     0.089 C 
HETATM   44  C29 UNL     1      -7.586  47.470 -28.426  1.00  0.00     0.041 C 
HETATM   45  C30 UNL     1      -7.634  46.899 -29.846  1.00  0.00     0.004 C 
HETATM   46  C31 UNL     1      -8.554  47.690 -30.763  1.00  0.00     0.007 C 
HETATM   47  C32 UNL     1      -9.986  47.789 -30.216  1.00  0.00     0.021 C 
HETATM   48  C33 UNL     1     -10.985  46.972 -31.061  1.00  0.00     0.274 C 
HETATM   49  C36 UNL     1     -10.113  47.360 -28.739  1.00  0.00     0.030 C 
HETATM   50  N2  UNL     1     -12.290  46.767 -30.420  1.00  0.00     0.083 N 
HETATM   51  C34 UNL     1     -12.563  47.769 -29.391  1.00  0.00     0.270 C 
HETATM   52  H34 UNL     1     -12.306  45.843 -29.986  1.00  0.00     0.315 HD
HETATM   53  C35 UNL     1     -11.535  47.723 -28.252  1.00  0.00     0.038 C 
BRANCH  43  54
HETATM   54  O7  UNL     1      -9.022  49.365 -27.916  1.00  0.00    -0.387 OA
HETATM   55  H24 UNL     1      -8.673  49.659 -28.777  1.00  0.00     0.210 HD
ENDBRANCH  43  54
ENDBRANCH  16  43
TORSDOF 10
ENDMDL
