MODEL 1
REMARK minimizedAffinity -6.8685112
REMARK CNNscore 0.52616632
REMARK CNNaffinity 6.6734519
REMARK  6 active torsions:
REMARK  status: ('A' for Active; 'I' for Inactive)
REMARK    1  A    between atoms: C4_4  and  C5_5 
REMARK    2  A    between atoms: C5_5  and  C6_6 
REMARK    3  A    between atoms: C6_6  and  C7_7 
REMARK    4  A    between atoms: C7_7  and  C9_9 
REMARK    5  A    between atoms: C17_17  and  C18_18 
REMARK    6  A    between atoms: C18_18  and  O1_21 
ROOT
HETATM    1  C9  UNL     1      -3.176  12.639  18.426  1.00  0.00    -0.002 C 
HETATM    2  C10 UNL     1      -1.697  12.718  18.899  1.00  0.00     0.006 C 
HETATM    3  C11 UNL     1      -0.910  11.672  18.059  1.00  0.00     0.011 C 
HETATM    4  C12 UNL     1      -2.008  10.811  17.394  1.00  0.00    -0.032 C 
HETATM    5  C13 UNL     1      -2.459   9.807  18.508  1.00  0.00     0.016 C 
HETATM    6  C14 UNL     1      -1.606  10.060  16.090  1.00  0.00     0.003 C 
HETATM    7  C15 UNL     1      -0.491   9.026  16.251  1.00  0.00     0.009 C 
HETATM    8  C16 UNL     1       0.116   8.732  14.883  1.00  0.00     0.042 C 
HETATM    9  C17 UNL     1      -0.884   8.293  13.770  1.00  0.00     0.095 C 
HETATM   10  O2  UNL     1      -1.194   6.921  14.116  1.00  0.00    -0.377 OA
HETATM   11  C21 UNL     1      -2.056   6.230  13.220  1.00  0.00     0.169 C 
HETATM   12  C22 UNL     1      -3.371   6.941  12.948  1.00  0.00     0.027 C 
HETATM   13  C23 UNL     1      -3.289   8.465  12.878  1.00  0.00     0.010 C 
HETATM   14  C24 UNL     1      -2.237   9.110  13.810  1.00  0.00     0.032 C 
HETATM   15  C25 UNL     1      -2.809   9.447  15.273  1.00  0.00    -0.033 C 
HETATM   16  C26 UNL     1      -3.420   8.187  15.933  1.00  0.00     0.016 C 
HETATM   17  C27 UNL     1      -3.985  10.492  15.166  1.00  0.00     0.011 C 
HETATM   18  C28 UNL     1      -4.315  11.283  16.456  1.00  0.00     0.011 C 
HETATM   19  C29 UNL     1      -3.057  11.945  17.040  1.00  0.00    -0.032 C 
HETATM   20  C30 UNL     1      -2.551  12.975  15.982  1.00  0.00     0.016 C 
ENDROOT
BRANCH   1  21
HETATM   21  C7  UNL     1      -4.086  13.873  18.666  1.00  0.00    -0.014 C 
HETATM   22  C8  UNL     1      -5.126  13.964  17.531  1.00  0.00     0.010 C 
BRANCH  21  23
HETATM   23  C6  UNL     1      -4.786  14.126  20.018  1.00  0.00     0.008 C 
BRANCH  23  24
HETATM   24  C5  UNL     1      -6.240  13.675  20.164  1.00  0.00     0.028 C 
BRANCH  24  25
HETATM   25  C4  UNL     1      -6.614  13.464  21.608  1.00  0.00    -0.025 C 
HETATM   26  C2  UNL     1      -7.823  13.141  22.104  1.00  0.00    -0.091 C 
HETATM   27  C1  UNL     1      -9.046  12.859  21.273  1.00  0.00     0.042 C 
HETATM   28  C3  UNL     1      -8.026  12.985  23.589  1.00  0.00     0.042 C 
ENDBRANCH  24  25
ENDBRANCH  23  24
ENDBRANCH  21  23
ENDBRANCH   1  21
BRANCH   9  29
HETATM   29  C18 UNL     1      -0.099   8.375  12.351  1.00  0.00     0.082 C 
HETATM   30  C19 UNL     1      -0.000   6.992  11.673  1.00  0.00     0.049 C 
HETATM   31  C20 UNL     1       1.317   8.978  12.462  1.00  0.00     0.049 C 
BRANCH  29  32
HETATM   32  O1  UNL     1      -0.781   9.228  11.415  1.00  0.00    -0.388 OA
HETATM   33  H35 UNL     1      -0.296   9.209  10.573  1.00  0.00     0.210 HD
ENDBRANCH  29  32
ENDBRANCH   9  29
TORSDOF 6
ENDMDL
MODEL 2
REMARK minimizedAffinity -8.73421001
REMARK CNNscore 0.47599715
REMARK CNNaffinity 7.0299468
REMARK  6 active torsions:
REMARK  status: ('A' for Active; 'I' for Inactive)
REMARK    1  A    between atoms: C4_4  and  C5_5 
REMARK    2  A    between atoms: C5_5  and  C6_6 
REMARK    3  A    between atoms: C6_6  and  C7_7 
REMARK    4  A    between atoms: C7_7  and  C9_9 
REMARK    5  A    between atoms: C17_17  and  C18_18 
REMARK    6  A    between atoms: C18_18  and  O1_21 
ROOT
HETATM    1  C9  UNL     1      -4.784   7.910  15.518  1.00  0.00    -0.002 C 
HETATM    2  C10 UNL     1      -4.421   9.416  15.654  1.00  0.00     0.006 C 
HETATM    3  C11 UNL     1      -3.082   9.616  14.889  1.00  0.00     0.011 C 
HETATM    4  C12 UNL     1      -2.563   8.181  14.642  1.00  0.00    -0.032 C 
HETATM    5  C13 UNL     1      -1.905   7.756  15.998  1.00  0.00     0.016 C 
HETATM    6  C14 UNL     1      -1.574   7.995  13.454  1.00  0.00     0.003 C 
HETATM    7  C15 UNL     1      -0.254   8.759  13.580  1.00  0.00     0.009 C 
HETATM    8  C16 UNL     1       0.384   8.880  12.200  1.00  0.00     0.042 C 
HETATM    9  C17 UNL     1       0.593   7.545  11.421  1.00  0.00     0.095 C 
HETATM   10  O2  UNL     1       1.733   6.943  12.083  1.00  0.00    -0.377 OA
HETATM   11  C21 UNL     1       2.198   5.717  11.533  1.00  0.00     0.169 C 
HETATM   12  C22 UNL     1       1.128   4.646  11.404  1.00  0.00     0.027 C 
HETATM   13  C23 UNL     1      -0.263   5.153  11.026  1.00  0.00     0.010 C 
HETATM   14  C24 UNL     1      -0.626   6.551  11.579  1.00  0.00     0.032 C 
HETATM   15  C25 UNL     1      -1.304   6.498  13.035  1.00  0.00    -0.033 C 
HETATM   16  C26 UNL     1      -0.406   5.733  14.037  1.00  0.00     0.016 C 
HETATM   17  C27 UNL     1      -2.660   5.697  12.972  1.00  0.00     0.011 C 
HETATM   18  C28 UNL     1      -3.662   5.957  14.124  1.00  0.00     0.011 C 
HETATM   19  C29 UNL     1      -3.931   7.460  14.298  1.00  0.00    -0.032 C 
HETATM   20  C30 UNL     1      -4.603   7.958  12.981  1.00  0.00     0.016 C 
ENDROOT
BRANCH   1  21
HETATM   21  C7  UNL     1      -6.269   7.497  15.697  1.00  0.00    -0.014 C 
HETATM   22  C8  UNL     1      -7.172   8.547  15.017  1.00  0.00     0.010 C 
BRANCH  21  23
HETATM   23  C6  UNL     1      -6.777   6.084  15.343  1.00  0.00     0.008 C 
BRANCH  23  24
HETATM   24  C5  UNL     1      -7.341   5.859  13.939  1.00  0.00     0.028 C 
BRANCH  24  25
HETATM   25  C4  UNL     1      -7.684   4.411  13.704  1.00  0.00    -0.025 C 
HETATM   26  C2  UNL     1      -7.046   3.537  12.903  1.00  0.00    -0.091 C 
HETATM   27  C1  UNL     1      -5.796   3.840  12.121  1.00  0.00     0.042 C 
HETATM   28  C3  UNL     1      -7.538   2.119  12.772  1.00  0.00     0.042 C 
ENDBRANCH  24  25
ENDBRANCH  23  24
ENDBRANCH  21  23
ENDBRANCH   1  21
BRANCH   9  29
HETATM   29  C18 UNL     1       0.944   7.928   9.884  1.00  0.00     0.082 C 
HETATM   30  C19 UNL     1      -0.260   8.574   9.167  1.00  0.00     0.049 C 
HETATM   31  C20 UNL     1       1.437   6.730   9.046  1.00  0.00     0.049 C 
BRANCH  29  32
HETATM   32  O1  UNL     1       2.014   8.886   9.805  1.00  0.00    -0.388 OA
HETATM   33  H35 UNL     1       2.156   9.111   8.871  1.00  0.00     0.210 HD
ENDBRANCH  29  32
ENDBRANCH   9  29
TORSDOF 6
ENDMDL
MODEL 3
REMARK minimizedAffinity -8.16420364
REMARK CNNscore 0.466906339
REMARK CNNaffinity 6.9669795
REMARK  6 active torsions:
REMARK  status: ('A' for Active; 'I' for Inactive)
REMARK    1  A    between atoms: C4_4  and  C5_5 
REMARK    2  A    between atoms: C5_5  and  C6_6 
REMARK    3  A    between atoms: C6_6  and  C7_7 
REMARK    4  A    between atoms: C7_7  and  C9_9 
REMARK    5  A    between atoms: C17_17  and  C18_18 
REMARK    6  A    between atoms: C18_18  and  O1_21 
ROOT
HETATM    1  C9  UNL     1      -4.950   5.568  13.987  1.00  0.00    -0.002 C 
HETATM    2  C10 UNL     1      -5.658   4.625  12.973  1.00  0.00     0.006 C 
HETATM    3  C11 UNL     1      -7.160   5.029  12.974  1.00  0.00     0.011 C 
HETATM    4  C12 UNL     1      -7.313   5.938  14.215  1.00  0.00    -0.032 C 
HETATM    5  C13 UNL     1      -7.418   4.948  15.425  1.00  0.00     0.016 C 
HETATM    6  C14 UNL     1      -8.506   6.938  14.202  1.00  0.00     0.003 C 
HETATM    7  C15 UNL     1      -9.893   6.295  14.146  1.00  0.00     0.009 C 
HETATM    8  C16 UNL     1     -10.903   7.333  13.664  1.00  0.00     0.042 C 
HETATM    9  C17 UNL     1     -10.948   8.669  14.465  1.00  0.00     0.095 C 
HETATM   10  O2  UNL     1     -11.643   8.310  15.684  1.00  0.00    -0.377 OA
HETATM   11  C21 UNL     1     -11.889   9.371  16.599  1.00  0.00     0.169 C 
HETATM   12  C22 UNL     1     -10.647  10.151  16.996  1.00  0.00     0.027 C 
HETATM   13  C23 UNL     1      -9.615  10.347  15.887  1.00  0.00     0.010 C 
HETATM   14  C24 UNL     1      -9.510   9.183  14.874  1.00  0.00     0.032 C 
HETATM   15  C25 UNL     1      -8.461   8.050  15.320  1.00  0.00    -0.033 C 
HETATM   16  C26 UNL     1      -8.793   7.513  16.733  1.00  0.00     0.016 C 
HETATM   17  C27 UNL     1      -7.012   8.664  15.421  1.00  0.00     0.011 C 
HETATM   18  C28 UNL     1      -5.838   7.656  15.354  1.00  0.00     0.011 C 
HETATM   19  C29 UNL     1      -5.954   6.748  14.120  1.00  0.00    -0.032 C 
HETATM   20  C30 UNL     1      -5.845   7.668  12.864  1.00  0.00     0.016 C 
ENDROOT
BRANCH   1  21
HETATM   21  C7  UNL     1      -3.421   5.786  13.835  1.00  0.00    -0.014 C 
HETATM   22  C8  UNL     1      -2.752   5.666  15.220  1.00  0.00     0.010 C 
BRANCH  21  23
HETATM   23  C6  UNL     1      -2.581   5.014  12.796  1.00  0.00     0.008 C 
BRANCH  23  24
HETATM   24  C5  UNL     1      -1.075   5.281  12.756  1.00  0.00     0.028 C 
BRANCH  24  25
HETATM   25  C4  UNL     1      -0.653   5.879  11.438  1.00  0.00    -0.025 C 
HETATM   26  C2  UNL     1       0.014   7.030  11.237  1.00  0.00    -0.091 C 
HETATM   27  C1  UNL     1       0.534   7.926  12.330  1.00  0.00     0.042 C 
HETATM   28  C3  UNL     1       0.343   7.491   9.841  1.00  0.00     0.042 C 
ENDBRANCH  24  25
ENDBRANCH  23  24
ENDBRANCH  21  23
ENDBRANCH   1  21
BRANCH   9  29
HETATM   29  C18 UNL     1     -11.810   9.731  13.592  1.00  0.00     0.082 C 
HETATM   30  C19 UNL     1     -13.248   9.879  14.131  1.00  0.00     0.049 C 
HETATM   31  C20 UNL     1     -11.874   9.388  12.089  1.00  0.00     0.049 C 
BRANCH  29  32
HETATM   32  O1  UNL     1     -11.232  11.048  13.635  1.00  0.00    -0.388 OA
HETATM   33  H35 UNL     1     -11.806  11.651  13.134  1.00  0.00     0.210 HD
ENDBRANCH  29  32
ENDBRANCH   9  29
TORSDOF 6
ENDMDL
MODEL 4
REMARK minimizedAffinity -7.06262875
REMARK CNNscore 0.439035505
REMARK CNNaffinity 6.33417368
REMARK  6 active torsions:
REMARK  status: ('A' for Active; 'I' for Inactive)
REMARK    1  A    between atoms: C4_4  and  C5_5 
REMARK    2  A    between atoms: C5_5  and  C6_6 
REMARK    3  A    between atoms: C6_6  and  C7_7 
REMARK    4  A    between atoms: C7_7  and  C9_9 
REMARK    5  A    between atoms: C17_17  and  C18_18 
REMARK    6  A    between atoms: C18_18  and  O1_21 
ROOT
HETATM    1  C9  UNL     1      -1.136  10.394  16.491  1.00  0.00    -0.002 C 
HETATM    2  C10 UNL     1      -0.019  11.459  16.303  1.00  0.00     0.006 C 
HETATM    3  C11 UNL     1       0.899  10.936  15.161  1.00  0.00     0.011 C 
HETATM    4  C12 UNL     1       0.479   9.459  14.978  1.00  0.00    -0.032 C 
HETATM    5  C13 UNL     1       1.211   8.690  16.130  1.00  0.00     0.016 C 
HETATM    6  C14 UNL     1       0.783   8.817  13.592  1.00  0.00     0.003 C 
HETATM    7  C15 UNL     1       2.265   8.742  13.220  1.00  0.00     0.009 C 
HETATM    8  C16 UNL     1       2.390   8.556  11.711  1.00  0.00     0.042 C 
HETATM    9  C17 UNL     1       1.608   7.353  11.101  1.00  0.00     0.095 C 
HETATM   10  O2  UNL     1       2.405   6.204  11.480  1.00  0.00    -0.377 OA
HETATM   11  C21 UNL     1       1.955   4.945  10.997  1.00  0.00     0.169 C 
HETATM   12  C22 UNL     1       0.509   4.628  11.337  1.00  0.00     0.027 C 
HETATM   13  C23 UNL     1      -0.446   5.820  11.312  1.00  0.00     0.010 C 
HETATM   14  C24 UNL     1       0.176   7.169  11.745  1.00  0.00     0.032 C 
HETATM   15  C25 UNL     1       0.079   7.431  13.327  1.00  0.00    -0.033 C 
HETATM   16  C26 UNL     1       0.709   6.261  14.122  1.00  0.00     0.016 C 
HETATM   17  C27 UNL     1      -1.432   7.491  13.774  1.00  0.00     0.011 C 
HETATM   18  C28 UNL     1      -1.717   8.204  15.120  1.00  0.00     0.011 C 
HETATM   19  C29 UNL     1      -1.089   9.605  15.152  1.00  0.00    -0.032 C 
HETATM   20  C30 UNL     1      -1.781  10.441  14.030  1.00  0.00     0.016 C 
ENDROOT
BRANCH   1  21
HETATM   21  C7  UNL     1      -2.467  10.842  17.150  1.00  0.00    -0.014 C 
HETATM   22  C8  UNL     1      -2.741   9.963  18.388  1.00  0.00     0.010 C 
BRANCH  21  23
HETATM   23  C6  UNL     1      -2.755  12.317  17.501  1.00  0.00     0.008 C 
BRANCH  23  24
HETATM   24  C5  UNL     1      -4.202  12.711  17.797  1.00  0.00     0.028 C 
BRANCH  24  25
HETATM   25  C4  UNL     1      -4.457  12.814  19.279  1.00  0.00    -0.025 C 
HETATM   26  C2  UNL     1      -5.522  13.364  19.892  1.00  0.00    -0.091 C 
HETATM   27  C1  UNL     1      -6.722  13.935  19.184  1.00  0.00     0.042 C 
HETATM   28  C3  UNL     1      -5.607  13.398  21.395  1.00  0.00     0.042 C 
ENDBRANCH  24  25
ENDBRANCH  23  24
ENDBRANCH  21  23
ENDBRANCH   1  21
BRANCH   9  29
HETATM   29  C18 UNL     1       1.593   7.548   9.491  1.00  0.00     0.082 C 
HETATM   30  C19 UNL     1       2.857   8.280   8.992  1.00  0.00     0.049 C 
HETATM   31  C20 UNL     1       0.347   8.296   8.970  1.00  0.00     0.049 C 
BRANCH  29  32
HETATM   32  O1  UNL     1       1.567   6.285   8.802  1.00  0.00    -0.388 OA
HETATM   33  H35 UNL     1       1.601   6.457   7.846  1.00  0.00     0.210 HD
ENDBRANCH  29  32
ENDBRANCH   9  29
TORSDOF 6
ENDMDL
MODEL 5
REMARK minimizedAffinity -6.42095995
REMARK CNNscore 0.434222043
REMARK CNNaffinity 6.05269814
REMARK  6 active torsions:
REMARK  status: ('A' for Active; 'I' for Inactive)
REMARK    1  A    between atoms: C4_4  and  C5_5 
REMARK    2  A    between atoms: C5_5  and  C6_6 
REMARK    3  A    between atoms: C6_6  and  C7_7 
REMARK    4  A    between atoms: C7_7  and  C9_9 
REMARK    5  A    between atoms: C17_17  and  C18_18 
REMARK    6  A    between atoms: C18_18  and  O1_21 
ROOT
HETATM    1  C9  UNL     1      12.995  -4.919   6.928  1.00  0.00    -0.002 C 
HETATM    2  C10 UNL     1      11.692  -5.553   6.363  1.00  0.00     0.006 C 
HETATM    3  C11 UNL     1      11.830  -5.533   4.814  1.00  0.00     0.011 C 
HETATM    4  C12 UNL     1      13.029  -4.594   4.547  1.00  0.00    -0.032 C 
HETATM    5  C13 UNL     1      12.440  -3.148   4.669  1.00  0.00     0.016 C 
HETATM    6  C14 UNL     1      13.773  -4.786   3.193  1.00  0.00     0.003 C 
HETATM    7  C15 UNL     1      12.928  -4.530   1.944  1.00  0.00     0.009 C 
HETATM    8  C16 UNL     1      13.597  -5.196   0.745  1.00  0.00     0.042 C 
HETATM    9  C17 UNL     1      15.086  -4.810   0.490  1.00  0.00     0.095 C 
HETATM   10  O2  UNL     1      14.998  -3.481  -0.081  1.00  0.00    -0.377 OA
HETATM   11  C21 UNL     1      16.228  -2.889  -0.480  1.00  0.00     0.169 C 
HETATM   12  C22 UNL     1      17.281  -2.845   0.615  1.00  0.00     0.027 C 
HETATM   13  C23 UNL     1      17.303  -4.053   1.551  1.00  0.00     0.010 C 
HETATM   14  C24 UNL     1      15.923  -4.696   1.826  1.00  0.00     0.032 C 
HETATM   15  C25 UNL     1      15.159  -4.041   3.079  1.00  0.00    -0.033 C 
HETATM   16  C26 UNL     1      15.020  -2.509   2.904  1.00  0.00     0.016 C 
HETATM   17  C27 UNL     1      16.001  -4.250   4.396  1.00  0.00     0.011 C 
HETATM   18  C28 UNL     1      15.222  -4.132   5.730  1.00  0.00     0.011 C 
HETATM   19  C29 UNL     1      13.982  -5.039   5.732  1.00  0.00    -0.032 C 
HETATM   20  C30 UNL     1      14.493  -6.510   5.624  1.00  0.00     0.016 C 
ENDROOT
BRANCH   1  21
HETATM   21  C7  UNL     1      13.402  -5.263   8.385  1.00  0.00    -0.014 C 
HETATM   22  C8  UNL     1      12.173  -5.811   9.139  1.00  0.00     0.010 C 
BRANCH  21  23
HETATM   23  C6  UNL     1      14.630  -6.140   8.709  1.00  0.00     0.008 C 
BRANCH  23  24
HETATM   24  C5  UNL     1      15.914  -5.436   9.147  1.00  0.00     0.028 C 
BRANCH  24  25
HETATM   25  C4  UNL     1      16.939  -6.416   9.655  1.00  0.00    -0.025 C 
HETATM   26  C2  UNL     1      17.846  -6.223  10.631  1.00  0.00    -0.091 C 
HETATM   27  C1  UNL     1      17.961  -4.974  11.464  1.00  0.00     0.042 C 
HETATM   28  C3  UNL     1      18.815  -7.315  11.004  1.00  0.00     0.042 C 
ENDBRANCH  24  25
ENDBRANCH  23  24
ENDBRANCH  21  23
ENDBRANCH   1  21
BRANCH   9  29
HETATM   29  C18 UNL     1      15.687  -5.869  -0.583  1.00  0.00     0.082 C 
HETATM   30  C19 UNL     1      15.440  -5.412  -2.036  1.00  0.00     0.049 C 
HETATM   31  C20 UNL     1      15.138  -7.301  -0.411  1.00  0.00     0.049 C 
BRANCH  29  32
HETATM   32  O1  UNL     1      17.112  -6.012  -0.448  1.00  0.00    -0.388 OA
HETATM   33  H35 UNL     1      17.425  -6.621  -1.137  1.00  0.00     0.210 HD
ENDBRANCH  29  32
ENDBRANCH   9  29
TORSDOF 6
ENDMDL
MODEL 6
REMARK minimizedAffinity -8.09108543
REMARK CNNscore 0.430764914
REMARK CNNaffinity 6.69056702
REMARK  6 active torsions:
REMARK  status: ('A' for Active; 'I' for Inactive)
REMARK    1  A    between atoms: C4_4  and  C5_5 
REMARK    2  A    between atoms: C5_5  and  C6_6 
REMARK    3  A    between atoms: C6_6  and  C7_7 
REMARK    4  A    between atoms: C7_7  and  C9_9 
REMARK    5  A    between atoms: C17_17  and  C18_18 
REMARK    6  A    between atoms: C18_18  and  O1_21 
ROOT
HETATM    1  C9  UNL     1       1.963   7.339  11.528  1.00  0.00    -0.002 C 
HETATM    2  C10 UNL     1       2.216   5.832  11.817  1.00  0.00     0.006 C 
HETATM    3  C11 UNL     1       0.954   5.310  12.560  1.00  0.00     0.011 C 
HETATM    4  C12 UNL     1       0.188   6.591  12.964  1.00  0.00    -0.032 C 
HETATM    5  C13 UNL     1       0.921   7.106  14.248  1.00  0.00     0.016 C 
HETATM    6  C14 UNL     1      -1.341   6.436  13.213  1.00  0.00     0.003 C 
HETATM    7  C15 UNL     1      -1.723   5.501  14.362  1.00  0.00     0.009 C 
HETATM    8  C16 UNL     1      -3.177   5.074  14.193  1.00  0.00     0.042 C 
HETATM    9  C17 UNL     1      -4.218   6.226  14.053  1.00  0.00     0.095 C 
HETATM   10  O2  UNL     1      -4.346   6.733  15.404  1.00  0.00    -0.377 OA
HETATM   11  C21 UNL     1      -5.297   7.773  15.594  1.00  0.00     0.169 C 
HETATM   12  C22 UNL     1      -5.105   8.968  14.676  1.00  0.00     0.027 C 
HETATM   13  C23 UNL     1      -4.635   8.637  13.260  1.00  0.00     0.010 C 
HETATM   14  C24 UNL     1      -3.695   7.413  13.149  1.00  0.00     0.032 C 
HETATM   15  C25 UNL     1      -2.142   7.791  13.319  1.00  0.00    -0.033 C 
HETATM   16  C26 UNL     1      -1.898   8.546  14.648  1.00  0.00     0.016 C 
HETATM   17  C27 UNL     1      -1.698   8.779  12.173  1.00  0.00     0.011 C 
HETATM   18  C28 UNL     1      -0.177   8.857  11.891  1.00  0.00     0.011 C 
HETATM   19  C29 UNL     1       0.418   7.460  11.659  1.00  0.00    -0.032 C 
HETATM   20  C30 UNL     1      -0.260   6.882  10.378  1.00  0.00     0.016 C 
ENDROOT
BRANCH   1  21
HETATM   21  C7  UNL     1       2.757   8.004  10.372  1.00  0.00    -0.014 C 
HETATM   22  C8  UNL     1       4.028   8.665  10.945  1.00  0.00     0.010 C 
BRANCH  21  23
HETATM   23  C6  UNL     1       3.119   7.242   9.080  1.00  0.00     0.008 C 
BRANCH  23  24
HETATM   24  C5  UNL     1       3.268   5.722   9.166  1.00  0.00     0.028 C 
BRANCH  24  25
HETATM   25  C4  UNL     1       3.101   5.071   7.817  1.00  0.00    -0.025 C 
HETATM   26  C2  UNL     1       3.774   4.012   7.329  1.00  0.00    -0.091 C 
HETATM   27  C1  UNL     1       4.803   3.220   8.092  1.00  0.00     0.042 C 
HETATM   28  C3  UNL     1       3.490   3.497   5.942  1.00  0.00     0.042 C 
ENDBRANCH  24  25
ENDBRANCH  23  24
ENDBRANCH  21  23
ENDBRANCH   1  21
BRANCH   9  29
HETATM   29  C18 UNL     1      -5.610   5.566  13.542  1.00  0.00     0.082 C 
HETATM   30  C19 UNL     1      -6.495   5.115  14.723  1.00  0.00     0.049 C 
HETATM   31  C20 UNL     1      -5.413   4.372  12.584  1.00  0.00     0.049 C 
BRANCH  29  32
HETATM   32  O1  UNL     1      -6.399   6.504  12.790  1.00  0.00    -0.388 OA
HETATM   33  H35 UNL     1      -7.235   6.074  12.544  1.00  0.00     0.210 HD
ENDBRANCH  29  32
ENDBRANCH   9  29
TORSDOF 6
ENDMDL
MODEL 7
REMARK minimizedAffinity -7.35216045
REMARK CNNscore 0.406195521
REMARK CNNaffinity 6.77952337
REMARK  6 active torsions:
REMARK  status: ('A' for Active; 'I' for Inactive)
REMARK    1  A    between atoms: C4_4  and  C5_5 
REMARK    2  A    between atoms: C5_5  and  C6_6 
REMARK    3  A    between atoms: C6_6  and  C7_7 
REMARK    4  A    between atoms: C7_7  and  C9_9 
REMARK    5  A    between atoms: C17_17  and  C18_18 
REMARK    6  A    between atoms: C18_18  and  O1_21 
ROOT
HETATM    1  C9  UNL     1      -5.466   7.347  15.321  1.00  0.00    -0.002 C 
HETATM    2  C10 UNL     1      -5.289   8.890  15.406  1.00  0.00     0.006 C 
HETATM    3  C11 UNL     1      -3.940   9.216  14.703  1.00  0.00     0.011 C 
HETATM    4  C12 UNL     1      -3.245   7.844  14.550  1.00  0.00    -0.032 C 
HETATM    5  C13 UNL     1      -2.620   7.554  15.956  1.00  0.00     0.016 C 
HETATM    6  C14 UNL     1      -2.175   7.729  13.424  1.00  0.00     0.003 C 
HETATM    7  C15 UNL     1      -0.962   8.648  13.583  1.00  0.00     0.009 C 
HETATM    8  C16 UNL     1      -0.265   8.789  12.233  1.00  0.00     0.042 C 
HETATM    9  C17 UNL     1       0.141   7.458  11.529  1.00  0.00     0.095 C 
HETATM   10  O2  UNL     1       1.303   7.022  12.276  1.00  0.00    -0.377 OA
HETATM   11  C21 UNL     1       1.938   5.838  11.808  1.00  0.00     0.169 C 
HETATM   12  C22 UNL     1       1.008   4.644  11.674  1.00  0.00     0.027 C 
HETATM   13  C23 UNL     1      -0.408   4.968  11.201  1.00  0.00     0.010 C 
HETATM   14  C24 UNL     1      -0.962   6.334  11.669  1.00  0.00     0.032 C 
HETATM   15  C25 UNL     1      -1.710   6.259  13.089  1.00  0.00    -0.033 C 
HETATM   16  C26 UNL     1      -0.788   5.646  14.170  1.00  0.00     0.016 C 
HETATM   17  C27 UNL     1      -2.959   5.301  12.993  1.00  0.00     0.011 C 
HETATM   18  C28 UNL     1      -4.048   5.487  14.079  1.00  0.00     0.011 C 
HETATM   19  C29 UNL     1      -4.499   6.953  14.169  1.00  0.00    -0.032 C 
HETATM   20  C30 UNL     1      -5.148   7.315  12.797  1.00  0.00     0.016 C 
ENDROOT
BRANCH   1  21
HETATM   21  C7  UNL     1      -6.901   6.770  15.442  1.00  0.00    -0.014 C 
HETATM   22  C8  UNL     1      -7.346   6.822  16.918  1.00  0.00     0.010 C 
BRANCH  21  23
HETATM   23  C6  UNL     1      -8.059   7.254  14.544  1.00  0.00     0.008 C 
BRANCH  23  24
HETATM   24  C5  UNL     1      -9.256   7.922  15.222  1.00  0.00     0.028 C 
BRANCH  24  25
HETATM   25  C4  UNL     1      -9.065   9.412  15.342  1.00  0.00    -0.025 C 
HETATM   26  C2  UNL     1      -9.994  10.335  15.654  1.00  0.00    -0.091 C 
HETATM   27  C1  UNL     1     -11.423  10.030  16.014  1.00  0.00     0.042 C 
HETATM   28  C3  UNL     1      -9.632  11.796  15.713  1.00  0.00     0.042 C 
ENDBRANCH  24  25
ENDBRANCH  23  24
ENDBRANCH  21  23
ENDBRANCH   1  21
BRANCH   9  29
HETATM   29  C18 UNL     1       0.532   7.818   9.996  1.00  0.00     0.082 C 
HETATM   30  C19 UNL     1       1.958   8.399   9.892  1.00  0.00     0.049 C 
HETATM   31  C20 UNL     1      -0.453   8.795   9.320  1.00  0.00     0.049 C 
BRANCH  29  32
HETATM   32  O1  UNL     1       0.516   6.651   9.155  1.00  0.00    -0.388 OA
HETATM   33  H35 UNL     1       0.796   6.913   8.262  1.00  0.00     0.210 HD
ENDBRANCH  29  32
ENDBRANCH   9  29
TORSDOF 6
ENDMDL
MODEL 8
REMARK minimizedAffinity -6.66004753
REMARK CNNscore 0.374205738
REMARK CNNaffinity 5.64232874
REMARK  6 active torsions:
REMARK  status: ('A' for Active; 'I' for Inactive)
REMARK    1  A    between atoms: C4_4  and  C5_5 
REMARK    2  A    between atoms: C5_5  and  C6_6 
REMARK    3  A    between atoms: C6_6  and  C7_7 
REMARK    4  A    between atoms: C7_7  and  C9_9 
REMARK    5  A    between atoms: C17_17  and  C18_18 
REMARK    6  A    between atoms: C18_18  and  O1_21 
ROOT
HETATM    1  C9  UNL     1      -3.710 -11.966   4.210  1.00  0.00    -0.002 C 
HETATM    2  C10 UNL     1      -2.404 -12.318   4.978  1.00  0.00     0.006 C 
HETATM    3  C11 UNL     1      -2.608 -11.827   6.439  1.00  0.00     0.011 C 
HETATM    4  C12 UNL     1      -3.860 -10.922   6.369  1.00  0.00    -0.032 C 
HETATM    5  C13 UNL     1      -3.333  -9.554   5.818  1.00  0.00     0.016 C 
HETATM    6  C14 UNL     1      -4.651 -10.726   7.696  1.00  0.00     0.003 C 
HETATM    7  C15 UNL     1      -3.872 -10.049   8.825  1.00  0.00     0.009 C 
HETATM    8  C16 UNL     1      -4.560 -10.347  10.153  1.00  0.00     0.042 C 
HETATM    9  C17 UNL     1      -6.075  -9.986  10.236  1.00  0.00     0.095 C 
HETATM   10  O2  UNL     1      -6.072  -8.544  10.367  1.00  0.00    -0.377 OA
HETATM   11  C21 UNL     1      -7.344  -7.928  10.529  1.00  0.00     0.169 C 
HETATM   12  C22 UNL     1      -8.350  -8.286   9.449  1.00  0.00     0.027 C 
HETATM   13  C23 UNL     1      -8.277  -9.723   8.935  1.00  0.00     0.010 C 
HETATM   14  C24 UNL     1      -6.859 -10.340   8.910  1.00  0.00     0.032 C 
HETATM   15  C25 UNL     1      -6.073 -10.063   7.536  1.00  0.00    -0.033 C 
HETATM   16  C26 UNL     1      -6.013  -8.547   7.228  1.00  0.00     0.016 C 
HETATM   17  C27 UNL     1      -6.848 -10.718   6.328  1.00  0.00     0.011 C 
HETATM   18  C28 UNL     1      -6.020 -10.974   5.045  1.00  0.00     0.011 C 
HETATM   19  C29 UNL     1      -4.740 -11.766   5.357  1.00  0.00    -0.032 C 
HETATM   20  C30 UNL     1      -5.187 -13.157   5.905  1.00  0.00     0.016 C 
ENDROOT
BRANCH   1  21
HETATM   21  C7  UNL     1      -4.038 -12.767   2.923  1.00  0.00    -0.014 C 
HETATM   22  C8  UNL     1      -5.469 -13.334   3.030  1.00  0.00     0.010 C 
BRANCH  21  23
HETATM   23  C6  UNL     1      -3.830 -12.177   1.512  1.00  0.00     0.008 C 
BRANCH  23  24
HETATM   24  C5  UNL     1      -3.962 -10.662   1.346  1.00  0.00     0.028 C 
BRANCH  24  25
HETATM   25  C4  UNL     1      -5.387 -10.208   1.521  1.00  0.00    -0.025 C 
HETATM   26  C2  UNL     1      -6.326 -10.065   0.567  1.00  0.00    -0.091 C 
HETATM   27  C1  UNL     1      -6.135 -10.408  -0.886  1.00  0.00     0.042 C 
HETATM   28  C3  UNL     1      -7.708  -9.579   0.918  1.00  0.00     0.042 C 
ENDBRANCH  24  25
ENDBRANCH  23  24
ENDBRANCH  21  23
ENDBRANCH   1  21
BRANCH   9  29
HETATM   29  C18 UNL     1      -6.671 -10.693  11.570  1.00  0.00     0.082 C 
HETATM   30  C19 UNL     1      -7.871 -11.608  11.243  1.00  0.00     0.049 C 
HETATM   31  C20 UNL     1      -7.093  -9.691  12.665  1.00  0.00     0.049 C 
BRANCH  29  32
HETATM   32  O1  UNL     1      -5.694 -11.533  12.209  1.00  0.00    -0.388 OA
HETATM   33  H35 UNL     1      -6.112 -11.963  12.974  1.00  0.00     0.210 HD
ENDBRANCH  29  32
ENDBRANCH   9  29
TORSDOF 6
ENDMDL
MODEL 9
REMARK minimizedAffinity -9.18166828
REMARK CNNscore 0.352397323
REMARK CNNaffinity 6.78614426
REMARK  6 active torsions:
REMARK  status: ('A' for Active; 'I' for Inactive)
REMARK    1  A    between atoms: C4_4  and  C5_5 
REMARK    2  A    between atoms: C5_5  and  C6_6 
REMARK    3  A    between atoms: C6_6  and  C7_7 
REMARK    4  A    between atoms: C7_7  and  C9_9 
REMARK    5  A    between atoms: C17_17  and  C18_18 
REMARK    6  A    between atoms: C18_18  and  O1_21 
ROOT
HETATM    1  C9  UNL     1      -5.442   6.723  14.680  1.00  0.00    -0.002 C 
HETATM    2  C10 UNL     1      -6.022   7.660  13.583  1.00  0.00     0.006 C 
HETATM    3  C11 UNL     1      -4.802   8.259  12.827  1.00  0.00     0.011 C 
HETATM    4  C12 UNL     1      -3.590   7.918  13.724  1.00  0.00    -0.032 C 
HETATM    5  C13 UNL     1      -3.616   8.997  14.858  1.00  0.00     0.016 C 
HETATM    6  C14 UNL     1      -2.200   7.870  13.024  1.00  0.00     0.003 C 
HETATM    7  C15 UNL     1      -1.736   9.191  12.408  1.00  0.00     0.009 C 
HETATM    8  C16 UNL     1      -0.645   8.904  11.380  1.00  0.00     0.042 C 
HETATM    9  C17 UNL     1       0.574   8.075  11.888  1.00  0.00     0.095 C 
HETATM   10  O2  UNL     1       1.329   9.031  12.673  1.00  0.00    -0.377 OA
HETATM   11  C21 UNL     1       2.553   8.561  13.221  1.00  0.00     0.169 C 
HETATM   12  C22 UNL     1       2.419   7.295  14.051  1.00  0.00     0.027 C 
HETATM   13  C23 UNL     1       1.393   6.284  13.540  1.00  0.00     0.010 C 
HETATM   14  C24 UNL     1       0.151   6.898  12.854  1.00  0.00     0.032 C 
HETATM   15  C25 UNL     1      -1.041   7.227  13.880  1.00  0.00    -0.033 C 
HETATM   16  C26 UNL     1      -0.547   8.140  15.028  1.00  0.00     0.016 C 
HETATM   17  C27 UNL     1      -1.543   5.900  14.569  1.00  0.00     0.011 C 
HETATM   18  C28 UNL     1      -2.961   5.949  15.191  1.00  0.00     0.011 C 
HETATM   19  C29 UNL     1      -3.997   6.454  14.174  1.00  0.00    -0.032 C 
HETATM   20  C30 UNL     1      -4.037   5.415  13.010  1.00  0.00     0.016 C 
ENDROOT
BRANCH   1  21
HETATM   21  C7  UNL     1      -6.355   5.598  15.237  1.00  0.00    -0.014 C 
HETATM   22  C8  UNL     1      -7.062   6.103  16.512  1.00  0.00     0.010 C 
BRANCH  21  23
HETATM   23  C6  UNL     1      -7.376   4.855  14.350  1.00  0.00     0.008 C 
BRANCH  23  24
HETATM   24  C5  UNL     1      -7.006   4.611  12.886  1.00  0.00     0.028 C 
BRANCH  24  25
HETATM   25  C4  UNL     1      -6.833   3.143  12.595  1.00  0.00    -0.025 C 
HETATM   26  C2  UNL     1      -6.138   2.583  11.587  1.00  0.00    -0.091 C 
HETATM   27  C1  UNL     1      -5.329   3.345  10.573  1.00  0.00     0.042 C 
HETATM   28  C3  UNL     1      -6.084   1.085  11.434  1.00  0.00     0.042 C 
ENDBRANCH  24  25
ENDBRANCH  23  24
ENDBRANCH  21  23
ENDBRANCH   1  21
BRANCH   9  29
HETATM   29  C18 UNL     1       1.414   7.597  10.584  1.00  0.00     0.082 C 
HETATM   30  C19 UNL     1       1.326   6.070  10.377  1.00  0.00     0.049 C 
HETATM   31  C20 UNL     1       2.901   8.008  10.622  1.00  0.00     0.049 C 
BRANCH  29  32
HETATM   32  O1  UNL     1       0.907   8.192   9.377  1.00  0.00    -0.388 OA
HETATM   33  H35 UNL     1       1.415   7.842   8.626  1.00  0.00     0.210 HD
ENDBRANCH  29  32
ENDBRANCH   9  29
TORSDOF 6
ENDMDL
