MODEL 1
REMARK minimizedAffinity -8.55897617
REMARK CNNscore 0.718310893
REMARK CNNaffinity 7.48315811
REMARK  6 active torsions:
REMARK  status: ('A' for Active; 'I' for Inactive)
REMARK    1  A    between atoms: C2_2  and  C30_32 
REMARK    2  A    between atoms: C3_3  and  C4_4 
REMARK    3  A    between atoms: C4_4  and  C5_5 
REMARK    4  A    between atoms: C5_5  and  C6_6 
REMARK    5  A    between atoms: C6_6  and  C8_8 
REMARK    6  A    between atoms: C30_32  and  O4_34 
ROOT
HETATM    1  C8  UNL     1      -0.040   7.538  12.611  1.00  0.00    -0.002 C 
HETATM    2  C9  UNL     1      -0.602   8.954  12.294  1.00  0.00     0.007 C 
HETATM    3  C10 UNL     1      -2.126   8.907  12.513  1.00  0.00     0.015 C 
HETATM    4  C11 UNL     1      -2.381   7.591  13.271  1.00  0.00    -0.005 C 
HETATM    5  C12 UNL     1      -2.110   7.877  14.783  1.00  0.00     0.021 C 
HETATM    6  C13 UNL     1      -3.760   6.941  13.245  1.00  0.00    -0.000 C 
HETATM    7  C14 UNL     1      -3.908   5.592  13.315  1.00  0.00    -0.060 C 
HETATM    8  C15 UNL     1      -2.674   4.677  13.405  1.00  0.00     0.036 C 
HETATM    9  C16 UNL     1      -1.283   5.342  13.353  1.00  0.00     0.015 C 
HETATM   10  C17 UNL     1      -1.324   6.655  12.564  1.00  0.00    -0.028 C 
HETATM   11  C18 UNL     1      -1.678   6.338  11.075  1.00  0.00     0.016 C 
HETATM   12  C19 UNL     1      -5.292   4.882  13.317  1.00  0.00    -0.014 C 
HETATM   13  C20 UNL     1      -5.557   4.414  14.768  1.00  0.00     0.020 C 
HETATM   14  C21 UNL     1      -5.268   3.642  12.372  1.00  0.00     0.021 C 
HETATM   15  C22 UNL     1      -6.617   3.173  11.835  1.00  0.00     0.080 C 
HETATM   16  C23 UNL     1      -7.788   3.727  12.603  1.00  0.00     0.135 C 
HETATM   17  O1  UNL     1      -8.681   2.980  13.000  1.00  0.00    -0.297 OA
HETATM   18  C24 UNL     1      -7.852   5.249  12.773  1.00  0.00     0.018 C 
HETATM   19  C25 UNL     1      -8.630   5.798  11.558  1.00  0.00     0.023 C 
HETATM   20  C26 UNL     1      -8.672   5.583  14.036  1.00  0.00     0.023 C 
HETATM   21  C27 UNL     1      -6.400   5.845  12.779  1.00  0.00     0.020 C 
HETATM   22  C28 UNL     1      -6.319   7.211  13.458  1.00  0.00     0.090 C 
HETATM   23  C29 UNL     1      -4.962   7.834  13.265  1.00  0.00     0.157 C 
HETATM   24  O2  UNL     1      -4.854   9.057  13.199  1.00  0.00    -0.293 OA
ENDROOT
BRANCH   1  25
HETATM   25  C6  UNL     1       1.182   7.183  11.719  1.00  0.00    -0.014 C 
HETATM   26  C7  UNL     1       2.445   6.874  12.529  1.00  0.00     0.010 C 
BRANCH  25  27
HETATM   27  C5  UNL     1       1.473   8.255  10.629  1.00  0.00     0.008 C 
BRANCH  27  28
HETATM   28  C4  UNL     1       0.383   8.530   9.580  1.00  0.00     0.028 C 
BRANCH  28  29
HETATM   29  C3  UNL     1       0.620   7.853   8.259  1.00  0.00    -0.013 C 
HETATM   30  C2  UNL     1       1.794   7.635   7.634  1.00  0.00     0.008 C 
HETATM   31  C1  UNL     1       1.891   6.868   6.350  1.00  0.00     0.055 C 
BRANCH  30  32
HETATM   32  C30 UNL     1       3.098   8.083   8.165  1.00  0.00     0.171 C 
HETATM   33  O3  UNL     1       3.873   7.397   8.809  1.00  0.00    -0.646 OA
BRANCH  32  34
HETATM   34  O4  UNL     1       3.409   9.327   7.775  1.00  0.00    -0.773 OA
HETATM   35  H44 UNL     1       4.303   9.475   8.144  1.00  0.00     0.167 HD
ENDBRANCH  32  34
ENDBRANCH  30  32
ENDBRANCH  28  29
ENDBRANCH  27  28
ENDBRANCH  25  27
ENDBRANCH   1  25
TORSDOF 6
ENDMDL
MODEL 2
REMARK minimizedAffinity -7.07964563
REMARK CNNscore 0.439333141
REMARK CNNaffinity 6.53855085
REMARK  6 active torsions:
REMARK  status: ('A' for Active; 'I' for Inactive)
REMARK    1  A    between atoms: C2_2  and  C30_32 
REMARK    2  A    between atoms: C3_3  and  C4_4 
REMARK    3  A    between atoms: C4_4  and  C5_5 
REMARK    4  A    between atoms: C5_5  and  C6_6 
REMARK    5  A    between atoms: C6_6  and  C8_8 
REMARK    6  A    between atoms: C30_32  and  O4_34 
ROOT
HETATM    1  C8  UNL     1     -13.627   7.745  23.519  1.00  0.00    -0.002 C 
HETATM    2  C9  UNL     1     -13.942   8.062  25.008  1.00  0.00     0.007 C 
HETATM    3  C10 UNL     1     -13.476   9.505  25.282  1.00  0.00     0.015 C 
HETATM    4  C11 UNL     1     -13.220  10.114  23.892  1.00  0.00    -0.005 C 
HETATM    5  C12 UNL     1     -14.601  10.597  23.344  1.00  0.00     0.021 C 
HETATM    6  C13 UNL     1     -12.302  11.321  23.735  1.00  0.00    -0.000 C 
HETATM    7  C14 UNL     1     -11.560  11.507  22.611  1.00  0.00    -0.060 C 
HETATM    8  C15 UNL     1     -11.616  10.482  21.464  1.00  0.00     0.036 C 
HETATM    9  C16 UNL     1     -12.489   9.226  21.666  1.00  0.00     0.015 C 
HETATM   10  C17 UNL     1     -12.605   8.862  23.151  1.00  0.00    -0.028 C 
HETATM   11  C18 UNL     1     -11.190   8.463  23.683  1.00  0.00     0.016 C 
HETATM   12  C19 UNL     1     -10.629  12.732  22.393  1.00  0.00    -0.014 C 
HETATM   13  C20 UNL     1     -11.343  13.669  21.390  1.00  0.00     0.020 C 
HETATM   14  C21 UNL     1      -9.264  12.277  21.792  1.00  0.00     0.021 C 
HETATM   15  C22 UNL     1      -8.078  13.210  22.021  1.00  0.00     0.080 C 
HETATM   16  C23 UNL     1      -8.486  14.597  22.444  1.00  0.00     0.135 C 
HETATM   17  O1  UNL     1      -8.020  15.584  21.874  1.00  0.00    -0.297 OA
HETATM   18  C24 UNL     1      -9.414  14.711  23.658  1.00  0.00     0.018 C 
HETATM   19  C25 UNL     1      -8.507  14.801  24.903  1.00  0.00     0.023 C 
HETATM   20  C26 UNL     1     -10.207  16.031  23.567  1.00  0.00     0.023 C 
HETATM   21  C27 UNL     1     -10.318  13.431  23.758  1.00  0.00     0.020 C 
HETATM   22  C28 UNL     1     -11.595  13.663  24.561  1.00  0.00     0.090 C 
HETATM   23  C29 UNL     1     -12.328  12.371  24.803  1.00  0.00     0.157 C 
HETATM   24  O2  UNL     1     -12.988  12.225  25.831  1.00  0.00    -0.293 OA
ENDROOT
BRANCH   1  25
HETATM   25  C6  UNL     1     -13.257   6.250  23.307  1.00  0.00    -0.014 C 
HETATM   26  C7  UNL     1     -13.883   5.651  22.044  1.00  0.00     0.010 C 
BRANCH  25  27
HETATM   27  C5  UNL     1     -13.563   5.365  24.550  1.00  0.00     0.008 C 
BRANCH  27  28
HETATM   28  C4  UNL     1     -13.992   3.909  24.308  1.00  0.00     0.028 C 
BRANCH  28  29
HETATM   29  C3  UNL     1     -12.845   2.949  24.160  1.00  0.00    -0.013 C 
HETATM   30  C2  UNL     1     -12.328   2.119  25.088  1.00  0.00     0.008 C 
HETATM   31  C1  UNL     1     -11.229   1.149  24.777  1.00  0.00     0.055 C 
BRANCH  30  32
HETATM   32  C30 UNL     1     -12.816   2.046  26.481  1.00  0.00     0.171 C 
HETATM   33  O3  UNL     1     -12.225   1.527  27.412  1.00  0.00    -0.646 OA
BRANCH  32  34
HETATM   34  O4  UNL     1     -13.964   2.715  26.656  1.00  0.00    -0.773 OA
HETATM   35  H44 UNL     1     -14.143   2.633  27.615  1.00  0.00     0.167 HD
ENDBRANCH  32  34
ENDBRANCH  30  32
ENDBRANCH  28  29
ENDBRANCH  27  28
ENDBRANCH  25  27
ENDBRANCH   1  25
TORSDOF 6
ENDMDL
MODEL 3
REMARK minimizedAffinity -7.5477128
REMARK CNNscore 0.425180733
REMARK CNNaffinity 6.36098623
REMARK  6 active torsions:
REMARK  status: ('A' for Active; 'I' for Inactive)
REMARK    1  A    between atoms: C2_2  and  C30_32 
REMARK    2  A    between atoms: C3_3  and  C4_4 
REMARK    3  A    between atoms: C4_4  and  C5_5 
REMARK    4  A    between atoms: C5_5  and  C6_6 
REMARK    5  A    between atoms: C6_6  and  C8_8 
REMARK    6  A    between atoms: C30_32  and  O4_34 
ROOT
HETATM    1  C8  UNL     1      -8.495 -13.790  24.333  1.00  0.00    -0.002 C 
HETATM    2  C9  UNL     1      -7.363 -14.579  25.051  1.00  0.00     0.007 C 
HETATM    3  C10 UNL     1      -7.920 -15.059  26.404  1.00  0.00     0.015 C 
HETATM    4  C11 UNL     1      -9.442 -14.847  26.308  1.00  0.00    -0.005 C 
HETATM    5  C12 UNL     1     -10.028 -16.085  25.556  1.00  0.00     0.021 C 
HETATM    6  C13 UNL     1     -10.286 -14.732  27.572  1.00  0.00    -0.000 C 
HETATM    7  C14 UNL     1     -11.408 -13.965  27.609  1.00  0.00    -0.060 C 
HETATM    8  C15 UNL     1     -11.847 -13.170  26.366  1.00  0.00     0.036 C 
HETATM    9  C16 UNL     1     -10.943 -13.234  25.117  1.00  0.00     0.015 C 
HETATM   10  C17 UNL     1      -9.482 -13.490  25.501  1.00  0.00    -0.028 C 
HETATM   11  C18 UNL     1      -8.955 -12.268  26.322  1.00  0.00     0.016 C 
HETATM   12  C19 UNL     1     -12.315 -13.834  28.864  1.00  0.00    -0.014 C 
HETATM   13  C20 UNL     1     -13.586 -14.673  28.592  1.00  0.00     0.020 C 
HETATM   14  C21 UNL     1     -12.718 -12.345  29.091  1.00  0.00     0.021 C 
HETATM   15  C22 UNL     1     -13.118 -11.959  30.512  1.00  0.00     0.080 C 
HETATM   16  C23 UNL     1     -13.439 -13.146  31.382  1.00  0.00     0.135 C 
HETATM   17  O1  UNL     1     -14.478 -13.172  32.041  1.00  0.00    -0.297 OA
HETATM   18  C24 UNL     1     -12.378 -14.249  31.474  1.00  0.00     0.018 C 
HETATM   19  C25 UNL     1     -11.451 -13.874  32.650  1.00  0.00     0.023 C 
HETATM   20  C26 UNL     1     -13.065 -15.583  31.834  1.00  0.00     0.023 C 
HETATM   21  C27 UNL     1     -11.546 -14.298  30.144  1.00  0.00     0.020 C 
HETATM   22  C28 UNL     1     -10.863 -15.645  29.917  1.00  0.00     0.090 C 
HETATM   23  C29 UNL     1      -9.919 -15.587  28.746  1.00  0.00     0.157 C 
HETATM   24  O2  UNL     1      -8.908 -16.286  28.740  1.00  0.00    -0.293 OA
ENDROOT
BRANCH   1  25
HETATM   25  C6  UNL     1      -7.936 -12.625  23.468  1.00  0.00    -0.014 C 
HETATM   26  C7  UNL     1      -7.598 -11.378  24.289  1.00  0.00     0.010 C 
BRANCH  25  27
HETATM   27  C5  UNL     1      -8.855 -12.264  22.266  1.00  0.00     0.008 C 
BRANCH  27  28
HETATM   28  C4  UNL     1      -9.435 -10.841  22.205  1.00  0.00     0.028 C 
BRANCH  28  29
HETATM   29  C3  UNL     1      -9.114 -10.103  20.936  1.00  0.00    -0.013 C 
HETATM   30  C2  UNL     1      -9.848 -10.026  19.808  1.00  0.00     0.008 C 
HETATM   31  C1  UNL     1      -9.442  -9.180  18.640  1.00  0.00     0.055 C 
BRANCH  30  32
HETATM   32  C30 UNL     1     -11.139 -10.722  19.625  1.00  0.00     0.171 C 
HETATM   33  O3  UNL     1     -11.330 -11.914  19.791  1.00  0.00    -0.646 OA
BRANCH  32  34
HETATM   34  O4  UNL     1     -12.140  -9.876  19.347  1.00  0.00    -0.773 OA
HETATM   35  H44 UNL     1     -12.932 -10.450  19.306  1.00  0.00     0.167 HD
ENDBRANCH  32  34
ENDBRANCH  30  32
ENDBRANCH  28  29
ENDBRANCH  27  28
ENDBRANCH  25  27
ENDBRANCH   1  25
TORSDOF 6
ENDMDL
MODEL 4
REMARK minimizedAffinity -7.10396433
REMARK CNNscore 0.401304424
REMARK CNNaffinity 6.91511202
REMARK  6 active torsions:
REMARK  status: ('A' for Active; 'I' for Inactive)
REMARK    1  A    between atoms: C2_2  and  C30_32 
REMARK    2  A    between atoms: C3_3  and  C4_4 
REMARK    3  A    between atoms: C4_4  and  C5_5 
REMARK    4  A    between atoms: C5_5  and  C6_6 
REMARK    5  A    between atoms: C6_6  and  C8_8 
REMARK    6  A    between atoms: C30_32  and  O4_34 
ROOT
HETATM    1  C8  UNL     1     -12.884   9.215  14.359  1.00  0.00    -0.002 C 
HETATM    2  C9  UNL     1     -12.948   8.833  12.853  1.00  0.00     0.007 C 
HETATM    3  C10 UNL     1     -11.681   8.020  12.528  1.00  0.00     0.015 C 
HETATM    4  C11 UNL     1     -11.079   7.651  13.896  1.00  0.00    -0.005 C 
HETATM    5  C12 UNL     1     -11.839   6.383  14.402  1.00  0.00     0.021 C 
HETATM    6  C13 UNL     1      -9.604   7.288  14.018  1.00  0.00    -0.000 C 
HETATM    7  C14 UNL     1      -8.896   7.565  15.145  1.00  0.00    -0.060 C 
HETATM    8  C15 UNL     1      -9.570   8.276  16.331  1.00  0.00     0.036 C 
HETATM    9  C16 UNL     1     -11.042   8.708  16.167  1.00  0.00     0.015 C 
HETATM   10  C17 UNL     1     -11.381   8.979  14.697  1.00  0.00    -0.028 C 
HETATM   11  C18 UNL     1     -10.542  10.202  14.204  1.00  0.00     0.016 C 
HETATM   12  C19 UNL     1      -7.397   7.193  15.327  1.00  0.00    -0.014 C 
HETATM   13  C20 UNL     1      -7.347   5.975  16.280  1.00  0.00     0.020 C 
HETATM   14  C21 UNL     1      -6.616   8.381  15.967  1.00  0.00     0.021 C 
HETATM   15  C22 UNL     1      -5.111   8.415  15.720  1.00  0.00     0.080 C 
HETATM   16  C23 UNL     1      -4.559   7.101  15.234  1.00  0.00     0.135 C 
HETATM   17  O1  UNL     1      -3.567   6.606  15.770  1.00  0.00    -0.297 OA
HETATM   18  C24 UNL     1      -5.224   6.478  14.002  1.00  0.00     0.018 C 
HETATM   19  C25 UNL     1      -4.480   7.032  12.768  1.00  0.00     0.023 C 
HETATM   20  C26 UNL     1      -5.006   4.951  14.026  1.00  0.00     0.023 C 
HETATM   21  C27 UNL     1      -6.734   6.905  13.940  1.00  0.00     0.020 C 
HETATM   22  C28 UNL     1      -7.590   5.953  13.108  1.00  0.00     0.090 C 
HETATM   23  C29 UNL     1      -8.977   6.502  12.907  1.00  0.00     0.157 C 
HETATM   24  O2  UNL     1      -9.594   6.242  11.876  1.00  0.00    -0.293 OA
ENDROOT
BRANCH   1  25
HETATM   25  C6  UNL     1     -13.536  10.598  14.638  1.00  0.00    -0.014 C 
HETATM   26  C7  UNL     1     -12.753  11.437  15.652  1.00  0.00     0.010 C 
BRANCH  25  27
HETATM   27  C5  UNL     1     -15.035  10.494  15.046  1.00  0.00     0.008 C 
BRANCH  27  28
HETATM   28  C4  UNL     1     -15.968   9.662  14.152  1.00  0.00     0.028 C 
BRANCH  28  29
HETATM   29  C3  UNL     1     -16.727  10.472  13.138  1.00  0.00    -0.013 C 
HETATM   30  C2  UNL     1     -17.168  10.086  11.925  1.00  0.00     0.008 C 
HETATM   31  C1  UNL     1     -17.989  10.979  11.045  1.00  0.00     0.055 C 
BRANCH  30  32
HETATM   32  C30 UNL     1     -16.932   8.741  11.360  1.00  0.00     0.171 C 
HETATM   33  O3  UNL     1     -15.874   8.338  10.910  1.00  0.00    -0.646 OA
BRANCH  32  34
HETATM   34  O4  UNL     1     -17.999   7.940  11.484  1.00  0.00    -0.773 OA
HETATM   35  H44 UNL     1     -17.694   7.081  11.127  1.00  0.00     0.167 HD
ENDBRANCH  32  34
ENDBRANCH  30  32
ENDBRANCH  28  29
ENDBRANCH  27  28
ENDBRANCH  25  27
ENDBRANCH   1  25
TORSDOF 6
ENDMDL
MODEL 5
REMARK minimizedAffinity -7.61705351
REMARK CNNscore 0.384805799
REMARK CNNaffinity 5.58399248
REMARK  6 active torsions:
REMARK  status: ('A' for Active; 'I' for Inactive)
REMARK    1  A    between atoms: C2_2  and  C30_32 
REMARK    2  A    between atoms: C3_3  and  C4_4 
REMARK    3  A    between atoms: C4_4  and  C5_5 
REMARK    4  A    between atoms: C5_5  and  C6_6 
REMARK    5  A    between atoms: C6_6  and  C8_8 
REMARK    6  A    between atoms: C30_32  and  O4_34 
ROOT
HETATM    1  C8  UNL     1      -9.404  -9.635  12.639  1.00  0.00    -0.002 C 
HETATM    2  C9  UNL     1      -8.288 -10.219  13.551  1.00  0.00     0.007 C 
HETATM    3  C10 UNL     1      -7.017 -10.361  12.694  1.00  0.00     0.015 C 
HETATM    4  C11 UNL     1      -7.302  -9.552  11.416  1.00  0.00    -0.005 C 
HETATM    5  C12 UNL     1      -6.991  -8.057  11.743  1.00  0.00     0.021 C 
HETATM    6  C13 UNL     1      -6.527  -9.834  10.134  1.00  0.00    -0.000 C 
HETATM    7  C14 UNL     1      -7.092  -9.661   8.910  1.00  0.00    -0.060 C 
HETATM    8  C15 UNL     1      -8.552  -9.190   8.788  1.00  0.00     0.036 C 
HETATM    9  C16 UNL     1      -9.351  -8.982  10.091  1.00  0.00     0.015 C 
HETATM   10  C17 UNL     1      -8.832  -9.890  11.212  1.00  0.00    -0.028 C 
HETATM   11  C18 UNL     1      -9.087 -11.380  10.812  1.00  0.00     0.016 C 
HETATM   12  C19 UNL     1      -6.336  -9.911   7.575  1.00  0.00    -0.014 C 
HETATM   13  C20 UNL     1      -5.995  -8.523   6.982  1.00  0.00     0.020 C 
HETATM   14  C21 UNL     1      -7.242 -10.691   6.574  1.00  0.00     0.021 C 
HETATM   15  C22 UNL     1      -6.525 -11.478   5.482  1.00  0.00     0.080 C 
HETATM   16  C23 UNL     1      -5.087 -11.068   5.300  1.00  0.00     0.135 C 
HETATM   17  O1  UNL     1      -4.649 -10.817   4.178  1.00  0.00    -0.297 OA
HETATM   18  C24 UNL     1      -4.197 -11.077   6.548  1.00  0.00     0.018 C 
HETATM   19  C25 UNL     1      -3.585 -12.491   6.646  1.00  0.00     0.023 C 
HETATM   20  C26 UNL     1      -3.034 -10.084   6.347  1.00  0.00     0.023 C 
HETATM   21  C27 UNL     1      -5.066 -10.791   7.823  1.00  0.00     0.020 C 
HETATM   22  C28 UNL     1      -4.248 -10.258   8.997  1.00  0.00     0.090 C 
HETATM   23  C29 UNL     1      -5.076 -10.190  10.252  1.00  0.00     0.157 C 
HETATM   24  O2  UNL     1      -4.542 -10.355  11.347  1.00  0.00    -0.293 OA
ENDROOT
BRANCH   1  25
HETATM   25  C6  UNL     1     -10.811 -10.173  13.021  1.00  0.00    -0.014 C 
HETATM   26  C7  UNL     1     -11.192 -11.447  12.263  1.00  0.00     0.010 C 
BRANCH  25  27
HETATM   27  C5  UNL     1     -11.929  -9.098  12.893  1.00  0.00     0.008 C 
BRANCH  27  28
HETATM   28  C4  UNL     1     -12.136  -8.130  14.070  1.00  0.00     0.028 C 
BRANCH  28  29
HETATM   29  C3  UNL     1     -11.478  -8.571  15.347  1.00  0.00    -0.013 C 
HETATM   30  C2  UNL     1     -11.452  -7.931  16.534  1.00  0.00     0.008 C 
HETATM   31  C1  UNL     1     -10.824  -8.530  17.756  1.00  0.00     0.055 C 
BRANCH  30  32
HETATM   32  C30 UNL     1     -12.072  -6.610  16.764  1.00  0.00     0.171 C 
HETATM   33  O3  UNL     1     -11.578  -5.536  16.469  1.00  0.00    -0.646 OA
BRANCH  32  34
HETATM   34  O4  UNL     1     -13.315  -6.707  17.252  1.00  0.00    -0.773 OA
HETATM   35  H44 UNL     1     -13.623  -5.780  17.305  1.00  0.00     0.167 HD
ENDBRANCH  32  34
ENDBRANCH  30  32
ENDBRANCH  28  29
ENDBRANCH  27  28
ENDBRANCH  25  27
ENDBRANCH   1  25
TORSDOF 6
ENDMDL
MODEL 6
REMARK minimizedAffinity -7.38604116
REMARK CNNscore 0.370104045
REMARK CNNaffinity 6.48165369
REMARK  6 active torsions:
REMARK  status: ('A' for Active; 'I' for Inactive)
REMARK    1  A    between atoms: C2_2  and  C30_32 
REMARK    2  A    between atoms: C3_3  and  C4_4 
REMARK    3  A    between atoms: C4_4  and  C5_5 
REMARK    4  A    between atoms: C5_5  and  C6_6 
REMARK    5  A    between atoms: C6_6  and  C8_8 
REMARK    6  A    between atoms: C30_32  and  O4_34 
ROOT
HETATM    1  C8  UNL     1      -9.469  -7.860  -3.698  1.00  0.00    -0.002 C 
HETATM    2  C9  UNL     1      -8.081  -7.753  -4.392  1.00  0.00     0.007 C 
HETATM    3  C10 UNL     1      -7.058  -8.469  -3.490  1.00  0.00     0.015 C 
HETATM    4  C11 UNL     1      -7.902  -9.266  -2.479  1.00  0.00    -0.005 C 
HETATM    5  C12 UNL     1      -8.313 -10.601  -3.180  1.00  0.00     0.021 C 
HETATM    6  C13 UNL     1      -7.303  -9.701  -1.146  1.00  0.00    -0.000 C 
HETATM    7  C14 UNL     1      -8.068  -9.814  -0.029  1.00  0.00    -0.060 C 
HETATM    8  C15 UNL     1      -9.570  -9.483  -0.077  1.00  0.00     0.036 C 
HETATM    9  C16 UNL     1     -10.149  -8.970  -1.412  1.00  0.00     0.015 C 
HETATM   10  C17 UNL     1      -9.082  -8.243  -2.238  1.00  0.00    -0.028 C 
HETATM   11  C18 UNL     1      -8.637  -6.958  -1.468  1.00  0.00     0.016 C 
HETATM   12  C19 UNL     1      -7.510 -10.276   1.347  1.00  0.00    -0.014 C 
HETATM   13  C20 UNL     1      -7.991 -11.731   1.563  1.00  0.00     0.020 C 
HETATM   14  C21 UNL     1      -8.067  -9.374   2.491  1.00  0.00     0.021 C 
HETATM   15  C22 UNL     1      -7.241  -9.319   3.773  1.00  0.00     0.080 C 
HETATM   16  C23 UNL     1      -6.237 -10.436   3.882  1.00  0.00     0.135 C 
HETATM   17  O1  UNL     1      -6.163 -11.107   4.911  1.00  0.00    -0.297 OA
HETATM   18  C24 UNL     1      -5.270 -10.621   2.708  1.00  0.00     0.018 C 
HETATM   19  C25 UNL     1      -4.039  -9.737   3.003  1.00  0.00     0.023 C 
HETATM   20  C26 UNL     1      -4.789 -12.086   2.674  1.00  0.00     0.023 C 
HETATM   21  C27 UNL     1      -5.952 -10.143   1.377  1.00  0.00     0.020 C 
HETATM   22  C28 UNL     1      -5.323 -10.758   0.129  1.00  0.00     0.090 C 
HETATM   23  C29 UNL     1      -5.866 -10.124  -1.123  1.00  0.00     0.157 C 
HETATM   24  O2  UNL     1      -5.153 -10.029  -2.120  1.00  0.00    -0.293 OA
ENDROOT
BRANCH   1  25
HETATM   25  C6  UNL     1     -10.353  -6.610  -3.967  1.00  0.00    -0.014 C 
HETATM   26  C7  UNL     1     -11.607  -6.928  -4.787  1.00  0.00     0.010 C 
BRANCH  25  27
HETATM   27  C5  UNL     1      -9.562  -5.430  -4.602  1.00  0.00     0.008 C 
BRANCH  27  28
HETATM   28  C4  UNL     1     -10.298  -4.526  -5.604  1.00  0.00     0.028 C 
BRANCH  28  29
HETATM   29  C3  UNL     1     -10.674  -3.179  -5.053  1.00  0.00    -0.013 C 
HETATM   30  C2  UNL     1      -9.901  -2.080  -4.942  1.00  0.00     0.008 C 
HETATM   31  C1  UNL     1     -10.434  -0.770  -4.446  1.00  0.00     0.055 C 
BRANCH  30  32
HETATM   32  C30 UNL     1      -8.478  -2.038  -5.337  1.00  0.00     0.171 C 
HETATM   33  O3  UNL     1      -8.063  -1.932  -6.477  1.00  0.00    -0.646 OA
BRANCH  32  34
HETATM   34  O4  UNL     1      -7.655  -2.026  -4.280  1.00  0.00    -0.773 OA
HETATM   35  H44 UNL     1      -6.763  -1.943  -4.674  1.00  0.00     0.167 HD
ENDBRANCH  32  34
ENDBRANCH  30  32
ENDBRANCH  28  29
ENDBRANCH  27  28
ENDBRANCH  25  27
ENDBRANCH   1  25
TORSDOF 6
ENDMDL
MODEL 7
REMARK minimizedAffinity -8.65554047
REMARK CNNscore 0.283840865
REMARK CNNaffinity 6.68532133
REMARK  6 active torsions:
REMARK  status: ('A' for Active; 'I' for Inactive)
REMARK    1  A    between atoms: C2_2  and  C30_32 
REMARK    2  A    between atoms: C3_3  and  C4_4 
REMARK    3  A    between atoms: C4_4  and  C5_5 
REMARK    4  A    between atoms: C5_5  and  C6_6 
REMARK    5  A    between atoms: C6_6  and  C8_8 
REMARK    6  A    between atoms: C30_32  and  O4_34 
ROOT
HETATM    1  C8  UNL     1      -8.591   6.152  14.055  1.00  0.00    -0.002 C 
HETATM    2  C9  UNL     1      -8.837   5.470  12.679  1.00  0.00     0.007 C 
HETATM    3  C10 UNL     1      -7.480   4.949  12.172  1.00  0.00     0.015 C 
HETATM    4  C11 UNL     1      -6.541   5.024  13.390  1.00  0.00    -0.005 C 
HETATM    5  C12 UNL     1      -6.791   3.735  14.237  1.00  0.00     0.021 C 
HETATM    6  C13 UNL     1      -5.029   5.070  13.197  1.00  0.00    -0.000 C 
HETATM    7  C14 UNL     1      -4.224   5.733  14.067  1.00  0.00    -0.060 C 
HETATM    8  C15 UNL     1      -4.827   6.479  15.271  1.00  0.00     0.036 C 
HETATM    9  C16 UNL     1      -6.363   6.490  15.412  1.00  0.00     0.015 C 
HETATM   10  C17 UNL     1      -7.047   6.368  14.046  1.00  0.00    -0.028 C 
HETATM   11  C18 UNL     1      -6.708   7.636  13.197  1.00  0.00     0.016 C 
HETATM   12  C19 UNL     1      -2.676   5.789  13.929  1.00  0.00    -0.014 C 
HETATM   13  C20 UNL     1      -2.092   4.839  15.002  1.00  0.00     0.020 C 
HETATM   14  C21 UNL     1      -2.159   7.237  14.187  1.00  0.00     0.021 C 
HETATM   15  C22 UNL     1      -0.806   7.593  13.577  1.00  0.00     0.080 C 
HETATM   16  C23 UNL     1      -0.006   6.386  13.161  1.00  0.00     0.135 C 
HETATM   17  O1  UNL     1       1.170   6.271  13.503  1.00  0.00    -0.297 OA
HETATM   18  C24 UNL     1      -0.694   5.383  12.227  1.00  0.00     0.018 C 
HETATM   19  C25 UNL     1      -0.398   5.845  10.785  1.00  0.00     0.023 C 
HETATM   20  C26 UNL     1      -0.046   3.995  12.411  1.00  0.00     0.023 C 
HETATM   21  C27 UNL     1      -2.244   5.401  12.477  1.00  0.00     0.020 C 
HETATM   22  C28 UNL     1      -2.937   4.120  12.020  1.00  0.00     0.090 C 
HETATM   23  C29 UNL     1      -4.434   4.257  12.088  1.00  0.00     0.157 C 
HETATM   24  O2  UNL     1      -5.142   3.650  11.286  1.00  0.00    -0.293 OA
ENDROOT
BRANCH   1  25
HETATM   25  C6  UNL     1      -9.544   7.357  14.289  1.00  0.00    -0.014 C 
HETATM   26  C7  UNL     1      -9.740   7.688  15.771  1.00  0.00     0.010 C 
BRANCH  25  27
HETATM   27  C5  UNL     1     -10.917   7.195  13.573  1.00  0.00     0.008 C 
BRANCH  27  28
HETATM   28  C4  UNL     1     -12.129   6.785  14.424  1.00  0.00     0.028 C 
BRANCH  28  29
HETATM   29  C3  UNL     1     -13.396   6.602  13.637  1.00  0.00    -0.013 C 
HETATM   30  C2  UNL     1     -14.106   7.535  12.973  1.00  0.00     0.008 C 
HETATM   31  C1  UNL     1     -15.316   7.195  12.155  1.00  0.00     0.055 C 
BRANCH  30  32
HETATM   32  C30 UNL     1     -13.745   8.968  12.942  1.00  0.00     0.171 C 
HETATM   33  O3  UNL     1     -13.218   9.545  12.008  1.00  0.00    -0.646 OA
BRANCH  32  34
HETATM   34  O4  UNL     1     -14.158   9.622  14.037  1.00  0.00    -0.773 OA
HETATM   35  H44 UNL     1     -13.908  10.553  13.865  1.00  0.00     0.167 HD
ENDBRANCH  32  34
ENDBRANCH  30  32
ENDBRANCH  28  29
ENDBRANCH  27  28
ENDBRANCH  25  27
ENDBRANCH   1  25
TORSDOF 6
ENDMDL
MODEL 8
REMARK minimizedAffinity -6.84373856
REMARK CNNscore 0.263591379
REMARK CNNaffinity 5.56578016
REMARK  6 active torsions:
REMARK  status: ('A' for Active; 'I' for Inactive)
REMARK    1  A    between atoms: C2_2  and  C30_32 
REMARK    2  A    between atoms: C3_3  and  C4_4 
REMARK    3  A    between atoms: C4_4  and  C5_5 
REMARK    4  A    between atoms: C5_5  and  C6_6 
REMARK    5  A    between atoms: C6_6  and  C8_8 
REMARK    6  A    between atoms: C30_32  and  O4_34 
ROOT
HETATM    1  C8  UNL     1       3.921  12.421  21.181  1.00  0.00    -0.002 C 
HETATM    2  C9  UNL     1       4.845  11.377  20.492  1.00  0.00     0.007 C 
HETATM    3  C10 UNL     1       4.083  10.816  19.276  1.00  0.00     0.015 C 
HETATM    4  C11 UNL     1       2.891  11.770  19.075  1.00  0.00    -0.005 C 
HETATM    5  C12 UNL     1       3.419  12.993  18.259  1.00  0.00     0.021 C 
HETATM    6  C13 UNL     1       1.652  11.308  18.316  1.00  0.00    -0.000 C 
HETATM    7  C14 UNL     1       0.416  11.783  18.620  1.00  0.00    -0.060 C 
HETATM    8  C15 UNL     1       0.232  12.797  19.764  1.00  0.00     0.036 C 
HETATM    9  C16 UNL     1       1.482  13.198  20.575  1.00  0.00     0.015 C 
HETATM   10  C17 UNL     1       2.525  12.074  20.581  1.00  0.00    -0.028 C 
HETATM   11  C18 UNL     1       1.931  10.840  21.334  1.00  0.00     0.016 C 
HETATM   12  C19 UNL     1      -0.874  11.362  17.860  1.00  0.00    -0.014 C 
HETATM   13  C20 UNL     1      -1.267  12.548  16.948  1.00  0.00     0.020 C 
HETATM   14  C21 UNL     1      -2.030  11.081  18.867  1.00  0.00     0.021 C 
HETATM   15  C22 UNL     1      -3.147  10.164  18.378  1.00  0.00     0.080 C 
HETATM   16  C23 UNL     1      -3.162   9.991  16.881  1.00  0.00     0.135 C 
HETATM   17  O1  UNL     1      -4.207  10.137  16.248  1.00  0.00    -0.297 OA
HETATM   18  C24 UNL     1      -1.855   9.536  16.220  1.00  0.00     0.018 C 
HETATM   19  C25 UNL     1      -1.877   7.993  16.210  1.00  0.00     0.023 C 
HETATM   20  C26 UNL     1      -1.841  10.008  14.751  1.00  0.00     0.023 C 
HETATM   21  C27 UNL     1      -0.630  10.039  17.063  1.00  0.00     0.020 C 
HETATM   22  C28 UNL     1       0.661  10.116  16.251  1.00  0.00     0.090 C 
HETATM   23  C29 UNL     1       1.844  10.405  17.136  1.00  0.00     0.157 C 
HETATM   24  O2  UNL     1       2.951   9.958  16.842  1.00  0.00    -0.293 OA
ENDROOT
BRANCH   1  25
HETATM   25  C6  UNL     1       4.121  12.449  22.722  1.00  0.00    -0.014 C 
HETATM   26  C7  UNL     1       3.337  13.572  23.408  1.00  0.00     0.010 C 
BRANCH  25  27
HETATM   27  C5  UNL     1       5.619  12.485  23.141  1.00  0.00     0.008 C 
BRANCH  27  28
HETATM   28  C4  UNL     1       6.523  13.547  22.493  1.00  0.00     0.028 C 
BRANCH  28  29
HETATM   29  C3  UNL     1       6.274  14.945  22.986  1.00  0.00    -0.013 C 
HETATM   30  C2  UNL     1       7.108  15.742  23.683  1.00  0.00     0.008 C 
HETATM   31  C1  UNL     1       6.758  17.155  24.040  1.00  0.00     0.055 C 
BRANCH  30  32
HETATM   32  C30 UNL     1       8.457  15.329  24.122  1.00  0.00     0.171 C 
HETATM   33  O3  UNL     1       9.220  16.002  24.792  1.00  0.00    -0.646 OA
BRANCH  32  34
HETATM   34  O4  UNL     1       8.737  14.062  23.788  1.00  0.00    -0.773 OA
HETATM   35  H44 UNL     1       9.621  13.904  24.179  1.00  0.00     0.167 HD
ENDBRANCH  32  34
ENDBRANCH  30  32
ENDBRANCH  28  29
ENDBRANCH  27  28
ENDBRANCH  25  27
ENDBRANCH   1  25
TORSDOF 6
ENDMDL
MODEL 9
REMARK minimizedAffinity -7.40128565
REMARK CNNscore 0.23962152
REMARK CNNaffinity 6.35896444
REMARK  6 active torsions:
REMARK  status: ('A' for Active; 'I' for Inactive)
REMARK    1  A    between atoms: C2_2  and  C30_32 
REMARK    2  A    between atoms: C3_3  and  C4_4 
REMARK    3  A    between atoms: C4_4  and  C5_5 
REMARK    4  A    between atoms: C5_5  and  C6_6 
REMARK    5  A    between atoms: C6_6  and  C8_8 
REMARK    6  A    between atoms: C30_32  and  O4_34 
ROOT
HETATM    1  C8  UNL     1      -8.660   7.716  14.149  1.00  0.00    -0.002 C 
HETATM    2  C9  UNL     1      -9.595   6.506  13.863  1.00  0.00     0.007 C 
HETATM    3  C10 UNL     1     -10.983   6.849  14.434  1.00  0.00     0.015 C 
HETATM    4  C11 UNL     1     -10.933   8.359  14.731  1.00  0.00    -0.005 C 
HETATM    5  C12 UNL     1     -11.234   9.097  13.387  1.00  0.00     0.021 C 
HETATM    6  C13 UNL     1     -11.897   8.981  15.734  1.00  0.00    -0.000 C 
HETATM    7  C14 UNL     1     -11.543  10.058  16.484  1.00  0.00    -0.060 C 
HETATM    8  C15 UNL     1     -10.137  10.671  16.350  1.00  0.00     0.036 C 
HETATM    9  C16 UNL     1      -9.145   9.985  15.387  1.00  0.00     0.015 C 
HETATM   10  C17 UNL     1      -9.447   8.489  15.250  1.00  0.00    -0.028 C 
HETATM   11  C18 UNL     1      -9.214   7.799  16.633  1.00  0.00     0.016 C 
HETATM   12  C19 UNL     1     -12.497  10.743  17.502  1.00  0.00    -0.014 C 
HETATM   13  C20 UNL     1     -12.972  12.067  16.856  1.00  0.00     0.020 C 
HETATM   14  C21 UNL     1     -11.740  11.059  18.829  1.00  0.00     0.021 C 
HETATM   15  C22 UNL     1     -12.600  11.210  20.080  1.00  0.00     0.080 C 
HETATM   16  C23 UNL     1     -14.061  11.419  19.777  1.00  0.00     0.135 C 
HETATM   17  O1  UNL     1     -14.682  12.336  20.312  1.00  0.00    -0.297 OA
HETATM   18  C24 UNL     1     -14.736  10.391  18.862  1.00  0.00     0.018 C 
HETATM   19  C25 UNL     1     -15.280   9.273  19.778  1.00  0.00     0.023 C 
HETATM   20  C26 UNL     1     -15.947  11.049  18.169  1.00  0.00     0.023 C 
HETATM   21  C27 UNL     1     -13.681   9.789  17.868  1.00  0.00     0.020 C 
HETATM   22  C28 UNL     1     -14.316   9.193  16.613  1.00  0.00     0.090 C 
HETATM   23  C29 UNL     1     -13.298   8.452  15.788  1.00  0.00     0.157 C 
HETATM   24  O2  UNL     1     -13.642   7.477  15.123  1.00  0.00    -0.293 OA
ENDROOT
BRANCH   1  25
HETATM   25  C6  UNL     1      -7.193   7.271  14.408  1.00  0.00    -0.014 C 
HETATM   26  C7  UNL     1      -6.252   8.445  14.692  1.00  0.00     0.010 C 
BRANCH  25  27
HETATM   27  C5  UNL     1      -6.623   6.366  13.277  1.00  0.00     0.008 C 
BRANCH  27  28
HETATM   28  C4  UNL     1      -5.569   5.315  13.660  1.00  0.00     0.028 C 
BRANCH  28  29
HETATM   29  C3  UNL     1      -5.372   4.241  12.626  1.00  0.00    -0.013 C 
HETATM   30  C2  UNL     1      -6.132   3.150  12.403  1.00  0.00     0.008 C 
HETATM   31  C1  UNL     1      -5.864   2.199  11.276  1.00  0.00     0.055 C 
BRANCH  30  32
HETATM   32  C30 UNL     1      -7.323   2.806  13.208  1.00  0.00     0.171 C 
HETATM   33  O3  UNL     1      -7.650   3.341  14.252  1.00  0.00    -0.646 OA
BRANCH  32  34
HETATM   34  O4  UNL     1      -8.094   1.887  12.611  1.00  0.00    -0.773 OA
HETATM   35  H44 UNL     1      -8.860   1.793  13.212  1.00  0.00     0.167 HD
ENDBRANCH  32  34
ENDBRANCH  30  32
ENDBRANCH  28  29
ENDBRANCH  27  28
ENDBRANCH  25  27
ENDBRANCH   1  25
TORSDOF 6
ENDMDL
