MODEL 1
REMARK minimizedAffinity -7.11336803
REMARK CNNscore 0.756521821
REMARK CNNaffinity 6.37046862
REMARK  6 active torsions:
REMARK  status: ('A' for Active; 'I' for Inactive)
REMARK    1  A    between atoms: C4_4  and  O1_5 
REMARK    2  A    between atoms: C5_6  and  O2_7 
REMARK    3  A    between atoms: C8_11  and  C9_12 
REMARK    4  A    between atoms: C19_23  and  C20_24 
REMARK    5  A    between atoms: C25_31  and  O7_32 
REMARK    6  A    between atoms: C26_33  and  O8_34 
ROOT
HETATM    1  C1  UNL     1     -21.671   6.915  17.497  1.00  0.00     0.040 C 
HETATM    2  C2  UNL     1     -21.753   6.871  15.976  1.00  0.00     0.123 C 
HETATM    3  C3  UNL     1     -21.314   5.507  15.448  1.00  0.00     0.069 C 
HETATM    4  C4  UNL     1     -21.364   5.515  13.927  1.00  0.00     0.188 C 
HETATM    5  C5  UNL     1     -20.484   6.652  13.349  1.00  0.00     0.240 C 
HETATM    6  O3  UNL     1     -19.092   6.374  13.589  1.00  0.00    -0.341 OA
HETATM    7  C6  UNL     1     -18.262   7.491  13.218  1.00  0.00     0.156 C 
HETATM    8  C7  UNL     1     -16.816   7.141  13.582  1.00  0.00     0.056 C 
HETATM    9  C8  UNL     1     -15.801   8.275  13.296  1.00  0.00     0.043 C 
HETATM   10  C10 UNL     1     -16.339   9.648  13.713  1.00  0.00    -0.065 C 
HETATM   11  C11 UNL     1     -15.545  10.594  14.247  1.00  0.00    -0.022 C 
HETATM   12  C12 UNL     1     -14.080  10.431  14.510  1.00  0.00     0.035 C 
HETATM   13  C13 UNL     1     -13.452   9.165  13.880  1.00  0.00     0.032 C 
HETATM   14  C14 UNL     1     -14.438   7.981  14.057  1.00  0.00     0.013 C 
HETATM   15  C15 UNL     1     -13.817   6.621  13.708  1.00  0.00     0.007 C 
HETATM   16  C16 UNL     1     -12.473   6.416  14.387  1.00  0.00     0.013 C 
HETATM   17  C17 UNL     1     -11.422   7.500  14.024  1.00  0.00    -0.003 C 
HETATM   18  C18 UNL     1     -11.041   7.343  12.539  1.00  0.00     0.019 C 
HETATM   19  C19 UNL     1     -10.206   7.318  15.024  1.00  0.00     0.030 C 
HETATM   20  C24 UNL     1     -10.220   8.551  15.938  1.00  0.00     0.044 C 
HETATM   21  C25 UNL     1     -11.649   9.090  15.844  1.00  0.00     0.154 C 
HETATM   22  C26 UNL     1     -11.979   8.928  14.341  1.00  0.00     0.096 C 
HETATM   23  C27 UNL     1     -17.811   9.932  13.492  1.00  0.00     0.069 C 
HETATM   24  C28 UNL     1     -18.697   8.771  13.938  1.00  0.00     0.158 C 
HETATM   25  O9  UNL     1     -20.064   9.080  13.640  1.00  0.00    -0.347 OA
HETATM   26  C29 UNL     1     -20.918   7.994  14.036  1.00  0.00     0.325 C 
HETATM   27  O10 UNL     1     -20.913   7.903  15.468  1.00  0.00    -0.351 OA
ENDROOT
BRANCH  19  28
HETATM   28  C20 UNL     1      -8.853   6.980  14.464  1.00  0.00    -0.045 A 
HETATM   29  C21 UNL     1      -8.569   5.890  13.751  1.00  0.00     0.087 A 
HETATM   30  C22 UNL     1      -7.140   5.915  13.454  1.00  0.00     0.283 A 
HETATM   31  O5  UNL     1      -6.542   5.016  12.887  1.00  0.00    -0.260 OA
HETATM   32  O6  UNL     1      -6.604   7.059  13.958  1.00  0.00    -0.314 OA
HETATM   33  C23 UNL     1      -7.630   7.806  14.622  1.00  0.00     0.213 A 
ENDBRANCH  19  28
BRANCH  22  34
HETATM   34  O8  UNL     1     -11.171   9.902  13.640  1.00  0.00    -0.386 OA
HETATM   35  H34 UNL     1     -11.413  10.773  14.007  1.00  0.00     0.210 HD
ENDBRANCH  22  34
BRANCH  21  36
HETATM   36  O7  UNL     1     -11.701  10.443  16.274  1.00  0.00    -0.392 OA
HETATM   37  H33 UNL     1     -10.801  10.816  16.265  1.00  0.00     0.210 HD
ENDBRANCH  21  36
BRANCH   9  38
HETATM   38  C9  UNL     1     -15.585   8.322  11.766  1.00  0.00     0.245 C 
HETATM   39  O4  UNL     1     -15.685   7.354  11.012  1.00  0.00    -0.306 OA
ENDBRANCH   9  38
BRANCH   5  40
HETATM   40  O2  UNL     1     -20.678   6.669  11.932  1.00  0.00    -0.360 OA
HETATM   41  H9  UNL     1     -20.013   6.037  11.607  1.00  0.00     0.213 HD
ENDBRANCH   5  40
BRANCH   4  42
HETATM   42  O1  UNL     1     -20.975   4.222  13.442  1.00  0.00    -0.390 OA
HETATM   43  H8  UNL     1     -20.996   4.286  12.467  1.00  0.00     0.210 HD
ENDBRANCH   4  42
TORSDOF 6
ENDMDL
MODEL 2
REMARK minimizedAffinity -7.33202934
REMARK CNNscore 0.744903803
REMARK CNNaffinity 5.35483932
REMARK  6 active torsions:
REMARK  status: ('A' for Active; 'I' for Inactive)
REMARK    1  A    between atoms: C4_4  and  O1_5 
REMARK    2  A    between atoms: C5_6  and  O2_7 
REMARK    3  A    between atoms: C8_11  and  C9_12 
REMARK    4  A    between atoms: C19_23  and  C20_24 
REMARK    5  A    between atoms: C25_31  and  O7_32 
REMARK    6  A    between atoms: C26_33  and  O8_34 
ROOT
HETATM    1  C1  UNL     1      14.497 -13.398   2.057  1.00  0.00     0.040 C 
HETATM    2  C2  UNL     1      13.137 -12.940   2.569  1.00  0.00     0.123 C 
HETATM    3  C3  UNL     1      12.388 -12.158   1.492  1.00  0.00     0.069 C 
HETATM    4  C4  UNL     1      11.057 -11.677   2.052  1.00  0.00     0.188 C 
HETATM    5  C5  UNL     1      11.269 -10.818   3.325  1.00  0.00     0.240 C 
HETATM    6  O3  UNL     1      11.905  -9.573   2.984  1.00  0.00    -0.341 OA
HETATM    7  C6  UNL     1      12.270  -8.830   4.162  1.00  0.00     0.156 C 
HETATM    8  C7  UNL     1      13.009  -7.567   3.708  1.00  0.00     0.056 C 
HETATM    9  C8  UNL     1      13.524  -6.684   4.872  1.00  0.00     0.043 C 
HETATM   10  C10 UNL     1      14.144  -7.519   5.998  1.00  0.00    -0.065 C 
HETATM   11  C11 UNL     1      15.220  -7.101   6.688  1.00  0.00    -0.022 C 
HETATM   12  C12 UNL     1      15.942  -5.811   6.445  1.00  0.00     0.035 C 
HETATM   13  C13 UNL     1      15.207  -4.833   5.497  1.00  0.00     0.032 C 
HETATM   14  C14 UNL     1      14.593  -5.644   4.327  1.00  0.00     0.013 C 
HETATM   15  C15 UNL     1      14.067  -4.758   3.189  1.00  0.00     0.007 C 
HETATM   16  C16 UNL     1      15.089  -3.719   2.756  1.00  0.00     0.013 C 
HETATM   17  C17 UNL     1      15.533  -2.769   3.901  1.00  0.00    -0.003 C 
HETATM   18  C18 UNL     1      14.340  -1.878   4.296  1.00  0.00     0.019 C 
HETATM   19  C19 UNL     1      16.792  -1.965   3.372  1.00  0.00     0.030 C 
HETATM   20  C24 UNL     1      17.991  -2.468   4.188  1.00  0.00     0.044 C 
HETATM   21  C25 UNL     1      17.555  -3.834   4.719  1.00  0.00     0.154 C 
HETATM   22  C26 UNL     1      16.078  -3.595   5.114  1.00  0.00     0.096 C 
HETATM   23  C27 UNL     1      13.497  -8.847   6.338  1.00  0.00     0.069 C 
HETATM   24  C28 UNL     1      13.160  -9.661   5.091  1.00  0.00     0.158 C 
HETATM   25  O9  UNL     1      12.494 -10.868   5.482  1.00  0.00    -0.347 OA
HETATM   26  C29 UNL     1      12.151 -11.647   4.324  1.00  0.00     0.325 C 
HETATM   27  O10 UNL     1      13.360 -12.128   3.718  1.00  0.00    -0.351 OA
ENDROOT
BRANCH  19  28
HETATM   28  C20 UNL     1      16.701  -0.469   3.265  1.00  0.00    -0.045 A 
HETATM   29  C21 UNL     1      17.066   0.392   4.215  1.00  0.00     0.087 A 
HETATM   30  C22 UNL     1      16.763   1.736   3.736  1.00  0.00     0.283 A 
HETATM   31  O5  UNL     1      16.898   2.750   4.402  1.00  0.00    -0.260 OA
HETATM   32  O6  UNL     1      16.264   1.653   2.474  1.00  0.00    -0.314 OA
HETATM   33  C23 UNL     1      16.190   0.276   2.087  1.00  0.00     0.213 A 
ENDBRANCH  19  28
BRANCH  22  34
HETATM   34  O8  UNL     1      16.102  -2.738   6.279  1.00  0.00    -0.386 OA
HETATM   35  H34 UNL     1      16.621  -3.211   6.956  1.00  0.00     0.210 HD
ENDBRANCH  22  34
BRANCH  21  36
HETATM   36  O7  UNL     1      18.361  -4.221   5.823  1.00  0.00    -0.392 OA
HETATM   37  H33 UNL     1      18.816  -3.436   6.176  1.00  0.00     0.210 HD
ENDBRANCH  21  36
BRANCH   9  38
HETATM   38  C9  UNL     1      12.298  -5.959   5.474  1.00  0.00     0.245 C 
HETATM   39  O4  UNL     1      12.112  -5.772   6.676  1.00  0.00    -0.306 OA
ENDBRANCH   9  38
BRANCH   5  40
HETATM   40  O2  UNL     1       9.978 -10.508   3.856  1.00  0.00    -0.360 OA
HETATM   41  H9  UNL     1       9.733  -9.691   3.388  1.00  0.00     0.213 HD
ENDBRANCH   5  40
BRANCH   4  42
HETATM   42  O1  UNL     1      10.349 -10.968   1.026  1.00  0.00    -0.390 OA
HETATM   43  H8  UNL     1       9.521 -10.657   1.440  1.00  0.00     0.210 HD
ENDBRANCH   4  42
TORSDOF 6
ENDMDL
MODEL 3
REMARK minimizedAffinity -8.30863571
REMARK CNNscore 0.67372036
REMARK CNNaffinity 6.43646288
REMARK  6 active torsions:
REMARK  status: ('A' for Active; 'I' for Inactive)
REMARK    1  A    between atoms: C4_4  and  O1_5 
REMARK    2  A    between atoms: C5_6  and  O2_7 
REMARK    3  A    between atoms: C8_11  and  C9_12 
REMARK    4  A    between atoms: C19_23  and  C20_24 
REMARK    5  A    between atoms: C25_31  and  O7_32 
REMARK    6  A    between atoms: C26_33  and  O8_34 
ROOT
HETATM    1  C1  UNL     1      -5.964  12.985  22.492  1.00  0.00     0.040 C 
HETATM    2  C2  UNL     1      -5.985  13.988  21.346  1.00  0.00     0.123 C 
HETATM    3  C3  UNL     1      -7.127  13.683  20.379  1.00  0.00     0.069 C 
HETATM    4  C4  UNL     1      -7.087  14.674  19.224  1.00  0.00     0.188 C 
HETATM    5  C5  UNL     1      -5.716  14.633  18.504  1.00  0.00     0.240 C 
HETATM    6  O3  UNL     1      -5.553  13.381  17.814  1.00  0.00    -0.341 OA
HETATM    7  C6  UNL     1      -4.223  13.243  17.281  1.00  0.00     0.156 C 
HETATM    8  C7  UNL     1      -4.116  11.856  16.640  1.00  0.00     0.056 C 
HETATM    9  C8  UNL     1      -2.714  11.530  16.069  1.00  0.00     0.043 C 
HETATM   10  C10 UNL     1      -1.590  11.981  17.009  1.00  0.00    -0.065 C 
HETATM   11  C11 UNL     1      -0.461  11.266  17.166  1.00  0.00    -0.022 C 
HETATM   12  C12 UNL     1      -0.167   9.970  16.475  1.00  0.00     0.035 C 
HETATM   13  C13 UNL     1      -1.154   9.610  15.339  1.00  0.00     0.032 C 
HETATM   14  C14 UNL     1      -2.591   9.971  15.798  1.00  0.00     0.013 C 
HETATM   15  C15 UNL     1      -3.679   9.419  14.865  1.00  0.00     0.007 C 
HETATM   16  C16 UNL     1      -3.476   7.944  14.561  1.00  0.00     0.013 C 
HETATM   17  C17 UNL     1      -2.107   7.629  13.897  1.00  0.00    -0.003 C 
HETATM   18  C18 UNL     1      -2.092   8.237  12.481  1.00  0.00     0.019 C 
HETATM   19  C19 UNL     1      -1.932   6.054  13.924  1.00  0.00     0.030 C 
HETATM   20  C24 UNL     1      -0.794   5.770  14.914  1.00  0.00     0.044 C 
HETATM   21  C25 UNL     1      -0.725   7.018  15.796  1.00  0.00     0.154 C 
HETATM   22  C26 UNL     1      -0.935   8.168  14.783  1.00  0.00     0.096 C 
HETATM   23  C27 UNL     1      -1.772  13.283  17.763  1.00  0.00     0.069 C 
HETATM   24  C28 UNL     1      -3.164  13.405  18.377  1.00  0.00     0.158 C 
HETATM   25  O9  UNL     1      -3.287  14.682  19.014  1.00  0.00    -0.347 OA
HETATM   26  C29 UNL     1      -4.597  14.829  19.588  1.00  0.00     0.325 C 
HETATM   27  O10 UNL     1      -4.727  13.910  20.682  1.00  0.00    -0.351 OA
ENDROOT
BRANCH  19  28
HETATM   28  C20 UNL     1      -1.815   5.317  12.619  1.00  0.00    -0.045 A 
HETATM   29  C21 UNL     1      -2.803   4.649  12.025  1.00  0.00     0.087 A 
HETATM   30  C22 UNL     1      -2.259   4.035  10.818  1.00  0.00     0.283 A 
HETATM   31  O5  UNL     1      -2.884   3.282  10.089  1.00  0.00    -0.260 OA
HETATM   32  O6  UNL     1      -0.954   4.396  10.688  1.00  0.00    -0.314 OA
HETATM   33  C23 UNL     1      -0.582   5.221  11.798  1.00  0.00     0.213 A 
ENDBRANCH  19  28
BRANCH  22  34
HETATM   34  O8  UNL     1       0.263   8.221  13.974  1.00  0.00    -0.386 OA
HETATM   35  H34 UNL     1       1.004   8.368  14.592  1.00  0.00     0.210 HD
ENDBRANCH  22  34
BRANCH  21  36
HETATM   36  O7  UNL     1       0.530   7.092  16.457  1.00  0.00    -0.392 OA
HETATM   37  H33 UNL     1       1.165   6.509  16.004  1.00  0.00     0.210 HD
ENDBRANCH  21  36
BRANCH   9  38
HETATM   38  C9  UNL     1      -2.554  12.337  14.759  1.00  0.00     0.245 C 
HETATM   39  O4  UNL     1      -1.567  12.296  14.024  1.00  0.00    -0.306 OA
ENDBRANCH   9  38
BRANCH   5  40
HETATM   40  O2  UNL     1      -5.715  15.668  17.518  1.00  0.00    -0.360 OA
HETATM   41  H9  UNL     1      -6.098  15.233  16.736  1.00  0.00     0.213 HD
ENDBRANCH   5  40
BRANCH   4  42
HETATM   42  O1  UNL     1      -8.179  14.396  18.336  1.00  0.00    -0.390 OA
HETATM   43  H8  UNL     1      -8.094  15.036  17.602  1.00  0.00     0.210 HD
ENDBRANCH   4  42
TORSDOF 6
ENDMDL
MODEL 4
REMARK minimizedAffinity -9.14667988
REMARK CNNscore 0.617640018
REMARK CNNaffinity 6.26483679
REMARK  6 active torsions:
REMARK  status: ('A' for Active; 'I' for Inactive)
REMARK    1  A    between atoms: C4_4  and  O1_5 
REMARK    2  A    between atoms: C5_6  and  O2_7 
REMARK    3  A    between atoms: C8_11  and  C9_12 
REMARK    4  A    between atoms: C19_23  and  C20_24 
REMARK    5  A    between atoms: C25_31  and  O7_32 
REMARK    6  A    between atoms: C26_33  and  O8_34 
ROOT
HETATM    1  C1  UNL     1      -6.340  16.109  15.488  1.00  0.00     0.040 C 
HETATM    2  C2  UNL     1      -4.854  16.434  15.410  1.00  0.00     0.123 C 
HETATM    3  C3  UNL     1      -4.373  16.430  13.961  1.00  0.00     0.069 C 
HETATM    4  C4  UNL     1      -2.878  16.712  13.925  1.00  0.00     0.188 C 
HETATM    5  C5  UNL     1      -2.098  15.680  14.779  1.00  0.00     0.240 C 
HETATM    6  O3  UNL     1      -2.160  14.379  14.166  1.00  0.00    -0.341 OA
HETATM    7  C6  UNL     1      -1.593  13.368  15.021  1.00  0.00     0.156 C 
HETATM    8  C7  UNL     1      -1.775  12.014  14.330  1.00  0.00     0.056 C 
HETATM    9  C8  UNL     1      -1.266  10.808  15.157  1.00  0.00     0.043 C 
HETATM   10  C10 UNL     1      -1.650  10.922  16.637  1.00  0.00    -0.065 C 
HETATM   11  C11 UNL     1      -1.995   9.847  17.369  1.00  0.00    -0.022 C 
HETATM   12  C12 UNL     1      -2.061   8.444  16.850  1.00  0.00     0.035 C 
HETATM   13  C13 UNL     1      -1.445   8.252  15.443  1.00  0.00     0.032 C 
HETATM   14  C14 UNL     1      -1.847   9.458  14.556  1.00  0.00     0.013 C 
HETATM   15  C15 UNL     1      -1.517   9.252  13.071  1.00  0.00     0.007 C 
HETATM   16  C16 UNL     1      -2.014   7.910  12.557  1.00  0.00     0.013 C 
HETATM   17  C17 UNL     1      -1.427   6.695  13.325  1.00  0.00    -0.003 C 
HETATM   18  C18 UNL     1       0.081   6.599  13.021  1.00  0.00     0.019 C 
HETATM   19  C19 UNL     1      -2.256   5.421  12.877  1.00  0.00     0.030 C 
HETATM   20  C24 UNL     1      -3.069   4.990  14.106  1.00  0.00     0.044 C 
HETATM   21  C25 UNL     1      -3.136   6.240  14.986  1.00  0.00     0.154 C 
HETATM   22  C26 UNL     1      -1.711   6.829  14.858  1.00  0.00     0.096 C 
HETATM   23  C27 UNL     1      -1.619  12.296  17.277  1.00  0.00     0.069 C 
HETATM   24  C28 UNL     1      -2.270  13.358  16.396  1.00  0.00     0.158 C 
HETATM   25  O9  UNL     1      -2.145  14.637  17.030  1.00  0.00    -0.347 OA
HETATM   26  C29 UNL     1      -2.737  15.660  16.212  1.00  0.00     0.325 C 
HETATM   27  O10 UNL     1      -4.157  15.456  16.176  1.00  0.00    -0.351 OA
ENDROOT
BRANCH  19  28
HETATM   28  C20 UNL     1      -1.539   4.296  12.186  1.00  0.00    -0.045 A 
HETATM   29  C21 UNL     1      -2.121   3.206  11.688  1.00  0.00     0.087 A 
HETATM   30  C22 UNL     1      -1.070   2.345  11.158  1.00  0.00     0.283 A 
HETATM   31  O5  UNL     1      -1.261   1.227  10.706  1.00  0.00    -0.260 OA
HETATM   32  O6  UNL     1       0.130   2.968  11.307  1.00  0.00    -0.314 OA
HETATM   33  C23 UNL     1      -0.073   4.229  11.956  1.00  0.00     0.213 A 
ENDBRANCH  19  28
BRANCH  22  34
HETATM   34  O8  UNL     1      -0.833   5.925  15.568  1.00  0.00    -0.386 OA
HETATM   35  H34 UNL     1      -1.164   5.886  16.485  1.00  0.00     0.210 HD
ENDBRANCH  22  34
BRANCH  21  36
HETATM   36  O7  UNL     1      -3.467   5.892  16.323  1.00  0.00    -0.392 OA
HETATM   37  H33 UNL     1      -3.304   4.941  16.455  1.00  0.00     0.210 HD
ENDBRANCH  21  36
BRANCH   9  38
HETATM   38  C9  UNL     1       0.278  10.827  15.092  1.00  0.00     0.245 C 
HETATM   39  O4  UNL     1       0.995   9.826  15.111  1.00  0.00    -0.306 OA
ENDBRANCH   9  38
BRANCH   5  40
HETATM   40  O2  UNL     1      -0.725  16.081  14.793  1.00  0.00    -0.360 OA
HETATM   41  H9  UNL     1      -0.358  15.650  14.001  1.00  0.00     0.213 HD
ENDBRANCH   5  40
BRANCH   4  42
HETATM   42  O1  UNL     1      -2.441  16.732  12.559  1.00  0.00    -0.390 OA
HETATM   43  H8  UNL     1      -1.476  16.887  12.590  1.00  0.00     0.210 HD
ENDBRANCH   4  42
TORSDOF 6
ENDMDL
MODEL 5
REMARK minimizedAffinity -8.53329277
REMARK CNNscore 0.560566306
REMARK CNNaffinity 6.46903038
REMARK  6 active torsions:
REMARK  status: ('A' for Active; 'I' for Inactive)
REMARK    1  A    between atoms: C4_4  and  O1_5 
REMARK    2  A    between atoms: C5_6  and  O2_7 
REMARK    3  A    between atoms: C8_11  and  C9_12 
REMARK    4  A    between atoms: C19_23  and  C20_24 
REMARK    5  A    between atoms: C25_31  and  O7_32 
REMARK    6  A    between atoms: C26_33  and  O8_34 
ROOT
HETATM    1  C1  UNL     1      -3.939  17.693  14.561  1.00  0.00     0.040 C 
HETATM    2  C2  UNL     1      -2.470  17.340  14.762  1.00  0.00     0.123 C 
HETATM    3  C3  UNL     1      -1.817  16.961  13.434  1.00  0.00     0.069 C 
HETATM    4  C4  UNL     1      -0.367  16.570  13.680  1.00  0.00     0.188 C 
HETATM    5  C5  UNL     1      -0.270  15.412  14.706  1.00  0.00     0.240 C 
HETATM    6  O3  UNL     1      -0.802  14.201  14.139  1.00  0.00    -0.341 OA
HETATM    7  C6  UNL     1      -0.884  13.153  15.123  1.00  0.00     0.156 C 
HETATM    8  C7  UNL     1      -1.533  11.935  14.458  1.00  0.00     0.056 C 
HETATM    9  C8  UNL     1      -1.748  10.734  15.411  1.00  0.00     0.043 C 
HETATM   10  C10 UNL     1      -2.272  11.173  16.783  1.00  0.00    -0.065 C 
HETATM   11  C11 UNL     1      -3.168  10.443  17.472  1.00  0.00    -0.022 C 
HETATM   12  C12 UNL     1      -3.763   9.153  17.000  1.00  0.00     0.035 C 
HETATM   13  C13 UNL     1      -3.080   8.552  15.747  1.00  0.00     0.032 C 
HETATM   14  C14 UNL     1      -2.761   9.701  14.757  1.00  0.00     0.013 C 
HETATM   15  C15 UNL     1      -2.325   9.202  13.372  1.00  0.00     0.007 C 
HETATM   16  C16 UNL     1      -3.274   8.151  12.819  1.00  0.00     0.013 C 
HETATM   17  C17 UNL     1      -3.415   6.900  13.730  1.00  0.00    -0.003 C 
HETATM   18  C18 UNL     1      -2.077   6.134  13.728  1.00  0.00     0.019 C 
HETATM   19  C19 UNL     1      -4.638   6.060  13.175  1.00  0.00     0.030 C 
HETATM   20  C24 UNL     1      -5.742   6.166  14.237  1.00  0.00     0.044 C 
HETATM   21  C25 UNL     1      -5.389   7.418  15.042  1.00  0.00     0.154 C 
HETATM   22  C26 UNL     1      -3.851   7.322  15.172  1.00  0.00     0.096 C 
HETATM   23  C27 UNL     1      -1.739  12.466  17.367  1.00  0.00     0.069 C 
HETATM   24  C28 UNL     1      -1.705  13.594  16.340  1.00  0.00     0.158 C 
HETATM   25  O9  UNL     1      -1.131  14.761  16.940  1.00  0.00    -0.347 OA
HETATM   26  C29 UNL     1      -1.071  15.835  15.987  1.00  0.00     0.325 C 
HETATM   27  O10 UNL     1      -2.410  16.255  15.683  1.00  0.00    -0.351 OA
ENDROOT
BRANCH  19  28
HETATM   28  C20 UNL     1      -4.392   4.664  12.677  1.00  0.00    -0.045 A 
HETATM   29  C21 UNL     1      -5.319   3.860  12.158  1.00  0.00     0.087 A 
HETATM   30  C22 UNL     1      -4.680   2.583  11.857  1.00  0.00     0.283 A 
HETATM   31  O5  UNL     1      -5.274   1.598  11.448  1.00  0.00    -0.260 OA
HETATM   32  O6  UNL     1      -3.357   2.669  12.158  1.00  0.00    -0.314 OA
HETATM   33  C23 UNL     1      -3.079   3.970  12.689  1.00  0.00     0.213 A 
ENDBRANCH  19  28
BRANCH  22  34
HETATM   34  O8  UNL     1      -3.587   6.219  16.071  1.00  0.00    -0.386 OA
HETATM   35  H34 UNL     1      -4.043   6.433  16.907  1.00  0.00     0.210 HD
ENDBRANCH  22  34
BRANCH  21  36
HETATM   36  O7  UNL     1      -6.048   7.404  16.301  1.00  0.00    -0.392 OA
HETATM   37  H33 UNL     1      -6.345   6.497  16.495  1.00  0.00     0.210 HD
ENDBRANCH  21  36
BRANCH   9  38
HETATM   38  C9  UNL     1      -0.365  10.083  15.647  1.00  0.00     0.245 C 
HETATM   39  O4  UNL     1      -0.041   9.470  16.664  1.00  0.00    -0.306 OA
ENDBRANCH   9  38
BRANCH   5  40
HETATM   40  O2  UNL     1       1.117  15.187  14.972  1.00  0.00    -0.360 OA
HETATM   41  H9  UNL     1       1.377  14.551  14.283  1.00  0.00     0.213 HD
ENDBRANCH   5  40
BRANCH   4  42
HETATM   42  O1  UNL     1       0.245  16.242  12.425  1.00  0.00    -0.390 OA
HETATM   43  H8  UNL     1       1.160  15.972  12.638  1.00  0.00     0.210 HD
ENDBRANCH   4  42
TORSDOF 6
ENDMDL
MODEL 6
REMARK minimizedAffinity -6.84142065
REMARK CNNscore 0.499993026
REMARK CNNaffinity 5.60103083
REMARK  6 active torsions:
REMARK  status: ('A' for Active; 'I' for Inactive)
REMARK    1  A    between atoms: C4_4  and  O1_5 
REMARK    2  A    between atoms: C5_6  and  O2_7 
REMARK    3  A    between atoms: C8_11  and  C9_12 
REMARK    4  A    between atoms: C19_23  and  C20_24 
REMARK    5  A    between atoms: C25_31  and  O7_32 
REMARK    6  A    between atoms: C26_33  and  O8_34 
ROOT
HETATM    1  C1  UNL     1     -10.718  13.624   3.161  1.00  0.00     0.040 C 
HETATM    2  C2  UNL     1     -10.584  15.008   2.539  1.00  0.00     0.123 C 
HETATM    3  C3  UNL     1     -10.172  14.905   1.072  1.00  0.00     0.069 C 
HETATM    4  C4  UNL     1     -10.002  16.304   0.497  1.00  0.00     0.188 C 
HETATM    5  C5  UNL     1      -8.968  17.118   1.315  1.00  0.00     0.240 C 
HETATM    6  O3  UNL     1      -7.649  16.570   1.134  1.00  0.00    -0.341 OA
HETATM    7  C6  UNL     1      -6.695  17.195   2.014  1.00  0.00     0.156 C 
HETATM    8  C7  UNL     1      -5.346  16.499   1.813  1.00  0.00     0.056 C 
HETATM    9  C8  UNL     1      -4.221  17.022   2.739  1.00  0.00     0.043 C 
HETATM   10  C10 UNL     1      -4.712  17.246   4.173  1.00  0.00    -0.065 C 
HETATM   11  C11 UNL     1      -3.938  16.987   5.242  1.00  0.00    -0.022 C 
HETATM   12  C12 UNL     1      -2.541  16.450   5.175  1.00  0.00     0.035 C 
HETATM   13  C13 UNL     1      -1.922  16.447   3.757  1.00  0.00     0.032 C 
HETATM   14  C14 UNL     1      -3.007  15.999   2.743  1.00  0.00     0.013 C 
HETATM   15  C15 UNL     1      -2.442  15.705   1.346  1.00  0.00     0.007 C 
HETATM   16  C16 UNL     1      -1.229  14.791   1.401  1.00  0.00     0.013 C 
HETATM   17  C17 UNL     1      -0.060  15.362   2.251  1.00  0.00    -0.003 C 
HETATM   18  C18 UNL     1       0.519  16.596   1.532  1.00  0.00     0.019 C 
HETATM   19  C19 UNL     1       0.982  14.185   2.452  1.00  0.00     0.030 C 
HETATM   20  C24 UNL     1       0.926  13.817   3.941  1.00  0.00     0.044 C 
HETATM   21  C25 UNL     1      -0.432  14.336   4.419  1.00  0.00     0.154 C 
HETATM   22  C26 UNL     1      -0.553  15.700   3.698  1.00  0.00     0.096 C 
HETATM   23  C27 UNL     1      -6.113  17.791   4.368  1.00  0.00     0.069 C 
HETATM   24  C28 UNL     1      -7.135  17.090   3.478  1.00  0.00     0.158 C 
HETATM   25  O9  UNL     1      -8.419  17.698   3.665  1.00  0.00    -0.347 OA
HETATM   26  C29 UNL     1      -9.398  17.066   2.823  1.00  0.00     0.325 C 
HETATM   27  O10 UNL     1      -9.607  15.724   3.288  1.00  0.00    -0.351 OA
ENDROOT
BRANCH  19  28
HETATM   28  C20 UNL     1       2.373  14.351   1.909  1.00  0.00    -0.045 A 
HETATM   29  C21 UNL     1       2.689  14.420   0.616  1.00  0.00     0.087 A 
HETATM   30  C22 UNL     1       4.141  14.521   0.518  1.00  0.00     0.283 A 
HETATM   31  O5  UNL     1       4.761  14.517  -0.533  1.00  0.00    -0.260 OA
HETATM   32  O6  UNL     1       4.666  14.561   1.772  1.00  0.00    -0.314 OA
HETATM   33  C23 UNL     1       3.606  14.459   2.730  1.00  0.00     0.213 A 
ENDBRANCH  19  28
BRANCH  22  34
HETATM   34  O8  UNL     1       0.417  16.575   4.319  1.00  0.00    -0.386 OA
HETATM   35  H34 UNL     1       0.188  16.608   5.267  1.00  0.00     0.210 HD
ENDBRANCH  22  34
BRANCH  21  36
HETATM   36  O7  UNL     1      -0.448  14.462   5.834  1.00  0.00    -0.392 OA
HETATM   37  H33 UNL     1       0.469  14.465   6.164  1.00  0.00     0.210 HD
ENDBRANCH  21  36
BRANCH   9  38
HETATM   38  C9  UNL     1      -3.784  18.401   2.194  1.00  0.00     0.245 C 
HETATM   39  O4  UNL     1      -3.630  18.670   1.002  1.00  0.00    -0.306 OA
ENDBRANCH   9  38
BRANCH   5  40
HETATM   40  O2  UNL     1      -8.954  18.448   0.791  1.00  0.00    -0.360 OA
HETATM   41  H9  UNL     1      -8.296  18.400   0.075  1.00  0.00     0.213 HD
ENDBRANCH   5  40
BRANCH   4  42
HETATM   42  O1  UNL     1      -9.642  16.197  -0.887  1.00  0.00    -0.390 OA
HETATM   43  H8  UNL     1      -9.517  17.114  -1.201  1.00  0.00     0.210 HD
ENDBRANCH   4  42
TORSDOF 6
ENDMDL
MODEL 7
REMARK minimizedAffinity -7.1203804
REMARK CNNscore 0.413412988
REMARK CNNaffinity 4.95441389
REMARK  6 active torsions:
REMARK  status: ('A' for Active; 'I' for Inactive)
REMARK    1  A    between atoms: C4_4  and  O1_5 
REMARK    2  A    between atoms: C5_6  and  O2_7 
REMARK    3  A    between atoms: C8_11  and  C9_12 
REMARK    4  A    between atoms: C19_23  and  C20_24 
REMARK    5  A    between atoms: C25_31  and  O7_32 
REMARK    6  A    between atoms: C26_33  and  O8_34 
ROOT
HETATM    1  C1  UNL     1     -14.926  -9.804  16.908  1.00  0.00     0.040 C 
HETATM    2  C2  UNL     1     -13.672  -9.376  16.156  1.00  0.00     0.123 C 
HETATM    3  C3  UNL     1     -12.906  -8.313  16.941  1.00  0.00     0.069 C 
HETATM    4  C4  UNL     1     -11.687  -7.877  16.140  1.00  0.00     0.188 C 
HETATM    5  C5  UNL     1     -12.101  -7.353  14.741  1.00  0.00     0.240 C 
HETATM    6  O3  UNL     1     -12.821  -6.113  14.868  1.00  0.00    -0.341 OA
HETATM    7  C6  UNL     1     -13.367  -5.691  13.603  1.00  0.00     0.156 C 
HETATM    8  C7  UNL     1     -14.181  -4.417  13.847  1.00  0.00     0.056 C 
HETATM    9  C8  UNL     1     -14.887  -3.867  12.582  1.00  0.00     0.043 C 
HETATM   10  C10 UNL     1     -15.524  -4.984  11.747  1.00  0.00    -0.065 C 
HETATM   11  C11 UNL     1     -16.696  -4.817  11.109  1.00  0.00    -0.022 C 
HETATM   12  C12 UNL     1     -17.515  -3.564  11.140  1.00  0.00     0.035 C 
HETATM   13  C13 UNL     1     -16.795  -2.341  11.758  1.00  0.00     0.032 C 
HETATM   14  C14 UNL     1     -15.997  -2.813  13.001  1.00  0.00     0.013 C 
HETATM   15  C15 UNL     1     -15.457  -1.651  13.847  1.00  0.00     0.007 C 
HETATM   16  C16 UNL     1     -16.531  -0.619  14.153  1.00  0.00     0.013 C 
HETATM   17  C17 UNL     1     -17.172   0.005  12.883  1.00  0.00    -0.003 C 
HETATM   18  C18 UNL     1     -16.114   0.868  12.168  1.00  0.00     0.019 C 
HETATM   19  C19 UNL     1     -18.448   0.814  13.360  1.00  0.00     0.030 C 
HETATM   20  C24 UNL     1     -19.663   0.048  12.817  1.00  0.00     0.044 C 
HETATM   21  C25 UNL     1     -19.146  -1.368  12.556  1.00  0.00     0.154 C 
HETATM   22  C26 UNL     1     -17.744  -1.117  11.953  1.00  0.00     0.096 C 
HETATM   23  C27 UNL     1     -14.784  -6.302  11.640  1.00  0.00     0.069 C 
HETATM   24  C28 UNL     1     -14.254  -6.779  12.989  1.00  0.00     0.158 C 
HETATM   25  O9  UNL     1     -13.512  -7.991  12.802  1.00  0.00    -0.347 OA
HETATM   26  C29 UNL     1     -12.987  -8.453  14.058  1.00  0.00     0.325 C 
HETATM   27  O10 UNL     1     -14.081  -8.870  14.888  1.00  0.00    -0.351 OA
ENDROOT
BRANCH  19  28
HETATM   28  C20 UNL     1     -18.495   2.296  13.121  1.00  0.00    -0.045 A 
HETATM   29  C21 UNL     1     -17.534   3.010  12.536  1.00  0.00     0.087 A 
HETATM   30  C22 UNL     1     -17.948   4.410  12.554  1.00  0.00     0.283 A 
HETATM   31  O5  UNL     1     -17.253   5.336  12.170  1.00  0.00    -0.260 OA
HETATM   32  O6  UNL     1     -19.186   4.497  13.111  1.00  0.00    -0.314 OA
HETATM   33  C23 UNL     1     -19.618   3.190  13.504  1.00  0.00     0.213 A 
ENDBRANCH  19  28
BRANCH  22  34
HETATM   34  O8  UNL     1     -17.961  -0.556  10.638  1.00  0.00    -0.386 OA
HETATM   35  H34 UNL     1     -18.492  -1.210  10.146  1.00  0.00     0.210 HD
ENDBRANCH  22  34
BRANCH  21  36
HETATM   36  O7  UNL     1     -20.011  -2.058  11.665  1.00  0.00    -0.392 OA
HETATM   37  H33 UNL     1     -20.572  -1.412  11.200  1.00  0.00     0.210 HD
ENDBRANCH  21  36
BRANCH   9  38
HETATM   38  C9  UNL     1     -13.800  -3.211  11.700  1.00  0.00     0.245 C 
HETATM   39  O4  UNL     1     -13.811  -2.037  11.328  1.00  0.00    -0.306 OA
ENDBRANCH   9  38
BRANCH   5  40
HETATM   40  O2  UNL     1     -10.902  -7.078  14.012  1.00  0.00    -0.360 OA
HETATM   41  H9  UNL     1     -10.696  -6.159  14.256  1.00  0.00     0.213 HD
ENDBRANCH   5  40
BRANCH   4  42
HETATM   42  O1  UNL     1     -10.960  -6.899  16.896  1.00  0.00    -0.390 OA
HETATM   43  H8  UNL     1     -10.208  -6.631  16.332  1.00  0.00     0.210 HD
ENDBRANCH   4  42
TORSDOF 6
ENDMDL
MODEL 8
REMARK minimizedAffinity -9.80314159
REMARK CNNscore 0.409576356
REMARK CNNaffinity 6.26377106
REMARK  6 active torsions:
REMARK  status: ('A' for Active; 'I' for Inactive)
REMARK    1  A    between atoms: C4_4  and  O1_5 
REMARK    2  A    between atoms: C5_6  and  O2_7 
REMARK    3  A    between atoms: C8_11  and  C9_12 
REMARK    4  A    between atoms: C19_23  and  C20_24 
REMARK    5  A    between atoms: C25_31  and  O7_32 
REMARK    6  A    between atoms: C26_33  and  O8_34 
ROOT
HETATM    1  C1  UNL     1       2.735  15.359  13.288  1.00  0.00     0.040 C 
HETATM    2  C2  UNL     1       3.699  14.242  13.666  1.00  0.00     0.123 C 
HETATM    3  C3  UNL     1       3.989  13.346  12.464  1.00  0.00     0.069 C 
HETATM    4  C4  UNL     1       4.916  12.217  12.890  1.00  0.00     0.188 C 
HETATM    5  C5  UNL     1       4.303  11.406  14.060  1.00  0.00     0.240 C 
HETATM    6  O3  UNL     1       3.149  10.676  13.608  1.00  0.00    -0.341 OA
HETATM    7  C6  UNL     1       2.458  10.052  14.707  1.00  0.00     0.156 C 
HETATM    8  C7  UNL     1       1.206   9.370  14.147  1.00  0.00     0.056 C 
HETATM    9  C8  UNL     1       0.317   8.699  15.223  1.00  0.00     0.043 C 
HETATM   10  C10 UNL     1       0.166   9.573  16.473  1.00  0.00    -0.065 C 
HETATM   11  C11 UNL     1      -0.985   9.636  17.165  1.00  0.00    -0.022 C 
HETATM   12  C12 UNL     1      -2.237   8.895  16.810  1.00  0.00     0.035 C 
HETATM   13  C13 UNL     1      -2.056   7.819  15.713  1.00  0.00     0.032 C 
HETATM   14  C14 UNL     1      -1.115   8.381  14.617  1.00  0.00     0.013 C 
HETATM   15  C15 UNL     1      -1.071   7.509  13.353  1.00  0.00     0.007 C 
HETATM   16  C16 UNL     1      -2.463   7.155  12.856  1.00  0.00     0.013 C 
HETATM   17  C17 UNL     1      -3.322   6.394  13.902  1.00  0.00    -0.003 C 
HETATM   18  C18 UNL     1      -2.712   4.996  14.122  1.00  0.00     0.019 C 
HETATM   19  C19 UNL     1      -4.807   6.368  13.351  1.00  0.00     0.030 C 
HETATM   20  C24 UNL     1      -5.623   7.273  14.285  1.00  0.00     0.044 C 
HETATM   21  C25 UNL     1      -4.586   8.180  14.951  1.00  0.00     0.154 C 
HETATM   22  C26 UNL     1      -3.413   7.213  15.233  1.00  0.00     0.096 C 
HETATM   23  C27 UNL     1       1.371  10.371  16.933  1.00  0.00     0.069 C 
HETATM   24  C28 UNL     1       2.071  11.079  15.776  1.00  0.00     0.158 C 
HETATM   25  O9  UNL     1       3.233  11.755  16.272  1.00  0.00    -0.347 OA
HETATM   26  C29 UNL     1       3.921  12.418  15.197  1.00  0.00     0.325 C 
HETATM   27  O10 UNL     1       3.100  13.494  14.721  1.00  0.00    -0.351 OA
ENDROOT
BRANCH  19  28
HETATM   28  C20 UNL     1      -5.449   5.041  13.061  1.00  0.00    -0.045 A 
HETATM   29  C21 UNL     1      -6.618   4.631  13.552  1.00  0.00     0.087 A 
HETATM   30  C22 UNL     1      -6.847   3.271  13.074  1.00  0.00     0.283 A 
HETATM   31  O5  UNL     1      -7.790   2.575  13.412  1.00  0.00    -0.260 OA
HETATM   32  O6  UNL     1      -5.822   2.912  12.255  1.00  0.00    -0.314 OA
HETATM   33  C23 UNL     1      -4.878   3.987  12.186  1.00  0.00     0.213 A 
ENDBRANCH  19  28
BRANCH  22  34
HETATM   34  O8  UNL     1      -3.860   6.328  16.286  1.00  0.00    -0.386 OA
HETATM   35  H34 UNL     1      -4.092   6.898  17.043  1.00  0.00     0.210 HD
ENDBRANCH  22  34
BRANCH  21  36
HETATM   36  O7  UNL     1      -5.117   8.758  16.135  1.00  0.00    -0.392 OA
HETATM   37  H33 UNL     1      -5.898   8.249  16.417  1.00  0.00     0.210 HD
ENDBRANCH  21  36
BRANCH   9  38
HETATM   38  C9  UNL     1       1.034   7.403  15.666  1.00  0.00     0.245 C 
HETATM   39  O4  UNL     1       1.855   7.331  16.581  1.00  0.00    -0.306 OA
ENDBRANCH   9  38
BRANCH   5  40
HETATM   40  O2  UNL     1       5.279  10.448  14.479  1.00  0.00    -0.360 OA
HETATM   41  H9  UNL     1       5.103   9.683  13.904  1.00  0.00     0.213 HD
ENDBRANCH   5  40
BRANCH   4  42
HETATM   42  O1  UNL     1       5.204  11.396  11.749  1.00  0.00    -0.390 OA
HETATM   43  H8  UNL     1       5.775  10.674  12.077  1.00  0.00     0.210 HD
ENDBRANCH   4  42
TORSDOF 6
ENDMDL
MODEL 9
REMARK minimizedAffinity -8.58669758
REMARK CNNscore 0.396862656
REMARK CNNaffinity 6.31954384
REMARK  6 active torsions:
REMARK  status: ('A' for Active; 'I' for Inactive)
REMARK    1  A    between atoms: C4_4  and  O1_5 
REMARK    2  A    between atoms: C5_6  and  O2_7 
REMARK    3  A    between atoms: C8_11  and  C9_12 
REMARK    4  A    between atoms: C19_23  and  C20_24 
REMARK    5  A    between atoms: C25_31  and  O7_32 
REMARK    6  A    between atoms: C26_33  and  O8_34 
ROOT
HETATM    1  C1  UNL     1      -7.147  -1.098  -6.368  1.00  0.00     0.040 C 
HETATM    2  C2  UNL     1      -8.619  -1.486  -6.306  1.00  0.00     0.123 C 
HETATM    3  C3  UNL     1      -9.197  -1.201  -4.922  1.00  0.00     0.069 C 
HETATM    4  C4  UNL     1     -10.652  -1.643  -4.884  1.00  0.00     0.188 C 
HETATM    5  C5  UNL     1     -10.787  -3.142  -5.251  1.00  0.00     0.240 C 
HETATM    6  O3  UNL     1     -10.211  -3.961  -4.217  1.00  0.00    -0.341 OA
HETATM    7  C6  UNL     1     -10.165  -5.346  -4.607  1.00  0.00     0.156 C 
HETATM    8  C7  UNL     1      -9.466  -6.126  -3.489  1.00  0.00     0.056 C 
HETATM    9  C8  UNL     1      -9.285  -7.634  -3.789  1.00  0.00     0.043 C 
HETATM   10  C10 UNL     1      -8.838  -7.885  -5.233  1.00  0.00    -0.065 C 
HETATM   11  C11 UNL     1      -7.970  -8.862  -5.552  1.00  0.00    -0.022 C 
HETATM   12  C12 UNL     1      -7.334  -9.795  -4.569  1.00  0.00     0.035 C 
HETATM   13  C13 UNL     1      -7.943  -9.740  -3.147  1.00  0.00     0.032 C 
HETATM   14  C14 UNL     1      -8.226  -8.259  -2.785  1.00  0.00     0.013 C 
HETATM   15  C15 UNL     1      -8.583  -8.057  -1.305  1.00  0.00     0.007 C 
HETATM   16  C16 UNL     1      -7.592  -8.744  -0.380  1.00  0.00     0.013 C 
HETATM   17  C17 UNL     1      -7.482 -10.275  -0.614  1.00  0.00    -0.003 C 
HETATM   18  C18 UNL     1      -8.807 -10.938  -0.189  1.00  0.00     0.019 C 
HETATM   19  C19 UNL     1      -6.220 -10.778   0.201  1.00  0.00     0.030 C 
HETATM   20  C24 UNL     1      -5.175 -11.189  -0.845  1.00  0.00     0.044 C 
HETATM   21  C25 UNL     1      -5.585 -10.447  -2.118  1.00  0.00     0.154 C 
HETATM   22  C26 UNL     1      -7.127 -10.574  -2.109  1.00  0.00     0.096 C 
HETATM   23  C27 UNL     1      -9.418  -7.003  -6.321  1.00  0.00     0.069 C 
HETATM   24  C28 UNL     1      -9.415  -5.527  -5.931  1.00  0.00     0.158 C 
HETATM   25  O9  UNL     1     -10.035  -4.764  -6.973  1.00  0.00    -0.347 OA
HETATM   26  C29 UNL     1     -10.059  -3.369  -6.622  1.00  0.00     0.325 C 
HETATM   27  O10 UNL     1      -8.712  -2.873  -6.617  1.00  0.00    -0.351 OA
ENDROOT
BRANCH  19  28
HETATM   28  C20 UNL     1      -6.422 -11.782   1.301  1.00  0.00    -0.045 A 
HETATM   29  C21 UNL     1      -6.629 -11.484   2.583  1.00  0.00     0.087 A 
HETATM   30  C22 UNL     1      -6.716 -12.740   3.321  1.00  0.00     0.283 A 
HETATM   31  O5  UNL     1      -6.818 -12.817   4.535  1.00  0.00    -0.260 OA
HETATM   32  O6  UNL     1      -6.609 -13.776   2.446  1.00  0.00    -0.314 OA
HETATM   33  C23 UNL     1      -6.419 -13.257   1.125  1.00  0.00     0.213 A 
ENDBRANCH  19  28
BRANCH  22  34
HETATM   34  O8  UNL     1      -7.422 -11.964  -2.381  1.00  0.00    -0.386 OA
HETATM   35  H34 UNL     1      -7.014 -12.167  -3.243  1.00  0.00     0.210 HD
ENDBRANCH  22  34
BRANCH  21  36
HETATM   36  O7  UNL     1      -4.993 -11.050  -3.260  1.00  0.00    -0.392 OA
HETATM   37  H33 UNL     1      -4.694 -11.947  -3.028  1.00  0.00     0.210 HD
ENDBRANCH  21  36
BRANCH   9  38
HETATM   38  C9  UNL     1     -10.669  -8.303  -3.624  1.00  0.00     0.245 C 
HETATM   39  O4  UNL     1     -11.633  -7.794  -3.051  1.00  0.00    -0.306 OA
ENDBRANCH   9  38
BRANCH   5  40
HETATM   40  O2  UNL     1     -12.183  -3.448  -5.310  1.00  0.00    -0.360 OA
HETATM   41  H9  UNL     1     -12.398  -3.690  -4.392  1.00  0.00     0.213 HD
ENDBRANCH   5  40
BRANCH   4  42
HETATM   42  O1  UNL     1     -11.194  -1.346  -3.589  1.00  0.00    -0.390 OA
HETATM   43  H8  UNL     1     -12.116  -1.673  -3.605  1.00  0.00     0.210 HD
ENDBRANCH   4  42
TORSDOF 6
ENDMDL
