MODEL 1
REMARK minimizedAffinity -6.04955816
REMARK  10 active torsions:
REMARK  status: ('A' for Active; 'I' for Inactive)
REMARK    1  A    between atoms: C2_2  and  C3_3 
REMARK    2  A    between atoms: C3_3  and  C4_4 
REMARK    3  A    between atoms: C4_4  and  C5_5 
REMARK    4  A    between atoms: C5_5  and  N1_6 
REMARK    5  A    between atoms: N1_6  and  C6_7 
REMARK    6  A    between atoms: C6_7  and  C7_8 
REMARK    7  A    between atoms: C7_8  and  O1_9 
REMARK    8  A    between atoms: O1_9  and  C8_10 
REMARK    9  A    between atoms: C8_10  and  C9_12 
REMARK   10  A    between atoms: C12_15  and  N2_16 
ROOT
HETATM    1  C8  UNL     1      -2.980   2.892  11.429  1.00  0.00     0.293 C 
HETATM    2  O2  UNL     1      -2.397   1.828  11.299  1.00  0.00    -0.259 OA
ENDROOT
BRANCH   1   3
HETATM    3  O1  UNL     1      -2.452   4.120  11.200  1.00  0.00    -0.316 OA
BRANCH   3   4
HETATM    4  C7  UNL     1      -1.153   4.352  11.775  1.00  0.00     0.209 C 
BRANCH   4   5
HETATM    5  C6  UNL     1      -0.473   5.566  11.122  1.00  0.00     0.296 C 
BRANCH   5   6
HETATM    6  N1  UNL     1       0.989   5.453  11.013  1.00  0.00     0.085 N 
HETATM    7  H12 UNL     1       1.395   5.564  11.944  1.00  0.00     0.315 HD
BRANCH   6   8
HETATM    8  C5  UNL     1       1.568   6.443  10.106  1.00  0.00     0.269 C 
BRANCH   8   9
HETATM    9  C4  UNL     1       0.590   7.596   9.855  1.00  0.00     0.030 C 
BRANCH   9  10
HETATM   10  C3  UNL     1       0.682   8.167   8.437  1.00  0.00     0.001 C 
BRANCH  10  11
HETATM   11  C2  UNL     1       2.015   7.808   7.781  1.00  0.00    -0.005 C 
HETATM   12  C1  UNL     1       1.810   7.188   6.407  1.00  0.00     0.005 C 
ENDBRANCH  10  11
ENDBRANCH   9  10
ENDBRANCH   8   9
ENDBRANCH   6   8
ENDBRANCH   5   6
ENDBRANCH   4   5
ENDBRANCH   3   4
ENDBRANCH   1   3
BRANCH   1  13
HETATM   13  C9  UNL     1      -4.394   3.007  11.880  1.00  0.00     0.039 A 
HETATM   14  C10 UNL     1      -5.301   2.024  11.469  1.00  0.00     0.019 A 
HETATM   15  C11 UNL     1      -6.640   2.087  11.871  1.00  0.00     0.024 A 
HETATM   16  C12 UNL     1      -7.102   3.151  12.649  1.00  0.00     0.005 A 
HETATM   17  C13 UNL     1      -6.181   4.098  13.103  1.00  0.00     0.024 A 
HETATM   18  C14 UNL     1      -4.840   4.044  12.708  1.00  0.00     0.019 A 
BRANCH  16  19
HETATM   19  N2  UNL     1      -8.409   3.146  13.145  1.00  0.00    -0.303 NA
HETATM   20  H19 UNL     1      -9.071   2.644  12.560  1.00  0.00     0.124 HD
HETATM   21  H20 UNL     1      -8.754   4.060  13.419  1.00  0.00     0.124 HD
ENDBRANCH  16  19
ENDBRANCH   1  13
TORSDOF 10
ENDMDL
MODEL 2
REMARK minimizedAffinity -5.87786436
REMARK  10 active torsions:
REMARK  status: ('A' for Active; 'I' for Inactive)
REMARK    1  A    between atoms: C2_2  and  C3_3 
REMARK    2  A    between atoms: C3_3  and  C4_4 
REMARK    3  A    between atoms: C4_4  and  C5_5 
REMARK    4  A    between atoms: C5_5  and  N1_6 
REMARK    5  A    between atoms: N1_6  and  C6_7 
REMARK    6  A    between atoms: C6_7  and  C7_8 
REMARK    7  A    between atoms: C7_8  and  O1_9 
REMARK    8  A    between atoms: O1_9  and  C8_10 
REMARK    9  A    between atoms: C8_10  and  C9_12 
REMARK   10  A    between atoms: C12_15  and  N2_16 
ROOT
HETATM    1  C8  UNL     1      -3.877   5.663  12.937  1.00  0.00     0.293 C 
HETATM    2  O2  UNL     1      -4.036   6.860  13.108  1.00  0.00    -0.259 OA
ENDROOT
BRANCH   1   3
HETATM    3  O1  UNL     1      -2.684   5.033  12.794  1.00  0.00    -0.316 OA
BRANCH   3   4
HETATM    4  C7  UNL     1      -1.524   5.881  12.870  1.00  0.00     0.209 C 
BRANCH   4   5
HETATM    5  C6  UNL     1      -0.610   5.670  11.653  1.00  0.00     0.296 C 
BRANCH   5   6
HETATM    6  N1  UNL     1       0.433   6.694  11.496  1.00  0.00     0.085 N 
HETATM    7  H12 UNL     1       0.062   7.591  11.815  1.00  0.00     0.315 HD
BRANCH   6   8
HETATM    8  C5  UNL     1       0.900   6.822  10.116  1.00  0.00     0.269 C 
BRANCH   8   9
HETATM    9  C4  UNL     1       2.222   7.594  10.052  1.00  0.00     0.030 C 
BRANCH   9  10
HETATM   10  C3  UNL     1       3.024   7.314   8.778  1.00  0.00     0.001 C 
BRANCH  10  11
HETATM   11  C2  UNL     1       2.449   8.074   7.583  1.00  0.00    -0.005 C 
HETATM   12  C1  UNL     1       1.869   7.125   6.546  1.00  0.00     0.005 C 
ENDBRANCH  10  11
ENDBRANCH   9  10
ENDBRANCH   8   9
ENDBRANCH   6   8
ENDBRANCH   5   6
ENDBRANCH   4   5
ENDBRANCH   3   4
ENDBRANCH   1   3
BRANCH   1  13
HETATM   13  C9  UNL     1      -4.997   4.687  12.847  1.00  0.00     0.039 A 
HETATM   14  C10 UNL     1      -4.858   3.598  11.978  1.00  0.00     0.019 A 
HETATM   15  C11 UNL     1      -5.883   2.652  11.863  1.00  0.00     0.024 A 
HETATM   16  C12 UNL     1      -7.075   2.801  12.575  1.00  0.00     0.005 A 
HETATM   17  C13 UNL     1      -7.185   3.857  13.483  1.00  0.00     0.024 A 
HETATM   18  C14 UNL     1      -6.166   4.808  13.607  1.00  0.00     0.019 A 
BRANCH  16  19
HETATM   19  N2  UNL     1      -8.043   1.794  12.546  1.00  0.00    -0.303 NA
HETATM   20  H19 UNL     1      -8.052   1.252  11.686  1.00  0.00     0.124 HD
HETATM   21  H20 UNL     1      -8.972   2.101  12.816  1.00  0.00     0.124 HD
ENDBRANCH  16  19
ENDBRANCH   1  13
TORSDOF 10
ENDMDL
MODEL 3
REMARK minimizedAffinity -5.76674604
REMARK  10 active torsions:
REMARK  status: ('A' for Active; 'I' for Inactive)
REMARK    1  A    between atoms: C2_2  and  C3_3 
REMARK    2  A    between atoms: C3_3  and  C4_4 
REMARK    3  A    between atoms: C4_4  and  C5_5 
REMARK    4  A    between atoms: C5_5  and  N1_6 
REMARK    5  A    between atoms: N1_6  and  C6_7 
REMARK    6  A    between atoms: C6_7  and  C7_8 
REMARK    7  A    between atoms: C7_8  and  O1_9 
REMARK    8  A    between atoms: O1_9  and  C8_10 
REMARK    9  A    between atoms: C8_10  and  C9_12 
REMARK   10  A    between atoms: C12_15  and  N2_16 
ROOT
HETATM    1  C8  UNL     1      -3.346   5.560  12.873  1.00  0.00     0.293 C 
HETATM    2  O2  UNL     1      -3.096   6.625  13.414  1.00  0.00    -0.259 OA
ENDROOT
BRANCH   1   3
HETATM    3  O1  UNL     1      -2.473   4.810  12.157  1.00  0.00    -0.316 OA
BRANCH   3   4
HETATM    4  C7  UNL     1      -1.151   4.697  12.715  1.00  0.00     0.209 C 
BRANCH   4   5
HETATM    5  C6  UNL     1      -0.097   4.560  11.606  1.00  0.00     0.296 C 
BRANCH   5   6
HETATM    6  N1  UNL     1       1.156   5.284  11.869  1.00  0.00     0.085 N 
HETATM    7  H12 UNL     1       0.933   6.263  12.059  1.00  0.00     0.315 HD
BRANCH   6   8
HETATM    8  C5  UNL     1       2.101   5.206  10.756  1.00  0.00     0.269 C 
BRANCH   8   9
HETATM    9  C4  UNL     1       1.937   6.401   9.811  1.00  0.00     0.030 C 
BRANCH   9  10
HETATM   10  C3  UNL     1       2.575   6.176   8.437  1.00  0.00     0.001 C 
BRANCH  10  11
HETATM   11  C2  UNL     1       2.170   7.271   7.451  1.00  0.00    -0.005 C 
HETATM   12  C1  UNL     1       2.841   8.595   7.782  1.00  0.00     0.005 C 
ENDBRANCH  10  11
ENDBRANCH   9  10
ENDBRANCH   8   9
ENDBRANCH   6   8
ENDBRANCH   5   6
ENDBRANCH   4   5
ENDBRANCH   3   4
ENDBRANCH   1   3
BRANCH   1  13
HETATM   13  C9  UNL     1      -4.686   4.912  12.909  1.00  0.00     0.039 A 
HETATM   14  C10 UNL     1      -5.726   5.578  13.566  1.00  0.00     0.019 A 
HETATM   15  C11 UNL     1      -7.003   5.010  13.621  1.00  0.00     0.024 A 
HETATM   16  C12 UNL     1      -7.251   3.754  13.065  1.00  0.00     0.005 A 
HETATM   17  C13 UNL     1      -6.224   3.120  12.360  1.00  0.00     0.024 A 
HETATM   18  C14 UNL     1      -4.943   3.679  12.297  1.00  0.00     0.019 A 
BRANCH  16  19
HETATM   19  N2  UNL     1      -8.553   3.247  13.020  1.00  0.00    -0.303 NA
HETATM   20  H19 UNL     1      -9.150   3.573  13.774  1.00  0.00     0.124 HD
HETATM   21  H20 UNL     1      -8.603   2.241  12.897  1.00  0.00     0.124 HD
ENDBRANCH  16  19
ENDBRANCH   1  13
TORSDOF 10
ENDMDL
MODEL 4
REMARK minimizedAffinity -5.74117947
REMARK  10 active torsions:
REMARK  status: ('A' for Active; 'I' for Inactive)
REMARK    1  A    between atoms: C2_2  and  C3_3 
REMARK    2  A    between atoms: C3_3  and  C4_4 
REMARK    3  A    between atoms: C4_4  and  C5_5 
REMARK    4  A    between atoms: C5_5  and  N1_6 
REMARK    5  A    between atoms: N1_6  and  C6_7 
REMARK    6  A    between atoms: C6_7  and  C7_8 
REMARK    7  A    between atoms: C7_8  and  O1_9 
REMARK    8  A    between atoms: O1_9  and  C8_10 
REMARK    9  A    between atoms: C8_10  and  C9_12 
REMARK   10  A    between atoms: C12_15  and  N2_16 
ROOT
HETATM    1  C8  UNL     1      -7.536   4.022  12.924  1.00  0.00     0.293 C 
HETATM    2  O2  UNL     1      -8.649   3.521  12.926  1.00  0.00    -0.259 OA
ENDROOT
BRANCH   1   3
HETATM    3  O1  UNL     1      -7.231   5.281  13.324  1.00  0.00    -0.316 OA
BRANCH   3   4
HETATM    4  C7  UNL     1      -7.520   5.580  14.702  1.00  0.00     0.209 C 
BRANCH   4   5
HETATM    5  C6  UNL     1      -8.603   6.664  14.814  1.00  0.00     0.296 C 
BRANCH   5   6
HETATM    6  N1  UNL     1      -9.931   6.242  14.344  1.00  0.00     0.085 N 
HETATM    7  H12 UNL     1      -9.845   5.897  13.387  1.00  0.00     0.315 HD
BRANCH   6   8
HETATM    8  C5  UNL     1     -10.917   7.320  14.388  1.00  0.00     0.269 C 
BRANCH   8   9
HETATM    9  C4  UNL     1     -11.724   7.380  13.086  1.00  0.00     0.030 C 
BRANCH   9  10
HETATM   10  C3  UNL     1     -13.137   7.937  13.278  1.00  0.00     0.001 C 
BRANCH  10  11
HETATM   11  C2  UNL     1     -14.193   6.844  13.105  1.00  0.00    -0.005 C 
HETATM   12  C1  UNL     1     -14.174   5.864  14.268  1.00  0.00     0.005 C 
ENDBRANCH  10  11
ENDBRANCH   9  10
ENDBRANCH   8   9
ENDBRANCH   6   8
ENDBRANCH   5   6
ENDBRANCH   4   5
ENDBRANCH   3   4
ENDBRANCH   1   3
BRANCH   1  13
HETATM   13  C9  UNL     1      -6.313   3.310  12.461  1.00  0.00     0.039 A 
HETATM   14  C10 UNL     1      -5.071   3.914  12.687  1.00  0.00     0.019 A 
HETATM   15  C11 UNL     1      -3.893   3.280  12.274  1.00  0.00     0.024 A 
HETATM   16  C12 UNL     1      -3.939   2.063  11.592  1.00  0.00     0.005 A 
HETATM   17  C13 UNL     1      -5.177   1.438  11.420  1.00  0.00     0.024 A 
HETATM   18  C14 UNL     1      -6.360   2.062  11.831  1.00  0.00     0.019 A 
BRANCH  16  19
HETATM   19  N2  UNL     1      -2.758   1.381  11.288  1.00  0.00    -0.303 NA
HETATM   20  H19 UNL     1      -1.953   1.986  11.154  1.00  0.00     0.124 HD
HETATM   21  H20 UNL     1      -2.852   0.696  10.545  1.00  0.00     0.124 HD
ENDBRANCH  16  19
ENDBRANCH   1  13
TORSDOF 10
ENDMDL
MODEL 5
REMARK minimizedAffinity -5.708745
REMARK  10 active torsions:
REMARK  status: ('A' for Active; 'I' for Inactive)
REMARK    1  A    between atoms: C2_2  and  C3_3 
REMARK    2  A    between atoms: C3_3  and  C4_4 
REMARK    3  A    between atoms: C4_4  and  C5_5 
REMARK    4  A    between atoms: C5_5  and  N1_6 
REMARK    5  A    between atoms: N1_6  and  C6_7 
REMARK    6  A    between atoms: C6_7  and  C7_8 
REMARK    7  A    between atoms: C7_8  and  O1_9 
REMARK    8  A    between atoms: O1_9  and  C8_10 
REMARK    9  A    between atoms: C8_10  and  C9_12 
REMARK   10  A    between atoms: C12_15  and  N2_16 
ROOT
HETATM    1  C8  UNL     1      -4.660   6.373  13.532  1.00  0.00     0.293 C 
HETATM    2  O2  UNL     1      -4.961   7.247  14.328  1.00  0.00    -0.259 OA
ENDROOT
BRANCH   1   3
HETATM    3  O1  UNL     1      -3.548   6.354  12.756  1.00  0.00    -0.316 OA
BRANCH   3   4
HETATM    4  C7  UNL     1      -2.489   7.237  13.170  1.00  0.00     0.209 C 
BRANCH   4   5
HETATM    5  C6  UNL     1      -1.119   6.558  13.021  1.00  0.00     0.296 C 
BRANCH   5   6
HETATM    6  N1  UNL     1      -0.710   6.321  11.628  1.00  0.00     0.085 N 
HETATM    7  H12 UNL     1      -0.097   5.505  11.603  1.00  0.00     0.315 HD
BRANCH   6   8
HETATM    8  C5  UNL     1      -0.023   7.468  11.036  1.00  0.00     0.269 C 
BRANCH   8   9
HETATM    9  C4  UNL     1       0.835   7.036   9.841  1.00  0.00     0.030 C 
BRANCH   9  10
HETATM   10  C3  UNL     1       0.808   8.040   8.685  1.00  0.00     0.001 C 
BRANCH  10  11
HETATM   11  C2  UNL     1       2.083   7.955   7.846  1.00  0.00    -0.005 C 
HETATM   12  C1  UNL     1       1.839   7.226   6.534  1.00  0.00     0.005 C 
ENDBRANCH  10  11
ENDBRANCH   9  10
ENDBRANCH   8   9
ENDBRANCH   6   8
ENDBRANCH   5   6
ENDBRANCH   4   5
ENDBRANCH   3   4
ENDBRANCH   1   3
BRANCH   1  13
HETATM   13  C9  UNL     1      -5.495   5.166  13.278  1.00  0.00     0.039 A 
HETATM   14  C10 UNL     1      -6.726   5.064  13.935  1.00  0.00     0.019 A 
HETATM   15  C11 UNL     1      -7.547   3.951  13.724  1.00  0.00     0.024 A 
HETATM   16  C12 UNL     1      -7.135   2.907  12.894  1.00  0.00     0.005 A 
HETATM   17  C13 UNL     1      -5.932   3.041  12.196  1.00  0.00     0.024 A 
HETATM   18  C14 UNL     1      -5.104   4.150  12.399  1.00  0.00     0.019 A 
BRANCH  16  19
HETATM   19  N2  UNL     1      -8.009   1.857  12.596  1.00  0.00    -0.303 NA
HETATM   20  H19 UNL     1      -8.686   1.661  13.327  1.00  0.00     0.124 HD
HETATM   21  H20 UNL     1      -7.550   1.016  12.261  1.00  0.00     0.124 HD
ENDBRANCH  16  19
ENDBRANCH   1  13
TORSDOF 10
ENDMDL
MODEL 6
REMARK minimizedAffinity -5.65873861
REMARK  10 active torsions:
REMARK  status: ('A' for Active; 'I' for Inactive)
REMARK    1  A    between atoms: C2_2  and  C3_3 
REMARK    2  A    between atoms: C3_3  and  C4_4 
REMARK    3  A    between atoms: C4_4  and  C5_5 
REMARK    4  A    between atoms: C5_5  and  N1_6 
REMARK    5  A    between atoms: N1_6  and  C6_7 
REMARK    6  A    between atoms: C6_7  and  C7_8 
REMARK    7  A    between atoms: C7_8  and  O1_9 
REMARK    8  A    between atoms: O1_9  and  C8_10 
REMARK    9  A    between atoms: C8_10  and  C9_12 
REMARK   10  A    between atoms: C12_15  and  N2_16 
ROOT
HETATM    1  C8  UNL     1      -1.055   3.572  11.457  1.00  0.00     0.293 C 
HETATM    2  O2  UNL     1      -0.391   2.617  11.828  1.00  0.00    -0.259 OA
ENDROOT
BRANCH   1   3
HETATM    3  O1  UNL     1      -0.602   4.618  10.724  1.00  0.00    -0.316 OA
BRANCH   3   4
HETATM    4  C7  UNL     1       0.105   5.631  11.463  1.00  0.00     0.209 C 
BRANCH   4   5
HETATM    5  C6  UNL     1       1.605   5.310  11.538  1.00  0.00     0.296 C 
BRANCH   5   6
HETATM    6  N1  UNL     1       2.482   6.481  11.391  1.00  0.00     0.085 N 
HETATM    7  H12 UNL     1       1.901   7.315  11.296  1.00  0.00     0.315 HD
BRANCH   6   8
HETATM    8  C5  UNL     1       3.379   6.377  10.241  1.00  0.00     0.269 C 
BRANCH   8   9
HETATM    9  C4  UNL     1       3.725   7.764   9.687  1.00  0.00     0.030 C 
BRANCH   9  10
HETATM   10  C3  UNL     1       3.000   8.089   8.378  1.00  0.00     0.001 C 
BRANCH  10  11
HETATM   11  C2  UNL     1       2.332   6.845   7.791  1.00  0.00    -0.005 C 
HETATM   12  C1  UNL     1       1.714   7.134   6.432  1.00  0.00     0.005 C 
ENDBRANCH  10  11
ENDBRANCH   9  10
ENDBRANCH   8   9
ENDBRANCH   6   8
ENDBRANCH   5   6
ENDBRANCH   4   5
ENDBRANCH   3   4
ENDBRANCH   1   3
BRANCH   1  13
HETATM   13  C9  UNL     1      -2.501   3.741  11.771  1.00  0.00     0.039 A 
HETATM   14  C10 UNL     1      -2.849   4.491  12.900  1.00  0.00     0.019 A 
HETATM   15  C11 UNL     1      -4.195   4.681  13.232  1.00  0.00     0.024 A 
HETATM   16  C12 UNL     1      -5.208   4.091  12.473  1.00  0.00     0.005 A 
HETATM   17  C13 UNL     1      -4.857   3.392  11.315  1.00  0.00     0.024 A 
HETATM   18  C14 UNL     1      -3.514   3.197  10.973  1.00  0.00     0.019 A 
BRANCH  16  19
HETATM   19  N2  UNL     1      -6.549   4.382  12.740  1.00  0.00    -0.303 NA
HETATM   20  H19 UNL     1      -6.737   4.611  13.712  1.00  0.00     0.124 HD
HETATM   21  H20 UNL     1      -7.204   3.700  12.373  1.00  0.00     0.124 HD
ENDBRANCH  16  19
ENDBRANCH   1  13
TORSDOF 10
ENDMDL
MODEL 7
REMARK minimizedAffinity -5.56322432
REMARK  10 active torsions:
REMARK  status: ('A' for Active; 'I' for Inactive)
REMARK    1  A    between atoms: C2_2  and  C3_3 
REMARK    2  A    between atoms: C3_3  and  C4_4 
REMARK    3  A    between atoms: C4_4  and  C5_5 
REMARK    4  A    between atoms: C5_5  and  N1_6 
REMARK    5  A    between atoms: N1_6  and  C6_7 
REMARK    6  A    between atoms: C6_7  and  C7_8 
REMARK    7  A    between atoms: C7_8  and  O1_9 
REMARK    8  A    between atoms: O1_9  and  C8_10 
REMARK    9  A    between atoms: C8_10  and  C9_12 
REMARK   10  A    between atoms: C12_15  and  N2_16 
ROOT
HETATM    1  C8  UNL     1      -6.937   4.474  13.841  1.00  0.00     0.293 C 
HETATM    2  O2  UNL     1      -7.523   3.624  14.491  1.00  0.00    -0.259 OA
ENDROOT
BRANCH   1   3
HETATM    3  O1  UNL     1      -7.163   5.810  13.894  1.00  0.00    -0.316 OA
BRANCH   3   4
HETATM    4  C7  UNL     1      -6.813   6.448  15.135  1.00  0.00     0.209 C 
BRANCH   4   5
HETATM    5  C6  UNL     1      -8.065   6.727  15.981  1.00  0.00     0.296 C 
BRANCH   5   6
HETATM    6  N1  UNL     1      -9.301   6.141  15.443  1.00  0.00     0.085 N 
HETATM    7  H12 UNL     1      -9.053   5.458  14.724  1.00  0.00     0.315 HD
BRANCH   6   8
HETATM    8  C5  UNL     1     -10.204   7.141  14.876  1.00  0.00     0.269 C 
BRANCH   8   9
HETATM    9  C4  UNL     1     -10.414   6.904  13.376  1.00  0.00     0.030 C 
BRANCH   9  10
HETATM   10  C3  UNL     1     -11.588   7.701  12.799  1.00  0.00     0.001 C 
BRANCH  10  11
HETATM   11  C2  UNL     1     -12.828   7.581  13.684  1.00  0.00    -0.005 C 
HETATM   12  C1  UNL     1     -13.993   6.958  12.930  1.00  0.00     0.005 C 
ENDBRANCH  10  11
ENDBRANCH   9  10
ENDBRANCH   8   9
ENDBRANCH   6   8
ENDBRANCH   5   6
ENDBRANCH   4   5
ENDBRANCH   3   4
ENDBRANCH   1   3
BRANCH   1  13
HETATM   13  C9  UNL     1      -5.863   4.164  12.857  1.00  0.00     0.039 A 
HETATM   14  C10 UNL     1      -6.190   3.376  11.748  1.00  0.00     0.019 A 
HETATM   15  C11 UNL     1      -5.216   3.062  10.794  1.00  0.00     0.024 A 
HETATM   16  C12 UNL     1      -3.896   3.490  10.954  1.00  0.00     0.005 A 
HETATM   17  C13 UNL     1      -3.589   4.324  12.032  1.00  0.00     0.024 A 
HETATM   18  C14 UNL     1      -4.556   4.645  12.991  1.00  0.00     0.019 A 
BRANCH  16  19
HETATM   19  N2  UNL     1      -2.958   3.274   9.941  1.00  0.00    -0.303 NA
HETATM   20  H19 UNL     1      -3.138   2.448   9.378  1.00  0.00     0.124 HD
HETATM   21  H20 UNL     1      -1.993   3.326  10.250  1.00  0.00     0.124 HD
ENDBRANCH  16  19
ENDBRANCH   1  13
TORSDOF 10
ENDMDL
MODEL 8
REMARK minimizedAffinity -5.50501442
REMARK  10 active torsions:
REMARK  status: ('A' for Active; 'I' for Inactive)
REMARK    1  A    between atoms: C2_2  and  C3_3 
REMARK    2  A    between atoms: C3_3  and  C4_4 
REMARK    3  A    between atoms: C4_4  and  C5_5 
REMARK    4  A    between atoms: C5_5  and  N1_6 
REMARK    5  A    between atoms: N1_6  and  C6_7 
REMARK    6  A    between atoms: C6_7  and  C7_8 
REMARK    7  A    between atoms: C7_8  and  O1_9 
REMARK    8  A    between atoms: O1_9  and  C8_10 
REMARK    9  A    between atoms: C8_10  and  C9_12 
REMARK   10  A    between atoms: C12_15  and  N2_16 
ROOT
HETATM    1  C8  UNL     1      -7.327   5.363  14.676  1.00  0.00     0.293 C 
HETATM    2  O2  UNL     1      -7.486   5.140  15.865  1.00  0.00    -0.259 OA
ENDROOT
BRANCH   1   3
HETATM    3  O1  UNL     1      -7.494   6.561  14.063  1.00  0.00    -0.316 OA
BRANCH   3   4
HETATM    4  C7  UNL     1      -7.708   7.680  14.941  1.00  0.00     0.209 C 
BRANCH   4   5
HETATM    5  C6  UNL     1      -6.407   8.473  15.146  1.00  0.00     0.296 C 
BRANCH   5   6
HETATM    6  N1  UNL     1      -5.362   7.742  15.878  1.00  0.00     0.085 N 
HETATM    7  H12 UNL     1      -5.079   8.300  16.686  1.00  0.00     0.315 HD
BRANCH   6   8
HETATM    8  C5  UNL     1      -4.192   7.448  15.053  1.00  0.00     0.269 C 
BRANCH   8   9
HETATM    9  C4  UNL     1      -3.468   6.193  15.554  1.00  0.00     0.030 C 
BRANCH   9  10
HETATM   10  C3  UNL     1      -2.617   5.516  14.476  1.00  0.00     0.001 C 
BRANCH  10  11
HETATM   11  C2  UNL     1      -1.129   5.796  14.687  1.00  0.00    -0.005 C 
HETATM   12  C1  UNL     1      -0.287   5.207  13.566  1.00  0.00     0.005 C 
ENDBRANCH  10  11
ENDBRANCH   9  10
ENDBRANCH   8   9
ENDBRANCH   6   8
ENDBRANCH   5   6
ENDBRANCH   4   5
ENDBRANCH   3   4
ENDBRANCH   1   3
BRANCH   1  13
HETATM   13  C9  UNL     1      -6.925   4.323  13.689  1.00  0.00     0.039 A 
HETATM   14  C10 UNL     1      -5.739   4.516  12.971  1.00  0.00     0.019 A 
HETATM   15  C11 UNL     1      -5.318   3.563  12.036  1.00  0.00     0.024 A 
HETATM   16  C12 UNL     1      -6.092   2.432  11.772  1.00  0.00     0.005 A 
HETATM   17  C13 UNL     1      -7.244   2.215  12.532  1.00  0.00     0.024 A 
HETATM   18  C14 UNL     1      -7.674   3.161  13.471  1.00  0.00     0.019 A 
BRANCH  16  19
HETATM   19  N2  UNL     1      -5.609   1.429  10.926  1.00  0.00    -0.303 NA
HETATM   20  H19 UNL     1      -4.972   1.764  10.209  1.00  0.00     0.124 HD
HETATM   21  H20 UNL     1      -6.328   0.820  10.549  1.00  0.00     0.124 HD
ENDBRANCH  16  19
ENDBRANCH   1  13
TORSDOF 10
ENDMDL
MODEL 9
REMARK minimizedAffinity -5.45792723
REMARK  10 active torsions:
REMARK  status: ('A' for Active; 'I' for Inactive)
REMARK    1  A    between atoms: C2_2  and  C3_3 
REMARK    2  A    between atoms: C3_3  and  C4_4 
REMARK    3  A    between atoms: C4_4  and  C5_5 
REMARK    4  A    between atoms: C5_5  and  N1_6 
REMARK    5  A    between atoms: N1_6  and  C6_7 
REMARK    6  A    between atoms: C6_7  and  C7_8 
REMARK    7  A    between atoms: C7_8  and  O1_9 
REMARK    8  A    between atoms: O1_9  and  C8_10 
REMARK    9  A    between atoms: C8_10  and  C9_12 
REMARK   10  A    between atoms: C12_15  and  N2_16 
ROOT
HETATM    1  C8  UNL     1      -7.291   5.533  14.438  1.00  0.00     0.293 C 
HETATM    2  O2  UNL     1      -7.074   5.525  15.639  1.00  0.00    -0.259 OA
ENDROOT
BRANCH   1   3
HETATM    3  O1  UNL     1      -7.905   6.527  13.749  1.00  0.00    -0.316 OA
BRANCH   3   4
HETATM    4  C7  UNL     1      -9.337   6.582  13.886  1.00  0.00     0.209 C 
BRANCH   4   5
HETATM    5  C6  UNL     1      -9.744   7.549  15.009  1.00  0.00     0.296 C 
BRANCH   5   6
HETATM    6  N1  UNL     1     -11.195   7.659  15.216  1.00  0.00     0.085 N 
HETATM    7  H12 UNL     1     -11.401   7.463  16.197  1.00  0.00     0.315 HD
BRANCH   6   8
HETATM    8  C5  UNL     1     -11.960   6.749  14.364  1.00  0.00     0.269 C 
BRANCH   8   9
HETATM    9  C4  UNL     1     -13.033   7.508  13.574  1.00  0.00     0.030 C 
BRANCH   9  10
HETATM   10  C3  UNL     1     -14.335   6.718  13.414  1.00  0.00     0.001 C 
BRANCH  10  11
HETATM   11  C2  UNL     1     -14.415   5.571  14.422  1.00  0.00    -0.005 C 
HETATM   12  C1  UNL     1     -15.856   5.166  14.690  1.00  0.00     0.005 C 
ENDBRANCH  10  11
ENDBRANCH   9  10
ENDBRANCH   8   9
ENDBRANCH   6   8
ENDBRANCH   5   6
ENDBRANCH   4   5
ENDBRANCH   3   4
ENDBRANCH   1   3
BRANCH   1  13
HETATM   13  C9  UNL     1      -6.914   4.420  13.526  1.00  0.00     0.039 A 
HETATM   14  C10 UNL     1      -5.725   4.535  12.797  1.00  0.00     0.019 A 
HETATM   15  C11 UNL     1      -5.327   3.512  11.930  1.00  0.00     0.024 A 
HETATM   16  C12 UNL     1      -6.127   2.383  11.743  1.00  0.00     0.005 A 
HETATM   17  C13 UNL     1      -7.284   2.246  12.515  1.00  0.00     0.024 A 
HETATM   18  C14 UNL     1      -7.690   3.263  13.386  1.00  0.00     0.019 A 
BRANCH  16  19
HETATM   19  N2  UNL     1      -5.668   1.314  10.968  1.00  0.00    -0.303 NA
HETATM   20  H19 UNL     1      -5.024   1.584  10.230  1.00  0.00     0.124 HD
HETATM   21  H20 UNL     1      -6.401   0.698  10.632  1.00  0.00     0.124 HD
ENDBRANCH  16  19
ENDBRANCH   1  13
TORSDOF 10
ENDMDL
