MODEL 1
REMARK minimizedAffinity -7.58050585
REMARK CNNscore 0.309044361
REMARK CNNaffinity 6.70726061
REMARK  12 active torsions:
REMARK  status: ('A' for Active; 'I' for Inactive)
REMARK    1  A    between atoms: C2_2  and  C3_3 
REMARK    2  A    between atoms: C4_5  and  C5_6 
REMARK    3  A    between atoms: C5_6  and  C7_8 
REMARK    4  A    between atoms: C7_8  and  C8_9 
REMARK    5  A    between atoms: C9_10  and  C10_11 
REMARK    6  A    between atoms: C17_19  and  C18_20 
REMARK    7  A    between atoms: C18_20  and  C19_21 
REMARK    8  A    between atoms: C28_33  and  C29_34 
REMARK    9  A    between atoms: C29_34  and  C30_36 
REMARK   10  A    between atoms: C30_36  and  C31_37 
REMARK   11  A    between atoms: C31_37  and  C32_38 
REMARK   12  A    between atoms: C32_38  and  O5_39 
ROOT
HETATM    1  C10 UNL     1      -2.200   7.053  13.333  1.00  0.00     0.066 C 
HETATM    2  C11 UNL     1      -3.289   6.166  13.908  1.00  0.00     0.166 A 
HETATM    3  O2  UNL     1      -4.545   6.194  13.225  1.00  0.00    -0.368 OA
HETATM    4  C12 UNL     1      -4.492   6.869  14.491  1.00  0.00     0.088 A 
HETATM    5  C13 UNL     1      -5.270   6.187  15.570  1.00  0.00     0.049 C 
HETATM    6  C14 UNL     1      -4.467   8.378  14.381  1.00  0.00     0.026 C 
HETATM    7  C15 UNL     1      -5.698   9.069  14.965  1.00  0.00     0.014 C 
HETATM    8  C16 UNL     1      -3.112   8.954  14.894  1.00  0.00     0.041 C 
HETATM    9  C17 UNL     1      -2.978   9.007  16.432  1.00  0.00     0.095 C 
HETATM   10  N2  UNL     1      -2.031   7.972  16.738  1.00  0.00    -0.355 N 
HETATM   11  C27 UNL     1      -1.332   7.497  15.661  1.00  0.00     0.235 C 
HETATM   12  O3  UNL     1      -0.429   6.685  15.773  1.00  0.00    -0.272 OA
HETATM   13  C28 UNL     1      -1.840   8.150  14.388  1.00  0.00     0.116 C 
HETATM   14  H33 UNL     1      -1.815   7.642  17.674  1.00  0.00     0.162 HD
ENDROOT
BRANCH   9  15
HETATM   15  C18 UNL     1      -2.488  10.368  16.969  1.00  0.00     0.066 C 
BRANCH  15  16
HETATM   16  C19 UNL     1      -3.483  11.468  16.774  1.00  0.00    -0.028 A 
HETATM   17  C20 UNL     1      -3.917  11.967  15.561  1.00  0.00     0.096 A 
HETATM   18  N1  UNL     1      -4.807  12.978  15.804  1.00  0.00    -0.365 N 
HETATM   19  C21 UNL     1      -4.967  13.156  17.158  1.00  0.00     0.042 A 
HETATM   20  H28 UNL     1      -5.280  13.524  15.099  1.00  0.00     0.165 HD
HETATM   21  C22 UNL     1      -5.760  14.073  17.858  1.00  0.00     0.030 A 
HETATM   22  C26 UNL     1      -4.160  12.213  17.796  1.00  0.00    -0.002 A 
HETATM   23  C23 UNL     1      -5.724  14.028  19.254  1.00  0.00     0.002 A 
HETATM   24  C24 UNL     1      -4.929  13.102  19.921  1.00  0.00     0.001 A 
HETATM   25  C25 UNL     1      -4.147  12.189  19.206  1.00  0.00     0.014 A 
ENDBRANCH  15  16
ENDBRANCH   9  15
BRANCH  13  26
HETATM   26  C29 UNL     1      -0.866   9.142  13.745  1.00  0.00     0.146 C 
HETATM   27  O4  UNL     1      -1.227   9.793  12.757  1.00  0.00    -0.297 OA
BRANCH  26  28
HETATM   28  C30 UNL     1       0.500   9.391  14.366  1.00  0.00     0.081 C 
BRANCH  28  29
HETATM   29  C31 UNL     1       0.521  10.689  15.182  1.00  0.00     0.033 C 
BRANCH  29  30
HETATM   30  C32 UNL     1       1.194  10.516  16.540  1.00  0.00     0.164 C 
BRANCH  30  31
HETATM   31  O5  UNL     1       0.958   9.220  17.076  1.00  0.00    -0.401 OA
HETATM   32  H40 UNL     1       0.030   9.161  17.357  1.00  0.00     0.209 HD
ENDBRANCH  30  31
ENDBRANCH  29  30
ENDBRANCH  28  29
ENDBRANCH  26  28
ENDBRANCH  13  26
BRANCH   1  33
HETATM   33  C9  UNL     1      -0.998   6.343  12.724  1.00  0.00    -0.022 C 
HETATM   34  C8  UNL     1      -0.716   6.192  11.419  1.00  0.00    -0.029 C 
BRANCH  34  35
HETATM   35  C7  UNL     1       0.503   5.482  10.894  1.00  0.00     0.035 C 
BRANCH  35  36
HETATM   36  C5  UNL     1       1.812   6.284  11.077  1.00  0.00     0.008 C 
HETATM   37  C6  UNL     1       1.643   7.480  12.022  1.00  0.00     0.014 C 
BRANCH  36  38
HETATM   38  C4  UNL     1       2.280   6.780   9.726  1.00  0.00    -0.013 C 
HETATM   39  C2  UNL     1       1.664   7.650   8.902  1.00  0.00    -0.028 C 
HETATM   40  C1  UNL     1       0.350   8.333   9.116  1.00  0.00     0.051 C 
BRANCH  39  41
HETATM   41  C3  UNL     1       2.347   7.995   7.615  1.00  0.00     0.265 C 
HETATM   42  O1  UNL     1       3.094   8.955   7.467  1.00  0.00    -0.302 OA
ENDBRANCH  39  41
ENDBRANCH  36  38
ENDBRANCH  35  36
ENDBRANCH  34  35
ENDBRANCH   1  33
TORSDOF 12
ENDMDL
MODEL 2
REMARK minimizedAffinity -8.335989
REMARK CNNscore 0.291856527
REMARK CNNaffinity 7.04464388
REMARK  12 active torsions:
REMARK  status: ('A' for Active; 'I' for Inactive)
REMARK    1  A    between atoms: C2_2  and  C3_3 
REMARK    2  A    between atoms: C4_5  and  C5_6 
REMARK    3  A    between atoms: C5_6  and  C7_8 
REMARK    4  A    between atoms: C7_8  and  C8_9 
REMARK    5  A    between atoms: C9_10  and  C10_11 
REMARK    6  A    between atoms: C17_19  and  C18_20 
REMARK    7  A    between atoms: C18_20  and  C19_21 
REMARK    8  A    between atoms: C28_33  and  C29_34 
REMARK    9  A    between atoms: C29_34  and  C30_36 
REMARK   10  A    between atoms: C30_36  and  C31_37 
REMARK   11  A    between atoms: C31_37  and  C32_38 
REMARK   12  A    between atoms: C32_38  and  O5_39 
ROOT
HETATM    1  C10 UNL     1      -1.040   5.781  11.539  1.00  0.00     0.066 C 
HETATM    2  C11 UNL     1      -1.473   4.327  11.550  1.00  0.00     0.166 A 
HETATM    3  O2  UNL     1      -2.503   3.973  10.623  1.00  0.00    -0.368 OA
HETATM    4  C12 UNL     1      -2.886   4.048  12.004  1.00  0.00     0.088 A 
HETATM    5  C13 UNL     1      -3.195   2.720  12.616  1.00  0.00     0.049 C 
HETATM    6  C14 UNL     1      -3.701   5.276  12.349  1.00  0.00     0.026 C 
HETATM    7  C15 UNL     1      -5.131   4.974  12.795  1.00  0.00     0.014 C 
HETATM    8  C16 UNL     1      -2.918   6.213  13.319  1.00  0.00     0.041 C 
HETATM    9  C17 UNL     1      -2.898   5.742  14.791  1.00  0.00     0.095 C 
HETATM   10  N2  UNL     1      -1.549   5.299  14.999  1.00  0.00    -0.355 N 
HETATM   11  C27 UNL     1      -0.661   5.687  14.032  1.00  0.00     0.235 C 
HETATM   12  O3  UNL     1       0.536   5.468  14.117  1.00  0.00    -0.272 OA
HETATM   13  C28 UNL     1      -1.394   6.418  12.922  1.00  0.00     0.116 C 
HETATM   14  H33 UNL     1      -1.224   4.799  15.821  1.00  0.00     0.162 HD
ENDROOT
BRANCH   9  15
HETATM   15  C18 UNL     1      -3.271   6.845  15.803  1.00  0.00     0.066 C 
BRANCH  15  16
HETATM   16  C19 UNL     1      -4.494   7.611  15.411  1.00  0.00    -0.028 A 
HETATM   17  C20 UNL     1      -4.518   8.877  14.856  1.00  0.00     0.096 A 
HETATM   18  N1  UNL     1      -5.824   9.239  14.663  1.00  0.00    -0.365 N 
HETATM   19  C21 UNL     1      -6.663   8.233  15.082  1.00  0.00     0.042 A 
HETATM   20  H28 UNL     1      -6.138  10.116  14.274  1.00  0.00     0.165 HD
HETATM   21  C22 UNL     1      -8.062   8.171  15.085  1.00  0.00     0.030 A 
HETATM   22  C26 UNL     1      -5.859   7.191  15.543  1.00  0.00    -0.002 A 
HETATM   23  C23 UNL     1      -8.657   7.008  15.580  1.00  0.00     0.002 A 
HETATM   24  C24 UNL     1      -7.885   5.950  16.049  1.00  0.00     0.001 A 
HETATM   25  C25 UNL     1      -6.489   6.028  16.034  1.00  0.00     0.014 A 
ENDBRANCH  15  16
ENDBRANCH   9  15
BRANCH  13  26
HETATM   26  C29 UNL     1      -1.113   7.922  12.851  1.00  0.00     0.146 C 
HETATM   27  O4  UNL     1      -1.780   8.629  12.087  1.00  0.00    -0.297 OA
BRANCH  26  28
HETATM   28  C30 UNL     1      -0.084   8.556  13.776  1.00  0.00     0.081 C 
BRANCH  28  29
HETATM   29  C31 UNL     1      -0.752   9.370  14.891  1.00  0.00     0.033 C 
BRANCH  29  30
HETATM   30  C32 UNL     1       0.177  10.424  15.485  1.00  0.00     0.164 C 
BRANCH  30  31
HETATM   31  O5  UNL     1       0.509  11.423  14.529  1.00  0.00    -0.401 OA
HETATM   32  H40 UNL     1       1.113  11.040  13.872  1.00  0.00     0.209 HD
ENDBRANCH  30  31
ENDBRANCH  29  30
ENDBRANCH  28  29
ENDBRANCH  26  28
ENDBRANCH  13  26
BRANCH   1  33
HETATM   33  C9  UNL     1       0.378   6.064  11.058  1.00  0.00    -0.022 C 
HETATM   34  C8  UNL     1       1.431   5.231  11.093  1.00  0.00    -0.029 C 
BRANCH  34  35
HETATM   35  C7  UNL     1       2.804   5.582  10.586  1.00  0.00     0.035 C 
BRANCH  35  36
HETATM   36  C5  UNL     1       2.793   6.611   9.433  1.00  0.00     0.008 C 
HETATM   37  C6  UNL     1       1.551   7.511   9.459  1.00  0.00     0.014 C 
BRANCH  36  38
HETATM   38  C4  UNL     1       2.846   5.874   8.113  1.00  0.00    -0.013 C 
HETATM   39  C2  UNL     1       3.420   4.685   7.848  1.00  0.00    -0.028 C 
HETATM   40  C1  UNL     1       4.165   3.802   8.799  1.00  0.00     0.051 C 
BRANCH  39  41
HETATM   41  C3  UNL     1       3.321   4.158   6.450  1.00  0.00     0.265 C 
HETATM   42  O1  UNL     1       3.990   3.228   6.015  1.00  0.00    -0.302 OA
ENDBRANCH  39  41
ENDBRANCH  36  38
ENDBRANCH  35  36
ENDBRANCH  34  35
ENDBRANCH   1  33
TORSDOF 12
ENDMDL
MODEL 3
REMARK minimizedAffinity -8.52660751
REMARK CNNscore 0.255440295
REMARK CNNaffinity 6.49895144
REMARK  12 active torsions:
REMARK  status: ('A' for Active; 'I' for Inactive)
REMARK    1  A    between atoms: C2_2  and  C3_3 
REMARK    2  A    between atoms: C4_5  and  C5_6 
REMARK    3  A    between atoms: C5_6  and  C7_8 
REMARK    4  A    between atoms: C7_8  and  C8_9 
REMARK    5  A    between atoms: C9_10  and  C10_11 
REMARK    6  A    between atoms: C17_19  and  C18_20 
REMARK    7  A    between atoms: C18_20  and  C19_21 
REMARK    8  A    between atoms: C28_33  and  C29_34 
REMARK    9  A    between atoms: C29_34  and  C30_36 
REMARK   10  A    between atoms: C30_36  and  C31_37 
REMARK   11  A    between atoms: C31_37  and  C32_38 
REMARK   12  A    between atoms: C32_38  and  O5_39 
ROOT
HETATM    1  C10 UNL     1      -0.368   9.702  17.062  1.00  0.00     0.066 C 
HETATM    2  C11 UNL     1      -1.820   9.977  16.717  1.00  0.00     0.166 A 
HETATM    3  O2  UNL     1      -2.780   9.084  17.290  1.00  0.00    -0.368 OA
HETATM    4  C12 UNL     1      -2.525   8.930  15.886  1.00  0.00     0.088 A 
HETATM    5  C13 UNL     1      -3.666   9.351  15.017  1.00  0.00     0.049 C 
HETATM    6  C14 UNL     1      -1.688   7.716  15.544  1.00  0.00     0.026 C 
HETATM    7  C15 UNL     1      -2.423   6.664  14.714  1.00  0.00     0.014 C 
HETATM    8  C16 UNL     1      -0.306   8.135  14.959  1.00  0.00     0.041 C 
HETATM    9  C17 UNL     1      -0.344   8.595  13.484  1.00  0.00     0.095 C 
HETATM   10  N2  UNL     1      -0.136  10.014  13.553  1.00  0.00    -0.355 N 
HETATM   11  C27 UNL     1       0.324  10.469  14.760  1.00  0.00     0.235 C 
HETATM   12  O3  UNL     1       0.637  11.633  14.944  1.00  0.00    -0.272 OA
HETATM   13  C28 UNL     1       0.394   9.321  15.751  1.00  0.00     0.116 C 
HETATM   14  H33 UNL     1      -0.239  10.653  12.771  1.00  0.00     0.162 HD
ENDROOT
BRANCH   9  15
HETATM   15  C18 UNL     1       0.727   7.930  12.595  1.00  0.00     0.066 C 
BRANCH  15  16
HETATM   16  C19 UNL     1       0.477   8.122  11.134  1.00  0.00    -0.028 A 
HETATM   17  C20 UNL     1      -0.581   8.812  10.572  1.00  0.00     0.096 A 
HETATM   18  N1  UNL     1      -0.468   8.740   9.210  1.00  0.00    -0.365 N 
HETATM   19  C21 UNL     1       0.646   8.014   8.862  1.00  0.00     0.042 A 
HETATM   20  H28 UNL     1      -1.107   9.154   8.547  1.00  0.00     0.165 HD
HETATM   21  C22 UNL     1       1.143   7.678   7.597  1.00  0.00     0.030 A 
HETATM   22  C26 UNL     1       1.271   7.624  10.047  1.00  0.00    -0.002 A 
HETATM   23  C23 UNL     1       2.313   6.916   7.541  1.00  0.00     0.002 A 
HETATM   24  C24 UNL     1       2.959   6.509   8.704  1.00  0.00     0.001 A 
HETATM   25  C25 UNL     1       2.452   6.857   9.959  1.00  0.00     0.014 A 
ENDBRANCH  15  16
ENDBRANCH   9  15
BRANCH  13  26
HETATM   26  C29 UNL     1       1.813   8.882  16.124  1.00  0.00     0.146 C 
HETATM   27  O4  UNL     1       1.975   7.845  16.778  1.00  0.00    -0.297 OA
BRANCH  26  28
HETATM   28  C30 UNL     1       3.017   9.663  15.619  1.00  0.00     0.081 C 
BRANCH  28  29
HETATM   29  C31 UNL     1       3.786   8.884  14.544  1.00  0.00     0.033 C 
BRANCH  29  30
HETATM   30  C32 UNL     1       5.053   8.233  15.087  1.00  0.00     0.164 C 
BRANCH  30  31
HETATM   31  O5  UNL     1       4.779   6.965  15.668  1.00  0.00    -0.401 OA
HETATM   32  H40 UNL     1       4.306   7.099  16.506  1.00  0.00     0.209 HD
ENDBRANCH  30  31
ENDBRANCH  29  30
ENDBRANCH  28  29
ENDBRANCH  26  28
ENDBRANCH  13  26
BRANCH   1  33
HETATM   33  C9  UNL     1       0.334  10.746  17.921  1.00  0.00    -0.022 C 
HETATM   34  C8  UNL     1       0.278  10.874  19.257  1.00  0.00    -0.029 C 
BRANCH  34  35
HETATM   35  C7  UNL     1       1.012  11.932  20.037  1.00  0.00     0.035 C 
BRANCH  35  36
HETATM   36  C5  UNL     1       2.371  11.454  20.597  1.00  0.00     0.008 C 
HETATM   37  C6  UNL     1       3.424  11.254  19.500  1.00  0.00     0.014 C 
BRANCH  36  38
HETATM   38  C4  UNL     1       2.169  10.149  21.336  1.00  0.00    -0.013 C 
HETATM   39  C2  UNL     1       2.899   9.648  22.351  1.00  0.00    -0.028 C 
HETATM   40  C1  UNL     1       4.107  10.258  22.992  1.00  0.00     0.051 C 
BRANCH  39  41
HETATM   41  C3  UNL     1       2.482   8.331  22.928  1.00  0.00     0.265 C 
HETATM   42  O1  UNL     1       1.604   7.619  22.456  1.00  0.00    -0.302 OA
ENDBRANCH  39  41
ENDBRANCH  36  38
ENDBRANCH  35  36
ENDBRANCH  34  35
ENDBRANCH   1  33
TORSDOF 12
ENDMDL
MODEL 4
REMARK minimizedAffinity -8.7790575
REMARK CNNscore 0.18421948
REMARK CNNaffinity 6.9944663
REMARK  12 active torsions:
REMARK  status: ('A' for Active; 'I' for Inactive)
REMARK    1  A    between atoms: C2_2  and  C3_3 
REMARK    2  A    between atoms: C4_5  and  C5_6 
REMARK    3  A    between atoms: C5_6  and  C7_8 
REMARK    4  A    between atoms: C7_8  and  C8_9 
REMARK    5  A    between atoms: C9_10  and  C10_11 
REMARK    6  A    between atoms: C17_19  and  C18_20 
REMARK    7  A    between atoms: C18_20  and  C19_21 
REMARK    8  A    between atoms: C28_33  and  C29_34 
REMARK    9  A    between atoms: C29_34  and  C30_36 
REMARK   10  A    between atoms: C30_36  and  C31_37 
REMARK   11  A    between atoms: C31_37  and  C32_38 
REMARK   12  A    between atoms: C32_38  and  O5_39 
ROOT
HETATM    1  C10 UNL     1      -4.188   5.495  12.985  1.00  0.00     0.066 C 
HETATM    2  C11 UNL     1      -4.948   4.203  13.226  1.00  0.00     0.166 A 
HETATM    3  O2  UNL     1      -5.609   3.644  12.088  1.00  0.00    -0.368 OA
HETATM    4  C12 UNL     1      -6.449   4.266  13.073  1.00  0.00     0.088 A 
HETATM    5  C13 UNL     1      -7.291   3.300  13.842  1.00  0.00     0.049 C 
HETATM    6  C14 UNL     1      -6.993   5.614  12.652  1.00  0.00     0.026 C 
HETATM    7  C15 UNL     1      -8.512   5.653  12.490  1.00  0.00     0.014 C 
HETATM    8  C16 UNL     1      -6.420   6.753  13.548  1.00  0.00     0.041 C 
HETATM    9  C17 UNL     1      -7.073   6.862  14.944  1.00  0.00     0.095 C 
HETATM   10  N2  UNL     1      -6.059   6.386  15.843  1.00  0.00    -0.355 N 
HETATM   11  C27 UNL     1      -4.807   6.290  15.299  1.00  0.00     0.235 C 
HETATM   12  O3  UNL     1      -3.827   5.991  15.960  1.00  0.00    -0.272 OA
HETATM   13  C28 UNL     1      -4.860   6.633  13.820  1.00  0.00     0.116 C 
HETATM   14  H33 UNL     1      -6.204   6.194  16.830  1.00  0.00     0.162 HD
ENDROOT
BRANCH   9  15
HETATM   15  C18 UNL     1      -7.504   8.295  15.321  1.00  0.00     0.066 C 
BRANCH  15  16
HETATM   16  C19 UNL     1      -8.989   8.459  15.395  1.00  0.00    -0.028 A 
HETATM   17  C20 UNL     1      -9.919   7.438  15.441  1.00  0.00     0.096 A 
HETATM   18  N1  UNL     1     -11.169   7.995  15.480  1.00  0.00    -0.365 N 
HETATM   19  C21 UNL     1     -11.079   9.367  15.460  1.00  0.00     0.042 A 
HETATM   20  H28 UNL     1     -12.038   7.482  15.514  1.00  0.00     0.165 HD
HETATM   21  C22 UNL     1     -12.090  10.335  15.473  1.00  0.00     0.030 A 
HETATM   22  C26 UNL     1      -9.723   9.691  15.422  1.00  0.00    -0.002 A 
HETATM   23  C23 UNL     1     -11.703  11.677  15.443  1.00  0.00     0.002 A 
HETATM   24  C24 UNL     1     -10.360  12.035  15.403  1.00  0.00     0.001 A 
HETATM   25  C25 UNL     1      -9.363  11.055  15.395  1.00  0.00     0.014 A 
ENDBRANCH  15  16
ENDBRANCH   9  15
BRANCH  13  26
HETATM   26  C29 UNL     1      -4.201   7.964  13.447  1.00  0.00     0.146 C 
HETATM   27  O4  UNL     1      -4.713   8.670  12.570  1.00  0.00    -0.297 OA
BRANCH  26  28
HETATM   28  C30 UNL     1      -2.979   8.457  14.208  1.00  0.00     0.081 C 
BRANCH  28  29
HETATM   29  C31 UNL     1      -1.852   8.874  13.256  1.00  0.00     0.033 C 
BRANCH  29  30
HETATM   30  C32 UNL     1      -0.918   9.911  13.872  1.00  0.00     0.164 C 
BRANCH  30  31
HETATM   31  O5  UNL     1      -1.420  11.230  13.700  1.00  0.00    -0.401 OA
HETATM   32  H40 UNL     1      -1.330  11.481  12.766  1.00  0.00     0.209 HD
ENDBRANCH  30  31
ENDBRANCH  29  30
ENDBRANCH  28  29
ENDBRANCH  26  28
ENDBRANCH  13  26
BRANCH   1  33
HETATM   33  C9  UNL     1      -2.672   5.425  13.116  1.00  0.00    -0.022 C 
HETATM   34  C8  UNL     1      -1.798   4.936  12.221  1.00  0.00    -0.029 C 
BRANCH  34  35
HETATM   35  C7  UNL     1      -0.307   4.911  12.421  1.00  0.00     0.035 C 
BRANCH  35  36
HETATM   36  C5  UNL     1       0.434   6.051  11.686  1.00  0.00     0.008 C 
HETATM   37  C6  UNL     1      -0.453   6.763  10.656  1.00  0.00     0.014 C 
BRANCH  36  38
HETATM   38  C4  UNL     1       1.648   5.481  10.986  1.00  0.00    -0.013 C 
HETATM   39  C2  UNL     1       2.394   6.050  10.020  1.00  0.00    -0.028 C 
HETATM   40  C1  UNL     1       2.193   7.391   9.386  1.00  0.00     0.051 C 
BRANCH  39  41
HETATM   41  C3  UNL     1       3.566   5.279   9.496  1.00  0.00     0.265 C 
HETATM   42  O1  UNL     1       4.688   5.315   9.986  1.00  0.00    -0.302 OA
ENDBRANCH  39  41
ENDBRANCH  36  38
ENDBRANCH  35  36
ENDBRANCH  34  35
ENDBRANCH   1  33
TORSDOF 12
ENDMDL
MODEL 5
REMARK minimizedAffinity -7.74896479
REMARK CNNscore 0.158474058
REMARK CNNaffinity 6.42222977
REMARK  12 active torsions:
REMARK  status: ('A' for Active; 'I' for Inactive)
REMARK    1  A    between atoms: C2_2  and  C3_3 
REMARK    2  A    between atoms: C4_5  and  C5_6 
REMARK    3  A    between atoms: C5_6  and  C7_8 
REMARK    4  A    between atoms: C7_8  and  C8_9 
REMARK    5  A    between atoms: C9_10  and  C10_11 
REMARK    6  A    between atoms: C17_19  and  C18_20 
REMARK    7  A    between atoms: C18_20  and  C19_21 
REMARK    8  A    between atoms: C28_33  and  C29_34 
REMARK    9  A    between atoms: C29_34  and  C30_36 
REMARK   10  A    between atoms: C30_36  and  C31_37 
REMARK   11  A    between atoms: C31_37  and  C32_38 
REMARK   12  A    between atoms: C32_38  and  O5_39 
ROOT
HETATM    1  C10 UNL     1       1.734  10.009  15.469  1.00  0.00     0.066 C 
HETATM    2  C11 UNL     1       3.148   9.636  15.873  1.00  0.00     0.166 A 
HETATM    3  O2  UNL     1       4.187  10.477  15.364  1.00  0.00    -0.368 OA
HETATM    4  C12 UNL     1       4.067   9.178  14.764  1.00  0.00     0.088 A 
HETATM    5  C13 UNL     1       5.192   8.253  15.099  1.00  0.00     0.049 C 
HETATM    6  C14 UNL     1       3.456   9.196  13.379  1.00  0.00     0.026 C 
HETATM    7  C15 UNL     1       4.404   8.742  12.271  1.00  0.00     0.014 C 
HETATM    8  C16 UNL     1       2.074   8.476  13.368  1.00  0.00     0.041 C 
HETATM    9  C17 UNL     1       2.153   6.933  13.374  1.00  0.00     0.095 C 
HETATM   10  N2  UNL     1       1.723   6.565  14.694  1.00  0.00    -0.355 N 
HETATM   11  C27 UNL     1       1.109   7.565  15.398  1.00  0.00     0.235 C 
HETATM   12  O3  UNL     1       0.607   7.381  16.494  1.00  0.00    -0.272 OA
HETATM   13  C28 UNL     1       1.142   8.855  14.597  1.00  0.00     0.116 C 
HETATM   14  H33 UNL     1       1.786   5.629  15.084  1.00  0.00     0.162 HD
ENDROOT
BRANCH   9  15
HETATM   15  C18 UNL     1       1.267   6.258  12.306  1.00  0.00     0.066 C 
BRANCH  15  16
HETATM   16  C19 UNL     1       1.915   6.200  10.960  1.00  0.00    -0.028 A 
HETATM   17  C20 UNL     1       3.064   5.501  10.639  1.00  0.00     0.096 A 
HETATM   18  N1  UNL     1       3.345   5.717   9.317  1.00  0.00    -0.365 N 
HETATM   19  C21 UNL     1       2.402   6.548   8.760  1.00  0.00     0.042 A 
HETATM   20  H28 UNL     1       4.132   5.331   8.814  1.00  0.00     0.165 HD
HETATM   21  C22 UNL     1       2.298   7.043   7.454  1.00  0.00     0.030 A 
HETATM   22  C26 UNL     1       1.481   6.857   9.761  1.00  0.00    -0.002 A 
HETATM   23  C23 UNL     1       1.220   7.883   7.164  1.00  0.00     0.002 A 
HETATM   24  C24 UNL     1       0.285   8.213   8.140  1.00  0.00     0.001 A 
HETATM   25  C25 UNL     1       0.402   7.706   9.437  1.00  0.00     0.014 A 
ENDBRANCH  15  16
ENDBRANCH   9  15
BRANCH  13  26
HETATM   26  C29 UNL     1      -0.217   9.305  14.051  1.00  0.00     0.146 C 
HETATM   27  O4  UNL     1      -0.550   8.978  12.906  1.00  0.00    -0.297 OA
BRANCH  26  28
HETATM   28  C30 UNL     1      -1.186  10.072  14.939  1.00  0.00     0.081 C 
BRANCH  28  29
HETATM   29  C31 UNL     1      -2.456   9.260  15.221  1.00  0.00     0.033 C 
BRANCH  29  30
HETATM   30  C32 UNL     1      -2.527   8.764  16.662  1.00  0.00     0.164 C 
BRANCH  30  31
HETATM   31  O5  UNL     1      -2.435   7.347  16.729  1.00  0.00    -0.401 OA
HETATM   32  H40 UNL     1      -3.262   6.963  16.395  1.00  0.00     0.209 HD
ENDBRANCH  30  31
ENDBRANCH  29  30
ENDBRANCH  28  29
ENDBRANCH  26  28
ENDBRANCH  13  26
BRANCH   1  33
HETATM   33  C9  UNL     1       0.816  10.494  16.584  1.00  0.00    -0.022 C 
HETATM   34  C8  UNL     1       1.056  10.471  17.905  1.00  0.00    -0.029 C 
BRANCH  34  35
HETATM   35  C7  UNL     1       0.098  10.979  18.949  1.00  0.00     0.035 C 
BRANCH  35  36
HETATM   36  C5  UNL     1       0.796  11.644  20.157  1.00  0.00     0.008 C 
HETATM   37  C6  UNL     1       1.442  12.988  19.798  1.00  0.00     0.014 C 
BRANCH  36  38
HETATM   38  C4  UNL     1       1.859  10.708  20.690  1.00  0.00    -0.013 C 
HETATM   39  C2  UNL     1       2.699  10.908  21.723  1.00  0.00    -0.028 C 
HETATM   40  C1  UNL     1       2.799  12.122  22.594  1.00  0.00     0.051 C 
BRANCH  39  41
HETATM   41  C3  UNL     1       3.659   9.811  22.065  1.00  0.00     0.265 C 
HETATM   42  O1  UNL     1       4.480   9.872  22.973  1.00  0.00    -0.302 OA
ENDBRANCH  39  41
ENDBRANCH  36  38
ENDBRANCH  35  36
ENDBRANCH  34  35
ENDBRANCH   1  33
TORSDOF 12
ENDMDL
MODEL 6
REMARK minimizedAffinity -8.50085831
REMARK CNNscore 0.15546371
REMARK CNNaffinity 6.90270948
REMARK  12 active torsions:
REMARK  status: ('A' for Active; 'I' for Inactive)
REMARK    1  A    between atoms: C2_2  and  C3_3 
REMARK    2  A    between atoms: C4_5  and  C5_6 
REMARK    3  A    between atoms: C5_6  and  C7_8 
REMARK    4  A    between atoms: C7_8  and  C8_9 
REMARK    5  A    between atoms: C9_10  and  C10_11 
REMARK    6  A    between atoms: C17_19  and  C18_20 
REMARK    7  A    between atoms: C18_20  and  C19_21 
REMARK    8  A    between atoms: C28_33  and  C29_34 
REMARK    9  A    between atoms: C29_34  and  C30_36 
REMARK   10  A    between atoms: C30_36  and  C31_37 
REMARK   11  A    between atoms: C31_37  and  C32_38 
REMARK   12  A    between atoms: C32_38  and  O5_39 
ROOT
HETATM    1  C10 UNL     1      -3.469   6.350  14.363  1.00  0.00     0.066 C 
HETATM    2  C11 UNL     1      -3.623   5.447  13.153  1.00  0.00     0.166 A 
HETATM    3  O2  UNL     1      -3.271   4.075  13.346  1.00  0.00    -0.368 OA
HETATM    4  C12 UNL     1      -2.351   4.867  12.579  1.00  0.00     0.088 A 
HETATM    5  C13 UNL     1      -2.315   4.510  11.128  1.00  0.00     0.049 C 
HETATM    6  C14 UNL     1      -1.087   5.234  13.326  1.00  0.00     0.026 C 
HETATM    7  C15 UNL     1       0.186   4.627  12.737  1.00  0.00     0.014 C 
HETATM    8  C16 UNL     1      -1.005   6.772  13.565  1.00  0.00     0.041 C 
HETATM    9  C17 UNL     1      -0.581   7.593  12.327  1.00  0.00     0.095 C 
HETATM   10  N2  UNL     1      -1.783   8.268  11.925  1.00  0.00    -0.355 N 
HETATM   11  C27 UNL     1      -2.787   8.255  12.855  1.00  0.00     0.235 C 
HETATM   12  O3  UNL     1      -3.832   8.864  12.698  1.00  0.00    -0.272 OA
HETATM   13  C28 UNL     1      -2.371   7.419  14.052  1.00  0.00     0.116 C 
HETATM   14  H33 UNL     1      -1.893   8.788  11.059  1.00  0.00     0.162 HD
ENDROOT
BRANCH   9  15
HETATM   15  C18 UNL     1       0.545   8.610  12.609  1.00  0.00     0.066 C 
BRANCH  15  16
HETATM   16  C19 UNL     1       1.712   8.462  11.686  1.00  0.00    -0.028 A 
HETATM   17  C20 UNL     1       3.046   8.505  12.046  1.00  0.00     0.096 A 
HETATM   18  N1  UNL     1       3.804   8.355  10.916  1.00  0.00    -0.365 N 
HETATM   19  C21 UNL     1       2.992   8.214   9.815  1.00  0.00     0.042 A 
HETATM   20  H28 UNL     1       4.813   8.350  10.883  1.00  0.00     0.165 HD
HETATM   21  C22 UNL     1       3.327   8.047   8.466  1.00  0.00     0.030 A 
HETATM   22  C26 UNL     1       1.673   8.262  10.266  1.00  0.00    -0.002 A 
HETATM   23  C23 UNL     1       2.280   7.930   7.548  1.00  0.00     0.002 A 
HETATM   24  C24 UNL     1       0.953   7.976   7.964  1.00  0.00     0.001 A 
HETATM   25  C25 UNL     1       0.637   8.138   9.316  1.00  0.00     0.014 A 
ENDBRANCH  15  16
ENDBRANCH   9  15
BRANCH  13  26
HETATM   26  C29 UNL     1      -2.097   8.220  15.328  1.00  0.00     0.146 C 
HETATM   27  O4  UNL     1      -2.919   9.065  15.704  1.00  0.00    -0.297 OA
BRANCH  26  28
HETATM   28  C30 UNL     1      -0.870   7.919  16.176  1.00  0.00     0.081 C 
BRANCH  28  29
HETATM   29  C31 UNL     1       0.050   9.140  16.291  1.00  0.00     0.033 C 
BRANCH  29  30
HETATM   30  C32 UNL     1       1.528   8.764  16.281  1.00  0.00     0.164 C 
BRANCH  30  31
HETATM   31  O5  UNL     1       2.165   9.122  17.501  1.00  0.00    -0.401 OA
HETATM   32  H40 UNL     1       2.255  10.089  17.536  1.00  0.00     0.209 HD
ENDBRANCH  30  31
ENDBRANCH  29  30
ENDBRANCH  28  29
ENDBRANCH  26  28
ENDBRANCH  13  26
BRANCH   1  33
HETATM   33  C9  UNL     1      -4.753   6.916  14.955  1.00  0.00    -0.022 C 
HETATM   34  C8  UNL     1      -5.882   7.233  14.299  1.00  0.00    -0.029 C 
BRANCH  34  35
HETATM   35  C7  UNL     1      -7.118   7.781  14.960  1.00  0.00     0.035 C 
BRANCH  35  36
HETATM   36  C5  UNL     1      -8.422   7.096  14.494  1.00  0.00     0.008 C 
HETATM   37  C6  UNL     1      -9.482   7.030  15.602  1.00  0.00     0.014 C 
BRANCH  36  38
HETATM   38  C4  UNL     1      -8.104   5.692  14.028  1.00  0.00    -0.013 C 
HETATM   39  C2  UNL     1      -8.270   5.168  12.798  1.00  0.00    -0.028 C 
HETATM   40  C1  UNL     1      -8.830   5.846  11.587  1.00  0.00     0.051 C 
BRANCH  39  41
HETATM   41  C3  UNL     1      -7.859   3.744  12.585  1.00  0.00     0.265 C 
HETATM   42  O1  UNL     1      -8.267   2.801  13.252  1.00  0.00    -0.302 OA
ENDBRANCH  39  41
ENDBRANCH  36  38
ENDBRANCH  35  36
ENDBRANCH  34  35
ENDBRANCH   1  33
TORSDOF 12
ENDMDL
MODEL 7
REMARK minimizedAffinity -7.73487568
REMARK CNNscore 0.142850474
REMARK CNNaffinity 6.38647223
REMARK  12 active torsions:
REMARK  status: ('A' for Active; 'I' for Inactive)
REMARK    1  A    between atoms: C2_2  and  C3_3 
REMARK    2  A    between atoms: C4_5  and  C5_6 
REMARK    3  A    between atoms: C5_6  and  C7_8 
REMARK    4  A    between atoms: C7_8  and  C8_9 
REMARK    5  A    between atoms: C9_10  and  C10_11 
REMARK    6  A    between atoms: C17_19  and  C18_20 
REMARK    7  A    between atoms: C18_20  and  C19_21 
REMARK    8  A    between atoms: C28_33  and  C29_34 
REMARK    9  A    between atoms: C29_34  and  C30_36 
REMARK   10  A    between atoms: C30_36  and  C31_37 
REMARK   11  A    between atoms: C31_37  and  C32_38 
REMARK   12  A    between atoms: C32_38  and  O5_39 
ROOT
HETATM    1  C10 UNL     1       0.231   9.453  14.151  1.00  0.00     0.066 C 
HETATM    2  C11 UNL     1       1.410   8.579  13.767  1.00  0.00     0.166 A 
HETATM    3  O2  UNL     1       2.091   8.939  12.561  1.00  0.00    -0.368 OA
HETATM    4  C12 UNL     1       1.263   7.767  12.501  1.00  0.00     0.088 A 
HETATM    5  C13 UNL     1       2.034   6.493  12.371  1.00  0.00     0.049 C 
HETATM    6  C14 UNL     1      -0.038   7.973  11.757  1.00  0.00     0.026 C 
HETATM    7  C15 UNL     1      -0.162   7.153  10.473  1.00  0.00     0.014 C 
HETATM    8  C16 UNL     1      -1.259   7.839  12.717  1.00  0.00     0.041 C 
HETATM    9  C17 UNL     1      -1.632   6.384  13.082  1.00  0.00     0.095 C 
HETATM   10  N2  UNL     1      -1.230   6.253  14.454  1.00  0.00    -0.355 N 
HETATM   11  C27 UNL     1      -0.959   7.435  15.089  1.00  0.00     0.235 C 
HETATM   12  O3  UNL     1      -0.697   7.494  16.279  1.00  0.00    -0.272 OA
HETATM   13  C28 UNL     1      -1.070   8.586  14.105  1.00  0.00     0.116 C 
HETATM   14  H33 UNL     1      -1.205   5.378  14.970  1.00  0.00     0.162 HD
ENDROOT
BRANCH   9  15
HETATM   15  C18 UNL     1      -3.133   6.066  12.923  1.00  0.00     0.066 C 
BRANCH  15  16
HETATM   16  C19 UNL     1      -3.387   4.755  12.250  1.00  0.00    -0.028 A 
HETATM   17  C20 UNL     1      -2.496   4.067  11.447  1.00  0.00     0.096 A 
HETATM   18  N1  UNL     1      -3.109   2.926  11.003  1.00  0.00    -0.365 N 
HETATM   19  C21 UNL     1      -4.389   2.850  11.499  1.00  0.00     0.042 A 
HETATM   20  H28 UNL     1      -2.692   2.236  10.396  1.00  0.00     0.165 HD
HETATM   21  C22 UNL     1      -5.374   1.875  11.301  1.00  0.00     0.030 A 
HETATM   22  C26 UNL     1      -4.590   3.976  12.298  1.00  0.00    -0.002 A 
HETATM   23  C23 UNL     1      -6.605   2.059  11.936  1.00  0.00     0.002 A 
HETATM   24  C24 UNL     1      -6.839   3.171  12.738  1.00  0.00     0.001 A 
HETATM   25  C25 UNL     1      -5.842   4.133  12.928  1.00  0.00     0.014 A 
ENDBRANCH  15  16
ENDBRANCH   9  15
BRANCH  13  26
HETATM   26  C29 UNL     1      -2.275   9.505  14.326  1.00  0.00     0.146 C 
HETATM   27  O4  UNL     1      -2.374  10.546  13.666  1.00  0.00    -0.297 OA
BRANCH  26  28
HETATM   28  C30 UNL     1      -3.385   9.099  15.285  1.00  0.00     0.081 C 
BRANCH  28  29
HETATM   29  C31 UNL     1      -4.727   8.940  14.560  1.00  0.00     0.033 C 
BRANCH  29  30
HETATM   30  C32 UNL     1      -5.808   8.340  15.453  1.00  0.00     0.164 C 
BRANCH  30  31
HETATM   31  O5  UNL     1      -5.405   7.086  15.987  1.00  0.00    -0.401 OA
HETATM   32  H40 UNL     1      -5.411   6.425  15.275  1.00  0.00     0.209 HD
ENDBRANCH  30  31
ENDBRANCH  29  30
ENDBRANCH  28  29
ENDBRANCH  26  28
ENDBRANCH  13  26
BRANCH   1  33
HETATM   33  C9  UNL     1       0.389  10.289  15.414  1.00  0.00    -0.022 C 
HETATM   34  C8  UNL     1      -0.232  11.443  15.710  1.00  0.00    -0.029 C 
BRANCH  34  35
HETATM   35  C7  UNL     1      -0.029  12.209  16.990  1.00  0.00     0.035 C 
BRANCH  35  36
HETATM   36  C5  UNL     1      -0.060  11.319  18.254  1.00  0.00     0.008 C 
HETATM   37  C6  UNL     1      -1.482  10.899  18.644  1.00  0.00     0.014 C 
BRANCH  36  38
HETATM   38  C4  UNL     1       0.570  12.073  19.405  1.00  0.00    -0.013 C 
HETATM   39  C2  UNL     1       1.524  11.646  20.254  1.00  0.00    -0.028 C 
HETATM   40  C1  UNL     1       2.190  10.306  20.277  1.00  0.00     0.051 C 
BRANCH  39  41
HETATM   41  C3  UNL     1       1.995  12.598  21.310  1.00  0.00     0.265 C 
HETATM   42  O1  UNL     1       3.066  12.500  21.897  1.00  0.00    -0.302 OA
ENDBRANCH  39  41
ENDBRANCH  36  38
ENDBRANCH  35  36
ENDBRANCH  34  35
ENDBRANCH   1  33
TORSDOF 12
ENDMDL
MODEL 8
REMARK minimizedAffinity -8.74903297
REMARK CNNscore 0.13873665
REMARK CNNaffinity 6.9696393
REMARK  12 active torsions:
REMARK  status: ('A' for Active; 'I' for Inactive)
REMARK    1  A    between atoms: C2_2  and  C3_3 
REMARK    2  A    between atoms: C4_5  and  C5_6 
REMARK    3  A    between atoms: C5_6  and  C7_8 
REMARK    4  A    between atoms: C7_8  and  C8_9 
REMARK    5  A    between atoms: C9_10  and  C10_11 
REMARK    6  A    between atoms: C17_19  and  C18_20 
REMARK    7  A    between atoms: C18_20  and  C19_21 
REMARK    8  A    between atoms: C28_33  and  C29_34 
REMARK    9  A    between atoms: C29_34  and  C30_36 
REMARK   10  A    between atoms: C30_36  and  C31_37 
REMARK   11  A    between atoms: C31_37  and  C32_38 
REMARK   12  A    between atoms: C32_38  and  O5_39 
ROOT
HETATM    1  C10 UNL     1      -4.342   5.604  13.078  1.00  0.00     0.066 C 
HETATM    2  C11 UNL     1      -5.069   4.295  13.322  1.00  0.00     0.166 A 
HETATM    3  O2  UNL     1      -5.656   3.680  12.172  1.00  0.00    -0.368 OA
HETATM    4  C12 UNL     1      -6.563   4.302  13.096  1.00  0.00     0.088 A 
HETATM    5  C13 UNL     1      -7.409   3.330  13.854  1.00  0.00     0.049 C 
HETATM    6  C14 UNL     1      -7.130   5.617  12.608  1.00  0.00     0.026 C 
HETATM    7  C15 UNL     1      -8.640   5.599  12.373  1.00  0.00     0.014 C 
HETATM    8  C16 UNL     1      -6.639   6.802  13.494  1.00  0.00     0.041 C 
HETATM    9  C17 UNL     1      -7.361   6.929  14.854  1.00  0.00     0.095 C 
HETATM   10  N2  UNL     1      -6.378   6.515  15.815  1.00  0.00    -0.355 N 
HETATM   11  C27 UNL     1      -5.098   6.446  15.333  1.00  0.00     0.235 C 
HETATM   12  O3  UNL     1      -4.142   6.201  16.049  1.00  0.00    -0.272 OA
HETATM   13  C28 UNL     1      -5.091   6.743  13.844  1.00  0.00     0.116 C 
HETATM   14  H33 UNL     1      -6.564   6.347  16.799  1.00  0.00     0.162 HD
ENDROOT
BRANCH   9  15
HETATM   15  C18 UNL     1      -7.858   8.357  15.165  1.00  0.00     0.066 C 
BRANCH  15  16
HETATM   16  C19 UNL     1      -9.305   8.406  15.536  1.00  0.00    -0.028 A 
HETATM   17  C20 UNL     1      -9.814   8.672  16.794  1.00  0.00     0.096 A 
HETATM   18  N1  UNL     1     -11.180   8.603  16.730  1.00  0.00    -0.365 N 
HETATM   19  C21 UNL     1     -11.581   8.294  15.451  1.00  0.00     0.042 A 
HETATM   20  H28 UNL     1     -11.811   8.751  17.504  1.00  0.00     0.165 HD
HETATM   21  C22 UNL     1     -12.868   8.111  14.931  1.00  0.00     0.030 A 
HETATM   22  C26 UNL     1     -10.428   8.179  14.674  1.00  0.00    -0.002 A 
HETATM   23  C23 UNL     1     -12.980   7.797  13.575  1.00  0.00     0.002 A 
HETATM   24  C24 UNL     1     -11.851   7.672  12.771  1.00  0.00     0.001 A 
HETATM   25  C25 UNL     1     -10.574   7.863  13.307  1.00  0.00     0.014 A 
ENDBRANCH  15  16
ENDBRANCH   9  15
BRANCH  13  26
HETATM   26  C29 UNL     1      -4.459   8.084  13.461  1.00  0.00     0.146 C 
HETATM   27  O4  UNL     1      -4.719   8.586  12.361  1.00  0.00    -0.297 OA
BRANCH  26  28
HETATM   28  C30 UNL     1      -3.588   8.836  14.458  1.00  0.00     0.081 C 
BRANCH  28  29
HETATM   29  C31 UNL     1      -2.099   8.708  14.116  1.00  0.00     0.033 C 
BRANCH  29  30
HETATM   30  C32 UNL     1      -1.741   9.382  12.795  1.00  0.00     0.164 C 
BRANCH  30  31
HETATM   31  O5  UNL     1      -0.334   9.411  12.591  1.00  0.00    -0.401 OA
HETATM   32  H40 UNL     1       0.059  10.056  13.202  1.00  0.00     0.209 HD
ENDBRANCH  30  31
ENDBRANCH  29  30
ENDBRANCH  28  29
ENDBRANCH  26  28
ENDBRANCH  13  26
BRANCH   1  33
HETATM   33  C9  UNL     1      -2.833   5.590  13.283  1.00  0.00    -0.022 C 
HETATM   34  C8  UNL     1      -1.883   5.480  12.339  1.00  0.00    -0.029 C 
BRANCH  34  35
HETATM   35  C7  UNL     1      -0.405   5.484  12.622  1.00  0.00     0.035 C 
BRANCH  35  36
HETATM   36  C5  UNL     1       0.468   5.576  11.350  1.00  0.00     0.008 C 
HETATM   37  C6  UNL     1       1.960   5.733  11.668  1.00  0.00     0.014 C 
BRANCH  36  38
HETATM   38  C4  UNL     1       0.009   6.755  10.520  1.00  0.00    -0.013 C 
HETATM   39  C2  UNL     1       0.609   7.296   9.443  1.00  0.00    -0.028 C 
HETATM   40  C1  UNL     1       1.894   6.868   8.805  1.00  0.00     0.051 C 
BRANCH  39  41
HETATM   41  C3  UNL     1      -0.059   8.461   8.782  1.00  0.00     0.265 C 
HETATM   42  O1  UNL     1      -0.789   9.257   9.362  1.00  0.00    -0.302 OA
ENDBRANCH  39  41
ENDBRANCH  36  38
ENDBRANCH  35  36
ENDBRANCH  34  35
ENDBRANCH   1  33
TORSDOF 12
ENDMDL
MODEL 9
REMARK minimizedAffinity -8.49456215
REMARK CNNscore 0.121408977
REMARK CNNaffinity 6.56338644
REMARK  12 active torsions:
REMARK  status: ('A' for Active; 'I' for Inactive)
REMARK    1  A    between atoms: C2_2  and  C3_3 
REMARK    2  A    between atoms: C4_5  and  C5_6 
REMARK    3  A    between atoms: C5_6  and  C7_8 
REMARK    4  A    between atoms: C7_8  and  C8_9 
REMARK    5  A    between atoms: C9_10  and  C10_11 
REMARK    6  A    between atoms: C17_19  and  C18_20 
REMARK    7  A    between atoms: C18_20  and  C19_21 
REMARK    8  A    between atoms: C28_33  and  C29_34 
REMARK    9  A    between atoms: C29_34  and  C30_36 
REMARK   10  A    between atoms: C30_36  and  C31_37 
REMARK   11  A    between atoms: C31_37  and  C32_38 
REMARK   12  A    between atoms: C32_38  and  O5_39 
ROOT
HETATM    1  C10 UNL     1      -1.212   5.801  11.540  1.00  0.00     0.066 C 
HETATM    2  C11 UNL     1      -1.624   4.341  11.516  1.00  0.00     0.166 A 
HETATM    3  O2  UNL     1      -2.657   3.997  10.588  1.00  0.00    -0.368 OA
HETATM    4  C12 UNL     1      -3.030   4.030  11.974  1.00  0.00     0.088 A 
HETATM    5  C13 UNL     1      -3.315   2.681  12.552  1.00  0.00     0.049 C 
HETATM    6  C14 UNL     1      -3.860   5.236  12.357  1.00  0.00     0.026 C 
HETATM    7  C15 UNL     1      -5.282   4.901  12.805  1.00  0.00     0.014 C 
HETATM    8  C16 UNL     1      -3.083   6.159  13.345  1.00  0.00     0.041 C 
HETATM    9  C17 UNL     1      -3.045   5.650  14.804  1.00  0.00     0.095 C 
HETATM   10  N2  UNL     1      -1.687   5.221  14.991  1.00  0.00    -0.355 N 
HETATM   11  C27 UNL     1      -0.813   5.647  14.028  1.00  0.00     0.235 C 
HETATM   12  O3  UNL     1       0.388   5.444  14.098  1.00  0.00    -0.272 OA
HETATM   13  C28 UNL     1      -1.565   6.397  12.943  1.00  0.00     0.116 C 
HETATM   14  H33 UNL     1      -1.349   4.704  15.797  1.00  0.00     0.162 HD
ENDROOT
BRANCH   9  15
HETATM   15  C18 UNL     1      -3.426   6.721  15.848  1.00  0.00     0.066 C 
BRANCH  15  16
HETATM   16  C19 UNL     1      -4.628   7.520  15.456  1.00  0.00    -0.028 A 
HETATM   17  C20 UNL     1      -4.618   8.792  14.916  1.00  0.00     0.096 A 
HETATM   18  N1  UNL     1      -5.914   9.186  14.718  1.00  0.00    -0.365 N 
HETATM   19  C21 UNL     1      -6.779   8.195  15.119  1.00  0.00     0.042 A 
HETATM   20  H28 UNL     1      -6.205  10.075  14.338  1.00  0.00     0.165 HD
HETATM   21  C22 UNL     1      -8.179   8.165  15.111  1.00  0.00     0.030 A 
HETATM   22  C26 UNL     1      -6.003   7.129  15.573  1.00  0.00    -0.002 A 
HETATM   23  C23 UNL     1      -8.805   7.010  15.586  1.00  0.00     0.002 A 
HETATM   24  C24 UNL     1      -8.061   5.929  16.048  1.00  0.00     0.001 A 
HETATM   25  C25 UNL     1      -6.663   5.975  16.044  1.00  0.00     0.014 A 
ENDBRANCH  15  16
ENDBRANCH   9  15
BRANCH  13  26
HETATM   26  C29 UNL     1      -1.307   7.906  12.909  1.00  0.00     0.146 C 
HETATM   27  O4  UNL     1      -2.007   8.626  12.188  1.00  0.00    -0.297 OA
BRANCH  26  28
HETATM   28  C30 UNL     1      -0.257   8.526  13.820  1.00  0.00     0.081 C 
BRANCH  28  29
HETATM   29  C31 UNL     1      -0.900   9.348  14.944  1.00  0.00     0.033 C 
BRANCH  29  30
HETATM   30  C32 UNL     1      -0.457   8.892  16.331  1.00  0.00     0.164 C 
BRANCH  30  31
HETATM   31  O5  UNL     1       0.180   7.622  16.281  1.00  0.00    -0.401 OA
HETATM   32  H40 UNL     1      -0.490   6.941  16.104  1.00  0.00     0.209 HD
ENDBRANCH  30  31
ENDBRANCH  29  30
ENDBRANCH  28  29
ENDBRANCH  26  28
ENDBRANCH  13  26
BRANCH   1  33
HETATM   33  C9  UNL     1       0.197   6.117  11.056  1.00  0.00    -0.022 C 
HETATM   34  C8  UNL     1       1.268   5.307  11.082  1.00  0.00    -0.029 C 
BRANCH  34  35
HETATM   35  C7  UNL     1       2.632   5.690  10.574  1.00  0.00     0.035 C 
BRANCH  35  36
HETATM   36  C5  UNL     1       2.602   6.822   9.522  1.00  0.00     0.008 C 
HETATM   37  C6  UNL     1       2.804   6.304   8.092  1.00  0.00     0.014 C 
BRANCH  36  38
HETATM   38  C4  UNL     1       3.688   7.825   9.845  1.00  0.00    -0.013 C 
HETATM   39  C2  UNL     1       4.898   7.592  10.389  1.00  0.00    -0.028 C 
HETATM   40  C1  UNL     1       5.463   6.276  10.825  1.00  0.00     0.051 C 
BRANCH  39  41
HETATM   41  C3  UNL     1       5.808   8.764  10.596  1.00  0.00     0.265 C 
HETATM   42  O1  UNL     1       6.946   8.682  11.044  1.00  0.00    -0.302 OA
ENDBRANCH  39  41
ENDBRANCH  36  38
ENDBRANCH  35  36
ENDBRANCH  34  35
ENDBRANCH   1  33
TORSDOF 12
ENDMDL
