MODEL 1
REMARK minimizedAffinity -8.09196568
REMARK CNNscore 0.490963191
REMARK CNNaffinity 5.95793486
REMARK  12 active torsions:
REMARK  status: ('A' for Active; 'I' for Inactive)
REMARK    1  A    between atoms: C19_21  and  O3_22 
REMARK    2  A    between atoms: C19_21  and  C20_23 
REMARK    3  A    between atoms: C20_23  and  C21_25 
REMARK    4  A    between atoms: C21_25  and  O5_26 
REMARK    5  A    between atoms: O5_26  and  C22_27 
REMARK    6  A    between atoms: C22_27  and  C23_29 
REMARK    7  A    between atoms: C23_29  and  C24_30 
REMARK    8  A    between atoms: C24_30  and  C25_31 
REMARK       I    between atoms: C25_31  and  N1_33 
REMARK    9  A    between atoms: N1_33  and  C26_34 
REMARK   10  A    between atoms: C26_34  and  C27_35 
REMARK   11  A    between atoms: C30_38  and  C31_39 
REMARK   12  A    between atoms: C31_39  and  O9_41 
ROOT
HETATM    1  C1  UNL     1      -1.454  50.083 -24.218  1.00  0.00     0.021 C 
HETATM    2  C2  UNL     1      -2.062  50.672 -22.921  1.00  0.00    -0.009 C 
HETATM    3  C3  UNL     1      -1.868  52.212 -22.895  1.00  0.00     0.022 C 
HETATM    4  C4  UNL     1      -0.397  52.634 -22.898  1.00  0.00     0.084 C 
HETATM    5  C5  UNL     1       0.437  51.850 -21.916  1.00  0.00     0.149 C 
HETATM    6  O1  UNL     1       1.588  52.172 -21.640  1.00  0.00    -0.293 OA
HETATM    7  C6  UNL     1      -0.148  50.647 -21.275  1.00  0.00     0.053 C 
HETATM    8  C7  UNL     1      -1.302  50.110 -21.707  1.00  0.00    -0.067 C 
HETATM    9  C8  UNL     1      -1.943  48.986 -20.922  1.00  0.00     0.035 C 
HETATM   10  C9  UNL     1      -2.772  48.031 -21.773  1.00  0.00     0.010 C 
HETATM   11  C10 UNL     1      -3.752  48.728 -22.735  1.00  0.00     0.003 C 
HETATM   12  C11 UNL     1      -3.563  50.278 -22.763  1.00  0.00     0.072 C 
HETATM   13  C12 UNL     1      -4.552  50.868 -23.780  1.00  0.00     0.133 C 
HETATM   14  O2  UNL     1      -4.221  51.588 -24.718  1.00  0.00    -0.297 OA
HETATM   15  C13 UNL     1      -6.020  50.523 -23.552  1.00  0.00     0.091 C 
HETATM   16  C14 UNL     1      -6.184  48.996 -23.552  1.00  0.00     0.005 C 
HETATM   17  C15 UNL     1      -5.872  48.457 -24.976  1.00  0.00     0.019 C 
HETATM   18  C16 UNL     1      -5.235  48.426 -22.453  1.00  0.00     0.002 C 
HETATM   19  C17 UNL     1      -5.667  46.970 -22.336  1.00  0.00     0.009 C 
HETATM   20  C18 UNL     1      -7.185  46.996 -22.581  1.00  0.00     0.047 C 
HETATM   21  C19 UNL     1      -7.550  48.439 -23.049  1.00  0.00     0.128 C 
ENDROOT
BRANCH  21  22
HETATM   22  O3  UNL     1      -7.959  49.165 -21.888  1.00  0.00    -0.381 OA
HETATM   23  H25 UNL     1      -8.672  48.649 -21.460  1.00  0.00     0.211 HD
ENDBRANCH  21  22
BRANCH  21  24
HETATM   24  C20 UNL     1      -8.674  48.431 -24.119  1.00  0.00     0.185 C 
HETATM   25  O4  UNL     1      -8.941  49.438 -24.784  1.00  0.00    -0.292 OA
BRANCH  24  26
HETATM   26  C21 UNL     1      -9.532  47.167 -24.273  1.00  0.00     0.260 C 
BRANCH  26  27
HETATM   27  O5  UNL     1     -10.781  47.228 -24.949  1.00  0.00    -0.314 OA
BRANCH  27  28
HETATM   28  C22 UNL     1     -11.801  46.573 -24.327  1.00  0.00     0.259 C 
HETATM   29  O6  UNL     1     -12.383  46.985 -23.332  1.00  0.00    -0.265 OA
BRANCH  28  30
HETATM   30  C23 UNL     1     -12.142  45.299 -25.049  1.00  0.00     0.120 C 
BRANCH  30  31
HETATM   31  C24 UNL     1     -12.401  45.588 -26.522  1.00  0.00     0.112 C 
BRANCH  31  32
HETATM   32  C25 UNL     1     -13.877  45.713 -26.823  1.00  0.00     0.218 C 
HETATM   33  O7  UNL     1     -14.347  46.600 -27.526  1.00  0.00    -0.274 OA
HETATM   34  N1  UNL     1     -14.630  44.745 -26.196  1.00  0.00    -0.361 N 
HETATM   35  H32 UNL     1     -14.160  44.047 -25.629  1.00  0.00     0.162 HD
BRANCH  34  36
HETATM   36  C26 UNL     1     -16.079  44.724 -26.241  1.00  0.00     0.127 C 
BRANCH  36  37
HETATM   37  C27 UNL     1     -16.724  45.691 -25.231  1.00  0.00     0.003 C 
HETATM   38  C28 UNL     1     -16.500  45.248 -23.778  1.00  0.00     0.007 C 
HETATM   39  C29 UNL     1     -17.120  46.234 -22.787  1.00  0.00     0.015 C 
HETATM   40  C30 UNL     1     -18.612  46.468 -23.049  1.00  0.00     0.084 C 
HETATM   41  C32 UNL     1     -18.878  46.841 -24.514  1.00  0.00     0.015 C 
HETATM   42  C33 UNL     1     -18.221  45.893 -25.516  1.00  0.00     0.007 C 
BRANCH  40  43
HETATM   43  C31 UNL     1     -19.433  45.273 -22.610  1.00  0.00     0.143 C 
HETATM   44  O8  UNL     1     -20.330  44.724 -23.225  1.00  0.00    -0.650 OA
BRANCH  43  45
HETATM   45  O9  UNL     1     -19.073  44.826 -21.391  1.00  0.00    -0.776 OA
HETATM   46  H41 UNL     1     -19.671  44.066 -21.228  1.00  0.00     0.167 HD
ENDBRANCH  43  45
ENDBRANCH  40  43
ENDBRANCH  36  37
ENDBRANCH  34  36
ENDBRANCH  31  32
ENDBRANCH  30  31
ENDBRANCH  28  30
ENDBRANCH  27  28
ENDBRANCH  26  27
ENDBRANCH  24  26
ENDBRANCH  21  24
TORSDOF 12
ENDMDL
MODEL 2
REMARK minimizedAffinity -8.90528679
REMARK CNNscore 0.470445424
REMARK CNNaffinity 6.86076975
REMARK  12 active torsions:
REMARK  status: ('A' for Active; 'I' for Inactive)
REMARK    1  A    between atoms: C19_21  and  O3_22 
REMARK    2  A    between atoms: C19_21  and  C20_23 
REMARK    3  A    between atoms: C20_23  and  C21_25 
REMARK    4  A    between atoms: C21_25  and  O5_26 
REMARK    5  A    between atoms: O5_26  and  C22_27 
REMARK    6  A    between atoms: C22_27  and  C23_29 
REMARK    7  A    between atoms: C23_29  and  C24_30 
REMARK    8  A    between atoms: C24_30  and  C25_31 
REMARK       I    between atoms: C25_31  and  N1_33 
REMARK    9  A    between atoms: N1_33  and  C26_34 
REMARK   10  A    between atoms: C26_34  and  C27_35 
REMARK   11  A    between atoms: C30_38  and  C31_39 
REMARK   12  A    between atoms: C31_39  and  O9_41 
ROOT
HETATM    1  C1  UNL     1      -2.319  52.803 -24.650  1.00  0.00     0.021 C 
HETATM    2  C2  UNL     1      -1.138  51.814 -24.816  1.00  0.00    -0.009 C 
HETATM    3  C3  UNL     1       0.197  52.596 -24.934  1.00  0.00     0.022 C 
HETATM    4  C4  UNL     1       0.248  53.520 -26.153  1.00  0.00     0.084 C 
HETATM    5  C5  UNL     1      -0.233  52.849 -27.414  1.00  0.00     0.149 C 
HETATM    6  O1  UNL     1      -0.087  53.363 -28.519  1.00  0.00    -0.293 OA
HETATM    7  C6  UNL     1      -0.914  51.534 -27.315  1.00  0.00     0.053 C 
HETATM    8  C7  UNL     1      -1.312  51.037 -26.132  1.00  0.00    -0.067 C 
HETATM    9  C8  UNL     1      -1.852  49.625 -26.060  1.00  0.00     0.035 C 
HETATM   10  C9  UNL     1      -2.864  49.405 -24.941  1.00  0.00     0.010 C 
HETATM   11  C10 UNL     1      -2.418  49.949 -23.570  1.00  0.00     0.003 C 
HETATM   12  C11 UNL     1      -1.095  50.773 -23.654  1.00  0.00     0.072 C 
HETATM   13  C12 UNL     1      -0.766  51.305 -22.251  1.00  0.00     0.133 C 
HETATM   14  O2  UNL     1      -0.579  52.492 -21.995  1.00  0.00    -0.297 OA
HETATM   15  C13 UNL     1      -0.658  50.252 -21.152  1.00  0.00     0.091 C 
HETATM   16  C14 UNL     1      -1.979  49.472 -21.074  1.00  0.00     0.005 C 
HETATM   17  C15 UNL     1      -3.102  50.430 -20.588  1.00  0.00     0.019 C 
HETATM   18  C16 UNL     1      -2.248  48.869 -22.487  1.00  0.00     0.002 C 
HETATM   19  C17 UNL     1      -3.399  47.901 -22.243  1.00  0.00     0.009 C 
HETATM   20  C18 UNL     1      -3.143  47.342 -20.833  1.00  0.00     0.047 C 
HETATM   21  C19 UNL     1      -1.971  48.168 -20.218  1.00  0.00     0.128 C 
ENDROOT
BRANCH  21  22
HETATM   22  O3  UNL     1      -0.767  47.442 -20.472  1.00  0.00    -0.381 OA
HETATM   23  H25 UNL     1      -0.895  46.536 -20.124  1.00  0.00     0.211 HD
ENDBRANCH  21  22
BRANCH  21  24
HETATM   24  C20 UNL     1      -2.165  48.399 -18.696  1.00  0.00     0.185 C 
HETATM   25  O4  UNL     1      -2.888  47.661 -18.016  1.00  0.00    -0.292 OA
BRANCH  24  26
HETATM   26  C21 UNL     1      -1.520  49.634 -18.052  1.00  0.00     0.260 C 
BRANCH  26  27
HETATM   27  O5  UNL     1      -1.239  49.652 -16.659  1.00  0.00    -0.314 OA
BRANCH  27  28
HETATM   28  C22 UNL     1      -0.080  50.281 -16.317  1.00  0.00     0.259 C 
HETATM   29  O6  UNL     1       0.735  50.714 -17.122  1.00  0.00    -0.265 OA
BRANCH  28  30
HETATM   30  C23 UNL     1       0.042  50.411 -14.824  1.00  0.00     0.120 C 
BRANCH  30  31
HETATM   31  C24 UNL     1       0.915  51.610 -14.475  1.00  0.00     0.112 C 
BRANCH  31  32
HETATM   32  C25 UNL     1       0.819  51.971 -13.010  1.00  0.00     0.218 C 
HETATM   33  O7  UNL     1      -0.189  51.789 -12.337  1.00  0.00    -0.274 OA
HETATM   34  N1  UNL     1       1.971  52.555 -12.531  1.00  0.00    -0.361 N 
HETATM   35  H32 UNL     1       2.760  52.672 -13.157  1.00  0.00     0.162 HD
BRANCH  34  36
HETATM   36  C26 UNL     1       2.082  53.090 -11.188  1.00  0.00     0.127 C 
BRANCH  36  37
HETATM   37  C27 UNL     1       3.510  53.551 -10.842  1.00  0.00     0.003 C 
HETATM   38  C28 UNL     1       4.064  52.844  -9.597  1.00  0.00     0.007 C 
HETATM   39  C29 UNL     1       5.492  53.290  -9.284  1.00  0.00     0.015 C 
HETATM   40  C30 UNL     1       5.612  54.810  -9.131  1.00  0.00     0.084 C 
HETATM   41  C32 UNL     1       5.000  55.550 -10.329  1.00  0.00     0.015 C 
HETATM   42  C33 UNL     1       3.590  55.078 -10.685  1.00  0.00     0.007 C 
BRANCH  40  43
HETATM   43  C31 UNL     1       5.017  55.271  -7.817  1.00  0.00     0.143 C 
HETATM   44  O8  UNL     1       4.749  54.587  -6.843  1.00  0.00    -0.650 OA
BRANCH  43  45
HETATM   45  O9  UNL     1       4.783  56.598  -7.799  1.00  0.00    -0.776 OA
HETATM   46  H41 UNL     1       4.405  56.762  -6.909  1.00  0.00     0.167 HD
ENDBRANCH  43  45
ENDBRANCH  40  43
ENDBRANCH  36  37
ENDBRANCH  34  36
ENDBRANCH  31  32
ENDBRANCH  30  31
ENDBRANCH  28  30
ENDBRANCH  27  28
ENDBRANCH  26  27
ENDBRANCH  24  26
ENDBRANCH  21  24
TORSDOF 12
ENDMDL
MODEL 3
REMARK minimizedAffinity -8.16233063
REMARK CNNscore 0.420587212
REMARK CNNaffinity 6.59982824
REMARK  12 active torsions:
REMARK  status: ('A' for Active; 'I' for Inactive)
REMARK    1  A    between atoms: C19_21  and  O3_22 
REMARK    2  A    between atoms: C19_21  and  C20_23 
REMARK    3  A    between atoms: C20_23  and  C21_25 
REMARK    4  A    between atoms: C21_25  and  O5_26 
REMARK    5  A    between atoms: O5_26  and  C22_27 
REMARK    6  A    between atoms: C22_27  and  C23_29 
REMARK    7  A    between atoms: C23_29  and  C24_30 
REMARK    8  A    between atoms: C24_30  and  C25_31 
REMARK       I    between atoms: C25_31  and  N1_33 
REMARK    9  A    between atoms: N1_33  and  C26_34 
REMARK   10  A    between atoms: C26_34  and  C27_35 
REMARK   11  A    between atoms: C30_38  and  C31_39 
REMARK   12  A    between atoms: C31_39  and  O9_41 
ROOT
HETATM    1  C1  UNL     1      -2.371  52.742 -24.664  1.00  0.00     0.021 C 
HETATM    2  C2  UNL     1      -1.187  51.753 -24.797  1.00  0.00    -0.009 C 
HETATM    3  C3  UNL     1       0.150  52.536 -24.897  1.00  0.00     0.022 C 
HETATM    4  C4  UNL     1       0.224  53.447 -26.124  1.00  0.00     0.084 C 
HETATM    5  C5  UNL     1      -0.232  52.763 -27.388  1.00  0.00     0.149 C 
HETATM    6  O1  UNL     1      -0.066  53.266 -28.495  1.00  0.00    -0.293 OA
HETATM    7  C6  UNL     1      -0.913  51.449 -27.289  1.00  0.00     0.053 C 
HETATM    8  C7  UNL     1      -1.334  50.962 -26.108  1.00  0.00    -0.067 C 
HETATM    9  C8  UNL     1      -1.874  49.550 -26.033  1.00  0.00     0.035 C 
HETATM   10  C9  UNL     1      -2.907  49.340 -24.931  1.00  0.00     0.010 C 
HETATM   11  C10 UNL     1      -2.489  49.899 -23.558  1.00  0.00     0.003 C 
HETATM   12  C11 UNL     1      -1.165  50.724 -23.624  1.00  0.00     0.072 C 
HETATM   13  C12 UNL     1      -0.864  51.271 -22.221  1.00  0.00     0.133 C 
HETATM   14  O2  UNL     1      -0.683  52.460 -21.973  1.00  0.00    -0.297 OA
HETATM   15  C13 UNL     1      -0.777  50.228 -21.110  1.00  0.00     0.091 C 
HETATM   16  C14 UNL     1      -2.098  49.447 -21.049  1.00  0.00     0.005 C 
HETATM   17  C15 UNL     1      -3.231  50.409 -20.594  1.00  0.00     0.019 C 
HETATM   18  C16 UNL     1      -2.339  48.830 -22.461  1.00  0.00     0.002 C 
HETATM   19  C17 UNL     1      -3.493  47.863 -22.230  1.00  0.00     0.009 C 
HETATM   20  C18 UNL     1      -3.263  47.319 -20.809  1.00  0.00     0.047 C 
HETATM   21  C19 UNL     1      -2.105  48.152 -20.180  1.00  0.00     0.128 C 
ENDROOT
BRANCH  21  22
HETATM   22  O3  UNL     1      -0.895  47.425 -20.404  1.00  0.00    -0.381 OA
HETATM   23  H25 UNL     1      -1.029  46.523 -20.049  1.00  0.00     0.211 HD
ENDBRANCH  21  22
BRANCH  21  24
HETATM   24  C20 UNL     1      -2.328  48.398 -18.665  1.00  0.00     0.185 C 
HETATM   25  O4  UNL     1      -3.420  48.177 -18.127  1.00  0.00    -0.292 OA
BRANCH  24  26
HETATM   26  C21 UNL     1      -1.191  49.026 -17.846  1.00  0.00     0.260 C 
BRANCH  26  27
HETATM   27  O5  UNL     1      -1.059  48.734 -16.461  1.00  0.00    -0.314 OA
BRANCH  27  28
HETATM   28  C22 UNL     1       0.128  49.109 -15.909  1.00  0.00     0.259 C 
HETATM   29  O6  UNL     1       0.867  49.967 -16.373  1.00  0.00    -0.265 OA
BRANCH  28  30
HETATM   30  C23 UNL     1       0.387  48.359 -14.631  1.00  0.00     0.120 C 
BRANCH  30  31
HETATM   31  C24 UNL     1       1.516  47.356 -14.835  1.00  0.00     0.112 C 
BRANCH  31  32
HETATM   32  C25 UNL     1       1.066  45.937 -14.570  1.00  0.00     0.218 C 
HETATM   33  O7  UNL     1       0.054  45.660 -13.937  1.00  0.00    -0.274 OA
HETATM   34  N1  UNL     1       1.933  45.001 -15.089  1.00  0.00    -0.361 N 
HETATM   35  H32 UNL     1       2.751  45.316 -15.598  1.00  0.00     0.162 HD
BRANCH  34  36
HETATM   36  C26 UNL     1       1.777  43.576 -14.867  1.00  0.00     0.127 C 
BRANCH  36  37
HETATM   37  C27 UNL     1       0.944  42.887 -15.963  1.00  0.00     0.003 C 
HETATM   38  C28 UNL     1       0.011  41.808 -15.393  1.00  0.00     0.007 C 
HETATM   39  C29 UNL     1      -0.830  41.154 -16.489  1.00  0.00     0.015 C 
HETATM   40  C30 UNL     1       0.027  40.574 -17.618  1.00  0.00     0.084 C 
HETATM   41  C32 UNL     1       1.024  41.607 -18.162  1.00  0.00     0.015 C 
HETATM   42  C33 UNL     1       1.836  42.306 -17.072  1.00  0.00     0.007 C 
BRANCH  40  43
HETATM   43  C31 UNL     1       0.717  39.300 -17.175  1.00  0.00     0.143 C 
HETATM   44  O8  UNL     1       1.539  39.173 -16.284  1.00  0.00    -0.650 OA
BRANCH  43  45
HETATM   45  O9  UNL     1       0.328  38.231 -17.896  1.00  0.00    -0.776 OA
HETATM   46  H41 UNL     1       0.840  37.486 -17.516  1.00  0.00     0.167 HD
ENDBRANCH  43  45
ENDBRANCH  40  43
ENDBRANCH  36  37
ENDBRANCH  34  36
ENDBRANCH  31  32
ENDBRANCH  30  31
ENDBRANCH  28  30
ENDBRANCH  27  28
ENDBRANCH  26  27
ENDBRANCH  24  26
ENDBRANCH  21  24
TORSDOF 12
ENDMDL
MODEL 4
REMARK minimizedAffinity -8.05105495
REMARK CNNscore 0.391907662
REMARK CNNaffinity 5.83648157
REMARK  12 active torsions:
REMARK  status: ('A' for Active; 'I' for Inactive)
REMARK    1  A    between atoms: C19_21  and  O3_22 
REMARK    2  A    between atoms: C19_21  and  C20_23 
REMARK    3  A    between atoms: C20_23  and  C21_25 
REMARK    4  A    between atoms: C21_25  and  O5_26 
REMARK    5  A    between atoms: O5_26  and  C22_27 
REMARK    6  A    between atoms: C22_27  and  C23_29 
REMARK    7  A    between atoms: C23_29  and  C24_30 
REMARK    8  A    between atoms: C24_30  and  C25_31 
REMARK       I    between atoms: C25_31  and  N1_33 
REMARK    9  A    between atoms: N1_33  and  C26_34 
REMARK   10  A    between atoms: C26_34  and  C27_35 
REMARK   11  A    between atoms: C30_38  and  C31_39 
REMARK   12  A    between atoms: C31_39  and  O9_41 
ROOT
HETATM    1  C1  UNL     1      -7.815  47.351 -32.650  1.00  0.00     0.021 C 
HETATM    2  C2  UNL     1      -7.082  47.201 -31.294  1.00  0.00    -0.009 C 
HETATM    3  C3  UNL     1      -6.105  48.389 -31.083  1.00  0.00     0.022 C 
HETATM    4  C4  UNL     1      -5.009  48.463 -32.148  1.00  0.00     0.084 C 
HETATM    5  C5  UNL     1      -4.367  47.126 -32.419  1.00  0.00     0.149 C 
HETATM    6  O1  UNL     1      -3.348  47.020 -33.095  1.00  0.00    -0.293 OA
HETATM    7  C6  UNL     1      -4.993  45.901 -31.863  1.00  0.00     0.053 C 
HETATM    8  C7  UNL     1      -6.224  45.925 -31.323  1.00  0.00    -0.067 C 
HETATM    9  C8  UNL     1      -6.754  44.693 -30.622  1.00  0.00     0.035 C 
HETATM   10  C9  UNL     1      -8.272  44.556 -30.674  1.00  0.00     0.010 C 
HETATM   11  C10 UNL     1      -9.036  45.840 -30.295  1.00  0.00     0.003 C 
HETATM   12  C11 UNL     1      -8.089  47.067 -30.110  1.00  0.00     0.072 C 
HETATM   13  C12 UNL     1      -8.949  48.296 -29.781  1.00  0.00     0.133 C 
HETATM   14  O2  UNL     1      -8.914  49.346 -30.418  1.00  0.00    -0.297 OA
HETATM   15  C13 UNL     1      -9.869  48.157 -28.572  1.00  0.00     0.091 C 
HETATM   16  C14 UNL     1     -10.805  46.959 -28.789  1.00  0.00     0.005 C 
HETATM   17  C15 UNL     1     -11.761  47.275 -29.972  1.00  0.00     0.019 C 
HETATM   18  C16 UNL     1      -9.908  45.706 -29.035  1.00  0.00     0.002 C 
HETATM   19  C17 UNL     1     -10.894  44.548 -28.956  1.00  0.00     0.009 C 
HETATM   20  C18 UNL     1     -11.919  44.983 -27.895  1.00  0.00     0.047 C 
HETATM   21  C19 UNL     1     -11.618  46.474 -27.550  1.00  0.00     0.128 C 
ENDROOT
BRANCH  21  22
HETATM   22  O3  UNL     1     -10.772  46.475 -26.398  1.00  0.00    -0.381 OA
HETATM   23  H25 UNL     1     -11.222  45.947 -25.708  1.00  0.00     0.211 HD
ENDBRANCH  21  22
BRANCH  21  24
HETATM   24  C20 UNL     1     -12.918  47.277 -27.281  1.00  0.00     0.185 C 
HETATM   25  O4  UNL     1     -12.967  48.502 -27.441  1.00  0.00    -0.292 OA
BRANCH  24  26
HETATM   26  C21 UNL     1     -14.133  46.536 -26.705  1.00  0.00     0.260 C 
BRANCH  26  27
HETATM   27  O5  UNL     1     -15.070  45.913 -27.574  1.00  0.00    -0.314 OA
BRANCH  27  28
HETATM   28  C22 UNL     1     -15.830  44.942 -26.994  1.00  0.00     0.259 C 
HETATM   29  O6  UNL     1     -15.813  43.763 -27.322  1.00  0.00    -0.265 OA
BRANCH  28  30
HETATM   30  C23 UNL     1     -16.656  45.504 -25.870  1.00  0.00     0.120 C 
BRANCH  30  31
HETATM   31  C24 UNL     1     -18.133  45.478 -26.245  1.00  0.00     0.112 C 
BRANCH  31  32
HETATM   32  C25 UNL     1     -19.020  45.838 -25.076  1.00  0.00     0.218 C 
HETATM   33  O7  UNL     1     -19.861  46.728 -25.119  1.00  0.00    -0.274 OA
HETATM   34  N1  UNL     1     -18.754  45.081 -23.956  1.00  0.00    -0.361 N 
HETATM   35  H32 UNL     1     -18.037  44.365 -24.005  1.00  0.00     0.162 HD
BRANCH  34  36
HETATM   36  C26 UNL     1     -19.395  45.317 -22.677  1.00  0.00     0.127 C 
BRANCH  36  37
HETATM   37  C27 UNL     1     -18.563  46.216 -21.745  1.00  0.00     0.003 C 
HETATM   38  C28 UNL     1     -17.055  45.972 -21.896  1.00  0.00     0.007 C 
HETATM   39  C29 UNL     1     -16.241  46.893 -20.986  1.00  0.00     0.015 C 
HETATM   40  C30 UNL     1     -16.654  46.778 -19.515  1.00  0.00     0.084 C 
HETATM   41  C32 UNL     1     -18.170  46.944 -19.338  1.00  0.00     0.015 C 
HETATM   42  C33 UNL     1     -18.996  46.066 -20.277  1.00  0.00     0.007 C 
BRANCH  40  43
HETATM   43  C31 UNL     1     -16.151  45.483 -18.911  1.00  0.00     0.143 C 
HETATM   44  O8  UNL     1     -15.117  45.307 -18.291  1.00  0.00    -0.650 OA
BRANCH  43  45
HETATM   45  O9  UNL     1     -16.997  44.457 -19.128  1.00  0.00    -0.776 OA
HETATM   46  H41 UNL     1     -16.561  43.692 -18.694  1.00  0.00     0.167 HD
ENDBRANCH  43  45
ENDBRANCH  40  43
ENDBRANCH  36  37
ENDBRANCH  34  36
ENDBRANCH  31  32
ENDBRANCH  30  31
ENDBRANCH  28  30
ENDBRANCH  27  28
ENDBRANCH  26  27
ENDBRANCH  24  26
ENDBRANCH  21  24
TORSDOF 12
ENDMDL
MODEL 5
REMARK minimizedAffinity -8.33130741
REMARK CNNscore 0.388087094
REMARK CNNaffinity 6.70129967
REMARK  12 active torsions:
REMARK  status: ('A' for Active; 'I' for Inactive)
REMARK    1  A    between atoms: C19_21  and  O3_22 
REMARK    2  A    between atoms: C19_21  and  C20_23 
REMARK    3  A    between atoms: C20_23  and  C21_25 
REMARK    4  A    between atoms: C21_25  and  O5_26 
REMARK    5  A    between atoms: O5_26  and  C22_27 
REMARK    6  A    between atoms: C22_27  and  C23_29 
REMARK    7  A    between atoms: C23_29  and  C24_30 
REMARK    8  A    between atoms: C24_30  and  C25_31 
REMARK       I    between atoms: C25_31  and  N1_33 
REMARK    9  A    between atoms: N1_33  and  C26_34 
REMARK   10  A    between atoms: C26_34  and  C27_35 
REMARK   11  A    between atoms: C30_38  and  C31_39 
REMARK   12  A    between atoms: C31_39  and  O9_41 
ROOT
HETATM    1  C1  UNL     1      -6.730  45.035 -19.684  1.00  0.00     0.021 C 
HETATM    2  C2  UNL     1      -7.806  46.136 -19.854  1.00  0.00    -0.009 C 
HETATM    3  C3  UNL     1      -8.269  46.645 -18.463  1.00  0.00     0.022 C 
HETATM    4  C4  UNL     1      -8.917  45.554 -17.607  1.00  0.00     0.084 C 
HETATM    5  C5  UNL     1      -9.922  44.731 -18.373  1.00  0.00     0.149 C 
HETATM    6  O1  UNL     1     -10.676  43.942 -17.813  1.00  0.00    -0.293 OA
HETATM    7  C6  UNL     1      -9.991  44.871 -19.848  1.00  0.00     0.053 C 
HETATM    8  C7  UNL     1      -9.044  45.531 -20.537  1.00  0.00    -0.067 C 
HETATM    9  C8  UNL     1      -9.240  45.788 -22.016  1.00  0.00     0.035 C 
HETATM   10  C9  UNL     1      -7.940  45.881 -22.806  1.00  0.00     0.010 C 
HETATM   11  C10 UNL     1      -6.878  46.799 -22.171  1.00  0.00     0.003 C 
HETATM   12  C11 UNL     1      -7.293  47.303 -20.753  1.00  0.00     0.072 C 
HETATM   13  C12 UNL     1      -6.153  48.167 -20.193  1.00  0.00     0.133 C 
HETATM   14  O2  UNL     1      -5.607  47.964 -19.112  1.00  0.00    -0.297 OA
HETATM   15  C13 UNL     1      -5.726  49.345 -21.064  1.00  0.00     0.091 C 
HETATM   16  C14 UNL     1      -5.300  48.821 -22.444  1.00  0.00     0.005 C 
HETATM   17  C15 UNL     1      -4.011  47.967 -22.282  1.00  0.00     0.019 C 
HETATM   18  C16 UNL     1      -6.504  48.020 -23.029  1.00  0.00     0.002 C 
HETATM   19  C17 UNL     1      -6.100  47.789 -24.480  1.00  0.00     0.009 C 
HETATM   20  C18 UNL     1      -5.319  49.055 -24.871  1.00  0.00     0.047 C 
HETATM   21  C19 UNL     1      -5.108  49.885 -23.567  1.00  0.00     0.128 C 
ENDROOT
BRANCH  21  22
HETATM   22  O3  UNL     1      -6.168  50.840 -23.501  1.00  0.00    -0.381 OA
HETATM   23  H25 UNL     1      -6.163  51.338 -24.344  1.00  0.00     0.211 HD
ENDBRANCH  21  22
BRANCH  21  24
HETATM   24  C20 UNL     1      -3.727  50.592 -23.552  1.00  0.00     0.185 C 
HETATM   25  O4  UNL     1      -2.831  50.281 -24.345  1.00  0.00    -0.292 OA
BRANCH  24  26
HETATM   26  C21 UNL     1      -3.445  51.628 -22.455  1.00  0.00     0.260 C 
BRANCH  26  27
HETATM   27  O5  UNL     1      -2.106  51.951 -22.102  1.00  0.00    -0.314 OA
BRANCH  27  28
HETATM   28  C22 UNL     1      -1.578  51.189 -21.104  1.00  0.00     0.259 C 
HETATM   29  O6  UNL     1      -2.241  50.585 -20.270  1.00  0.00    -0.265 OA
BRANCH  28  30
HETATM   30  C23 UNL     1      -0.077  51.153 -21.191  1.00  0.00     0.120 C 
BRANCH  30  31
HETATM   31  C24 UNL     1       0.510  52.425 -20.594  1.00  0.00     0.112 C 
BRANCH  31  32
HETATM   32  C25 UNL     1       0.974  53.390 -21.661  1.00  0.00     0.218 C 
HETATM   33  O7  UNL     1       1.563  54.435 -21.413  1.00  0.00    -0.274 OA
HETATM   34  N1  UNL     1       0.633  52.979 -22.931  1.00  0.00    -0.361 N 
HETATM   35  H32 UNL     1       0.143  52.099 -23.048  1.00  0.00     0.162 HD
BRANCH  34  36
HETATM   36  C26 UNL     1       0.869  53.789 -24.110  1.00  0.00     0.127 C 
BRANCH  36  37
HETATM   37  C27 UNL     1       0.747  52.992 -25.421  1.00  0.00     0.003 C 
HETATM   38  C28 UNL     1      -0.030  53.760 -26.499  1.00  0.00     0.007 C 
HETATM   39  C29 UNL     1      -0.116  52.967 -27.804  1.00  0.00     0.015 C 
HETATM   40  C30 UNL     1      -0.719  51.573 -27.605  1.00  0.00     0.084 C 
HETATM   41  C32 UNL     1      -0.011  50.805 -26.480  1.00  0.00     0.015 C 
HETATM   42  C33 UNL     1       0.128  51.604 -25.185  1.00  0.00     0.007 C 
BRANCH  40  43
HETATM   43  C31 UNL     1      -2.215  51.658 -27.378  1.00  0.00     0.143 C 
HETATM   44  O8  UNL     1      -3.079  50.944 -27.858  1.00  0.00    -0.650 OA
BRANCH  43  45
HETATM   45  O9  UNL     1      -2.549  52.660 -26.542  1.00  0.00    -0.776 OA
HETATM   46  H41 UNL     1      -3.526  52.606 -26.482  1.00  0.00     0.167 HD
ENDBRANCH  43  45
ENDBRANCH  40  43
ENDBRANCH  36  37
ENDBRANCH  34  36
ENDBRANCH  31  32
ENDBRANCH  30  31
ENDBRANCH  28  30
ENDBRANCH  27  28
ENDBRANCH  26  27
ENDBRANCH  24  26
ENDBRANCH  21  24
TORSDOF 12
ENDMDL
MODEL 6
REMARK minimizedAffinity -8.45026779
REMARK CNNscore 0.278792471
REMARK CNNaffinity 5.92187166
REMARK  12 active torsions:
REMARK  status: ('A' for Active; 'I' for Inactive)
REMARK    1  A    between atoms: C19_21  and  O3_22 
REMARK    2  A    between atoms: C19_21  and  C20_23 
REMARK    3  A    between atoms: C20_23  and  C21_25 
REMARK    4  A    between atoms: C21_25  and  O5_26 
REMARK    5  A    between atoms: O5_26  and  C22_27 
REMARK    6  A    between atoms: C22_27  and  C23_29 
REMARK    7  A    between atoms: C23_29  and  C24_30 
REMARK    8  A    between atoms: C24_30  and  C25_31 
REMARK       I    between atoms: C25_31  and  N1_33 
REMARK    9  A    between atoms: N1_33  and  C26_34 
REMARK   10  A    between atoms: C26_34  and  C27_35 
REMARK   11  A    between atoms: C30_38  and  C31_39 
REMARK   12  A    between atoms: C31_39  and  O9_41 
ROOT
HETATM    1  C1  UNL     1      -1.773  50.265 -24.606  1.00  0.00     0.021 C 
HETATM    2  C2  UNL     1      -1.988  51.206 -23.395  1.00  0.00    -0.009 C 
HETATM    3  C3  UNL     1      -2.368  52.628 -23.888  1.00  0.00     0.022 C 
HETATM    4  C4  UNL     1      -1.278  53.282 -24.741  1.00  0.00     0.084 C 
HETATM    5  C5  UNL     1       0.097  53.142 -24.137  1.00  0.00     0.149 C 
HETATM    6  O1  UNL     1       1.062  53.761 -24.573  1.00  0.00    -0.293 OA
HETATM    7  C6  UNL     1       0.289  52.221 -22.990  1.00  0.00     0.053 C 
HETATM    8  C7  UNL     1      -0.664  51.346 -22.624  1.00  0.00    -0.067 C 
HETATM    9  C8  UNL     1      -0.491  50.544 -21.353  1.00  0.00     0.035 C 
HETATM   10  C9  UNL     1      -1.183  49.185 -21.379  1.00  0.00     0.010 C 
HETATM   11  C10 UNL     1      -2.642  49.228 -21.869  1.00  0.00     0.003 C 
HETATM   12  C11 UNL     1      -3.052  50.635 -22.408  1.00  0.00     0.072 C 
HETATM   13  C12 UNL     1      -4.501  50.559 -22.910  1.00  0.00     0.133 C 
HETATM   14  O2  UNL     1      -4.851  50.879 -24.043  1.00  0.00    -0.297 OA
HETATM   15  C13 UNL     1      -5.529  50.066 -21.895  1.00  0.00     0.091 C 
HETATM   16  C14 UNL     1      -5.117  48.672 -21.399  1.00  0.00     0.005 C 
HETATM   17  C15 UNL     1      -5.221  47.667 -22.580  1.00  0.00     0.019 C 
HETATM   18  C16 UNL     1      -3.676  48.794 -20.815  1.00  0.00     0.002 C 
HETATM   19  C17 UNL     1      -3.470  47.460 -20.107  1.00  0.00     0.009 C 
HETATM   20  C18 UNL     1      -4.860  47.096 -19.557  1.00  0.00     0.047 C 
HETATM   21  C19 UNL     1      -5.872  48.123 -20.151  1.00  0.00     0.128 C 
ENDROOT
BRANCH  21  22
HETATM   22  O3  UNL     1      -6.022  49.169 -19.189  1.00  0.00    -0.381 OA
HETATM   23  H25 UNL     1      -6.270  48.749 -18.341  1.00  0.00     0.211 HD
ENDBRANCH  21  22
BRANCH  21  24
HETATM   24  C20 UNL     1      -7.241  47.465 -20.468  1.00  0.00     0.185 C 
HETATM   25  O4  UNL     1      -7.330  46.272 -20.780  1.00  0.00    -0.292 OA
BRANCH  24  26
HETATM   26  C21 UNL     1      -8.495  48.351 -20.490  1.00  0.00     0.260 C 
BRANCH  26  27
HETATM   27  O5  UNL     1      -9.011  48.892 -19.280  1.00  0.00    -0.314 OA
BRANCH  27  28
HETATM   28  C22 UNL     1      -9.715  48.013 -18.515  1.00  0.00     0.259 C 
HETATM   29  O6  UNL     1      -9.285  47.478 -17.501  1.00  0.00    -0.265 OA
BRANCH  28  30
HETATM   30  C23 UNL     1     -11.105  47.820 -19.058  1.00  0.00     0.120 C 
BRANCH  30  31
HETATM   31  C24 UNL     1     -11.809  46.701 -18.301  1.00  0.00     0.112 C 
BRANCH  31  32
HETATM   32  C25 UNL     1     -13.131  47.154 -17.724  1.00  0.00     0.218 C 
HETATM   33  O7  UNL     1     -13.312  47.343 -16.527  1.00  0.00    -0.274 OA
HETATM   34  N1  UNL     1     -14.108  47.296 -18.684  1.00  0.00    -0.361 N 
HETATM   35  H32 UNL     1     -13.874  47.116 -19.654  1.00  0.00     0.162 HD
BRANCH  34  36
HETATM   36  C26 UNL     1     -15.487  47.610 -18.363  1.00  0.00     0.127 C 
BRANCH  36  37
HETATM   37  C27 UNL     1     -16.440  47.416 -19.556  1.00  0.00     0.003 C 
HETATM   38  C28 UNL     1     -17.916  47.504 -19.141  1.00  0.00     0.007 C 
HETATM   39  C29 UNL     1     -18.849  47.339 -20.341  1.00  0.00     0.015 C 
HETATM   40  C30 UNL     1     -18.589  46.041 -21.112  1.00  0.00     0.084 C 
HETATM   41  C32 UNL     1     -17.106  45.887 -21.479  1.00  0.00     0.015 C 
HETATM   42  C33 UNL     1     -16.159  46.100 -20.298  1.00  0.00     0.007 C 
BRANCH  40  43
HETATM   43  C31 UNL     1     -19.111  44.843 -20.347  1.00  0.00     0.143 C 
HETATM   44  O8  UNL     1     -19.952  44.835 -19.465  1.00  0.00    -0.650 OA
BRANCH  43  45
HETATM   45  O9  UNL     1     -18.531  43.693 -20.742  1.00  0.00    -0.776 OA
HETATM   46  H41 UNL     1     -18.949  43.007 -20.179  1.00  0.00     0.167 HD
ENDBRANCH  43  45
ENDBRANCH  40  43
ENDBRANCH  36  37
ENDBRANCH  34  36
ENDBRANCH  31  32
ENDBRANCH  30  31
ENDBRANCH  28  30
ENDBRANCH  27  28
ENDBRANCH  26  27
ENDBRANCH  24  26
ENDBRANCH  21  24
TORSDOF 12
ENDMDL
MODEL 7
REMARK minimizedAffinity -8.09673214
REMARK CNNscore 0.270773292
REMARK CNNaffinity 5.89038467
REMARK  12 active torsions:
REMARK  status: ('A' for Active; 'I' for Inactive)
REMARK    1  A    between atoms: C19_21  and  O3_22 
REMARK    2  A    between atoms: C19_21  and  C20_23 
REMARK    3  A    between atoms: C20_23  and  C21_25 
REMARK    4  A    between atoms: C21_25  and  O5_26 
REMARK    5  A    between atoms: O5_26  and  C22_27 
REMARK    6  A    between atoms: C22_27  and  C23_29 
REMARK    7  A    between atoms: C23_29  and  C24_30 
REMARK    8  A    between atoms: C24_30  and  C25_31 
REMARK       I    between atoms: C25_31  and  N1_33 
REMARK    9  A    between atoms: N1_33  and  C26_34 
REMARK   10  A    between atoms: C26_34  and  C27_35 
REMARK   11  A    between atoms: C30_38  and  C31_39 
REMARK   12  A    between atoms: C31_39  and  O9_41 
ROOT
HETATM    1  C1  UNL     1      -0.811  49.686 -21.516  1.00  0.00     0.021 C 
HETATM    2  C2  UNL     1      -1.514  51.060 -21.635  1.00  0.00    -0.009 C 
HETATM    3  C3  UNL     1      -0.770  51.950 -22.666  1.00  0.00     0.022 C 
HETATM    4  C4  UNL     1       0.677  52.251 -22.269  1.00  0.00     0.084 C 
HETATM    5  C5  UNL     1       0.811  52.667 -20.826  1.00  0.00     0.149 C 
HETATM    6  O1  UNL     1       1.856  53.129 -20.378  1.00  0.00    -0.293 OA
HETATM    7  C6  UNL     1      -0.350  52.500 -19.918  1.00  0.00     0.053 C 
HETATM    8  C7  UNL     1      -1.431  51.788 -20.283  1.00  0.00    -0.067 C 
HETATM    9  C8  UNL     1      -2.655  51.783 -19.393  1.00  0.00     0.035 C 
HETATM   10  C9  UNL     1      -3.483  50.506 -19.487  1.00  0.00     0.010 C 
HETATM   11  C10 UNL     1      -3.784  50.052 -20.928  1.00  0.00     0.003 C 
HETATM   12  C11 UNL     1      -3.024  50.902 -21.995  1.00  0.00     0.072 C 
HETATM   13  C12 UNL     1      -3.356  50.342 -23.386  1.00  0.00     0.133 C 
HETATM   14  O2  UNL     1      -2.509  49.982 -24.199  1.00  0.00    -0.297 OA
HETATM   15  C13 UNL     1      -4.840  50.271 -23.734  1.00  0.00     0.091 C 
HETATM   16  C14 UNL     1      -5.560  49.411 -22.685  1.00  0.00     0.005 C 
HETATM   17  C15 UNL     1      -5.059  47.944 -22.806  1.00  0.00     0.019 C 
HETATM   18  C16 UNL     1      -5.280  50.048 -21.289  1.00  0.00     0.002 C 
HETATM   19  C17 UNL     1      -6.244  49.312 -20.367  1.00  0.00     0.009 C 
HETATM   20  C18 UNL     1      -7.488  49.053 -21.235  1.00  0.00     0.047 C 
HETATM   21  C19 UNL     1      -7.119  49.454 -22.696  1.00  0.00     0.128 C 
ENDROOT
BRANCH  21  22
HETATM   22  O3  UNL     1      -7.554  50.801 -22.885  1.00  0.00    -0.381 OA
HETATM   23  H25 UNL     1      -8.503  50.835 -22.647  1.00  0.00     0.211 HD
ENDBRANCH  21  22
BRANCH  21  24
HETATM   24  C20 UNL     1      -7.779  48.510 -23.736  1.00  0.00     0.185 C 
HETATM   25  O4  UNL     1      -8.968  48.628 -24.055  1.00  0.00    -0.292 OA
BRANCH  24  26
HETATM   26  C21 UNL     1      -6.953  47.343 -24.298  1.00  0.00     0.260 C 
BRANCH  26  27
HETATM   27  O5  UNL     1      -6.848  47.151 -25.702  1.00  0.00    -0.314 OA
BRANCH  27  28
HETATM   28  C22 UNL     1      -7.848  46.410 -26.255  1.00  0.00     0.259 C 
HETATM   29  O6  UNL     1      -8.144  45.276 -25.902  1.00  0.00    -0.265 OA
BRANCH  28  30
HETATM   30  C23 UNL     1      -8.567  47.187 -27.323  1.00  0.00     0.120 C 
BRANCH  30  31
HETATM   31  C24 UNL     1     -10.005  46.700 -27.444  1.00  0.00     0.112 C 
BRANCH  31  32
HETATM   32  C25 UNL     1     -10.547  46.879 -28.843  1.00  0.00     0.218 C 
HETATM   33  O7  UNL     1     -11.488  46.232 -29.288  1.00  0.00    -0.274 OA
HETATM   34  N1  UNL     1      -9.848  47.821 -29.566  1.00  0.00    -0.361 N 
HETATM   35  H32 UNL     1      -9.080  48.311 -29.122  1.00  0.00     0.162 HD
BRANCH  34  36
HETATM   36  C26 UNL     1     -10.108  48.088 -30.967  1.00  0.00     0.127 C 
BRANCH  36  37
HETATM   37  C27 UNL     1      -9.271  47.206 -31.911  1.00  0.00     0.003 C 
HETATM   38  C28 UNL     1      -8.372  48.036 -32.839  1.00  0.00     0.007 C 
HETATM   39  C29 UNL     1      -7.525  47.145 -33.748  1.00  0.00     0.015 C 
HETATM   40  C30 UNL     1      -8.374  46.167 -34.566  1.00  0.00     0.084 C 
HETATM   41  C32 UNL     1      -9.339  45.371 -33.675  1.00  0.00     0.015 C 
HETATM   42  C33 UNL     1     -10.155  46.246 -32.723  1.00  0.00     0.007 C 
BRANCH  40  43
HETATM   43  C31 UNL     1      -9.100  46.884 -35.686  1.00  0.00     0.143 C 
HETATM   44  O8  UNL     1     -10.142  46.554 -36.226  1.00  0.00    -0.650 OA
BRANCH  43  45
HETATM   45  O9  UNL     1      -8.457  48.002 -36.077  1.00  0.00    -0.776 OA
HETATM   46  H41 UNL     1      -9.020  48.363 -36.794  1.00  0.00     0.167 HD
ENDBRANCH  43  45
ENDBRANCH  40  43
ENDBRANCH  36  37
ENDBRANCH  34  36
ENDBRANCH  31  32
ENDBRANCH  30  31
ENDBRANCH  28  30
ENDBRANCH  27  28
ENDBRANCH  26  27
ENDBRANCH  24  26
ENDBRANCH  21  24
TORSDOF 12
ENDMDL
MODEL 8
REMARK minimizedAffinity -8.02334023
REMARK CNNscore 0.264896363
REMARK CNNaffinity 6.39986277
REMARK  12 active torsions:
REMARK  status: ('A' for Active; 'I' for Inactive)
REMARK    1  A    between atoms: C19_21  and  O3_22 
REMARK    2  A    between atoms: C19_21  and  C20_23 
REMARK    3  A    between atoms: C20_23  and  C21_25 
REMARK    4  A    between atoms: C21_25  and  O5_26 
REMARK    5  A    between atoms: O5_26  and  C22_27 
REMARK    6  A    between atoms: C22_27  and  C23_29 
REMARK    7  A    between atoms: C23_29  and  C24_30 
REMARK    8  A    between atoms: C24_30  and  C25_31 
REMARK       I    between atoms: C25_31  and  N1_33 
REMARK    9  A    between atoms: N1_33  and  C26_34 
REMARK   10  A    between atoms: C26_34  and  C27_35 
REMARK   11  A    between atoms: C30_38  and  C31_39 
REMARK   12  A    between atoms: C31_39  and  O9_41 
ROOT
HETATM    1  C1  UNL     1      -2.302  52.811 -24.807  1.00  0.00     0.021 C 
HETATM    2  C2  UNL     1      -1.162  51.773 -24.959  1.00  0.00    -0.009 C 
HETATM    3  C3  UNL     1       0.207  52.499 -25.052  1.00  0.00     0.022 C 
HETATM    4  C4  UNL     1       0.316  53.425 -26.265  1.00  0.00     0.084 C 
HETATM    5  C5  UNL     1      -0.173  52.780 -27.537  1.00  0.00     0.149 C 
HETATM    6  O1  UNL     1       0.012  53.293 -28.637  1.00  0.00    -0.293 OA
HETATM    7  C6  UNL     1      -0.910  51.496 -27.456  1.00  0.00     0.053 C 
HETATM    8  C7  UNL     1      -1.348  51.010 -26.281  1.00  0.00    -0.067 C 
HETATM    9  C8  UNL     1      -1.949  49.622 -26.226  1.00  0.00     0.035 C 
HETATM   10  C9  UNL     1      -2.986  49.440 -25.123  1.00  0.00     0.010 C 
HETATM   11  C10 UNL     1      -2.540  49.959 -23.743  1.00  0.00     0.003 C 
HETATM   12  C11 UNL     1      -1.182  50.727 -23.802  1.00  0.00     0.072 C 
HETATM   13  C12 UNL     1      -0.853  51.238 -22.392  1.00  0.00     0.133 C 
HETATM   14  O2  UNL     1      -0.620  52.415 -22.127  1.00  0.00    -0.297 OA
HETATM   15  C13 UNL     1      -0.807  50.176 -21.297  1.00  0.00     0.091 C 
HETATM   16  C14 UNL     1      -2.161  49.453 -21.243  1.00  0.00     0.005 C 
HETATM   17  C15 UNL     1      -3.250  50.456 -20.769  1.00  0.00     0.019 C 
HETATM   18  C16 UNL     1      -2.433  48.868 -22.663  1.00  0.00     0.002 C 
HETATM   19  C17 UNL     1      -3.628  47.949 -22.442  1.00  0.00     0.009 C 
HETATM   20  C18 UNL     1      -3.418  47.374 -21.031  1.00  0.00     0.047 C 
HETATM   21  C19 UNL     1      -2.222  48.146 -20.393  1.00  0.00     0.128 C 
ENDROOT
BRANCH  21  22
HETATM   22  O3  UNL     1      -1.046  47.371 -20.633  1.00  0.00    -0.381 OA
HETATM   23  H25 UNL     1      -1.218  46.470 -20.291  1.00  0.00     0.211 HD
ENDBRANCH  21  22
BRANCH  21  24
HETATM   24  C20 UNL     1      -2.430  48.378 -18.873  1.00  0.00     0.185 C 
HETATM   25  O4  UNL     1      -1.495  48.705 -18.134  1.00  0.00    -0.292 OA
BRANCH  24  26
HETATM   26  C21 UNL     1      -3.812  48.091 -18.269  1.00  0.00     0.260 C 
BRANCH  26  27
HETATM   27  O5  UNL     1      -4.284  46.754 -18.163  1.00  0.00    -0.314 OA
BRANCH  27  28
HETATM   28  C22 UNL     1      -5.028  46.497 -17.051  1.00  0.00     0.259 C 
HETATM   29  O6  UNL     1      -6.249  46.574 -17.003  1.00  0.00    -0.265 OA
BRANCH  28  30
HETATM   30  C23 UNL     1      -4.154  46.066 -15.907  1.00  0.00     0.120 C 
BRANCH  30  31
HETATM   31  C24 UNL     1      -4.898  45.066 -15.030  1.00  0.00     0.112 C 
BRANCH  31  32
HETATM   32  C25 UNL     1      -4.747  45.381 -13.559  1.00  0.00     0.218 C 
HETATM   33  O7  UNL     1      -3.785  45.023 -12.890  1.00  0.00    -0.274 OA
HETATM   34  N1  UNL     1      -5.820  46.082 -13.054  1.00  0.00    -0.361 N 
HETATM   35  H32 UNL     1      -6.578  46.337 -13.677  1.00  0.00     0.162 HD
BRANCH  34  36
HETATM   36  C26 UNL     1      -5.958  46.401 -11.647  1.00  0.00     0.127 C 
BRANCH  36  37
HETATM   37  C27 UNL     1      -6.576  47.790 -11.404  1.00  0.00     0.003 C 
HETATM   38  C28 UNL     1      -6.085  48.425 -10.095  1.00  0.00     0.007 C 
HETATM   39  C29 UNL     1      -6.684  49.816  -9.884  1.00  0.00     0.015 C 
HETATM   40  C30 UNL     1      -8.215  49.808  -9.931  1.00  0.00     0.084 C 
HETATM   41  C32 UNL     1      -8.740  49.114 -11.195  1.00  0.00     0.015 C 
HETATM   42  C33 UNL     1      -8.112  47.743 -11.446  1.00  0.00     0.007 C 
BRANCH  40  43
HETATM   43  C31 UNL     1      -8.793  49.200  -8.669  1.00  0.00     0.143 C 
HETATM   44  O8  UNL     1      -9.784  48.498  -8.571  1.00  0.00    -0.650 OA
BRANCH  43  45
HETATM   45  O9  UNL     1      -8.076  49.519  -7.574  1.00  0.00    -0.776 OA
HETATM   46  H41 UNL     1      -8.548  49.072  -6.840  1.00  0.00     0.167 HD
ENDBRANCH  43  45
ENDBRANCH  40  43
ENDBRANCH  36  37
ENDBRANCH  34  36
ENDBRANCH  31  32
ENDBRANCH  30  31
ENDBRANCH  28  30
ENDBRANCH  27  28
ENDBRANCH  26  27
ENDBRANCH  24  26
ENDBRANCH  21  24
TORSDOF 12
ENDMDL
MODEL 9
REMARK minimizedAffinity -8.30940533
REMARK CNNscore 0.256978869
REMARK CNNaffinity 5.90450621
REMARK  12 active torsions:
REMARK  status: ('A' for Active; 'I' for Inactive)
REMARK    1  A    between atoms: C19_21  and  O3_22 
REMARK    2  A    between atoms: C19_21  and  C20_23 
REMARK    3  A    between atoms: C20_23  and  C21_25 
REMARK    4  A    between atoms: C21_25  and  O5_26 
REMARK    5  A    between atoms: O5_26  and  C22_27 
REMARK    6  A    between atoms: C22_27  and  C23_29 
REMARK    7  A    between atoms: C23_29  and  C24_30 
REMARK    8  A    between atoms: C24_30  and  C25_31 
REMARK       I    between atoms: C25_31  and  N1_33 
REMARK    9  A    between atoms: N1_33  and  C26_34 
REMARK   10  A    between atoms: C26_34  and  C27_35 
REMARK   11  A    between atoms: C30_38  and  C31_39 
REMARK   12  A    between atoms: C31_39  and  O9_41 
ROOT
HETATM    1  C1  UNL     1      -3.582  52.333 -23.118  1.00  0.00     0.021 C 
HETATM    2  C2  UNL     1      -2.774  51.031 -22.892  1.00  0.00    -0.009 C 
HETATM    3  C3  UNL     1      -1.799  51.211 -21.697  1.00  0.00     0.022 C 
HETATM    4  C4  UNL     1      -0.763  52.314 -21.927  1.00  0.00     0.084 C 
HETATM    5  C5  UNL     1      -0.124  52.239 -23.291  1.00  0.00     0.149 C 
HETATM    6  O1  UNL     1       0.858  52.914 -23.585  1.00  0.00    -0.293 OA
HETATM    7  C6  UNL     1      -0.707  51.332 -24.310  1.00  0.00     0.053 C 
HETATM    8  C7  UNL     1      -1.907  50.753 -24.131  1.00  0.00    -0.067 C 
HETATM    9  C8  UNL     1      -2.386  49.711 -25.119  1.00  0.00     0.035 C 
HETATM   10  C9  UNL     1      -3.903  49.639 -25.255  1.00  0.00     0.010 C 
HETATM   11  C10 UNL     1      -4.658  49.589 -23.913  1.00  0.00     0.003 C 
HETATM   12  C11 UNL     1      -3.714  49.802 -22.687  1.00  0.00     0.072 C 
HETATM   13  C12 UNL     1      -4.567  49.780 -21.410  1.00  0.00     0.133 C 
HETATM   14  O2  UNL     1      -4.576  50.682 -20.577  1.00  0.00    -0.297 OA
HETATM   15  C13 UNL     1      -5.418  48.530 -21.204  1.00  0.00     0.091 C 
HETATM   16  C14 UNL     1      -6.353  48.356 -22.411  1.00  0.00     0.005 C 
HETATM   17  C15 UNL     1      -7.375  49.526 -22.428  1.00  0.00     0.019 C 
HETATM   18  C16 UNL     1      -5.459  48.295 -23.687  1.00  0.00     0.002 C 
HETATM   19  C17 UNL     1      -6.428  47.845 -24.773  1.00  0.00     0.009 C 
HETATM   20  C18 UNL     1      -7.398  46.891 -24.056  1.00  0.00     0.047 C 
HETATM   21  C19 UNL     1      -7.093  46.988 -22.529  1.00  0.00     0.128 C 
ENDROOT
BRANCH  21  22
HETATM   22  O3  UNL     1      -6.186  45.930 -22.214  1.00  0.00    -0.381 OA
HETATM   23  H25 UNL     1      -6.592  45.097 -22.528  1.00  0.00     0.211 HD
ENDBRANCH  21  22
BRANCH  21  24
HETATM   24  C20 UNL     1      -8.384  46.881 -21.676  1.00  0.00     0.185 C 
HETATM   25  O4  UNL     1      -8.339  46.720 -20.451  1.00  0.00    -0.292 OA
BRANCH  24  26
HETATM   26  C21 UNL     1      -9.741  46.873 -22.394  1.00  0.00     0.260 C 
BRANCH  26  27
HETATM   27  O5  UNL     1     -10.945  46.756 -21.648  1.00  0.00    -0.314 OA
BRANCH  27  28
HETATM   28  C22 UNL     1     -12.086  46.888 -22.381  1.00  0.00     0.259 C 
HETATM   29  O6  UNL     1     -12.133  46.841 -23.603  1.00  0.00    -0.265 OA
BRANCH  28  30
HETATM   30  C23 UNL     1     -13.284  47.055 -21.487  1.00  0.00     0.120 C 
BRANCH  30  31
HETATM   31  C24 UNL     1     -14.126  45.786 -21.500  1.00  0.00     0.112 C 
BRANCH  31  32
HETATM   32  C25 UNL     1     -15.519  46.026 -20.965  1.00  0.00     0.218 C 
HETATM   33  O7  UNL     1     -15.758  46.776 -20.025  1.00  0.00    -0.274 OA
HETATM   34  N1  UNL     1     -16.476  45.287 -21.625  1.00  0.00    -0.361 N 
HETATM   35  H32 UNL     1     -16.191  44.687 -22.392  1.00  0.00     0.162 HD
BRANCH  34  36
HETATM   36  C26 UNL     1     -17.868  45.261 -21.220  1.00  0.00     0.127 C 
BRANCH  36  37
HETATM   37  C27 UNL     1     -18.825  45.732 -22.330  1.00  0.00     0.003 C 
HETATM   38  C28 UNL     1     -19.646  44.577 -22.919  1.00  0.00     0.007 C 
HETATM   39  C29 UNL     1     -20.612  45.066 -23.999  1.00  0.00     0.015 C 
HETATM   40  C30 UNL     1     -19.902  45.838 -25.115  1.00  0.00     0.084 C 
HETATM   41  C32 UNL     1     -19.013  46.956 -24.554  1.00  0.00     0.015 C 
HETATM   42  C33 UNL     1     -18.077  46.492 -23.438  1.00  0.00     0.007 C 
BRANCH  40  43
HETATM   43  C31 UNL     1     -19.129  44.898 -26.017  1.00  0.00     0.143 C 
HETATM   44  O8  UNL     1     -19.053  43.684 -25.933  1.00  0.00    -0.650 OA
BRANCH  43  45
HETATM   45  O9  UNL     1     -18.476  45.553 -26.997  1.00  0.00    -0.776 OA
HETATM   46  H41 UNL     1     -18.023  44.843 -27.499  1.00  0.00     0.167 HD
ENDBRANCH  43  45
ENDBRANCH  40  43
ENDBRANCH  36  37
ENDBRANCH  34  36
ENDBRANCH  31  32
ENDBRANCH  30  31
ENDBRANCH  28  30
ENDBRANCH  27  28
ENDBRANCH  26  27
ENDBRANCH  24  26
ENDBRANCH  21  24
TORSDOF 12
ENDMDL
