MODEL 1
REMARK minimizedAffinity -8.85945415
REMARK CNNscore 0.375817269
REMARK CNNaffinity 6.22472572
REMARK  15 active torsions:
REMARK  status: ('A' for Active; 'I' for Inactive)
REMARK    1  A    between atoms: C2_2  and  C26_34 
REMARK    2  A    between atoms: C3_3  and  C4_4 
REMARK    3  A    between atoms: C5_5  and  C6_6 
REMARK    4  A    between atoms: C6_6  and  C7_7 
REMARK    5  A    between atoms: C7_7  and  O1_8 
REMARK    6  A    between atoms: C7_7  and  C8_9 
REMARK    7  A    between atoms: C8_9  and  C9_10 
REMARK    8  A    between atoms: C14_16  and  O3_17 
REMARK    9  A    between atoms: C22_28  and  O7_29 
REMARK   10  A    between atoms: C23_30  and  O8_31 
REMARK   11  A    between atoms: C26_34  and  C27_35 
REMARK   12  A    between atoms: C28_36  and  C29_37 
REMARK   13  A    between atoms: C30_38  and  C31_39 
REMARK   14  A    between atoms: C31_39  and  C32_40 
REMARK   15  A    between atoms: C32_40  and  O9_41 
ROOT
HETATM    1  C9  UNL     1      -1.691  49.594 -17.886  1.00  0.00     0.134 C 
HETATM    2  C10 UNL     1      -2.316  48.517 -18.858  1.00  0.00     0.033 C 
HETATM    3  C11 UNL     1      -3.585  48.941 -19.674  1.00  0.00     0.005 C 
HETATM    4  C12 UNL     1      -3.572  48.423 -21.140  1.00  0.00     0.032 C 
HETATM    5  C13 UNL     1      -4.092  49.407 -22.251  1.00  0.00     0.131 C 
HETATM    6  O2  UNL     1      -3.098  50.411 -22.412  1.00  0.00    -0.347 OA
HETATM    7  C14 UNL     1      -3.206  51.393 -23.427  1.00  0.00     0.191 C 
HETATM    8  C15 UNL     1      -1.753  51.761 -23.942  1.00  0.00     0.074 C 
HETATM    9  C16 UNL     1      -0.715  52.510 -23.025  1.00  0.00     0.037 C 
HETATM   10  C17 UNL     1       0.165  51.682 -22.029  1.00  0.00     0.122 C 
HETATM   11  C18 UNL     1      -0.576  50.527 -21.443  1.00  0.00     0.035 C 
HETATM   12  C19 UNL     1      -1.473  51.341 -20.532  1.00  0.00     0.045 C 
HETATM   13  C20 UNL     1      -0.452  52.150 -19.794  1.00  0.00     0.221 C 
HETATM   14  O4  UNL     1       0.510  52.456 -20.832  1.00  0.00    -0.371 OA
HETATM   15  C21 UNL     1      -0.105  51.395 -18.471  1.00  0.00     0.288 C 
HETATM   16  O5  UNL     1       0.431  51.933 -17.507  1.00  0.00    -0.262 OA
HETATM   17  O6  UNL     1      -0.417  50.058 -18.476  1.00  0.00    -0.314 OA
HETATM   18  C22 UNL     1      -4.137  50.936 -24.590  1.00  0.00     0.209 C 
HETATM   19  C23 UNL     1      -4.043  49.434 -24.843  1.00  0.00     0.158 C 
HETATM   20  C24 UNL     1      -4.304  48.610 -23.565  1.00  0.00     0.042 C 
HETATM   21  C25 UNL     1      -5.717  48.010 -23.581  1.00  0.00     0.015 C 
ENDROOT
BRANCH   1  22
HETATM   22  C8  UNL     1      -1.354  48.944 -16.530  1.00  0.00     0.064 C 
BRANCH  22  23
HETATM   23  C7  UNL     1      -2.054  49.638 -15.350  1.00  0.00     0.124 C 
BRANCH  23  24
HETATM   24  C6  UNL     1      -1.141  49.819 -14.119  1.00  0.00     0.059 C 
BRANCH  24  25
HETATM   25  C5  UNL     1      -0.019  50.815 -14.303  1.00  0.00    -0.024 C 
HETATM   26  C4  UNL     1       0.183  51.985 -13.675  1.00  0.00    -0.004 C 
BRANCH  26  27
HETATM   27  C3  UNL     1      -0.642  52.566 -12.638  1.00  0.00     0.002 C 
HETATM   28  C2  UNL     1      -0.224  53.272 -11.566  1.00  0.00    -0.080 C 
HETATM   29  C1  UNL     1      -1.236  53.805 -10.579  1.00  0.00     0.043 C 
BRANCH  28  30
HETATM   30  C26 UNL     1       1.215  53.586 -11.216  1.00  0.00     0.060 C 
BRANCH  30  31
HETATM   31  C27 UNL     1       1.309  54.505 -10.029  1.00  0.00    -0.022 C 
HETATM   32  C28 UNL     1       2.093  55.584  -9.852  1.00  0.00    -0.004 C 
BRANCH  32  33
HETATM   33  C29 UNL     1       3.081  56.081 -10.779  1.00  0.00    -0.004 C 
HETATM   34  C30 UNL     1       4.358  55.669 -10.870  1.00  0.00    -0.025 C 
BRANCH  34  35
HETATM   35  C31 UNL     1       5.081  54.662 -10.011  1.00  0.00     0.053 C 
BRANCH  35  36
HETATM   36  C32 UNL     1       6.166  55.304  -9.149  1.00  0.00     0.168 C 
BRANCH  36  37
HETATM   37  O9  UNL     1       7.384  54.574  -9.245  1.00  0.00    -0.401 OA
HETATM   38  H50 UNL     1       7.666  54.607 -10.178  1.00  0.00     0.209 HD
ENDBRANCH  36  37
ENDBRANCH  35  36
ENDBRANCH  34  35
ENDBRANCH  32  33
ENDBRANCH  30  31
ENDBRANCH  28  30
ENDBRANCH  26  27
ENDBRANCH  24  25
ENDBRANCH  23  24
BRANCH  23  39
HETATM   39  O1  UNL     1      -3.232  48.897 -15.020  1.00  0.00    -0.395 OA
HETATM   40  H10 UNL     1      -3.065  48.401 -14.201  1.00  0.00     0.210 HD
ENDBRANCH  23  39
ENDBRANCH  22  23
ENDBRANCH   1  22
BRANCH   7  41
HETATM   41  O3  UNL     1      -3.851  52.556 -22.876  1.00  0.00    -0.363 OA
HETATM   42  H21 UNL     1      -3.174  53.249 -22.777  1.00  0.00     0.213 HD
ENDBRANCH   7  41
BRANCH  19  43
HETATM   43  O8  UNL     1      -2.752  49.090 -25.367  1.00  0.00    -0.392 OA
HETATM   44  H35 UNL     1      -2.743  49.361 -26.304  1.00  0.00     0.210 HD
ENDBRANCH  19  43
BRANCH  18  45
HETATM   45  O7  UNL     1      -5.511  51.243 -24.266  1.00  0.00    -0.387 OA
HETATM   46  H33 UNL     1      -5.452  51.962 -23.601  1.00  0.00     0.210 HD
ENDBRANCH  18  45
TORSDOF 15
ENDMDL
MODEL 2
REMARK minimizedAffinity -9.79565716
REMARK CNNscore 0.333725601
REMARK CNNaffinity 7.24519348
REMARK  15 active torsions:
REMARK  status: ('A' for Active; 'I' for Inactive)
REMARK    1  A    between atoms: C2_2  and  C26_34 
REMARK    2  A    between atoms: C3_3  and  C4_4 
REMARK    3  A    between atoms: C5_5  and  C6_6 
REMARK    4  A    between atoms: C6_6  and  C7_7 
REMARK    5  A    between atoms: C7_7  and  O1_8 
REMARK    6  A    between atoms: C7_7  and  C8_9 
REMARK    7  A    between atoms: C8_9  and  C9_10 
REMARK    8  A    between atoms: C14_16  and  O3_17 
REMARK    9  A    between atoms: C22_28  and  O7_29 
REMARK   10  A    between atoms: C23_30  and  O8_31 
REMARK   11  A    between atoms: C26_34  and  C27_35 
REMARK   12  A    between atoms: C28_36  and  C29_37 
REMARK   13  A    between atoms: C30_38  and  C31_39 
REMARK   14  A    between atoms: C31_39  and  C32_40 
REMARK   15  A    between atoms: C32_40  and  O9_41 
ROOT
HETATM    1  C9  UNL     1      -0.464  51.879 -24.897  1.00  0.00     0.134 C 
HETATM    2  C10 UNL     1      -0.680  51.201 -23.487  1.00  0.00     0.033 C 
HETATM    3  C11 UNL     1      -2.035  51.489 -22.755  1.00  0.00     0.005 C 
HETATM    4  C12 UNL     1      -2.627  50.237 -22.047  1.00  0.00     0.032 C 
HETATM    5  C13 UNL     1      -4.182  50.031 -22.139  1.00  0.00     0.131 C 
HETATM    6  O2  UNL     1      -4.468  49.628 -23.472  1.00  0.00    -0.347 OA
HETATM    7  C14 UNL     1      -5.776  49.246 -23.858  1.00  0.00     0.191 C 
HETATM    8  C15 UNL     1      -5.676  48.110 -24.959  1.00  0.00     0.074 C 
HETATM    9  C16 UNL     1      -5.101  48.399 -26.396  1.00  0.00     0.037 C 
HETATM   10  C17 UNL     1      -3.553  48.352 -26.626  1.00  0.00     0.122 C 
HETATM   11  C18 UNL     1      -2.790  48.871 -25.453  1.00  0.00     0.035 C 
HETATM   12  C19 UNL     1      -3.136  50.334 -25.656  1.00  0.00     0.045 C 
HETATM   13  C20 UNL     1      -2.720  50.518 -27.081  1.00  0.00     0.221 C 
HETATM   14  O4  UNL     1      -3.131  49.270 -27.688  1.00  0.00    -0.371 OA
HETATM   15  C21 UNL     1      -1.252  51.055 -27.089  1.00  0.00     0.288 C 
HETATM   16  O5  UNL     1      -0.741  51.614 -28.055  1.00  0.00    -0.262 OA
HETATM   17  O6  UNL     1      -0.552  50.824 -25.929  1.00  0.00    -0.314 OA
HETATM   18  C22 UNL     1      -6.642  48.802 -22.641  1.00  0.00     0.209 C 
HETATM   19  C23 UNL     1      -5.811  48.094 -21.575  1.00  0.00     0.158 C 
HETATM   20  C24 UNL     1      -4.603  48.940 -21.119  1.00  0.00     0.042 C 
HETATM   21  C25 UNL     1      -4.874  49.589 -19.754  1.00  0.00     0.015 C 
ENDROOT
BRANCH   1  22
HETATM   22  C8  UNL     1       0.953  52.479 -24.980  1.00  0.00     0.064 C 
BRANCH  22  23
HETATM   23  C7  UNL     1       1.204  53.556 -23.912  1.00  0.00     0.124 C 
BRANCH  23  24
HETATM   24  C6  UNL     1       0.353  53.365 -22.639  1.00  0.00     0.059 C 
BRANCH  24  25
HETATM   25  C5  UNL     1       1.070  53.678 -21.346  1.00  0.00    -0.024 C 
HETATM   26  C4  UNL     1       0.710  53.378 -20.086  1.00  0.00    -0.004 C 
BRANCH  26  27
HETATM   27  C3  UNL     1      -0.472  52.654 -19.672  1.00  0.00     0.002 C 
HETATM   28  C2  UNL     1      -0.576  51.790 -18.640  1.00  0.00    -0.080 C 
HETATM   29  C1  UNL     1      -1.899  51.120 -18.354  1.00  0.00     0.043 C 
BRANCH  28  30
HETATM   30  C26 UNL     1       0.544  51.384 -17.706  1.00  0.00     0.060 C 
BRANCH  30  31
HETATM   31  C27 UNL     1       0.620  52.287 -16.505  1.00  0.00    -0.022 C 
HETATM   32  C28 UNL     1       1.700  52.688 -15.811  1.00  0.00    -0.004 C 
BRANCH  32  33
HETATM   33  C29 UNL     1       3.065  52.284 -16.051  1.00  0.00    -0.004 C 
HETATM   34  C30 UNL     1       3.834  51.562 -15.218  1.00  0.00    -0.025 C 
BRANCH  34  35
HETATM   35  C31 UNL     1       3.502  51.059 -13.835  1.00  0.00     0.053 C 
BRANCH  35  36
HETATM   36  C32 UNL     1       3.957  49.618 -13.614  1.00  0.00     0.168 C 
BRANCH  36  37
HETATM   37  O9  UNL     1       5.305  49.578 -13.162  1.00  0.00    -0.401 OA
HETATM   38  H50 UNL     1       5.336  50.049 -12.309  1.00  0.00     0.209 HD
ENDBRANCH  36  37
ENDBRANCH  35  36
ENDBRANCH  34  35
ENDBRANCH  32  33
ENDBRANCH  30  31
ENDBRANCH  28  30
ENDBRANCH  26  27
ENDBRANCH  24  25
ENDBRANCH  23  24
BRANCH  23  39
HETATM   39  O1  UNL     1       0.979  54.841 -24.500  1.00  0.00    -0.395 OA
HETATM   40  H10 UNL     1       0.131  55.186 -24.174  1.00  0.00     0.210 HD
ENDBRANCH  23  39
ENDBRANCH  22  23
ENDBRANCH   1  22
BRANCH   7  41
HETATM   41  O3  UNL     1      -6.455  50.400 -24.390  1.00  0.00    -0.363 OA
HETATM   42  H21 UNL     1      -6.524  50.282 -25.354  1.00  0.00     0.213 HD
ENDBRANCH   7  41
BRANCH  19  43
HETATM   43  O8  UNL     1      -5.340  46.828 -22.059  1.00  0.00    -0.392 OA
HETATM   44  H35 UNL     1      -6.098  46.214 -22.035  1.00  0.00     0.210 HD
ENDBRANCH  19  43
BRANCH  18  45
HETATM   45  O7  UNL     1      -7.253  49.959 -22.027  1.00  0.00    -0.387 OA
HETATM   46  H33 UNL     1      -7.261  50.637 -22.736  1.00  0.00     0.210 HD
ENDBRANCH  18  45
TORSDOF 15
ENDMDL
MODEL 3
REMARK minimizedAffinity -9.42241192
REMARK CNNscore 0.257990867
REMARK CNNaffinity 6.2300396
REMARK  15 active torsions:
REMARK  status: ('A' for Active; 'I' for Inactive)
REMARK    1  A    between atoms: C2_2  and  C26_34 
REMARK    2  A    between atoms: C3_3  and  C4_4 
REMARK    3  A    between atoms: C5_5  and  C6_6 
REMARK    4  A    between atoms: C6_6  and  C7_7 
REMARK    5  A    between atoms: C7_7  and  O1_8 
REMARK    6  A    between atoms: C7_7  and  C8_9 
REMARK    7  A    between atoms: C8_9  and  C9_10 
REMARK    8  A    between atoms: C14_16  and  O3_17 
REMARK    9  A    between atoms: C22_28  and  O7_29 
REMARK   10  A    between atoms: C23_30  and  O8_31 
REMARK   11  A    between atoms: C26_34  and  C27_35 
REMARK   12  A    between atoms: C28_36  and  C29_37 
REMARK   13  A    between atoms: C30_38  and  C31_39 
REMARK   14  A    between atoms: C31_39  and  C32_40 
REMARK   15  A    between atoms: C32_40  and  O9_41 
ROOT
HETATM    1  C9  UNL     1      -1.069  50.806 -19.097  1.00  0.00     0.134 C 
HETATM    2  C10 UNL     1      -0.423  51.741 -20.194  1.00  0.00     0.033 C 
HETATM    3  C11 UNL     1      -0.014  51.073 -21.552  1.00  0.00     0.005 C 
HETATM    4  C12 UNL     1      -0.339  51.955 -22.791  1.00  0.00     0.032 C 
HETATM    5  C13 UNL     1      -0.905  51.223 -24.062  1.00  0.00     0.131 C 
HETATM    6  O2  UNL     1      -2.242  50.847 -23.761  1.00  0.00    -0.347 OA
HETATM    7  C14 UNL     1      -3.080  50.265 -24.745  1.00  0.00     0.191 C 
HETATM    8  C15 UNL     1      -4.572  50.735 -24.491  1.00  0.00     0.074 C 
HETATM    9  C16 UNL     1      -5.379  50.274 -23.220  1.00  0.00     0.037 C 
HETATM   10  C17 UNL     1      -5.213  51.064 -21.878  1.00  0.00     0.122 C 
HETATM   11  C18 UNL     1      -3.816  51.552 -21.678  1.00  0.00     0.035 C 
HETATM   12  C19 UNL     1      -3.202  50.200 -21.373  1.00  0.00     0.045 C 
HETATM   13  C20 UNL     1      -4.099  49.734 -20.269  1.00  0.00     0.221 C 
HETATM   14  O4  UNL     1      -5.398  50.199 -20.709  1.00  0.00    -0.371 OA
HETATM   15  C21 UNL     1      -3.438  50.134 -18.911  1.00  0.00     0.288 C 
HETATM   16  O5  UNL     1      -3.738  49.621 -17.837  1.00  0.00    -0.262 OA
HETATM   17  O6  UNL     1      -2.506  51.139 -19.002  1.00  0.00    -0.314 OA
HETATM   18  C22 UNL     1      -2.604  50.597 -26.191  1.00  0.00     0.209 C 
HETATM   19  C23 UNL     1      -1.991  51.991 -26.287  1.00  0.00     0.158 C 
HETATM   20  C24 UNL     1      -0.853  52.200 -25.266  1.00  0.00     0.042 C 
HETATM   21  C25 UNL     1       0.519  52.103 -25.949  1.00  0.00     0.015 C 
ENDROOT
BRANCH   1  22
HETATM   22  C8  UNL     1      -0.441  51.102 -17.721  1.00  0.00     0.064 C 
BRANCH  22  23
HETATM   23  C7  UNL     1       0.757  52.061 -17.809  1.00  0.00     0.124 C 
BRANCH  23  24
HETATM   24  C6  UNL     1       1.467  52.278 -16.456  1.00  0.00     0.059 C 
BRANCH  24  25
HETATM   25  C5  UNL     1       2.867  52.836 -16.559  1.00  0.00    -0.024 C 
HETATM   26  C4  UNL     1       4.002  52.381 -16.001  1.00  0.00    -0.004 C 
BRANCH  26  27
HETATM   27  C3  UNL     1       4.147  51.209 -15.166  1.00  0.00     0.002 C 
HETATM   28  C2  UNL     1       3.636  51.023 -13.930  1.00  0.00    -0.080 C 
HETATM   29  C1  UNL     1       3.892  49.725 -13.200  1.00  0.00     0.043 C 
BRANCH  28  30
HETATM   30  C26 UNL     1       2.813  52.026 -13.150  1.00  0.00     0.060 C 
BRANCH  30  31
HETATM   31  C27 UNL     1       2.986  51.852 -11.666  1.00  0.00    -0.022 C 
HETATM   32  C28 UNL     1       3.242  52.780 -10.726  1.00  0.00    -0.004 C 
BRANCH  32  33
HETATM   33  C29 UNL     1       3.460  54.188 -10.956  1.00  0.00    -0.004 C 
HETATM   34  C30 UNL     1       4.321  54.975 -10.286  1.00  0.00    -0.025 C 
BRANCH  34  35
HETATM   35  C31 UNL     1       5.202  54.616  -9.117  1.00  0.00     0.053 C 
BRANCH  35  36
HETATM   36  C32 UNL     1       6.685  54.823  -9.419  1.00  0.00     0.168 C 
BRANCH  36  37
HETATM   37  O9  UNL     1       7.343  55.443  -8.321  1.00  0.00    -0.401 OA
HETATM   38  H50 UNL     1       7.261  54.839  -7.559  1.00  0.00     0.209 HD
ENDBRANCH  36  37
ENDBRANCH  35  36
ENDBRANCH  34  35
ENDBRANCH  32  33
ENDBRANCH  30  31
ENDBRANCH  28  30
ENDBRANCH  26  27
ENDBRANCH  24  25
ENDBRANCH  23  24
BRANCH  23  39
HETATM   39  O1  UNL     1       0.307  53.301 -18.364  1.00  0.00    -0.395 OA
HETATM   40  H10 UNL     1       0.255  53.958 -17.650  1.00  0.00     0.210 HD
ENDBRANCH  23  39
ENDBRANCH  22  23
ENDBRANCH   1  22
BRANCH   7  41
HETATM   41  O3  UNL     1      -2.981  48.832 -24.645  1.00  0.00    -0.363 OA
HETATM   42  H21 UNL     1      -3.814  48.506 -24.260  1.00  0.00     0.213 HD
ENDBRANCH   7  41
BRANCH  19  43
HETATM   43  O8  UNL     1      -2.992  52.999 -26.086  1.00  0.00    -0.392 OA
HETATM   44  H35 UNL     1      -3.515  53.050 -26.908  1.00  0.00     0.210 HD
ENDBRANCH  19  43
BRANCH  18  45
HETATM   45  O7  UNL     1      -1.600  49.644 -26.606  1.00  0.00    -0.387 OA
HETATM   46  H33 UNL     1      -1.755  48.861 -26.037  1.00  0.00     0.210 HD
ENDBRANCH  18  45
TORSDOF 15
ENDMDL
MODEL 4
REMARK minimizedAffinity -9.1174202
REMARK CNNscore 0.228538096
REMARK CNNaffinity 5.51577044
REMARK  15 active torsions:
REMARK  status: ('A' for Active; 'I' for Inactive)
REMARK    1  A    between atoms: C2_2  and  C26_34 
REMARK    2  A    between atoms: C3_3  and  C4_4 
REMARK    3  A    between atoms: C5_5  and  C6_6 
REMARK    4  A    between atoms: C6_6  and  C7_7 
REMARK    5  A    between atoms: C7_7  and  O1_8 
REMARK    6  A    between atoms: C7_7  and  C8_9 
REMARK    7  A    between atoms: C8_9  and  C9_10 
REMARK    8  A    between atoms: C14_16  and  O3_17 
REMARK    9  A    between atoms: C22_28  and  O7_29 
REMARK   10  A    between atoms: C23_30  and  O8_31 
REMARK   11  A    between atoms: C26_34  and  C27_35 
REMARK   12  A    between atoms: C28_36  and  C29_37 
REMARK   13  A    between atoms: C30_38  and  C31_39 
REMARK   14  A    between atoms: C31_39  and  C32_40 
REMARK   15  A    between atoms: C32_40  and  O9_41 
ROOT
HETATM    1  C9  UNL     1      -4.844  48.887 -23.890  1.00  0.00     0.134 C 
HETATM    2  C10 UNL     1      -3.835  48.656 -25.083  1.00  0.00     0.033 C 
HETATM    3  C11 UNL     1      -3.465  49.903 -25.958  1.00  0.00     0.005 C 
HETATM    4  C12 UNL     1      -1.961  49.950 -26.351  1.00  0.00     0.032 C 
HETATM    5  C13 UNL     1      -1.257  51.355 -26.317  1.00  0.00     0.131 C 
HETATM    6  O2  UNL     1      -1.090  51.701 -24.948  1.00  0.00    -0.347 OA
HETATM    7  C14 UNL     1      -0.377  52.864 -24.567  1.00  0.00     0.191 C 
HETATM    8  C15 UNL     1       0.377  52.581 -23.202  1.00  0.00     0.074 C 
HETATM    9  C16 UNL     1      -0.408  52.357 -21.855  1.00  0.00     0.037 C 
HETATM   10  C17 UNL     1      -0.951  50.929 -21.513  1.00  0.00     0.122 C 
HETATM   11  C18 UNL     1      -1.424  50.198 -22.726  1.00  0.00     0.035 C 
HETATM   12  C19 UNL     1      -2.683  51.015 -22.940  1.00  0.00     0.045 C 
HETATM   13  C20 UNL     1      -3.315  50.905 -21.588  1.00  0.00     0.221 C 
HETATM   14  O4  UNL     1      -2.172  50.989 -20.704  1.00  0.00    -0.371 OA
HETATM   15  C21 UNL     1      -4.313  49.702 -21.620  1.00  0.00     0.288 C 
HETATM   16  O5  UNL     1      -5.215  49.551 -20.801  1.00  0.00    -0.262 OA
HETATM   17  O6  UNL     1      -4.084  48.795 -22.625  1.00  0.00    -0.314 OA
HETATM   18  C22 UNL     1       0.600  53.345 -25.682  1.00  0.00     0.209 C 
HETATM   19  C23 UNL     1       1.197  52.179 -26.463  1.00  0.00     0.158 C 
HETATM   20  C24 UNL     1       0.112  51.246 -27.040  1.00  0.00     0.042 C 
HETATM   21  C25 UNL     1      -0.079  51.494 -28.543  1.00  0.00     0.015 C 
ENDROOT
BRANCH   1  22
HETATM   22  C8  UNL     1      -5.898  47.764 -23.870  1.00  0.00     0.064 C 
BRANCH  22  23
HETATM   23  C7  UNL     1      -7.120  48.081 -24.747  1.00  0.00     0.124 C 
BRANCH  23  24
HETATM   24  C6  UNL     1      -6.895  47.774 -26.243  1.00  0.00     0.059 C 
BRANCH  24  25
HETATM   25  C5  UNL     1      -7.953  46.900 -26.875  1.00  0.00    -0.024 C 
HETATM   26  C4  UNL     1      -8.692  47.129 -27.974  1.00  0.00    -0.004 C 
BRANCH  26  27
HETATM   27  C3  UNL     1      -8.629  48.290 -28.834  1.00  0.00     0.002 C 
HETATM   28  C2  UNL     1      -8.772  48.317 -30.176  1.00  0.00    -0.080 C 
HETATM   29  C1  UNL     1      -8.673  49.631 -30.914  1.00  0.00     0.043 C 
BRANCH  28  30
HETATM   30  C26 UNL     1      -9.012  47.116 -31.068  1.00  0.00     0.060 C 
BRANCH  30  31
HETATM   31  C27 UNL     1     -10.443  47.041 -31.523  1.00  0.00    -0.022 C 
HETATM   32  C28 UNL     1     -11.461  46.325 -31.011  1.00  0.00    -0.004 C 
BRANCH  32  33
HETATM   33  C29 UNL     1     -11.381  45.404 -29.902  1.00  0.00    -0.004 C 
HETATM   34  C30 UNL     1     -12.019  45.528 -28.725  1.00  0.00    -0.025 C 
BRANCH  34  35
HETATM   35  C31 UNL     1     -12.900  46.656 -28.250  1.00  0.00     0.053 C 
BRANCH  35  36
HETATM   36  C32 UNL     1     -12.211  48.015 -28.354  1.00  0.00     0.168 C 
BRANCH  36  37
HETATM   37  O9  UNL     1     -12.662  48.889 -27.326  1.00  0.00    -0.401 OA
HETATM   38  H50 UNL     1     -12.419  48.480 -26.474  1.00  0.00     0.209 HD
ENDBRANCH  36  37
ENDBRANCH  35  36
ENDBRANCH  34  35
ENDBRANCH  32  33
ENDBRANCH  30  31
ENDBRANCH  28  30
ENDBRANCH  26  27
ENDBRANCH  24  25
ENDBRANCH  23  24
BRANCH  23  39
HETATM   39  O1  UNL     1      -7.481  49.451 -24.546  1.00  0.00    -0.395 OA
HETATM   40  H10 UNL     1      -7.203  49.961 -25.326  1.00  0.00     0.210 HD
ENDBRANCH  23  39
ENDBRANCH  22  23
ENDBRANCH   1  22
BRANCH   7  41
HETATM   41  O3  UNL     1      -1.313  53.947 -24.407  1.00  0.00    -0.363 OA
HETATM   42  H21 UNL     1      -1.398  54.123 -23.453  1.00  0.00     0.213 HD
ENDBRANCH   7  41
BRANCH  19  43
HETATM   43  O8  UNL     1       2.080  51.412 -25.631  1.00  0.00    -0.392 OA
HETATM   44  H35 UNL     1       2.906  51.923 -25.545  1.00  0.00     0.210 HD
ENDBRANCH  19  43
BRANCH  18  45
HETATM   45  O7  UNL     1      -0.105  54.189 -26.620  1.00  0.00    -0.387 OA
HETATM   46  H33 UNL     1      -0.880  54.521 -26.117  1.00  0.00     0.210 HD
ENDBRANCH  18  45
TORSDOF 15
ENDMDL
MODEL 5
REMARK minimizedAffinity -9.64262199
REMARK CNNscore 0.227366284
REMARK CNNaffinity 5.76805735
REMARK  15 active torsions:
REMARK  status: ('A' for Active; 'I' for Inactive)
REMARK    1  A    between atoms: C2_2  and  C26_34 
REMARK    2  A    between atoms: C3_3  and  C4_4 
REMARK    3  A    between atoms: C5_5  and  C6_6 
REMARK    4  A    between atoms: C6_6  and  C7_7 
REMARK    5  A    between atoms: C7_7  and  O1_8 
REMARK    6  A    between atoms: C7_7  and  C8_9 
REMARK    7  A    between atoms: C8_9  and  C9_10 
REMARK    8  A    between atoms: C14_16  and  O3_17 
REMARK    9  A    between atoms: C22_28  and  O7_29 
REMARK   10  A    between atoms: C23_30  and  O8_31 
REMARK   11  A    between atoms: C26_34  and  C27_35 
REMARK   12  A    between atoms: C28_36  and  C29_37 
REMARK   13  A    between atoms: C30_38  and  C31_39 
REMARK   14  A    between atoms: C31_39  and  C32_40 
REMARK   15  A    between atoms: C32_40  and  O9_41 
ROOT
HETATM    1  C9  UNL     1      -4.988  48.859 -24.560  1.00  0.00     0.134 C 
HETATM    2  C10 UNL     1      -3.889  48.678 -25.679  1.00  0.00     0.033 C 
HETATM    3  C11 UNL     1      -3.418  49.968 -26.435  1.00  0.00     0.005 C 
HETATM    4  C12 UNL     1      -1.886  49.998 -26.699  1.00  0.00     0.032 C 
HETATM    5  C13 UNL     1      -1.155  51.377 -26.512  1.00  0.00     0.131 C 
HETATM    6  O2  UNL     1      -1.095  51.627 -25.114  1.00  0.00    -0.347 OA
HETATM    7  C14 UNL     1      -0.389  52.742 -24.598  1.00  0.00     0.191 C 
HETATM    8  C15 UNL     1       0.241  52.348 -23.198  1.00  0.00     0.074 C 
HETATM    9  C16 UNL     1      -0.659  52.059 -21.938  1.00  0.00     0.037 C 
HETATM   10  C17 UNL     1      -1.262  50.628 -21.739  1.00  0.00     0.122 C 
HETATM   11  C18 UNL     1      -1.649  49.992 -23.033  1.00  0.00     0.035 C 
HETATM   12  C19 UNL     1      -2.866  50.857 -23.294  1.00  0.00     0.045 C 
HETATM   13  C20 UNL     1      -3.611  50.676 -22.009  1.00  0.00     0.221 C 
HETATM   14  O4  UNL     1      -2.544  50.669 -21.031  1.00  0.00    -0.371 OA
HETATM   15  C21 UNL     1      -4.630  49.508 -22.203  1.00  0.00     0.288 C 
HETATM   16  O5  UNL     1      -5.601  49.329 -21.474  1.00  0.00    -0.262 OA
HETATM   17  O6  UNL     1      -4.339  48.662 -23.246  1.00  0.00    -0.314 OA
HETATM   18  C22 UNL     1       0.688  53.267 -25.594  1.00  0.00     0.209 C 
HETATM   19  C23 UNL     1       1.321  52.138 -26.401  1.00  0.00     0.158 C 
HETATM   20  C24 UNL     1       0.267  51.276 -27.126  1.00  0.00     0.042 C 
HETATM   21  C25 UNL     1       0.207  51.627 -28.620  1.00  0.00     0.015 C 
ENDROOT
BRANCH   1  22
HETATM   22  C8  UNL     1      -6.067  47.767 -24.702  1.00  0.00     0.064 C 
BRANCH  22  23
HETATM   23  C7  UNL     1      -7.489  48.346 -24.783  1.00  0.00     0.124 C 
BRANCH  23  24
HETATM   24  C6  UNL     1      -8.229  47.970 -26.084  1.00  0.00     0.059 C 
BRANCH  24  25
HETATM   25  C5  UNL     1      -7.391  47.220 -27.094  1.00  0.00    -0.024 C 
HETATM   26  C4  UNL     1      -7.766  46.676 -28.264  1.00  0.00    -0.004 C 
BRANCH  26  27
HETATM   27  C3  UNL     1      -9.090  46.700 -28.847  1.00  0.00     0.002 C 
HETATM   28  C2  UNL     1      -9.570  47.593 -29.737  1.00  0.00    -0.080 C 
HETATM   29  C1  UNL     1     -10.989  47.462 -30.239  1.00  0.00     0.043 C 
BRANCH  28  30
HETATM   30  C26 UNL     1      -8.816  48.780 -30.299  1.00  0.00     0.060 C 
BRANCH  30  31
HETATM   31  C27 UNL     1      -8.343  48.522 -31.704  1.00  0.00    -0.022 C 
HETATM   32  C28 UNL     1      -7.151  48.064 -32.127  1.00  0.00    -0.004 C 
BRANCH  32  33
HETATM   33  C29 UNL     1      -6.012  47.757 -31.295  1.00  0.00    -0.004 C 
HETATM   34  C30 UNL     1      -4.850  47.224 -31.711  1.00  0.00    -0.025 C 
BRANCH  34  35
HETATM   35  C31 UNL     1      -4.474  46.762 -33.097  1.00  0.00     0.053 C 
BRANCH  35  36
HETATM   36  C32 UNL     1      -3.836  47.873 -33.928  1.00  0.00     0.168 C 
BRANCH  36  37
HETATM   37  O9  UNL     1      -2.491  48.098 -33.522  1.00  0.00    -0.401 OA
HETATM   38  H50 UNL     1      -2.001  47.270 -33.679  1.00  0.00     0.209 HD
ENDBRANCH  36  37
ENDBRANCH  35  36
ENDBRANCH  34  35
ENDBRANCH  32  33
ENDBRANCH  30  31
ENDBRANCH  28  30
ENDBRANCH  26  27
ENDBRANCH  24  25
ENDBRANCH  23  24
BRANCH  23  39
HETATM   39  O1  UNL     1      -7.413  49.765 -24.619  1.00  0.00    -0.395 OA
HETATM   40  H10 UNL     1      -7.549  50.184 -25.485  1.00  0.00     0.210 HD
ENDBRANCH  23  39
ENDBRANCH  22  23
ENDBRANCH   1  22
BRANCH   7  41
HETATM   41  O3  UNL     1      -1.310  53.838 -24.442  1.00  0.00    -0.363 OA
HETATM   42  H21 UNL     1      -1.471  53.954 -23.489  1.00  0.00     0.213 HD
ENDBRANCH   7  41
BRANCH  19  43
HETATM   43  O8  UNL     1       2.113  51.293 -25.553  1.00  0.00    -0.392 OA
HETATM   44  H35 UNL     1       2.941  51.774 -25.365  1.00  0.00     0.210 HD
ENDBRANCH  19  43
BRANCH  18  45
HETATM   45  O7  UNL     1       0.083  54.190 -26.527  1.00  0.00    -0.387 OA
HETATM   46  H33 UNL     1      -0.722  54.510 -26.068  1.00  0.00     0.210 HD
ENDBRANCH  18  45
TORSDOF 15
ENDMDL
MODEL 6
REMARK minimizedAffinity -9.23715782
REMARK CNNscore 0.227001414
REMARK CNNaffinity 6.66019297
REMARK  15 active torsions:
REMARK  status: ('A' for Active; 'I' for Inactive)
REMARK    1  A    between atoms: C2_2  and  C26_34 
REMARK    2  A    between atoms: C3_3  and  C4_4 
REMARK    3  A    between atoms: C5_5  and  C6_6 
REMARK    4  A    between atoms: C6_6  and  C7_7 
REMARK    5  A    between atoms: C7_7  and  O1_8 
REMARK    6  A    between atoms: C7_7  and  C8_9 
REMARK    7  A    between atoms: C8_9  and  C9_10 
REMARK    8  A    between atoms: C14_16  and  O3_17 
REMARK    9  A    between atoms: C22_28  and  O7_29 
REMARK   10  A    between atoms: C23_30  and  O8_31 
REMARK   11  A    between atoms: C26_34  and  C27_35 
REMARK   12  A    between atoms: C28_36  and  C29_37 
REMARK   13  A    between atoms: C30_38  and  C31_39 
REMARK   14  A    between atoms: C31_39  and  C32_40 
REMARK   15  A    between atoms: C32_40  and  O9_41 
ROOT
HETATM    1  C9  UNL     1      -5.461  48.223 -27.952  1.00  0.00     0.134 C 
HETATM    2  C10 UNL     1      -6.261  47.210 -27.043  1.00  0.00     0.033 C 
HETATM    3  C11 UNL     1      -7.689  47.649 -26.567  1.00  0.00     0.005 C 
HETATM    4  C12 UNL     1      -8.728  46.493 -26.600  1.00  0.00     0.032 C 
HETATM    5  C13 UNL     1     -10.175  46.846 -27.101  1.00  0.00     0.131 C 
HETATM    6  O2  UNL     1     -10.090  47.043 -28.506  1.00  0.00    -0.347 OA
HETATM    7  C14 UNL     1     -11.251  47.262 -29.288  1.00  0.00     0.191 C 
HETATM    8  C15 UNL     1     -11.039  46.607 -30.716  1.00  0.00     0.074 C 
HETATM    9  C16 UNL     1      -9.981  47.172 -31.737  1.00  0.00     0.037 C 
HETATM   10  C17 UNL     1      -8.489  46.709 -31.627  1.00  0.00     0.122 C 
HETATM   11  C18 UNL     1      -8.058  46.516 -30.211  1.00  0.00     0.035 C 
HETATM   12  C19 UNL     1      -8.002  47.986 -29.845  1.00  0.00     0.045 C 
HETATM   13  C20 UNL     1      -7.116  48.506 -30.933  1.00  0.00     0.221 C 
HETATM   14  O4  UNL     1      -7.561  47.748 -32.084  1.00  0.00    -0.371 OA
HETATM   15  C21 UNL     1      -5.648  48.507 -30.399  1.00  0.00     0.288 C 
HETATM   16  O5  UNL     1      -4.745  49.168 -30.904  1.00  0.00    -0.262 OA
HETATM   17  O6  UNL     1      -5.429  47.678 -29.326  1.00  0.00    -0.314 OA
HETATM   18  C22 UNL     1     -12.538  46.731 -28.589  1.00  0.00     0.209 C 
HETATM   19  C23 UNL     1     -12.268  45.471 -27.772  1.00  0.00     0.158 C 
HETATM   20  C24 UNL     1     -11.125  45.669 -26.755  1.00  0.00     0.042 C 
HETATM   21  C25 UNL     1     -11.682  45.858 -25.336  1.00  0.00     0.015 C 
ENDROOT
BRANCH   1  22
HETATM   22  C8  UNL     1      -4.001  48.323 -27.468  1.00  0.00     0.064 C 
BRANCH  22  23
HETATM   23  C7  UNL     1      -3.665  49.701 -26.876  1.00  0.00     0.124 C 
BRANCH  23  24
HETATM   24  C6  UNL     1      -2.851  50.596 -27.834  1.00  0.00     0.059 C 
BRANCH  24  25
HETATM   25  C5  UNL     1      -2.583  51.992 -27.320  1.00  0.00    -0.024 C 
HETATM   26  C4  UNL     1      -1.413  52.551 -26.966  1.00  0.00    -0.004 C 
BRANCH  26  27
HETATM   27  C3  UNL     1      -0.107  51.931 -27.012  1.00  0.00     0.002 C 
HETATM   28  C2  UNL     1       0.874  52.033 -26.090  1.00  0.00    -0.080 C 
HETATM   29  C1  UNL     1       2.184  51.312 -26.307  1.00  0.00     0.043 C 
BRANCH  28  30
HETATM   30  C26 UNL     1       0.813  52.845 -24.814  1.00  0.00     0.060 C 
BRANCH  30  31
HETATM   31  C27 UNL     1      -0.011  52.158 -23.759  1.00  0.00    -0.022 C 
HETATM   32  C28 UNL     1       0.065  52.266 -22.420  1.00  0.00    -0.004 C 
BRANCH  32  33
HETATM   33  C29 UNL     1       1.019  53.057 -21.681  1.00  0.00    -0.004 C 
HETATM   34  C30 UNL     1       1.054  53.210 -20.345  1.00  0.00    -0.025 C 
BRANCH  34  35
HETATM   35  C31 UNL     1       0.098  52.665 -19.315  1.00  0.00     0.053 C 
BRANCH  35  36
HETATM   36  C32 UNL     1       0.744  52.523 -17.938  1.00  0.00     0.168 C 
BRANCH  36  37
HETATM   37  O9  UNL     1       0.707  51.169 -17.501  1.00  0.00    -0.401 OA
HETATM   38  H50 UNL     1       1.222  50.646 -18.144  1.00  0.00     0.209 HD
ENDBRANCH  36  37
ENDBRANCH  35  36
ENDBRANCH  34  35
ENDBRANCH  32  33
ENDBRANCH  30  31
ENDBRANCH  28  30
ENDBRANCH  26  27
ENDBRANCH  24  25
ENDBRANCH  23  24
BRANCH  23  39
HETATM   39  O1  UNL     1      -2.980  49.508 -25.635  1.00  0.00    -0.395 OA
HETATM   40  H10 UNL     1      -2.037  49.704 -25.770  1.00  0.00     0.210 HD
ENDBRANCH  23  39
ENDBRANCH  22  23
ENDBRANCH   1  22
BRANCH   7  41
HETATM   41  O3  UNL     1     -11.460  48.681 -29.414  1.00  0.00    -0.363 OA
HETATM   42  H21 UNL     1     -11.235  48.932 -30.327  1.00  0.00     0.213 HD
ENDBRANCH   7  41
BRANCH  19  43
HETATM   43  O8  UNL     1     -11.944  44.370 -28.633  1.00  0.00    -0.392 OA
HETATM   44  H35 UNL     1     -12.779  44.066 -29.034  1.00  0.00     0.210 HD
ENDBRANCH  19  43
BRANCH  18  45
HETATM   45  O7  UNL     1     -13.057  47.737 -27.691  1.00  0.00    -0.387 OA
HETATM   46  H33 UNL     1     -12.691  48.581 -28.030  1.00  0.00     0.210 HD
ENDBRANCH  18  45
TORSDOF 15
ENDMDL
MODEL 7
REMARK minimizedAffinity -8.27522182
REMARK CNNscore 0.226042822
REMARK CNNaffinity 5.32188559
REMARK  15 active torsions:
REMARK  status: ('A' for Active; 'I' for Inactive)
REMARK    1  A    between atoms: C2_2  and  C26_34 
REMARK    2  A    between atoms: C3_3  and  C4_4 
REMARK    3  A    between atoms: C5_5  and  C6_6 
REMARK    4  A    between atoms: C6_6  and  C7_7 
REMARK    5  A    between atoms: C7_7  and  O1_8 
REMARK    6  A    between atoms: C7_7  and  C8_9 
REMARK    7  A    between atoms: C8_9  and  C9_10 
REMARK    8  A    between atoms: C14_16  and  O3_17 
REMARK    9  A    between atoms: C22_28  and  O7_29 
REMARK   10  A    between atoms: C23_30  and  O8_31 
REMARK   11  A    between atoms: C26_34  and  C27_35 
REMARK   12  A    between atoms: C28_36  and  C29_37 
REMARK   13  A    between atoms: C30_38  and  C31_39 
REMARK   14  A    between atoms: C31_39  and  C32_40 
REMARK   15  A    between atoms: C32_40  and  O9_41 
ROOT
HETATM    1  C9  UNL     1      -5.151  48.522 -21.634  1.00  0.00     0.134 C 
HETATM    2  C10 UNL     1      -4.829  48.095 -23.119  1.00  0.00     0.033 C 
HETATM    3  C11 UNL     1      -4.937  49.204 -24.222  1.00  0.00     0.005 C 
HETATM    4  C12 UNL     1      -3.801  49.127 -25.282  1.00  0.00     0.032 C 
HETATM    5  C13 UNL     1      -3.186  50.488 -25.772  1.00  0.00     0.131 C 
HETATM    6  O2  UNL     1      -2.394  50.991 -24.704  1.00  0.00    -0.347 OA
HETATM    7  C14 UNL     1      -1.602  52.155 -24.864  1.00  0.00     0.191 C 
HETATM    8  C15 UNL     1      -0.286  52.005 -23.994  1.00  0.00     0.074 C 
HETATM    9  C16 UNL     1      -0.332  51.989 -22.420  1.00  0.00     0.037 C 
HETATM   10  C17 UNL     1      -0.627  50.643 -21.676  1.00  0.00     0.122 C 
HETATM   11  C18 UNL     1      -1.609  49.792 -22.411  1.00  0.00     0.035 C 
HETATM   12  C19 UNL     1      -2.830  50.640 -22.110  1.00  0.00     0.045 C 
HETATM   13  C20 UNL     1      -2.741  50.729 -20.619  1.00  0.00     0.221 C 
HETATM   14  O4  UNL     1      -1.316  50.864 -20.401  1.00  0.00    -0.371 OA
HETATM   15  C21 UNL     1      -3.616  49.584 -20.015  1.00  0.00     0.288 C 
HETATM   16  O5  UNL     1      -4.019  49.580 -18.856  1.00  0.00    -0.262 OA
HETATM   17  O6  UNL     1      -3.880  48.549 -20.880  1.00  0.00    -0.314 OA
HETATM   18  C22 UNL     1      -1.280  52.445 -26.361  1.00  0.00     0.209 C 
HETATM   19  C23 UNL     1      -1.109  51.163 -27.169  1.00  0.00     0.158 C 
HETATM   20  C24 UNL     1      -2.324  50.222 -27.034  1.00  0.00     0.042 C 
HETATM   21  C25 UNL     1      -3.211  50.291 -28.286  1.00  0.00     0.015 C 
ENDROOT
BRANCH   1  22
HETATM   22  C8  UNL     1      -6.053  47.465 -20.968  1.00  0.00     0.064 C 
BRANCH  22  23
HETATM   23  C7  UNL     1      -6.993  46.772 -21.968  1.00  0.00     0.124 C 
BRANCH  23  24
HETATM   24  C6  UNL     1      -8.481  47.119 -21.749  1.00  0.00     0.059 C 
BRANCH  24  25
HETATM   25  C5  UNL     1      -9.396  45.924 -21.613  1.00  0.00    -0.024 C 
HETATM   26  C4  UNL     1     -10.395  45.529 -22.420  1.00  0.00    -0.004 C 
BRANCH  26  27
HETATM   27  C3  UNL     1     -10.823  46.167 -23.646  1.00  0.00     0.002 C 
HETATM   28  C2  UNL     1     -12.087  46.277 -24.108  1.00  0.00    -0.080 C 
HETATM   29  C1  UNL     1     -12.347  46.982 -25.418  1.00  0.00     0.043 C 
BRANCH  28  30
HETATM   30  C26 UNL     1     -13.328  45.730 -23.435  1.00  0.00     0.060 C 
BRANCH  30  31
HETATM   31  C27 UNL     1     -14.136  46.821 -22.789  1.00  0.00    -0.022 C 
HETATM   32  C28 UNL     1     -15.261  47.415 -23.224  1.00  0.00    -0.004 C 
BRANCH  32  33
HETATM   33  C29 UNL     1     -15.933  47.156 -24.475  1.00  0.00    -0.004 C 
HETATM   34  C30 UNL     1     -17.168  46.643 -24.617  1.00  0.00    -0.025 C 
BRANCH  34  35
HETATM   35  C31 UNL     1     -18.113  46.162 -23.545  1.00  0.00     0.053 C 
BRANCH  35  36
HETATM   36  C32 UNL     1     -19.557  46.079 -24.034  1.00  0.00     0.168 C 
BRANCH  36  37
HETATM   37  O9  UNL     1     -19.734  46.849 -25.218  1.00  0.00    -0.401 OA
HETATM   38  H50 UNL     1     -19.150  46.467 -25.899  1.00  0.00     0.209 HD
ENDBRANCH  36  37
ENDBRANCH  35  36
ENDBRANCH  34  35
ENDBRANCH  32  33
ENDBRANCH  30  31
ENDBRANCH  28  30
ENDBRANCH  26  27
ENDBRANCH  24  25
ENDBRANCH  23  24
BRANCH  23  39
HETATM   39  O1  UNL     1      -6.772  45.361 -21.897  1.00  0.00    -0.395 OA
HETATM   40  H10 UNL     1      -7.517  44.955 -21.422  1.00  0.00     0.210 HD
ENDBRANCH  23  39
ENDBRANCH  22  23
ENDBRANCH   1  22
BRANCH   7  41
HETATM   41  O3  UNL     1      -2.365  53.295 -24.425  1.00  0.00    -0.363 OA
HETATM   42  H21 UNL     1      -1.989  53.592 -23.577  1.00  0.00     0.213 HD
ENDBRANCH   7  41
BRANCH  19  43
HETATM   43  O8  UNL     1       0.074  50.461 -26.761  1.00  0.00    -0.392 OA
HETATM   44  H35 UNL     1       0.834  50.937 -27.144  1.00  0.00     0.210 HD
ENDBRANCH  19  43
BRANCH  18  45
HETATM   45  O7  UNL     1      -2.358  53.201 -26.956  1.00  0.00    -0.387 OA
HETATM   46  H33 UNL     1      -2.805  53.631 -26.195  1.00  0.00     0.210 HD
ENDBRANCH  18  45
TORSDOF 15
ENDMDL
MODEL 8
REMARK minimizedAffinity -8.79755878
REMARK CNNscore 0.218016133
REMARK CNNaffinity 5.64569283
REMARK  15 active torsions:
REMARK  status: ('A' for Active; 'I' for Inactive)
REMARK    1  A    between atoms: C2_2  and  C26_34 
REMARK    2  A    between atoms: C3_3  and  C4_4 
REMARK    3  A    between atoms: C5_5  and  C6_6 
REMARK    4  A    between atoms: C6_6  and  C7_7 
REMARK    5  A    between atoms: C7_7  and  O1_8 
REMARK    6  A    between atoms: C7_7  and  C8_9 
REMARK    7  A    between atoms: C8_9  and  C9_10 
REMARK    8  A    between atoms: C14_16  and  O3_17 
REMARK    9  A    between atoms: C22_28  and  O7_29 
REMARK   10  A    between atoms: C23_30  and  O8_31 
REMARK   11  A    between atoms: C26_34  and  C27_35 
REMARK   12  A    between atoms: C28_36  and  C29_37 
REMARK   13  A    between atoms: C30_38  and  C31_39 
REMARK   14  A    between atoms: C31_39  and  C32_40 
REMARK   15  A    between atoms: C32_40  and  O9_41 
ROOT
HETATM    1  C9  UNL     1      -4.700  48.958 -23.724  1.00  0.00     0.134 C 
HETATM    2  C10 UNL     1      -3.725  48.702 -24.939  1.00  0.00     0.033 C 
HETATM    3  C11 UNL     1      -3.387  49.927 -25.857  1.00  0.00     0.005 C 
HETATM    4  C12 UNL     1      -1.896  49.972 -26.294  1.00  0.00     0.032 C 
HETATM    5  C13 UNL     1      -1.199  51.381 -26.317  1.00  0.00     0.131 C 
HETATM    6  O2  UNL     1      -0.995  51.764 -24.964  1.00  0.00    -0.347 OA
HETATM    7  C14 UNL     1      -0.278  52.940 -24.634  1.00  0.00     0.191 C 
HETATM    8  C15 UNL     1       0.516  52.696 -23.284  1.00  0.00     0.074 C 
HETATM    9  C16 UNL     1      -0.228  52.504 -21.909  1.00  0.00     0.037 C 
HETATM   10  C17 UNL     1      -0.753  51.083 -21.515  1.00  0.00     0.122 C 
HETATM   11  C18 UNL     1      -1.256  50.317 -22.694  1.00  0.00     0.035 C 
HETATM   12  C19 UNL     1      -2.526  51.122 -22.893  1.00  0.00     0.045 C 
HETATM   13  C20 UNL     1      -3.118  51.044 -21.520  1.00  0.00     0.221 C 
HETATM   14  O4  UNL     1      -1.950  51.157 -20.672  1.00  0.00    -0.371 OA
HETATM   15  C21 UNL     1      -4.109  49.836 -21.492  1.00  0.00     0.288 C 
HETATM   16  O5  UNL     1      -4.986  49.701 -20.644  1.00  0.00    -0.262 OA
HETATM   17  O6  UNL     1      -3.903  48.904 -22.480  1.00  0.00    -0.314 OA
HETATM   18  C22 UNL     1       0.663  53.397 -25.789  1.00  0.00     0.209 C 
HETATM   19  C23 UNL     1       1.244  52.213 -26.556  1.00  0.00     0.158 C 
HETATM   20  C24 UNL     1       0.149  51.260 -27.077  1.00  0.00     0.042 C 
HETATM   21  C25 UNL     1      -0.088  51.467 -28.580  1.00  0.00     0.015 C 
ENDROOT
BRANCH   1  22
HETATM   22  C8  UNL     1      -5.747  47.831 -23.643  1.00  0.00     0.064 C 
BRANCH  22  23
HETATM   23  C7  UNL     1      -7.063  48.192 -24.351  1.00  0.00     0.124 C 
BRANCH  23  24
HETATM   24  C6  UNL     1      -7.180  47.591 -25.768  1.00  0.00     0.059 C 
BRANCH  24  25
HETATM   25  C5  UNL     1      -8.584  47.550 -26.324  1.00  0.00    -0.024 C 
HETATM   26  C4  UNL     1      -9.085  46.772 -27.299  1.00  0.00    -0.004 C 
BRANCH  26  27
HETATM   27  C3  UNL     1      -8.377  45.756 -28.046  1.00  0.00     0.002 C 
HETATM   28  C2  UNL     1      -8.852  45.025 -29.076  1.00  0.00    -0.080 C 
HETATM   29  C1  UNL     1      -7.963  44.000 -29.741  1.00  0.00     0.043 C 
BRANCH  28  30
HETATM   30  C26 UNL     1     -10.249  45.108 -29.654  1.00  0.00     0.060 C 
BRANCH  30  31
HETATM   31  C27 UNL     1     -10.238  45.656 -31.055  1.00  0.00    -0.022 C 
HETATM   32  C28 UNL     1     -10.074  46.926 -31.468  1.00  0.00    -0.004 C 
BRANCH  32  33
HETATM   33  C29 UNL     1      -9.915  48.084 -30.621  1.00  0.00    -0.004 C 
HETATM   34  C30 UNL     1      -8.801  48.826 -30.497  1.00  0.00    -0.025 C 
BRANCH  34  35
HETATM   35  C31 UNL     1      -7.454  48.608 -31.140  1.00  0.00     0.053 C 
BRANCH  35  36
HETATM   36  C32 UNL     1      -6.466  47.921 -30.201  1.00  0.00     0.168 C 
BRANCH  36  37
HETATM   37  O9  UNL     1      -6.343  48.642 -28.980  1.00  0.00    -0.401 OA
HETATM   38  H50 UNL     1      -7.223  48.646 -28.560  1.00  0.00     0.209 HD
ENDBRANCH  36  37
ENDBRANCH  35  36
ENDBRANCH  34  35
ENDBRANCH  32  33
ENDBRANCH  30  31
ENDBRANCH  28  30
ENDBRANCH  26  27
ENDBRANCH  24  25
ENDBRANCH  23  24
BRANCH  23  39
HETATM   39  O1  UNL     1      -7.189  49.616 -24.379  1.00  0.00    -0.395 OA
HETATM   40  H10 UNL     1      -7.003  49.926 -25.281  1.00  0.00     0.210 HD
ENDBRANCH  23  39
ENDBRANCH  22  23
ENDBRANCH   1  22
BRANCH   7  41
HETATM   41  O3  UNL     1      -1.216  54.021 -24.475  1.00  0.00    -0.363 OA
HETATM   42  H21 UNL     1      -1.275  54.223 -23.524  1.00  0.00     0.213 HD
ENDBRANCH   7  41
BRANCH  19  43
HETATM   43  O8  UNL     1       2.155  51.474 -25.730  1.00  0.00    -0.392 OA
HETATM   44  H35 UNL     1       2.981  51.991 -25.682  1.00  0.00     0.210 HD
ENDBRANCH  19  43
BRANCH  18  45
HETATM   45  O7  UNL     1      -0.074  54.212 -26.727  1.00  0.00    -0.387 OA
HETATM   46  H33 UNL     1      -0.836  54.553 -26.211  1.00  0.00     0.210 HD
ENDBRANCH  18  45
TORSDOF 15
ENDMDL
MODEL 9
REMARK minimizedAffinity -8.52941322
REMARK CNNscore 0.215669841
REMARK CNNaffinity 5.87720251
REMARK  15 active torsions:
REMARK  status: ('A' for Active; 'I' for Inactive)
REMARK    1  A    between atoms: C2_2  and  C26_34 
REMARK    2  A    between atoms: C3_3  and  C4_4 
REMARK    3  A    between atoms: C5_5  and  C6_6 
REMARK    4  A    between atoms: C6_6  and  C7_7 
REMARK    5  A    between atoms: C7_7  and  O1_8 
REMARK    6  A    between atoms: C7_7  and  C8_9 
REMARK    7  A    between atoms: C8_9  and  C9_10 
REMARK    8  A    between atoms: C14_16  and  O3_17 
REMARK    9  A    between atoms: C22_28  and  O7_29 
REMARK   10  A    between atoms: C23_30  and  O8_31 
REMARK   11  A    between atoms: C26_34  and  C27_35 
REMARK   12  A    between atoms: C28_36  and  C29_37 
REMARK   13  A    between atoms: C30_38  and  C31_39 
REMARK   14  A    between atoms: C31_39  and  C32_40 
REMARK   15  A    between atoms: C32_40  and  O9_41 
ROOT
HETATM    1  C9  UNL     1      -2.830  49.140 -19.945  1.00  0.00     0.134 C 
HETATM    2  C10 UNL     1      -2.774  48.413 -21.345  1.00  0.00     0.033 C 
HETATM    3  C11 UNL     1      -3.426  49.155 -22.563  1.00  0.00     0.005 C 
HETATM    4  C12 UNL     1      -2.598  49.027 -23.873  1.00  0.00     0.032 C 
HETATM    5  C13 UNL     1      -2.491  50.307 -24.779  1.00  0.00     0.131 C 
HETATM    6  O2  UNL     1      -1.623  51.215 -24.113  1.00  0.00    -0.347 OA
HETATM    7  C14 UNL     1      -1.221  52.428 -24.723  1.00  0.00     0.191 C 
HETATM    8  C15 UNL     1       0.258  52.767 -24.267  1.00  0.00     0.074 C 
HETATM    9  C16 UNL     1       0.596  53.152 -22.777  1.00  0.00     0.037 C 
HETATM   10  C17 UNL     1       0.846  52.015 -21.730  1.00  0.00     0.122 C 
HETATM   11  C18 UNL     1      -0.030  50.829 -21.962  1.00  0.00     0.035 C 
HETATM   12  C19 UNL     1      -1.319  51.471 -21.489  1.00  0.00     0.045 C 
HETATM   13  C20 UNL     1      -0.901  51.960 -20.138  1.00  0.00     0.221 C 
HETATM   14  O4  UNL     1       0.449  52.421 -20.379  1.00  0.00    -0.371 OA
HETATM   15  C21 UNL     1      -1.280  50.864 -19.091  1.00  0.00     0.288 C 
HETATM   16  O5  UNL     1      -1.378  51.083 -17.887  1.00  0.00    -0.262 OA
HETATM   17  O6  UNL     1      -1.467  49.609 -19.618  1.00  0.00    -0.314 OA
HETATM   18  C22 UNL     1      -1.354  52.376 -26.275  1.00  0.00     0.209 C 
HETATM   19  C23 UNL     1      -1.057  50.986 -26.830  1.00  0.00     0.158 C 
HETATM   20  C24 UNL     1      -1.918  49.895 -26.161  1.00  0.00     0.042 C 
HETATM   21  C25 UNL     1      -3.067  49.463 -27.085  1.00  0.00     0.015 C 
ENDROOT
BRANCH   1  22
HETATM   22  C8  UNL     1      -3.241  48.138 -18.849  1.00  0.00     0.064 C 
BRANCH  22  23
HETATM   23  C7  UNL     1      -2.895  46.685 -19.214  1.00  0.00     0.124 C 
BRANCH  23  24
HETATM   24  C6  UNL     1      -3.816  46.092 -20.302  1.00  0.00     0.059 C 
BRANCH  24  25
HETATM   25  C5  UNL     1      -5.060  45.414 -19.777  1.00  0.00    -0.024 C 
HETATM   26  C4  UNL     1      -6.187  45.968 -19.299  1.00  0.00    -0.004 C 
BRANCH  26  27
HETATM   27  C3  UNL     1      -6.479  47.381 -19.191  1.00  0.00     0.002 C 
HETATM   28  C2  UNL     1      -6.731  48.239 -20.203  1.00  0.00    -0.080 C 
HETATM   29  C1  UNL     1      -7.017  49.691 -19.901  1.00  0.00     0.043 C 
BRANCH  28  30
HETATM   30  C26 UNL     1      -6.739  47.894 -21.678  1.00  0.00     0.060 C 
BRANCH  30  31
HETATM   31  C27 UNL     1      -6.846  49.126 -22.534  1.00  0.00    -0.022 C 
HETATM   32  C28 UNL     1      -6.856  49.228 -23.876  1.00  0.00    -0.004 C 
BRANCH  32  33
HETATM   33  C29 UNL     1      -6.714  48.141 -24.815  1.00  0.00    -0.004 C 
HETATM   34  C30 UNL     1      -7.712  47.535 -25.481  1.00  0.00    -0.025 C 
BRANCH  34  35
HETATM   35  C31 UNL     1      -9.196  47.782 -25.373  1.00  0.00     0.053 C 
BRANCH  35  36
HETATM   36  C32 UNL     1      -9.704  48.754 -26.436  1.00  0.00     0.168 C 
BRANCH  36  37
HETATM   37  O9  UNL     1      -9.646  50.095 -25.963  1.00  0.00    -0.401 OA
HETATM   38  H50 UNL     1      -8.709  50.294 -25.779  1.00  0.00     0.209 HD
ENDBRANCH  36  37
ENDBRANCH  35  36
ENDBRANCH  34  35
ENDBRANCH  32  33
ENDBRANCH  30  31
ENDBRANCH  28  30
ENDBRANCH  26  27
ENDBRANCH  24  25
ENDBRANCH  23  24
BRANCH  23  39
HETATM   39  O1  UNL     1      -2.926  45.897 -18.021  1.00  0.00    -0.395 OA
HETATM   40  H10 UNL     1      -3.734  45.357 -18.027  1.00  0.00     0.210 HD
ENDBRANCH  23  39
ENDBRANCH  22  23
ENDBRANCH   1  22
BRANCH   7  41
HETATM   41  O3  UNL     1      -2.124  53.472 -24.312  1.00  0.00    -0.363 OA
HETATM   42  H21 UNL     1      -1.646  54.046 -23.689  1.00  0.00     0.213 HD
ENDBRANCH   7  41
BRANCH  19  43
HETATM   43  O8  UNL     1       0.330  50.659 -26.657  1.00  0.00    -0.392 OA
HETATM   44  H35 UNL     1       0.827  51.157 -27.333  1.00  0.00     0.210 HD
ENDBRANCH  19  43
BRANCH  18  45
HETATM   45  O7  UNL     1      -2.701  52.727 -26.663  1.00  0.00    -0.387 OA
HETATM   46  H33 UNL     1      -3.048  53.244 -25.905  1.00  0.00     0.210 HD
ENDBRANCH  18  45
TORSDOF 15
ENDMDL
