MODEL 1
REMARK minimizedAffinity -7.92922783
REMARK CNNscore 0.426279694
REMARK CNNaffinity 6.51114988
REMARK  9 active torsions:
REMARK  status: ('A' for Active; 'I' for Inactive)
REMARK    1  A    between atoms: C3_3  and  O1_4 
REMARK    2  A    between atoms: N1_14  and  O2_16 
REMARK    3  A    between atoms: O2_16  and  C13_17 
REMARK    4  A    between atoms: C13_17  and  C14_18 
REMARK       I    between atoms: C14_18  and  N2_20 
REMARK    5  A    between atoms: N2_20  and  C15_21 
REMARK    6  A    between atoms: C15_21  and  C16_22 
REMARK    7  A    between atoms: C15_21  and  C18_26 
REMARK    8  A    between atoms: C16_22  and  C17_23 
REMARK    9  A    between atoms: C17_23  and  O5_25 
ROOT
HETATM    1  C1  UNL     1       0.450  55.612 -24.543  1.00  0.00     0.015 C 
HETATM    2  C2  UNL     1       0.303  54.583 -25.146  1.00  0.00    -0.078 C 
HETATM    3  C3  UNL     1       0.140  53.330 -25.906  1.00  0.00     0.128 C 
HETATM    4  C4  UNL     1      -0.779  53.521 -27.125  1.00  0.00     0.052 C 
HETATM    5  C5  UNL     1      -1.472  52.165 -27.349  1.00  0.00     0.010 C 
HETATM    6  C6  UNL     1      -0.967  51.219 -26.241  1.00  0.00     0.002 C 
HETATM    7  C7  UNL     1      -1.945  50.104 -25.812  1.00  0.00    -0.004 C 
HETATM    8  C8  UNL     1      -2.403  49.276 -27.021  1.00  0.00     0.010 C 
HETATM    9  C9  UNL     1      -3.255  48.094 -26.582  1.00  0.00     0.035 C 
HETATM   10  C10 UNL     1      -4.442  48.521 -25.751  1.00  0.00    -0.069 C 
HETATM   11  C11 UNL     1      -5.654  48.001 -26.016  1.00  0.00     0.030 C 
HETATM   12  C12 UNL     1      -6.828  48.250 -25.138  1.00  0.00     0.032 C 
HETATM   13  N1  UNL     1      -7.923  47.585 -25.383  1.00  0.00    -0.271 N 
ATOM     14  H1  UNL     1      -8.037  46.929 -26.154  1.00  0.00     0.194 HD
HETATM   15  C25 UNL     1      -6.656  49.183 -23.958  1.00  0.00     0.060 C 
HETATM   16  C26 UNL     1      -5.503  50.157 -24.162  1.00  0.00     0.020 C 
HETATM   17  C27 UNL     1      -4.168  49.482 -24.588  1.00  0.00    -0.016 C 
HETATM   18  C28 UNL     1      -3.611  48.647 -23.410  1.00  0.00     0.020 C 
HETATM   19  C29 UNL     1      -3.168  50.632 -25.025  1.00  0.00     0.002 C 
HETATM   20  C30 UNL     1      -2.694  51.514 -23.850  1.00  0.00     0.007 C 
HETATM   21  C31 UNL     1      -1.778  52.652 -24.304  1.00  0.00     0.014 C 
HETATM   22  C32 UNL     1      -0.533  52.175 -25.097  1.00  0.00     0.003 C 
HETATM   23  C33 UNL     1       0.462  51.482 -24.148  1.00  0.00     0.020 C 
ENDROOT
BRANCH   3  24
HETATM   24  O1  UNL     1       1.436  52.943 -26.366  1.00  0.00    -0.377 OA
HETATM   25  H2  UNL     1       1.329  52.329 -27.111  1.00  0.00     0.211 HD
ENDBRANCH   3  24
BRANCH  13  26
HETATM   26  O2  UNL     1      -8.925  47.892 -24.444  1.00  0.00    -0.271 OA
BRANCH  26  27
HETATM   27  C13 UNL     1     -10.164  47.334 -24.865  1.00  0.00     0.303 C 
BRANCH  27  28
HETATM   28  C14 UNL     1     -10.930  46.823 -23.656  1.00  0.00     0.244 C 
HETATM   29  O3  UNL     1     -10.380  46.237 -22.727  1.00  0.00    -0.271 OA
HETATM   30  N2  UNL     1     -12.299  47.003 -23.741  1.00  0.00    -0.354 N 
HETATM   31  H16 UNL     1     -12.650  47.468 -24.574  1.00  0.00     0.162 HD
BRANCH  30  32
HETATM   32  C15 UNL     1     -13.235  46.380 -22.804  1.00  0.00     0.098 C 
BRANCH  32  33
HETATM   33  C16 UNL     1     -13.568  47.343 -21.654  1.00  0.00     0.135 C 
BRANCH  33  34
HETATM   34  C17 UNL     1     -12.905  46.919 -20.376  1.00  0.00     0.141 C 
HETATM   35  O4  UNL     1     -12.361  45.846 -20.167  1.00  0.00    -0.650 OA
BRANCH  34  36
HETATM   36  O5  UNL     1     -12.918  47.881 -19.433  1.00  0.00    -0.776 OA
HETATM   37  H20 UNL     1     -12.478  47.463 -18.662  1.00  0.00     0.167 HD
ENDBRANCH  34  36
ENDBRANCH  33  34
ENDBRANCH  32  33
BRANCH  32  38
HETATM   38  C18 UNL     1     -14.533  45.883 -23.512  1.00  0.00     0.014 C 
HETATM   39  C19 UNL     1     -14.610  46.334 -24.982  1.00  0.00     0.033 C 
HETATM   40  C20 UNL     1     -15.886  45.844 -25.647  1.00  0.00     0.169 C 
HETATM   41  O6  UNL     1     -17.036  46.288 -24.930  1.00  0.00    -0.381 OA
HETATM   42  C21 UNL     1     -17.101  45.859 -23.561  1.00  0.00     0.054 C 
HETATM   43  C22 UNL     1     -18.318  46.575 -22.957  1.00  0.00     0.045 C 
HETATM   44  C23 UNL     1     -17.346  44.342 -23.480  1.00  0.00     0.045 C 
HETATM   45  C24 UNL     1     -15.832  46.290 -22.792  1.00  0.00     0.044 C 
ENDBRANCH  32  38
ENDBRANCH  30  32
ENDBRANCH  27  28
ENDBRANCH  26  27
ENDBRANCH  13  26
TORSDOF 9
ENDMDL
MODEL 2
REMARK minimizedAffinity -8.00344849
REMARK CNNscore 0.406006515
REMARK CNNaffinity 5.87986183
REMARK  9 active torsions:
REMARK  status: ('A' for Active; 'I' for Inactive)
REMARK    1  A    between atoms: C3_3  and  O1_4 
REMARK    2  A    between atoms: N1_14  and  O2_16 
REMARK    3  A    between atoms: O2_16  and  C13_17 
REMARK    4  A    between atoms: C13_17  and  C14_18 
REMARK       I    between atoms: C14_18  and  N2_20 
REMARK    5  A    between atoms: N2_20  and  C15_21 
REMARK    6  A    between atoms: C15_21  and  C16_22 
REMARK    7  A    between atoms: C15_21  and  C18_26 
REMARK    8  A    between atoms: C16_22  and  C17_23 
REMARK    9  A    between atoms: C17_23  and  O5_25 
ROOT
HETATM    1  C1  UNL     1      -4.201  43.741 -32.599  1.00  0.00     0.015 C 
HETATM    2  C2  UNL     1      -4.942  44.681 -32.484  1.00  0.00    -0.078 C 
HETATM    3  C3  UNL     1      -5.831  45.849 -32.355  1.00  0.00     0.128 C 
HETATM    4  C4  UNL     1      -5.416  46.751 -31.180  1.00  0.00     0.052 C 
HETATM    5  C5  UNL     1      -6.713  47.404 -30.668  1.00  0.00     0.010 C 
HETATM    6  C6  UNL     1      -7.861  46.849 -31.535  1.00  0.00     0.002 C 
HETATM    7  C7  UNL     1      -9.243  46.775 -30.851  1.00  0.00    -0.004 C 
HETATM    8  C8  UNL     1      -9.650  48.139 -30.277  1.00  0.00     0.010 C 
HETATM    9  C9  UNL     1     -11.069  48.101 -29.727  1.00  0.00     0.035 C 
HETATM   10  C10 UNL     1     -11.252  47.014 -28.694  1.00  0.00    -0.069 C 
HETATM   11  C11 UNL     1     -11.894  47.297 -27.545  1.00  0.00     0.030 C 
HETATM   12  C12 UNL     1     -12.253  46.241 -26.561  1.00  0.00     0.032 C 
HETATM   13  N1  UNL     1     -13.007  46.580 -25.553  1.00  0.00    -0.271 N 
ATOM     14  H1  UNL     1     -13.342  47.527 -25.378  1.00  0.00     0.194 HD
HETATM   15  C25 UNL     1     -11.804  44.822 -26.837  1.00  0.00     0.060 C 
HETATM   16  C26 UNL     1     -10.593  44.774 -27.760  1.00  0.00     0.020 C 
HETATM   17  C27 UNL     1     -10.750  45.612 -29.060  1.00  0.00    -0.016 C 
HETATM   18  C28 UNL     1     -11.812  44.957 -29.974  1.00  0.00     0.020 C 
HETATM   19  C29 UNL     1      -9.328  45.683 -29.758  1.00  0.00     0.002 C 
HETATM   20  C30 UNL     1      -8.857  44.330 -30.332  1.00  0.00     0.007 C 
HETATM   21  C31 UNL     1      -7.458  44.409 -30.947  1.00  0.00     0.014 C 
HETATM   22  C32 UNL     1      -7.322  45.489 -32.052  1.00  0.00     0.003 C 
HETATM   23  C33 UNL     1      -8.074  45.044 -33.320  1.00  0.00     0.020 C 
ENDROOT
BRANCH   3  24
HETATM   24  O1  UNL     1      -5.724  46.599 -33.567  1.00  0.00    -0.377 OA
HETATM   25  H2  UNL     1      -6.029  47.505 -33.398  1.00  0.00     0.211 HD
ENDBRANCH   3  24
BRANCH  13  26
HETATM   26  O2  UNL     1     -13.297  45.471 -24.739  1.00  0.00    -0.271 OA
BRANCH  26  27
HETATM   27  C13 UNL     1     -14.226  44.620 -25.399  1.00  0.00     0.303 C 
BRANCH  27  28
HETATM   28  C14 UNL     1     -15.507  44.536 -24.586  1.00  0.00     0.244 C 
HETATM   29  O3  UNL     1     -15.924  43.478 -24.119  1.00  0.00    -0.271 OA
HETATM   30  N2  UNL     1     -16.196  45.732 -24.495  1.00  0.00    -0.354 N 
HETATM   31  H16 UNL     1     -15.777  46.538 -24.951  1.00  0.00     0.162 HD
BRANCH  30  32
HETATM   32  C15 UNL     1     -17.557  45.820 -23.963  1.00  0.00     0.098 C 
BRANCH  32  33
HETATM   33  C16 UNL     1     -18.495  44.869 -24.723  1.00  0.00     0.135 C 
BRANCH  33  34
HETATM   34  C17 UNL     1     -19.357  45.616 -25.700  1.00  0.00     0.141 C 
HETATM   35  O4  UNL     1     -20.352  46.270 -25.430  1.00  0.00    -0.650 OA
BRANCH  34  36
HETATM   36  O5  UNL     1     -18.901  45.541 -26.965  1.00  0.00    -0.776 OA
HETATM   37  H20 UNL     1     -19.562  46.047 -27.485  1.00  0.00     0.167 HD
ENDBRANCH  34  36
ENDBRANCH  33  34
ENDBRANCH  32  33
BRANCH  32  38
HETATM   38  C18 UNL     1     -17.607  45.549 -22.428  1.00  0.00     0.014 C 
HETATM   39  C19 UNL     1     -18.396  44.273 -22.083  1.00  0.00     0.033 C 
HETATM   40  C20 UNL     1     -18.437  44.035 -20.582  1.00  0.00     0.169 C 
HETATM   41  O6  UNL     1     -18.990  45.161 -19.904  1.00  0.00    -0.381 OA
HETATM   42  C21 UNL     1     -18.283  46.395 -20.099  1.00  0.00     0.054 C 
HETATM   43  C22 UNL     1     -19.134  47.477 -19.417  1.00  0.00     0.045 C 
HETATM   44  C23 UNL     1     -16.912  46.351 -19.401  1.00  0.00     0.045 C 
HETATM   45  C24 UNL     1     -18.164  46.724 -21.605  1.00  0.00     0.044 C 
ENDBRANCH  32  38
ENDBRANCH  30  32
ENDBRANCH  27  28
ENDBRANCH  26  27
ENDBRANCH  13  26
TORSDOF 9
ENDMDL
MODEL 3
REMARK minimizedAffinity -9.54135513
REMARK CNNscore 0.294072092
REMARK CNNaffinity 6.81311989
REMARK  9 active torsions:
REMARK  status: ('A' for Active; 'I' for Inactive)
REMARK    1  A    between atoms: C3_3  and  O1_4 
REMARK    2  A    between atoms: N1_14  and  O2_16 
REMARK    3  A    between atoms: O2_16  and  C13_17 
REMARK    4  A    between atoms: C13_17  and  C14_18 
REMARK       I    between atoms: C14_18  and  N2_20 
REMARK    5  A    between atoms: N2_20  and  C15_21 
REMARK    6  A    between atoms: C15_21  and  C16_22 
REMARK    7  A    between atoms: C15_21  and  C18_26 
REMARK    8  A    between atoms: C16_22  and  C17_23 
REMARK    9  A    between atoms: C17_23  and  O5_25 
ROOT
HETATM    1  C1  UNL     1      -5.553  49.103 -10.832  1.00  0.00     0.015 C 
HETATM    2  C2  UNL     1      -4.412  49.475 -10.903  1.00  0.00    -0.078 C 
HETATM    3  C3  UNL     1      -3.014  49.938 -10.963  1.00  0.00     0.128 C 
HETATM    4  C4  UNL     1      -2.925  51.474 -10.987  1.00  0.00     0.052 C 
HETATM    5  C5  UNL     1      -1.653  51.811 -11.786  1.00  0.00     0.010 C 
HETATM    6  C6  UNL     1      -1.041  50.469 -12.235  1.00  0.00     0.002 C 
HETATM    7  C7  UNL     1      -0.230  50.507 -13.548  1.00  0.00    -0.004 C 
HETATM    8  C8  UNL     1       0.871  51.574 -13.487  1.00  0.00     0.010 C 
HETATM    9  C9  UNL     1       1.758  51.517 -14.723  1.00  0.00     0.035 C 
HETATM   10  C10 UNL     1       0.965  51.646 -16.002  1.00  0.00    -0.069 C 
HETATM   11  C11 UNL     1       1.400  52.476 -16.968  1.00  0.00     0.030 C 
HETATM   12  C12 UNL     1       0.763  52.527 -18.310  1.00  0.00     0.032 C 
HETATM   13  N1  UNL     1       1.342  53.245 -19.232  1.00  0.00    -0.271 N 
ATOM     14  H1  UNL     1       2.186  53.798 -19.085  1.00  0.00     0.194 HD
HETATM   15  C25 UNL     1      -0.462  51.670 -18.556  1.00  0.00     0.060 C 
HETATM   16  C26 UNL     1      -1.188  51.327 -17.262  1.00  0.00     0.020 C 
HETATM   17  C27 UNL     1      -0.269  50.747 -16.150  1.00  0.00    -0.016 C 
HETATM   18  C28 UNL     1       0.223  49.340 -16.566  1.00  0.00     0.020 C 
HETATM   19  C29 UNL     1      -1.108  50.710 -14.806  1.00  0.00     0.002 C 
HETATM   20  C30 UNL     1      -2.248  49.668 -14.822  1.00  0.00     0.007 C 
HETATM   21  C31 UNL     1      -3.081  49.691 -13.539  1.00  0.00     0.014 C 
HETATM   22  C32 UNL     1      -2.246  49.490 -12.248  1.00  0.00     0.003 C 
HETATM   23  C33 UNL     1      -1.769  48.029 -12.151  1.00  0.00     0.020 C 
ENDROOT
BRANCH   3  24
HETATM   24  O1  UNL     1      -2.359  49.461  -9.785  1.00  0.00    -0.377 OA
HETATM   25  H2  UNL     1      -1.564  49.996  -9.635  1.00  0.00     0.211 HD
ENDBRANCH   3  24
BRANCH  13  26
HETATM   26  O2  UNL     1       0.651  53.158 -20.454  1.00  0.00    -0.271 OA
BRANCH  26  27
HETATM   27  C13 UNL     1       1.567  52.880 -21.505  1.00  0.00     0.303 C 
BRANCH  27  28
HETATM   28  C14 UNL     1       0.982  53.343 -22.828  1.00  0.00     0.244 C 
HETATM   29  O3  UNL     1       1.157  54.479 -23.265  1.00  0.00    -0.271 OA
HETATM   30  N2  UNL     1       0.174  52.406 -23.446  1.00  0.00    -0.354 N 
HETATM   31  H16 UNL     1       0.070  51.510 -22.977  1.00  0.00     0.162 HD
BRANCH  30  32
HETATM   32  C15 UNL     1      -0.667  52.728 -24.600  1.00  0.00     0.098 C 
BRANCH  32  33
HETATM   33  C16 UNL     1       0.172  52.760 -25.887  1.00  0.00     0.135 C 
BRANCH  33  34
HETATM   34  C17 UNL     1      -0.096  54.004 -26.683  1.00  0.00     0.141 C 
HETATM   35  O4  UNL     1      -0.640  54.059 -27.775  1.00  0.00    -0.650 OA
BRANCH  34  36
HETATM   36  O5  UNL     1       0.292  55.127 -26.048  1.00  0.00    -0.776 OA
HETATM   37  H20 UNL     1       0.079  55.844 -26.683  1.00  0.00     0.167 HD
ENDBRANCH  34  36
ENDBRANCH  33  34
ENDBRANCH  32  33
BRANCH  32  38
HETATM   38  C18 UNL     1      -1.872  51.747 -24.741  1.00  0.00     0.014 C 
HETATM   39  C19 UNL     1      -3.207  52.394 -24.328  1.00  0.00     0.033 C 
HETATM   40  C20 UNL     1      -4.363  51.417 -24.466  1.00  0.00     0.169 C 
HETATM   41  O6  UNL     1      -4.125  50.236 -23.704  1.00  0.00    -0.381 OA
HETATM   42  C21 UNL     1      -2.938  49.512 -24.060  1.00  0.00     0.054 C 
HETATM   43  C22 UNL     1      -2.807  48.389 -23.021  1.00  0.00     0.045 C 
HETATM   44  C23 UNL     1      -3.093  48.867 -25.448  1.00  0.00     0.045 C 
HETATM   45  C24 UNL     1      -1.694  50.425 -23.973  1.00  0.00     0.044 C 
ENDBRANCH  32  38
ENDBRANCH  30  32
ENDBRANCH  27  28
ENDBRANCH  26  27
ENDBRANCH  13  26
TORSDOF 9
ENDMDL
MODEL 4
REMARK minimizedAffinity -7.94617939
REMARK CNNscore 0.264611155
REMARK CNNaffinity 5.88766623
REMARK  9 active torsions:
REMARK  status: ('A' for Active; 'I' for Inactive)
REMARK    1  A    between atoms: C3_3  and  O1_4 
REMARK    2  A    between atoms: N1_14  and  O2_16 
REMARK    3  A    between atoms: O2_16  and  C13_17 
REMARK    4  A    between atoms: C13_17  and  C14_18 
REMARK       I    between atoms: C14_18  and  N2_20 
REMARK    5  A    between atoms: N2_20  and  C15_21 
REMARK    6  A    between atoms: C15_21  and  C16_22 
REMARK    7  A    between atoms: C15_21  and  C18_26 
REMARK    8  A    between atoms: C16_22  and  C17_23 
REMARK    9  A    between atoms: C17_23  and  O5_25 
ROOT
HETATM    1  C1  UNL     1      -2.096  50.411 -18.999  1.00  0.00     0.015 C 
HETATM    2  C2  UNL     1      -2.242  50.195 -20.173  1.00  0.00    -0.078 C 
HETATM    3  C3  UNL     1      -2.398  49.947 -21.618  1.00  0.00     0.128 C 
HETATM    4  C4  UNL     1      -3.037  51.149 -22.334  1.00  0.00     0.052 C 
HETATM    5  C5  UNL     1      -3.824  50.565 -23.521  1.00  0.00     0.010 C 
HETATM    6  C6  UNL     1      -3.653  49.034 -23.457  1.00  0.00     0.002 C 
HETATM    7  C7  UNL     1      -4.815  48.203 -24.041  1.00  0.00    -0.004 C 
HETATM    8  C8  UNL     1      -5.124  48.622 -25.485  1.00  0.00     0.010 C 
HETATM    9  C9  UNL     1      -6.174  47.712 -26.106  1.00  0.00     0.035 C 
HETATM   10  C10 UNL     1      -7.442  47.658 -25.286  1.00  0.00    -0.069 C 
HETATM   11  C11 UNL     1      -8.632  47.769 -25.904  1.00  0.00     0.030 C 
HETATM   12  C12 UNL     1      -9.917  47.561 -25.185  1.00  0.00     0.032 C 
HETATM   13  N1  UNL     1     -11.013  47.536 -25.891  1.00  0.00    -0.271 N 
ATOM     14  H1  UNL     1     -11.051  47.681 -26.900  1.00  0.00     0.194 HD
HETATM   15  C25 UNL     1      -9.869  47.293 -23.695  1.00  0.00     0.060 C 
HETATM   16  C26 UNL     1      -8.594  47.832 -23.058  1.00  0.00     0.020 C 
HETATM   17  C27 UNL     1      -7.289  47.399 -23.783  1.00  0.00    -0.016 C 
HETATM   18  C28 UNL     1      -7.067  45.880 -23.589  1.00  0.00     0.020 C 
HETATM   19  C29 UNL     1      -6.099  48.255 -23.178  1.00  0.00     0.002 C 
HETATM   20  C30 UNL     1      -5.761  47.891 -21.716  1.00  0.00     0.007 C 
HETATM   21  C31 UNL     1      -4.652  48.769 -21.135  1.00  0.00     0.014 C 
HETATM   22  C32 UNL     1      -3.341  48.750 -21.964  1.00  0.00     0.003 C 
HETATM   23  C33 UNL     1      -2.632  47.393 -21.797  1.00  0.00     0.020 C 
ENDROOT
BRANCH   3  24
HETATM   24  O1  UNL     1      -1.090  49.738 -22.155  1.00  0.00    -0.377 OA
HETATM   25  H2  UNL     1      -1.121  49.890 -23.113  1.00  0.00     0.211 HD
ENDBRANCH   3  24
BRANCH  13  26
HETATM   26  O2  UNL     1     -12.135  47.285 -25.081  1.00  0.00    -0.271 OA
BRANCH  26  27
HETATM   27  C13 UNL     1     -13.250  46.947 -25.895  1.00  0.00     0.303 C 
BRANCH  27  28
HETATM   28  C14 UNL     1     -14.363  46.382 -25.029  1.00  0.00     0.244 C 
HETATM   29  O3  UNL     1     -14.550  45.174 -24.900  1.00  0.00    -0.271 OA
HETATM   30  N2  UNL     1     -15.188  47.344 -24.474  1.00  0.00    -0.354 N 
HETATM   31  H16 UNL     1     -14.961  48.314 -24.678  1.00  0.00     0.162 HD
BRANCH  30  32
HETATM   32  C15 UNL     1     -16.446  47.013 -23.805  1.00  0.00     0.098 C 
BRANCH  32  33
HETATM   33  C16 UNL     1     -17.298  46.087 -24.687  1.00  0.00     0.135 C 
BRANCH  33  34
HETATM   34  C17 UNL     1     -18.738  46.513 -24.696  1.00  0.00     0.141 C 
HETATM   35  O4  UNL     1     -19.154  47.647 -24.873  1.00  0.00    -0.650 OA
BRANCH  34  36
HETATM   36  O5  UNL     1     -19.590  45.484 -24.526  1.00  0.00    -0.776 OA
HETATM   37  H20 UNL     1     -20.476  45.906 -24.533  1.00  0.00     0.167 HD
ENDBRANCH  34  36
ENDBRANCH  33  34
ENDBRANCH  32  33
BRANCH  32  38
HETATM   38  C18 UNL     1     -16.217  46.388 -22.395  1.00  0.00     0.014 C 
HETATM   39  C19 UNL     1     -17.535  46.136 -21.642  1.00  0.00     0.033 C 
HETATM   40  C20 UNL     1     -17.284  45.534 -20.269  1.00  0.00     0.169 C 
HETATM   41  O6  UNL     1     -16.423  46.368 -19.498  1.00  0.00    -0.381 OA
HETATM   42  C21 UNL     1     -15.132  46.608 -20.078  1.00  0.00     0.054 C 
HETATM   43  C22 UNL     1     -14.450  47.640 -19.167  1.00  0.00     0.045 C 
HETATM   44  C23 UNL     1     -14.285  45.324 -20.066  1.00  0.00     0.045 C 
HETATM   45  C24 UNL     1     -15.271  47.205 -21.496  1.00  0.00     0.044 C 
ENDBRANCH  32  38
ENDBRANCH  30  32
ENDBRANCH  27  28
ENDBRANCH  26  27
ENDBRANCH  13  26
TORSDOF 9
ENDMDL
MODEL 5
REMARK minimizedAffinity -8.7247448
REMARK CNNscore 0.254129708
REMARK CNNaffinity 6.32165384
REMARK  9 active torsions:
REMARK  status: ('A' for Active; 'I' for Inactive)
REMARK    1  A    between atoms: C3_3  and  O1_4 
REMARK    2  A    between atoms: N1_14  and  O2_16 
REMARK    3  A    between atoms: O2_16  and  C13_17 
REMARK    4  A    between atoms: C13_17  and  C14_18 
REMARK       I    between atoms: C14_18  and  N2_20 
REMARK    5  A    between atoms: N2_20  and  C15_21 
REMARK    6  A    between atoms: C15_21  and  C16_22 
REMARK    7  A    between atoms: C15_21  and  C18_26 
REMARK    8  A    between atoms: C16_22  and  C17_23 
REMARK    9  A    between atoms: C17_23  and  O5_25 
ROOT
HETATM    1  C1  UNL     1       0.504  55.608 -24.845  1.00  0.00     0.015 C 
HETATM    2  C2  UNL     1       0.283  54.585 -25.438  1.00  0.00    -0.078 C 
HETATM    3  C3  UNL     1       0.028  53.341 -26.186  1.00  0.00     0.128 C 
HETATM    4  C4  UNL     1      -1.006  53.553 -27.305  1.00  0.00     0.052 C 
HETATM    5  C5  UNL     1      -1.735  52.208 -27.468  1.00  0.00     0.010 C 
HETATM    6  C6  UNL     1      -1.133  51.247 -26.423  1.00  0.00     0.002 C 
HETATM    7  C7  UNL     1      -2.077  50.140 -25.906  1.00  0.00    -0.004 C 
HETATM    8  C8  UNL     1      -2.665  49.327 -27.068  1.00  0.00     0.010 C 
HETATM    9  C9  UNL     1      -3.484  48.151 -26.554  1.00  0.00     0.035 C 
HETATM   10  C10 UNL     1      -4.575  48.586 -25.604  1.00  0.00    -0.069 C 
HETATM   11  C11 UNL     1      -5.815  48.083 -25.749  1.00  0.00     0.030 C 
HETATM   12  C12 UNL     1      -6.892  48.339 -24.755  1.00  0.00     0.032 C 
HETATM   13  N1  UNL     1      -8.014  47.689 -24.893  1.00  0.00    -0.271 N 
ATOM     14  H1  UNL     1      -8.214  47.041 -25.654  1.00  0.00     0.194 HD
HETATM   15  C25 UNL     1      -6.589  49.260 -23.592  1.00  0.00     0.060 C 
HETATM   16  C26 UNL     1      -5.450  50.221 -23.905  1.00  0.00     0.020 C 
HETATM   17  C27 UNL     1      -4.174  49.534 -24.467  1.00  0.00    -0.016 C 
HETATM   18  C28 UNL     1      -3.512  48.682 -23.359  1.00  0.00     0.020 C 
HETATM   19  C29 UNL     1      -3.208  50.675 -24.996  1.00  0.00     0.002 C 
HETATM   20  C30 UNL     1      -2.607  51.542 -23.868  1.00  0.00     0.007 C 
HETATM   21  C31 UNL     1      -1.727  52.673 -24.404  1.00  0.00     0.014 C 
HETATM   22  C32 UNL     1      -0.575  52.187 -25.322  1.00  0.00     0.003 C 
HETATM   23  C33 UNL     1       0.502  51.474 -24.483  1.00  0.00     0.020 C 
ENDROOT
BRANCH   3  24
HETATM   24  O1  UNL     1       1.266  52.942 -26.778  1.00  0.00    -0.377 OA
HETATM   25  H2  UNL     1       1.077  52.336 -27.512  1.00  0.00     0.211 HD
ENDBRANCH   3  24
BRANCH  13  26
HETATM   26  O2  UNL     1      -8.912  48.000 -23.857  1.00  0.00    -0.271 OA
BRANCH  26  27
HETATM   27  C13 UNL     1      -9.661  46.843 -23.506  1.00  0.00     0.303 C 
BRANCH  27  28
HETATM   28  C14 UNL     1     -11.074  46.965 -24.050  1.00  0.00     0.244 C 
HETATM   29  O3  UNL     1     -11.343  47.639 -25.042  1.00  0.00    -0.271 OA
HETATM   30  N2  UNL     1     -12.030  46.323 -23.283  1.00  0.00    -0.354 N 
HETATM   31  H16 UNL     1     -11.699  45.825 -22.461  1.00  0.00     0.162 HD
BRANCH  30  32
HETATM   32  C15 UNL     1     -13.466  46.509 -23.495  1.00  0.00     0.098 C 
BRANCH  32  33
HETATM   33  C16 UNL     1     -13.991  45.510 -24.537  1.00  0.00     0.135 C 
BRANCH  33  34
HETATM   34  C17 UNL     1     -14.601  46.216 -25.713  1.00  0.00     0.141 C 
HETATM   35  O4  UNL     1     -14.026  46.977 -26.474  1.00  0.00    -0.650 OA
BRANCH  34  36
HETATM   36  O5  UNL     1     -15.896  45.897 -25.903  1.00  0.00    -0.776 OA
HETATM   37  H20 UNL     1     -16.162  46.438 -26.676  1.00  0.00     0.167 HD
ENDBRANCH  34  36
ENDBRANCH  33  34
ENDBRANCH  32  33
BRANCH  32  38
HETATM   38  C18 UNL     1     -14.274  46.408 -22.165  1.00  0.00     0.014 C 
HETATM   39  C19 UNL     1     -15.796  46.434 -22.398  1.00  0.00     0.033 C 
HETATM   40  C20 UNL     1     -16.560  46.343 -21.088  1.00  0.00     0.169 C 
HETATM   41  O6  UNL     1     -16.176  47.390 -20.201  1.00  0.00    -0.381 OA
HETATM   42  C21 UNL     1     -14.782  47.413 -19.856  1.00  0.00     0.054 C 
HETATM   43  C22 UNL     1     -14.576  48.695 -19.035  1.00  0.00     0.045 C 
HETATM   44  C23 UNL     1     -14.424  46.210 -18.967  1.00  0.00     0.045 C 
HETATM   45  C24 UNL     1     -13.906  47.484 -21.127  1.00  0.00     0.044 C 
ENDBRANCH  32  38
ENDBRANCH  30  32
ENDBRANCH  27  28
ENDBRANCH  26  27
ENDBRANCH  13  26
TORSDOF 9
ENDMDL
MODEL 6
REMARK minimizedAffinity -8.66375256
REMARK CNNscore 0.238533199
REMARK CNNaffinity 6.06571627
REMARK  9 active torsions:
REMARK  status: ('A' for Active; 'I' for Inactive)
REMARK    1  A    between atoms: C3_3  and  O1_4 
REMARK    2  A    between atoms: N1_14  and  O2_16 
REMARK    3  A    between atoms: O2_16  and  C13_17 
REMARK    4  A    between atoms: C13_17  and  C14_18 
REMARK       I    between atoms: C14_18  and  N2_20 
REMARK    5  A    between atoms: N2_20  and  C15_21 
REMARK    6  A    between atoms: C15_21  and  C16_22 
REMARK    7  A    between atoms: C15_21  and  C18_26 
REMARK    8  A    between atoms: C16_22  and  C17_23 
REMARK    9  A    between atoms: C17_23  and  O5_25 
ROOT
HETATM    1  C1  UNL     1      -0.025  53.412 -19.275  1.00  0.00     0.015 C 
HETATM    2  C2  UNL     1      -0.065  52.757 -20.282  1.00  0.00    -0.078 C 
HETATM    3  C3  UNL     1      -0.090  51.965 -21.525  1.00  0.00     0.128 C 
HETATM    4  C4  UNL     1      -0.535  52.812 -22.729  1.00  0.00     0.052 C 
HETATM    5  C5  UNL     1      -1.244  51.841 -23.690  1.00  0.00     0.010 C 
HETATM    6  C6  UNL     1      -1.223  50.454 -23.017  1.00  0.00     0.002 C 
HETATM    7  C7  UNL     1      -2.390  49.512 -23.383  1.00  0.00    -0.004 C 
HETATM    8  C8  UNL     1      -2.504  49.339 -24.904  1.00  0.00     0.010 C 
HETATM    9  C9  UNL     1      -3.562  48.304 -25.259  1.00  0.00     0.035 C 
HETATM   10  C10 UNL     1      -4.909  48.634 -24.659  1.00  0.00    -0.069 C 
HETATM   11  C11 UNL     1      -6.012  48.544 -25.425  1.00  0.00     0.030 C 
HETATM   12  C12 UNL     1      -7.379  48.694 -24.860  1.00  0.00     0.032 C 
HETATM   13  N1  UNL     1      -8.392  48.440 -25.641  1.00  0.00    -0.271 N 
ATOM     14  H1  UNL     1      -8.310  48.175 -26.622  1.00  0.00     0.194 HD
HETATM   15  C25 UNL     1      -7.514  49.036 -23.390  1.00  0.00     0.060 C 
HETATM   16  C26 UNL     1      -6.269  49.726 -22.848  1.00  0.00     0.020 C 
HETATM   17  C27 UNL     1      -4.940  48.985 -23.167  1.00  0.00    -0.016 C 
HETATM   18  C28 UNL     1      -4.883  47.659 -22.372  1.00  0.00     0.020 C 
HETATM   19  C29 UNL     1      -3.747  49.957 -22.788  1.00  0.00     0.002 C 
HETATM   20  C30 UNL     1      -3.601  50.187 -21.268  1.00  0.00     0.007 C 
HETATM   21  C31 UNL     1      -2.482  51.174 -20.929  1.00  0.00     0.014 C 
HETATM   22  C32 UNL     1      -1.098  50.771 -21.503  1.00  0.00     0.003 C 
HETATM   23  C33 UNL     1      -0.540  49.561 -20.731  1.00  0.00     0.020 C 
ENDROOT
BRANCH   3  24
HETATM   24  O1  UNL     1       1.242  51.503 -21.759  1.00  0.00    -0.377 OA
HETATM   25  H2  UNL     1       1.326  51.265 -22.696  1.00  0.00     0.211 HD
ENDBRANCH   3  24
BRANCH  13  26
HETATM   26  O2  UNL     1      -9.612  48.579 -24.954  1.00  0.00    -0.271 OA
BRANCH  26  27
HETATM   27  C13 UNL     1     -10.682  48.141 -25.782  1.00  0.00     0.303 C 
BRANCH  27  28
HETATM   28  C14 UNL     1     -11.261  46.851 -25.227  1.00  0.00     0.244 C 
HETATM   29  O3  UNL     1     -10.558  45.969 -24.737  1.00  0.00    -0.271 OA
HETATM   30  N2  UNL     1     -12.628  46.726 -25.401  1.00  0.00    -0.354 N 
HETATM   31  H16 UNL     1     -13.105  47.502 -25.853  1.00  0.00     0.162 HD
BRANCH  30  32
HETATM   32  C15 UNL     1     -13.343  45.474 -25.155  1.00  0.00     0.098 C 
BRANCH  32  33
HETATM   33  C16 UNL     1     -14.379  45.656 -24.035  1.00  0.00     0.135 C 
BRANCH  33  34
HETATM   34  C17 UNL     1     -14.344  47.050 -23.478  1.00  0.00     0.141 C 
HETATM   35  O4  UNL     1     -13.571  47.469 -22.632  1.00  0.00    -0.650 OA
BRANCH  34  36
HETATM   36  O5  UNL     1     -15.255  47.864 -24.046  1.00  0.00    -0.776 OA
HETATM   37  H20 UNL     1     -15.132  48.718 -23.579  1.00  0.00     0.167 HD
ENDBRANCH  34  36
ENDBRANCH  33  34
ENDBRANCH  32  33
BRANCH  32  38
HETATM   38  C18 UNL     1     -14.009  44.913 -26.448  1.00  0.00     0.014 C 
HETATM   39  C19 UNL     1     -13.817  45.843 -27.659  1.00  0.00     0.033 C 
HETATM   40  C20 UNL     1     -14.482  45.279 -28.905  1.00  0.00     0.169 C 
HETATM   41  O6  UNL     1     -15.868  45.039 -28.677  1.00  0.00    -0.381 OA
HETATM   42  C21 UNL     1     -16.159  44.122 -27.611  1.00  0.00     0.054 C 
HETATM   43  C22 UNL     1     -17.686  44.142 -27.448  1.00  0.00     0.045 C 
HETATM   44  C23 UNL     1     -15.735  42.694 -27.993  1.00  0.00     0.045 C 
HETATM   45  C24 UNL     1     -15.507  44.594 -26.291  1.00  0.00     0.044 C 
ENDBRANCH  32  38
ENDBRANCH  30  32
ENDBRANCH  27  28
ENDBRANCH  26  27
ENDBRANCH  13  26
TORSDOF 9
ENDMDL
MODEL 7
REMARK minimizedAffinity -9.85852051
REMARK CNNscore 0.222728133
REMARK CNNaffinity 6.74978685
REMARK  9 active torsions:
REMARK  status: ('A' for Active; 'I' for Inactive)
REMARK    1  A    between atoms: C3_3  and  O1_4 
REMARK    2  A    between atoms: N1_14  and  O2_16 
REMARK    3  A    between atoms: O2_16  and  C13_17 
REMARK    4  A    between atoms: C13_17  and  C14_18 
REMARK       I    between atoms: C14_18  and  N2_20 
REMARK    5  A    between atoms: N2_20  and  C15_21 
REMARK    6  A    between atoms: C15_21  and  C16_22 
REMARK    7  A    between atoms: C15_21  and  C18_26 
REMARK    8  A    between atoms: C16_22  and  C17_23 
REMARK    9  A    between atoms: C17_23  and  O5_25 
ROOT
HETATM    1  C1  UNL     1      -2.416  49.319 -26.824  1.00  0.00     0.015 C 
HETATM    2  C2  UNL     1      -1.895  50.231 -26.238  1.00  0.00    -0.078 C 
HETATM    3  C3  UNL     1      -1.245  51.357 -25.544  1.00  0.00     0.128 C 
HETATM    4  C4  UNL     1       0.268  51.129 -25.385  1.00  0.00     0.052 C 
HETATM    5  C5  UNL     1       0.673  51.858 -24.091  1.00  0.00     0.010 C 
HETATM    6  C6  UNL     1      -0.615  52.472 -23.506  1.00  0.00     0.002 C 
HETATM    7  C7  UNL     1      -0.644  52.636 -21.971  1.00  0.00    -0.004 C 
HETATM    8  C8  UNL     1       0.571  53.433 -21.478  1.00  0.00     0.010 C 
HETATM    9  C9  UNL     1       0.471  53.714 -19.985  1.00  0.00     0.035 C 
HETATM   10  C10 UNL     1       0.300  52.450 -19.175  1.00  0.00    -0.069 C 
HETATM   11  C11 UNL     1       1.041  52.272 -18.066  1.00  0.00     0.030 C 
HETATM   12  C12 UNL     1       0.808  51.135 -17.136  1.00  0.00     0.032 C 
HETATM   13  N1  UNL     1       1.466  51.125 -16.010  1.00  0.00    -0.271 N 
ATOM     14  H1  UNL     1       2.152  51.829 -15.738  1.00  0.00     0.194 HD
HETATM   15  C25 UNL     1      -0.246  50.112 -17.505  1.00  0.00     0.060 C 
HETATM   16  C26 UNL     1      -0.506  50.074 -19.005  1.00  0.00     0.020 C 
HETATM   17  C27 UNL     1      -0.782  51.467 -19.638  1.00  0.00    -0.016 C 
HETATM   18  C28 UNL     1      -2.146  52.002 -19.140  1.00  0.00     0.020 C 
HETATM   19  C29 UNL     1      -0.752  51.292 -21.214  1.00  0.00     0.002 C 
HETATM   20  C30 UNL     1      -1.941  50.475 -21.764  1.00  0.00     0.007 C 
HETATM   21  C31 UNL     1      -1.860  50.268 -23.277  1.00  0.00     0.014 C 
HETATM   22  C32 UNL     1      -1.752  51.588 -24.084  1.00  0.00     0.003 C 
HETATM   23  C33 UNL     1      -3.099  52.334 -24.055  1.00  0.00     0.020 C 
ENDROOT
BRANCH   3  24
HETATM   24  O1  UNL     1      -1.449  52.522 -26.345  1.00  0.00    -0.377 OA
HETATM   25  H2  UNL     1      -0.787  53.188 -26.098  1.00  0.00     0.211 HD
ENDBRANCH   3  24
BRANCH  13  26
HETATM   26  O2  UNL     1       1.107  50.017 -15.221  1.00  0.00    -0.271 OA
BRANCH  26  27
HETATM   27  C13 UNL     1       0.148  50.412 -14.247  1.00  0.00     0.303 C 
BRANCH  27  28
HETATM   28  C14 UNL     1       0.725  50.218 -12.855  1.00  0.00     0.244 C 
HETATM   29  O3  UNL     1       0.234  49.440 -12.040  1.00  0.00    -0.271 OA
HETATM   30  N2  UNL     1       1.791  51.052 -12.566  1.00  0.00    -0.354 N 
HETATM   31  H16 UNL     1       2.092  51.684 -13.304  1.00  0.00     0.162 HD
BRANCH  30  32
HETATM   32  C15 UNL     1       2.338  51.193 -11.217  1.00  0.00     0.098 C 
BRANCH  32  33
HETATM   33  C16 UNL     1       3.824  50.804 -11.194  1.00  0.00     0.135 C 
BRANCH  33  34
HETATM   34  C17 UNL     1       4.086  49.591 -12.039  1.00  0.00     0.141 C 
HETATM   35  O4  UNL     1       3.678  48.461 -11.824  1.00  0.00    -0.650 OA
BRANCH  34  36
HETATM   36  O5  UNL     1       4.811  49.866 -13.140  1.00  0.00    -0.776 OA
HETATM   37  H20 UNL     1       4.919  48.994 -13.576  1.00  0.00     0.167 HD
ENDBRANCH  34  36
ENDBRANCH  33  34
ENDBRANCH  32  33
BRANCH  32  38
HETATM   38  C18 UNL     1       2.126  52.628 -10.643  1.00  0.00     0.014 C 
HETATM   39  C19 UNL     1       0.814  53.267 -11.132  1.00  0.00     0.033 C 
HETATM   40  C20 UNL     1       0.634  54.667 -10.565  1.00  0.00     0.169 C 
HETATM   41  O6  UNL     1       1.745  55.496 -10.896  1.00  0.00    -0.381 OA
HETATM   42  C21 UNL     1       3.016  55.027 -10.421  1.00  0.00     0.054 C 
HETATM   43  C22 UNL     1       4.063  55.977 -11.021  1.00  0.00     0.045 C 
HETATM   44  C23 UNL     1       3.094  55.132  -8.888  1.00  0.00     0.045 C 
HETATM   45  C24 UNL     1       3.292  53.592 -10.925  1.00  0.00     0.044 C 
ENDBRANCH  32  38
ENDBRANCH  30  32
ENDBRANCH  27  28
ENDBRANCH  26  27
ENDBRANCH  13  26
TORSDOF 9
ENDMDL
MODEL 8
REMARK minimizedAffinity -8.59242821
REMARK CNNscore 0.219721735
REMARK CNNaffinity 5.50702524
REMARK  9 active torsions:
REMARK  status: ('A' for Active; 'I' for Inactive)
REMARK    1  A    between atoms: C3_3  and  O1_4 
REMARK    2  A    between atoms: N1_14  and  O2_16 
REMARK    3  A    between atoms: O2_16  and  C13_17 
REMARK    4  A    between atoms: C13_17  and  C14_18 
REMARK       I    between atoms: C14_18  and  N2_20 
REMARK    5  A    between atoms: N2_20  and  C15_21 
REMARK    6  A    between atoms: C15_21  and  C16_22 
REMARK    7  A    between atoms: C15_21  and  C18_26 
REMARK    8  A    between atoms: C16_22  and  C17_23 
REMARK    9  A    between atoms: C17_23  and  O5_25 
ROOT
HETATM    1  C1  UNL     1      -7.112  73.022 -41.467  1.00  0.00     0.015 C 
HETATM    2  C2  UNL     1      -6.339  72.252 -41.972  1.00  0.00    -0.078 C 
HETATM    3  C3  UNL     1      -5.409  71.304 -42.612  1.00  0.00     0.128 C 
HETATM    4  C4  UNL     1      -5.833  69.845 -42.374  1.00  0.00     0.052 C 
HETATM    5  C5  UNL     1      -4.532  69.023 -42.362  1.00  0.00     0.010 C 
HETATM    6  C6  UNL     1      -3.374  70.020 -42.566  1.00  0.00     0.002 C 
HETATM    7  C7  UNL     1      -2.024  69.619 -41.934  1.00  0.00    -0.004 C 
HETATM    8  C8  UNL     1      -1.585  68.225 -42.404  1.00  0.00     0.010 C 
HETATM    9  C9  UNL     1      -0.192  67.889 -41.893  1.00  0.00     0.035 C 
HETATM   10  C10 UNL     1      -0.093  67.998 -40.389  1.00  0.00    -0.069 C 
HETATM   11  C11 UNL     1       0.516  67.017 -39.696  1.00  0.00     0.030 C 
HETATM   12  C12 UNL     1       0.793  67.137 -38.240  1.00  0.00     0.032 C 
HETATM   13  N1  UNL     1       1.521  66.210 -37.681  1.00  0.00    -0.271 N 
ATOM     14  H1  UNL     1       1.886  65.393 -38.169  1.00  0.00     0.194 HD
HETATM   15  C25 UNL     1       0.299  68.371 -37.515  1.00  0.00     0.060 C 
HETATM   16  C26 UNL     1      -0.876  69.023 -38.231  1.00  0.00     0.020 C 
HETATM   17  C27 UNL     1      -0.636  69.279 -39.746  1.00  0.00    -0.016 C 
HETATM   18  C28 UNL     1       0.434  70.382 -39.922  1.00  0.00     0.020 C 
HETATM   19  C29 UNL     1      -2.025  69.691 -40.388  1.00  0.00     0.002 C 
HETATM   20  C30 UNL     1      -2.528  71.077 -39.929  1.00  0.00     0.007 C 
HETATM   21  C31 UNL     1      -3.897  71.428 -40.514  1.00  0.00     0.014 C 
HETATM   22  C32 UNL     1      -3.947  71.372 -42.063  1.00  0.00     0.003 C 
HETATM   23  C33 UNL     1      -3.165  72.557 -42.659  1.00  0.00     0.020 C 
ENDROOT
BRANCH   3  24
HETATM   24  O1  UNL     1      -5.439  71.565 -44.017  1.00  0.00    -0.377 OA
HETATM   25  H2  UNL     1      -5.105  70.783 -44.484  1.00  0.00     0.211 HD
ENDBRANCH   3  24
BRANCH  13  26
HETATM   26  O2  UNL     1       1.735  66.484 -36.318  1.00  0.00    -0.271 OA
BRANCH  26  27
HETATM   27  C13 UNL     1       2.639  65.532 -35.773  1.00  0.00     0.303 C 
BRANCH  27  28
HETATM   28  C14 UNL     1       4.063  66.041 -35.913  1.00  0.00     0.244 C 
HETATM   29  O3  UNL     1       4.410  66.784 -36.829  1.00  0.00    -0.271 OA
HETATM   30  N2  UNL     1       4.940  65.528 -34.974  1.00  0.00    -0.354 N 
HETATM   31  H16 UNL     1       4.551  64.891 -34.283  1.00  0.00     0.162 HD
BRANCH  30  32
HETATM   32  C15 UNL     1       6.390  65.702 -35.071  1.00  0.00     0.098 C 
BRANCH  32  33
HETATM   33  C16 UNL     1       6.887  66.687 -34.001  1.00  0.00     0.135 C 
BRANCH  33  34
HETATM   34  C17 UNL     1       6.376  66.319 -32.638  1.00  0.00     0.141 C 
HETATM   35  O4  UNL     1       5.240  65.962 -32.367  1.00  0.00    -0.650 OA
BRANCH  34  36
HETATM   36  O5  UNL     1       7.329  66.374 -31.688  1.00  0.00    -0.776 OA
HETATM   37  H20 UNL     1       6.855  66.134 -30.864  1.00  0.00     0.167 HD
ENDBRANCH  34  36
ENDBRANCH  33  34
ENDBRANCH  32  33
BRANCH  32  38
HETATM   38  C18 UNL     1       7.153  64.345 -34.980  1.00  0.00     0.014 C 
HETATM   39  C19 UNL     1       6.304  63.236 -34.332  1.00  0.00     0.033 C 
HETATM   40  C20 UNL     1       7.072  61.927 -34.249  1.00  0.00     0.169 C 
HETATM   41  O6  UNL     1       8.295  62.099 -33.536  1.00  0.00    -0.381 OA
HETATM   42  C21 UNL     1       9.197  63.063 -34.100  1.00  0.00     0.054 C 
HETATM   43  C22 UNL     1      10.351  63.192 -33.095  1.00  0.00     0.045 C 
HETATM   44  C23 UNL     1       9.773  62.551 -35.431  1.00  0.00     0.045 C 
HETATM   45  C24 UNL     1       8.505  64.437 -34.250  1.00  0.00     0.044 C 
ENDBRANCH  32  38
ENDBRANCH  30  32
ENDBRANCH  27  28
ENDBRANCH  26  27
ENDBRANCH  13  26
TORSDOF 9
ENDMDL
MODEL 9
REMARK minimizedAffinity -8.3642931
REMARK CNNscore 0.190937519
REMARK CNNaffinity 5.81957769
REMARK  9 active torsions:
REMARK  status: ('A' for Active; 'I' for Inactive)
REMARK    1  A    between atoms: C3_3  and  O1_4 
REMARK    2  A    between atoms: N1_14  and  O2_16 
REMARK    3  A    between atoms: O2_16  and  C13_17 
REMARK    4  A    between atoms: C13_17  and  C14_18 
REMARK       I    between atoms: C14_18  and  N2_20 
REMARK    5  A    between atoms: N2_20  and  C15_21 
REMARK    6  A    between atoms: C15_21  and  C16_22 
REMARK    7  A    between atoms: C15_21  and  C18_26 
REMARK    8  A    between atoms: C16_22  and  C17_23 
REMARK    9  A    between atoms: C17_23  and  O5_25 
ROOT
HETATM    1  C1  UNL     1       0.283  53.393 -19.899  1.00  0.00     0.015 C 
HETATM    2  C2  UNL     1      -0.126  52.276 -19.728  1.00  0.00    -0.078 C 
HETATM    3  C3  UNL     1      -0.602  50.898 -19.510  1.00  0.00     0.128 C 
HETATM    4  C4  UNL     1      -0.144  49.955 -20.635  1.00  0.00     0.052 C 
HETATM    5  C5  UNL     1      -1.234  48.875 -20.753  1.00  0.00     0.010 C 
HETATM    6  C6  UNL     1      -2.320  49.225 -19.715  1.00  0.00     0.002 C 
HETATM    7  C7  UNL     1      -3.754  48.772 -20.064  1.00  0.00    -0.004 C 
HETATM    8  C8  UNL     1      -3.801  47.267 -20.364  1.00  0.00     0.010 C 
HETATM    9  C9  UNL     1      -5.233  46.795 -20.572  1.00  0.00     0.035 C 
HETATM   10  C10 UNL     1      -5.941  47.575 -21.655  1.00  0.00    -0.069 C 
HETATM   11  C11 UNL     1      -6.659  46.914 -22.582  1.00  0.00     0.030 C 
HETATM   12  C12 UNL     1      -7.511  47.623 -23.573  1.00  0.00     0.032 C 
HETATM   13  N1  UNL     1      -8.289  46.903 -24.332  1.00  0.00    -0.271 N 
ATOM     14  H1  UNL     1      -8.329  45.885 -24.313  1.00  0.00     0.194 HD
HETATM   15  C25 UNL     1      -7.497  49.138 -23.576  1.00  0.00     0.060 C 
HETATM   16  C26 UNL     1      -6.218  49.700 -22.972  1.00  0.00     0.020 C 
HETATM   17  C27 UNL     1      -5.855  49.105 -21.582  1.00  0.00    -0.016 C 
HETATM   18  C28 UNL     1      -6.884  49.582 -20.530  1.00  0.00     0.020 C 
HETATM   19  C29 UNL     1      -4.383  49.574 -21.228  1.00  0.00     0.002 C 
HETATM   20  C30 UNL     1      -4.272  51.087 -20.941  1.00  0.00     0.007 C 
HETATM   21  C31 UNL     1      -2.834  51.527 -20.661  1.00  0.00     0.014 C 
HETATM   22  C32 UNL     1      -2.158  50.753 -19.500  1.00  0.00     0.003 C 
HETATM   23  C33 UNL     1      -2.767  51.187 -18.154  1.00  0.00     0.020 C 
ENDROOT
BRANCH   3  24
HETATM   24  O1  UNL     1      -0.040  50.446 -18.277  1.00  0.00    -0.377 OA
HETATM   25  H2  UNL     1      -0.064  49.476 -18.263  1.00  0.00     0.211 HD
ENDBRANCH   3  24
BRANCH  13  26
HETATM   26  O2  UNL     1      -9.063  47.714 -25.182  1.00  0.00    -0.271 OA
BRANCH  26  27
HETATM   27  C13 UNL     1      -8.484  47.742 -26.480  1.00  0.00     0.303 C 
BRANCH  27  28
HETATM   28  C14 UNL     1      -9.163  46.709 -27.363  1.00  0.00     0.244 C 
HETATM   29  O3  UNL     1      -8.529  45.915 -28.056  1.00  0.00    -0.271 OA
HETATM   30  N2  UNL     1     -10.543  46.801 -27.379  1.00  0.00    -0.354 N 
HETATM   31  H16 UNL     1     -10.961  47.520 -26.795  1.00  0.00     0.162 HD
BRANCH  30  32
HETATM   32  C15 UNL     1     -11.372  46.063 -28.334  1.00  0.00     0.098 C 
BRANCH  32  33
HETATM   33  C16 UNL     1     -12.773  46.687 -28.426  1.00  0.00     0.135 C 
BRANCH  33  34
HETATM   34  C17 UNL     1     -12.987  47.714 -27.352  1.00  0.00     0.141 C 
HETATM   35  O4  UNL     1     -13.436  47.507 -26.236  1.00  0.00    -0.650 OA
BRANCH  34  36
HETATM   36  O5  UNL     1     -12.583  48.946 -27.717  1.00  0.00    -0.776 OA
HETATM   37  H20 UNL     1     -12.799  49.505 -26.940  1.00  0.00     0.167 HD
ENDBRANCH  34  36
ENDBRANCH  33  34
ENDBRANCH  32  33
BRANCH  32  38
HETATM   38  C18 UNL     1     -10.706  45.970 -29.741  1.00  0.00     0.014 C 
HETATM   39  C19 UNL     1     -10.921  47.244 -30.578  1.00  0.00     0.033 C 
HETATM   40  C20 UNL     1     -10.270  47.125 -31.947  1.00  0.00     0.169 C 
HETATM   41  O6  UNL     1     -10.759  45.983 -32.645  1.00  0.00    -0.381 OA
HETATM   42  C21 UNL     1     -10.542  44.728 -31.983  1.00  0.00     0.054 C 
HETATM   43  C22 UNL     1     -11.279  43.677 -32.827  1.00  0.00     0.045 C 
HETATM   44  C23 UNL     1      -9.046  44.372 -31.972  1.00  0.00     0.045 C 
HETATM   45  C24 UNL     1     -11.151  44.746 -30.562  1.00  0.00     0.044 C 
ENDBRANCH  32  38
ENDBRANCH  30  32
ENDBRANCH  27  28
ENDBRANCH  26  27
ENDBRANCH  13  26
TORSDOF 9
ENDMDL
